AV-unprocessed.smi:1389|AV-procd|sdf|5649|dock8
  -GOLD-   22720 5273D 1   1.00000     0.00000
 Structure written by MMmdl.
 52 54  0  0  0  0  0  0  0  0  2 V2000
  148.8495  133.1848  153.4897 C   0  0  0  0  0  0  0  0  0  0  0  0
  148.7311  131.8042  154.1803 C   0  0  1  0  0  0  0  0  0  0  0  0
  147.8629  131.9185  155.4621 C   0  0  0  0  0  0  0  0  0  0  0  0
  148.3280  132.9685  156.3617 N   0  0  0  0  0  0  0  0  0  0  0  0
  147.8024  133.2139  157.5686 C   0  0  0  0  0  0  0  0  0  0  0  0
  146.8713  132.5655  158.0462 O   0  0  0  0  0  0  0  0  0  0  0  0
  148.4324  134.2326  158.1774 N   0  0  0  0  0  0  0  0  0  0  0  0
  148.1972  134.7536  159.4812 C   0  0  0  0  0  0  0  0  0  0  0  0
  147.6018  133.9642  160.4954 C   0  0  0  0  0  0  0  0  0  0  0  0
  147.3258  134.5409  161.7468 C   0  0  0  0  0  0  0  0  0  0  0  0
  147.6406  135.8963  161.9373 C   0  0  0  0  0  0  0  0  0  0  0  0
  148.1932  136.6655  160.9782 N   0  0  0  0  0  0  0  0  0  0  0  0
  148.4787  136.1204  159.7698 C   0  0  0  0  0  0  0  0  0  0  0  0
  149.0697  136.9740  158.8095 N   0  0  0  0  0  0  0  0  0  0  0  0
  150.4326  137.4417  159.0463 C   0  0  0  0  0  0  0  0  0  0  0  0
  150.4957  138.8800  158.5212 C   0  0  0  0  0  0  0  0  0  0  0  0
  149.3293  138.9576  157.5414 C   0  0  0  0  0  0  0  0  0  0  0  0
  148.2944  138.0474  158.1963 C   0  0  0  0  0  0  0  0  0  0  0  0
  148.2206  130.7666  153.2220 N   0  3  0  0  0  0  0  0  0  0  0  0
  148.4338  129.3720  153.7013 C   0  0  0  0  0  0  0  0  0  0  0  0
  147.9344  128.3412  152.6757 C   0  0  0  0  0  0  0  0  0  0  0  0
  146.5597  128.5651  152.4075 O   0  0  0  0  0  0  0  0  0  0  0  0
  146.3511  129.8451  151.8327 C   0  0  0  0  0  0  0  0  0  0  0  0
  146.7972  130.9411  152.8162 C   0  0  0  0  0  0  0  0  0  0  0  0
  149.1626  133.9670  154.1807 H   0  0  0  0  0  0  0  0  0  0  0  0
  147.8958  133.4931  153.0603 H   0  0  0  0  0  0  0  0  0  0  0  0
  149.5944  133.1923  152.6959 H   0  0  0  0  0  0  0  0  0  0  0  0
  149.7302  131.4967  154.4942 H   0  0  0  0  0  0  0  0  0  0  0  0
  146.8211  132.1021  155.1925 H   0  0  0  0  0  0  0  0  0  0  0  0
  147.8940  130.9962  156.0421 H   0  0  0  0  0  0  0  0  0  0  0  0
  149.0956  133.5433  156.0454 H   0  0  0  0  0  0  0  0  0  0  0  0
  149.2408  134.6075  157.7027 H   0  0  0  0  0  0  0  0  0  0  0  0
  147.3307  132.9331  160.3267 H   0  0  0  0  0  0  0  0  0  0  0  0
  146.8718  133.9611  162.5368 H   0  0  0  0  0  0  0  0  0  0  0  0
  147.4377  136.3783  162.8821 H   0  0  0  0  0  0  0  0  0  0  0  0
  150.7087  137.3898  160.1004 H   0  0  0  0  0  0  0  0  0  0  0  0
  151.1219  136.8123  158.4834 H   0  0  0  0  0  0  0  0  0  0  0  0
  150.3298  139.5779  159.3428 H   0  0  0  0  0  0  0  0  0  0  0  0
  151.4550  139.1222  158.0633 H   0  0  0  0  0  0  0  0  0  0  0  0
  148.9653  139.9738  157.3869 H   0  0  0  0  0  0  0  0  0  0  0  0
  149.6268  138.5506  156.5741 H   0  0  0  0  0  0  0  0  0  0  0  0
  147.5792  137.6582  157.4712 H   0  0  0  0  0  0  0  0  0  0  0  0
  147.7457  138.6096  158.9532 H   0  0  0  0  0  0  0  0  0  0  0  0
  149.4885  129.1714  153.8772 H   0  0  0  0  0  0  0  0  0  0  0  0
  147.9168  129.2292  154.6515 H   0  0  0  0  0  0  0  0  0  0  0  0
  148.5155  128.3932  151.7534 H   0  0  0  0  0  0  0  0  0  0  0  0
  148.0553  127.3320  153.0700 H   0  0  0  0  0  0  0  0  0  0  0  0
  146.8902  129.9264  150.8872 H   0  0  0  0  0  0  0  0  0  0  0  0
  145.2914  129.9581  151.6027 H   0  0  0  0  0  0  0  0  0  0  0  0
  146.1601  130.9319  153.7019 H   0  0  0  0  0  0  0  0  0  0  0  0
  146.6480  131.8954  152.3136 H   0  0  0  0  0  0  0  0  0  0  0  0
  148.7643  130.8682  152.3767 H   0  0  0  0  0  0  0  0  0  0  0  0
  1  2  1  0  0  0  0
  1 25  1  0  0  0  0
  1 26  1  0  0  0  0
  1 27  1  0  0  0  0
  2  3  1  0  0  0  0
  2 19  1  0  0  0  0
  2 28  1  0  0  0  0
  3  4  1  0  0  0  0
  3 29  1  0  0  0  0
  3 30  1  0  0  0  0
  4  5  1  0  0  0  0
  4 31  1  0  0  0  0
  5  6  2  0  0  0  0
  5  7  1  0  0  0  0
  7  8  1  0  0  0  0
  7 32  1  0  0  0  0
  8 13  1  0  0  0  0
  8  9  2  0  0  0  0
  9 10  1  0  0  0  0
  9 33  1  0  0  0  0
 10 11  2  0  0  0  0
 10 34  1  0  0  0  0
 11 12  1  0  0  0  0
 11 35  1  0  0  0  0
 12 13  2  0  0  0  0
 13 14  1  0  0  0  0
 14 18  1  0  0  0  0
 14 15  1  0  0  0  0
 15 16  1  0  0  0  0
 15 36  1  0  0  0  0
 15 37  1  0  0  0  0
 16 17  1  0  0  0  0
 16 38  1  0  0  0  0
 16 39  1  0  0  0  0
 17 18  1  0  0  0  0
 17 40  1  0  0  0  0
 17 41  1  0  0  0  0
 18 42  1  0  0  0  0
 18 43  1  0  0  0  0
 19 24  1  0  0  0  0
 19 20  1  0  0  0  0
 19 52  1  0  0  0  0
 20 21  1  0  0  0  0
 20 44  1  0  0  0  0
 20 45  1  0  0  0  0
 21 22  1  0  0  0  0
 21 46  1  0  0  0  0
 21 47  1  0  0  0  0
 22 23  1  0  0  0  0
 23 24  1  0  0  0  0
 23 48  1  0  0  0  0
 23 49  1  0  0  0  0
 24 50  1  0  0  0  0
 24 51  1  0  0  0  0
M  CHG  1  19   1
M  END
> <s_m_source_file>
AV-unprocessed.smi

> <i_m_source_file_index>
1389

> <i_lp_mmshare_version>
43012

> <i_f3d_flags>
0

> <s_epik_input>
W0NIMl0xW0NIMl1PW0NIMl1bQ0gyXU4xW0NASF0oW0NIM10pW0NIMl1bTkhdQyg9TylbTkhdYzJbY0hdW2NIXVtjSF1uYzJOM1tDSDJdW0NIMl1bQ0gyXVtDSDJdMw==

> <s_epik_cmdline>
J2VwaWtfcHl0aG9uJywgJy1waCcsICc3LjAnLCAnLXRuJywgJzgnLCAnLW1hJywgJzIwMCcsICctbWV0YWxfYmluZGluZycsICctaW1hZScsICc8aW5maWxlLm1hZT4nLCAnLW9tYWUnLCAnPG91dGZpbGUubWFlPic=

> <r_lp_tautomer_probability>
1

> <r_epik_Ionization_Penalty>
0.686

> <r_epik_Ionization_Penalty_Charging>
0.602531

> <r_epik_Ionization_Penalty_Neutral>
0.08347

> <r_epik_State_Penalty>
0.679975

> <r_epik_Charging_Adjusted_Penalty>
1.28251

> <i_epik_Tot_Q>
1

> <i_epik_Tot_abs_Q>
1

> <r_epik_Metal_State_Penalty>
0.679055

> <b_epik_Metal_Only>
0

> <s_lp_Force_Field>
OPLS_2005

> <r_lp_Energy>
49.8528

> <b_lp_Chiralities_Consistent>
1

> <s_lp_Variant>
AV-unprocessed.smi:1389-4

> <Gold.Version>
5.8.1

> <Gold.Id.Protein>
6NUR|6NUR_protein|mol2

> <Gold.PLP.Fitness>
38.7813

> <Gold.PLP.PLP>
-33.3114

> <Gold.PLP.part.hbond>
-2.0000

> <Gold.PLP.part.metal>
0.0000

> <Gold.PLP.part.buried>
-5.3327

> <Gold.PLP.part.nonpolar>
-26.1333

> <Gold.PLP.part.repulsive>
0.1857

> <Gold.PLP.ligand.clash>
0.0000

> <Gold.PLP.ligand.torsion>
0.4513

> <Gold.PLP.Chemscore.Hbond>
2.0000

> <Gold.PLP.Chemscore.CHOScore>
0.0000

> <Gold.PLP.Chemscore.Metal>
0.0000

> <Gold.Chemscore.Hbonds>
donor molecule, donor type, donor heavy atom, donor atom, acceptor molecule, acceptor atom, score
      L1  H    19    52       P1 10747  0.86
      P1  H  6931  6943       L1    12  1.00

> <Gold.PLP.Chemscore.Internal.Correction>
0.3725

> <Gold.Rescore>
     Score         DG    S(hbond)    S(metal)    S(lipo)     H(rot)  DE(clash)    DE(int)     intcor
     15.38     -17.14       1.80        0.00      84.03       1.63       0.04       1.72       ----

> <Gold.Chemscore.Fitness>
15.3841

> <Gold.Chemscore.DG>
-17.1398

> <Gold.Chemscore.ZeroCoef>
-5.4800

> <Gold.Chemscore.Hbond>
1.7973

> <Gold.Chemscore.Metal>
0.0000

> <Gold.Chemscore.Lipo>
84.0284

> <Gold.Chemscore.Internal_Hbond>
0.0000

> <Gold.Chemscore.DEClash>
0.0391

> <Gold.Chemscore.DEInternal>
1.7166

> <Gold.Chemscore.Rot>
1.6307

> <Gold.Chemscore.Internal.Correction>
   9.000000E+99

> <Gold.Chemscore.Hbonds>
donor molecule, donor type, donor heavy atom, donor atom, acceptor molecule, acceptor atom, score
      L1  H    19    52       P1 10747  0.57
      P1  H  6931  6943       L1    12  0.56

> <Gold.Chemscore.Hbond.Weighted>
-6.0031

> <Gold.Chemscore.Metal.Weighted>
-0.0000

> <Gold.Chemscore.Lipo.Weighted>
-9.8313

> <Gold.Chemscore.Internal_Hbond.Weighted>
0.0000

> <Gold.Chemscore.DEClash.Weighted>
0.0391

> <Gold.Chemscore.DEInternal.Weighted>
1.7166

> <Gold.Chemscore.Rot.Weighted>
4.1746

> <Gold.Chemscore.Internal.Correction.Weighted>
   9.000000E+99

> <Gold.Protein.RotatedTorsions>
[ 6907 6896 6895 6894 ] final   -2.17 input  -60.11 | X-H torsion
[ 7974 7965 7964 7962 ] final  -81.11 input  175.53 | X-H torsion
[ 8008 7997 7996 7995 ] final -162.33 input   59.86 | X-H torsion
[ 10167 10162 10161 10158 ] final  -75.83 input  -65.29 | X-H torsion
[ 10718 10713 10712 10709 ] final   79.95 input   66.30 | X-H torsion
[ 10763 10752 10751 10750 ] final  172.36 input  -60.55 | X-H torsion
[ 11005 11000 10999 10996 ] final  162.16 input  -57.11 | X-H torsion

> <Gold.Protein.ActiveResidues>
 VAL166  LYS551  ARG553  GLY616  TRP617  ASP618  TYR619  PRO620  LYS621  CYS622 
 ASP623  PHE694  ASN695  SER759  ASP760  ASP761  ALA762  ILE779  LEU786  VAL792 
 PHE793  MET794  SER795  GLU796  ALA797  LYS798  CYS799  TRP800  GLU811  SER814 

> <Gold.Protein.RotatedAtoms>
  151.5342  135.1068  159.9909 H   0  0  0  0  0  0  0  0  0  0  0  0  # atno 6907 bound_to 6896
  152.4565  133.7729  159.6819 H   0  0  0  0  0  0  0  0  0  0  0  0  # atno 6908 bound_to 6896
  150.8510  133.7721  159.3050 H   0  0  0  0  0  0  0  0  0  0  0  0  # atno 6909 bound_to 6896
  145.5510  140.9496  143.1499 H   0  0  0  0  0  0  0  0  0  0  0  0  # atno 7974 bound_to 7965
  155.8052  140.0897  157.1935 H   0  0  0  0  0  0  0  0  0  0  0  0  # atno 8008 bound_to 7997
  154.3981  140.1465  156.3381 H   0  0  0  0  0  0  0  0  0  0  0  0  # atno 8009 bound_to 7997
  155.8422  140.3438  155.5641 H   0  0  0  0  0  0  0  0  0  0  0  0  # atno 8010 bound_to 7997
  140.4909  143.2380  151.7908 H   0  0  0  0  0  0  0  0  0  0  0  0  # atno 10167 bound_to 10162
  157.6792  130.9937  150.2008 H   0  0  0  0  0  0  0  0  0  0  0  0  # atno 10718 bound_to 10713
  154.4249  135.2758  155.1951 H   0  0  0  0  0  0  0  0  0  0  0  0  # atno 10763 bound_to 10752
  154.3881  135.6072  153.5831 H   0  0  0  0  0  0  0  0  0  0  0  0  # atno 10764 bound_to 10752
  152.9834  135.5896  154.4551 H   0  0  0  0  0  0  0  0  0  0  0  0  # atno 10765 bound_to 10752
  140.2229  134.8182  157.3239 H   0  0  0  0  0  0  0  0  0  0  0  0  # atno 11005 bound_to 11000
  144.7529  139.7147  143.7266 LP  0  0  0  0  0  0  0  0  0  0  0  0  # atno 17320 bound_to 7965
  146.1916  139.5160  142.9801 LP  0  0  0  0  0  0  0  0  0  0  0  0  # atno 17321 bound_to 7965
  139.4851  144.4650  151.9494 LP  0  0  0  0  0  0  0  0  0  0  0  0  # atno 17342 bound_to 10162
  140.3737  144.2823  150.5917 LP  0  0  0  0  0  0  0  0  0  0  0  0  # atno 17343 bound_to 10162
  156.2699  130.3720  149.8042 LP  0  0  0  0  0  0  0  0  0  0  0  0  # atno 17370 bound_to 10713
  156.5762  130.8446  151.3370 LP  0  0  0  0  0  0  0  0  0  0  0  0  # atno 17371 bound_to 10713
  140.1830  134.4466  155.7760 LP  0  0  0  0  0  0  0  0  0  0  0  0  # atno 17394 bound_to 11000
  141.2222  133.6992  156.7901 LP  0  0  0  0  0  0  0  0  0  0  0  0  # atno 17395 bound_to 11000

$$$$
