AV-unprocessed.smi:129|AV-procd|sdf|1158|dock1
  -GOLD-   2262018293D 1   1.00000     0.00000
 Structure written by MMmdl.
 58 61  0  0  0  0  0  0  0  0  1 V2000
  151.2394  141.3437  156.4620 C   0  0  0  0  0  0  0  0  0  0  0  0
  151.9095  141.4148  157.7120 O   0  0  0  0  0  0  0  0  0  0  0  0
  151.9165  142.6204  158.3860 C   0  0  0  0  0  0  0  0  0  0  0  0
  151.3876  143.8205  157.8450 C   0  0  0  0  0  0  0  0  0  0  0  0
  151.4210  145.0162  158.5855 C   0  0  0  0  0  0  0  0  0  0  0  0
  151.9749  145.0288  159.8765 C   0  0  0  0  0  0  0  0  0  0  0  0
  152.5027  143.8469  160.4258 C   0  0  0  0  0  0  0  0  0  0  0  0
  152.4893  142.6418  159.6810 C   0  0  0  0  0  0  0  0  0  0  0  0
  152.9918  141.4113  160.1908 N   0  0  0  0  0  0  0  0  0  0  0  0
  153.6823  141.1756  161.3229 C   0  0  0  0  0  0  0  0  0  0  0  0
  153.9620  142.0223  162.1714 O   0  0  0  0  0  0  0  0  0  0  0  0
  154.0697  139.7396  161.5354 C   0  0  0  0  0  0  0  0  0  0  0  0
  153.6672  138.7571  160.6052 C   0  0  0  0  0  0  0  0  0  0  0  0
  154.0029  137.4047  160.8049 C   0  0  0  0  0  0  0  0  0  0  0  0
  154.7456  137.0091  161.9354 C   0  0  0  0  0  0  0  0  0  0  0  0
  155.0244  135.6223  162.0729 N   0  0  0  0  0  0  0  0  0  0  0  0
  154.8335  134.6279  161.1871 C   0  0  0  0  0  0  0  0  0  0  0  0
  154.3169  134.7687  160.0779 O   0  0  0  0  0  0  0  0  0  0  0  0
  155.2702  133.2362  161.6709 C   0  0  0  0  0  0  0  0  0  0  0  0
  154.3525  132.6436  162.6682 N   0  0  0  0  0  0  0  0  0  0  0  0
  154.2957  133.2207  163.9611 C   0  0  0  0  0  0  0  0  0  0  0  0
  154.9858  134.1980  164.2549 O   0  0  0  0  0  0  0  0  0  0  0  0
  153.3815  132.5779  164.8980 C   0  0  0  0  0  0  0  0  0  0  0  0
  153.2557  133.0643  166.1446 F   0  0  0  0  0  0  0  0  0  0  0  0
  152.6567  131.5002  164.5337 C   0  0  0  0  0  0  0  0  0  0  0  0
  152.7315  130.9395  163.2711 N   0  0  0  0  0  0  0  0  0  0  0  0
  151.9206  129.7216  162.8831 C   0  0  1  0  0  0  0  0  0  0  0  0
  151.2114  129.1299  164.1147 C   0  0  0  0  0  0  0  0  0  0  0  0
  149.7818  128.9805  163.6343 C   0  0  0  0  0  0  0  0  0  0  0  0
  149.6677  130.1183  162.6308 C   0  0  0  0  0  0  0  0  0  0  0  0
  150.9255  130.0847  161.9682 O   0  0  0  0  0  0  0  0  0  0  0  0
  153.5904  131.5076  162.3054 C   0  0  0  0  0  0  0  0  0  0  0  0
  153.6772  131.0173  161.1773 O   0  0  0  0  0  0  0  0  0  0  0  0
  155.1284  137.9876  162.8839 C   0  0  0  0  0  0  0  0  0  0  0  0
  154.7939  139.3411  162.6826 C   0  0  0  0  0  0  0  0  0  0  0  0
  151.3227  140.3311  156.0677 H   0  0  0  0  0  0  0  0  0  0  0  0
  151.6852  142.0191  155.7306 H   0  0  0  0  0  0  0  0  0  0  0  0
  150.1773  141.5703  156.5652 H   0  0  0  0  0  0  0  0  0  0  0  0
  150.9473  143.8517  156.8602 H   0  0  0  0  0  0  0  0  0  0  0  0
  151.0144  145.9237  158.1640 H   0  0  0  0  0  0  0  0  0  0  0  0
  151.9899  145.9444  160.4492 H   0  0  0  0  0  0  0  0  0  0  0  0
  152.8989  143.8894  161.4280 H   0  0  0  0  0  0  0  0  0  0  0  0
  152.8843  140.6187  159.5742 H   0  0  0  0  0  0  0  0  0  0  0  0
  153.0995  139.0339  159.7285 H   0  0  0  0  0  0  0  0  0  0  0  0
  153.6872  136.6689  160.0796 H   0  0  0  0  0  0  0  0  0  0  0  0
  155.3698  135.3412  162.9791 H   0  0  0  0  0  0  0  0  0  0  0  0
  155.3733  132.5769  160.8070 H   0  0  0  0  0  0  0  0  0  0  0  0
  156.2850  133.3152  162.0632 H   0  0  0  0  0  0  0  0  0  0  0  0
  151.9979  131.0730  165.2739 H   0  0  0  0  0  0  0  0  0  0  0  0
  152.6201  129.0382  162.3982 H   0  0  0  0  0  0  0  0  0  0  0  0
  151.6674  128.1857  164.4142 H   0  0  0  0  0  0  0  0  0  0  0  0
  151.2614  129.8296  164.9510 H   0  0  0  0  0  0  0  0  0  0  0  0
  149.6532  128.0225  163.1289 H   0  0  0  0  0  0  0  0  0  0  0  0
  149.0499  129.0457  164.4397 H   0  0  0  0  0  0  0  0  0  0  0  0
  148.8426  129.9839  161.9312 H   0  0  0  0  0  0  0  0  0  0  0  0
  149.5348  131.0731  163.1412 H   0  0  0  0  0  0  0  0  0  0  0  0
  155.6631  137.7234  163.7830 H   0  0  0  0  0  0  0  0  0  0  0  0
  155.0902  140.0667  163.4266 H   0  0  0  0  0  0  0  0  0  0  0  0
  1  2  1  0  0  0  0
  1 36  1  0  0  0  0
  1 37  1  0  0  0  0
  1 38  1  0  0  0  0
  2  3  1  0  0  0  0
  3  8  1  0  0  0  0
  3  4  2  0  0  0  0
  4  5  1  0  0  0  0
  4 39  1  0  0  0  0
  5  6  2  0  0  0  0
  5 40  1  0  0  0  0
  6  7  1  0  0  0  0
  6 41  1  0  0  0  0
  7  8  2  0  0  0  0
  7 42  1  0  0  0  0
  8  9  1  0  0  0  0
  9 10  1  0  0  0  0
  9 43  1  0  0  0  0
 10 11  2  0  0  0  0
 10 12  1  0  0  0  0
 12 35  1  0  0  0  0
 12 13  2  0  0  0  0
 13 14  1  0  0  0  0
 13 44  1  0  0  0  0
 14 15  2  0  0  0  0
 14 45  1  0  0  0  0
 15 16  1  0  0  0  0
 15 34  1  0  0  0  0
 16 17  1  0  0  0  0
 16 46  1  0  0  0  0
 17 18  2  0  0  0  0
 17 19  1  0  0  0  0
 19 20  1  0  0  0  0
 19 47  1  0  0  0  0
 19 48  1  0  0  0  0
 20 32  1  0  0  0  0
 20 21  1  0  0  0  0
 21 22  2  0  0  0  0
 21 23  1  0  0  0  0
 23 24  1  0  0  0  0
 23 25  2  0  0  0  0
 25 26  1  0  0  0  0
 25 49  1  0  0  0  0
 26 27  1  0  0  0  0
 26 32  1  0  0  0  0
 27 31  1  0  0  0  0
 27 28  1  0  0  0  0
 27 50  1  0  0  0  0
 28 29  1  0  0  0  0
 28 51  1  0  0  0  0
 28 52  1  0  0  0  0
 29 30  1  0  0  0  0
 29 53  1  0  0  0  0
 29 54  1  0  0  0  0
 30 31  1  0  0  0  0
 30 55  1  0  0  0  0
 30 56  1  0  0  0  0
 32 33  2  0  0  0  0
 34 35  2  0  0  0  0
 34 57  1  0  0  0  0
 35 58  1  0  0  0  0
M  END
> <s_m_source_file>
AV-unprocessed.smi

> <i_m_source_file_index>
129

> <i_lp_mmshare_version>
43012

> <i_f3d_flags>
0

> <s_epik_input>
W0NIM11PYzFbY0hdW2NIXVtjSF1bY0hdYzFbTkhdQyg9TyljMltjSF1bY0hdYyhbY0hdW2NIXTIpW05IXUMoPU8pW0NIMl1uM2MoPU8pYyhGKVtjSF1uKGMzPU8pW0NAQEhdNFtDSDJdW0NIMl1bQ0gyXU80

> <s_epik_cmdline>
J2VwaWtfcHl0aG9uJywgJy1waCcsICc3LjAnLCAnLXRuJywgJzgnLCAnLW1hJywgJzIwMCcsICctbWV0YWxfYmluZGluZycsICctaW1hZScsICc8aW5maWxlLm1hZT4nLCAnLW9tYWUnLCAnPG91dGZpbGUubWFlPic=

> <r_lp_tautomer_probability>
1

> <r_epik_Ionization_Penalty>
2.57954e-06

> <r_epik_Ionization_Penalty_Charging>
3.88729e-08

> <r_epik_Ionization_Penalty_Neutral>
2.54066e-06

> <r_epik_State_Penalty>
-0

> <r_epik_Charging_Adjusted_Penalty>
3.88729e-08

> <i_epik_Tot_Q>
0

> <i_epik_Tot_abs_Q>
0

> <r_epik_Metal_State_Penalty>
-0

> <b_epik_Metal_Only>
0

> <s_epik_Chemistry_Notes>
This compound contains an acetal/aminal-like group ( X-CH(R)-Y where X, Y are N, S, or O) that may be acid/base labile, releasing an aldehyde.

> <s_lp_Force_Field>
OPLS_2005

> <r_lp_Energy>
51.387

> <b_lp_Chiralities_Consistent>
1

> <s_lp_Variant>
AV-unprocessed.smi:129-2

> <Gold.Version>
5.8.1

> <Gold.Id.Protein>
6NUR|6NUR_protein|mol2

> <Gold.PLP.Fitness>
60.1551

> <Gold.PLP.PLP>
-57.8934

> <Gold.PLP.part.hbond>
-2.0000

> <Gold.PLP.part.metal>
0.0000

> <Gold.PLP.part.buried>
-5.9464

> <Gold.PLP.part.nonpolar>
-50.3996

> <Gold.PLP.part.repulsive>
0.1908

> <Gold.PLP.ligand.clash>
0.0000

> <Gold.PLP.ligand.torsion>
0.4834

> <Gold.PLP.Chemscore.Hbond>
1.0000

> <Gold.PLP.Chemscore.CHOScore>
0.0000

> <Gold.PLP.Chemscore.Metal>
0.0000

> <Gold.Chemscore.Hbonds>
donor molecule, donor type, donor heavy atom, donor atom, acceptor molecule, acceptor atom, score
      P1  H  6896  6908       L1    18  1.00

> <Gold.PLP.Chemscore.Internal.Correction>
0.2285

> <Gold.Rescore>
     Score         DG    S(hbond)    S(metal)    S(lipo)     H(rot)  DE(clash)    DE(int)     intcor
     14.91     -21.11       0.94        0.00     149.13       1.94       0.41       5.78       ----

> <Gold.Chemscore.Fitness>
14.9135

> <Gold.Chemscore.DG>
-21.1063

> <Gold.Chemscore.ZeroCoef>
-5.4800

> <Gold.Chemscore.Hbond>
0.9437

> <Gold.Chemscore.Metal>
0.0000

> <Gold.Chemscore.Lipo>
149.1318

> <Gold.Chemscore.Internal_Hbond>
0.0000

> <Gold.Chemscore.DEClash>
0.4096

> <Gold.Chemscore.DEInternal>
5.7832

> <Gold.Chemscore.Rot>
1.9430

> <Gold.Chemscore.Internal.Correction>
   9.000000E+99

> <Gold.Chemscore.Hbonds>
donor molecule, donor type, donor heavy atom, donor atom, acceptor molecule, acceptor atom, score
      P1  H  6896  6908       L1    18  0.94

> <Gold.Chemscore.Hbond.Weighted>
-3.1520

> <Gold.Chemscore.Metal.Weighted>
-0.0000

> <Gold.Chemscore.Lipo.Weighted>
-17.4484

> <Gold.Chemscore.Internal_Hbond.Weighted>
0.0000

> <Gold.Chemscore.DEClash.Weighted>
0.4096

> <Gold.Chemscore.DEInternal.Weighted>
5.7832

> <Gold.Chemscore.Rot.Weighted>
4.9741

> <Gold.Chemscore.Internal.Correction.Weighted>
   9.000000E+99

> <Gold.Protein.RotatedTorsions>
[ 6907 6896 6895 6894 ] final  -52.61 input  -60.11 | X-H torsion
[ 7974 7965 7964 7962 ] final  -42.34 input  175.53 | X-H torsion
[ 8008 7997 7996 7995 ] final   21.20 input   59.86 | X-H torsion
[ 10167 10162 10161 10158 ] final  124.68 input  -65.29 | X-H torsion
[ 10718 10713 10712 10709 ] final -101.74 input   66.30 | X-H torsion
[ 10763 10752 10751 10750 ] final   25.48 input  -60.55 | X-H torsion
[ 11005 11000 10999 10996 ] final  -24.12 input  -57.11 | X-H torsion

> <Gold.Protein.ActiveResidues>
 VAL166  LYS551  ARG553  GLY616  TRP617  ASP618  TYR619  PRO620  LYS621  CYS622 
 ASP623  PHE694  ASN695  SER759  ASP760  ASP761  ALA762  ILE779  LEU786  VAL792 
 PHE793  MET794  SER795  GLU796  ALA797  LYS798  CYS799  TRP800  GLU811  SER814 

> <Gold.Protein.RotatedAtoms>
  150.8502  134.7825  159.7002 H   0  0  0  0  0  0  0  0  0  0  0  0  # atno 6907 bound_to 6896
  152.4569  134.5268  159.9809 H   0  0  0  0  0  0  0  0  0  0  0  0  # atno 6908 bound_to 6896
  151.5391  133.3398  159.2968 H   0  0  0  0  0  0  0  0  0  0  0  0  # atno 6909 bound_to 6896
  146.0125  140.6947  142.9217 H   0  0  0  0  0  0  0  0  0  0  0  0  # atno 7974 bound_to 7965
  154.9471  140.3060  155.5093 H   0  0  0  0  0  0  0  0  0  0  0  0  # atno 8008 bound_to 7997
  156.2990  140.2325  156.4482 H   0  0  0  0  0  0  0  0  0  0  0  0  # atno 8009 bound_to 7997
  154.8090  140.0429  157.1317 H   0  0  0  0  0  0  0  0  0  0  0  0  # atno 8010 bound_to 7997
  139.5728  144.6948  151.3733 H   0  0  0  0  0  0  0  0  0  0  0  0  # atno 10167 bound_to 10162
  156.0205  130.5388  150.7008 H   0  0  0  0  0  0  0  0  0  0  0  0  # atno 10718 bound_to 10713
  153.0689  135.6582  154.0292 H   0  0  0  0  0  0  0  0  0  0  0  0  # atno 10763 bound_to 10752
  153.9942  135.2943  155.3410 H   0  0  0  0  0  0  0  0  0  0  0  0  # atno 10764 bound_to 10752
  154.7056  135.5226  153.8660 H   0  0  0  0  0  0  0  0  0  0  0  0  # atno 10765 bound_to 10752
  140.8816  133.7650  156.0309 H   0  0  0  0  0  0  0  0  0  0  0  0  # atno 11005 bound_to 11000
  144.6958  140.3424  143.7197 LP  0  0  0  0  0  0  0  0  0  0  0  0  # atno 17320 bound_to 7965
  145.7319  139.1739  143.2425 LP  0  0  0  0  0  0  0  0  0  0  0  0  # atno 17321 bound_to 7965
  140.7012  143.7627  150.7406 LP  0  0  0  0  0  0  0  0  0  0  0  0  # atno 17342 bound_to 10162
  140.1138  143.4674  152.2354 LP  0  0  0  0  0  0  0  0  0  0  0  0  # atno 17343 bound_to 10162
  157.4668  131.0889  151.0686 LP  0  0  0  0  0  0  0  0  0  0  0  0  # atno 17370 bound_to 10713
  157.1157  130.6040  149.5493 LP  0  0  0  0  0  0  0  0  0  0  0  0  # atno 17371 bound_to 10713
  140.8455  134.3016  157.5296 LP  0  0  0  0  0  0  0  0  0  0  0  0  # atno 17394 bound_to 11000
  139.8720  134.9439  156.3866 LP  0  0  0  0  0  0  0  0  0  0  0  0  # atno 17395 bound_to 11000

$$$$
