AV-unprocessed.smi:233|AV-procd|sdf|1783|dock6
  -GOLD-   2262020333D 1   1.00000     0.00000
 Structure written by MMmdl.
 59 62  0  0  0  0  0  0  0  0  1 V2000
  151.6419  144.2771  157.9406 C   0  0  0  0  0  0  0  0  0  0  0  0
  150.8054  143.0094  158.0773 C   0  0  0  0  0  0  0  0  0  0  0  0
  151.0290  142.2175  158.9923 O   0  0  0  0  0  0  0  0  0  0  0  0
  149.8432  142.8334  157.1590 N   0  0  0  0  0  0  0  0  0  0  0  0
  148.9315  141.6949  157.0955 C   0  0  2  0  0  0  0  0  0  0  0  0
  149.1944  140.8990  155.8034 C   0  0  0  0  0  0  0  0  0  0  0  0
  148.2122  139.7268  155.6503 C   0  0  0  0  0  0  0  0  0  0  0  0
  146.7506  140.2170  155.7022 C   0  0  1  0  0  0  0  0  0  0  0  0
  145.7913  139.1258  155.4945 N   0  0  0  0  0  0  0  0  0  0  0  0
  145.4226  138.2597  156.6138 C   0  0  0  0  0  0  0  0  0  0  0  0
  145.8202  138.5501  154.2644 C   0  0  0  0  0  0  0  0  0  0  0  0
  146.5129  139.1478  153.2576 N   0  0  0  0  0  0  0  0  0  0  0  0
  146.5432  138.5992  152.0397 C   0  0  0  0  0  0  0  0  0  0  0  0
  145.9609  137.4761  151.6161 N   0  0  0  0  0  0  0  0  0  0  0  0
  145.2673  136.8691  152.6211 C   0  0  0  0  0  0  0  0  0  0  0  0
  145.1505  137.3302  153.9630 C   0  0  0  0  0  0  0  0  0  0  0  0
  144.3903  136.4335  154.7053 N   0  0  0  0  0  0  0  0  0  0  0  0
  144.0734  135.4996  153.8505 C   0  0  0  0  0  0  0  0  0  0  0  0
  144.5348  135.6961  152.5685 N   0  0  0  0  0  0  0  0  0  0  0  0
  144.3700  134.8157  151.4493 C   0  0  0  0  0  0  0  0  0  0  0  0
  144.0043  133.3437  151.6519 C   0  0  0  0  0  0  0  0  0  0  0  0
  144.8221  132.9744  150.3935 C   0  0  0  0  0  0  0  0  0  0  0  0
  145.6784  131.7026  150.5084 C   0  0  0  0  0  0  0  0  0  0  0  0
  146.6198  131.6238  149.4575 O   0  0  0  0  0  0  0  0  0  0  0  0
  144.0182  132.9264  149.0785 C   0  0  0  0  0  0  0  0  0  0  0  0
  142.8948  132.0762  149.1909 O   0  0  0  0  0  0  0  0  0  0  0  0
  145.5735  134.2982  150.6577 C   0  0  0  0  0  0  0  0  0  0  0  0
  146.4861  140.9939  157.0078 C   0  0  0  0  0  0  0  0  0  0  0  0
  147.4649  142.1696  157.1585 C   0  0  0  0  0  0  0  0  0  0  0  0
  152.0616  144.3528  156.9371 H   0  0  0  0  0  0  0  0  0  0  0  0
  152.4656  144.2769  158.6553 H   0  0  0  0  0  0  0  0  0  0  0  0
  151.0281  145.1589  158.1269 H   0  0  0  0  0  0  0  0  0  0  0  0
  149.7343  143.5415  156.4474 H   0  0  0  0  0  0  0  0  0  0  0  0
  149.1247  141.0346  157.9435 H   0  0  0  0  0  0  0  0  0  0  0  0
  149.1041  141.5576  154.9382 H   0  0  0  0  0  0  0  0  0  0  0  0
  150.2176  140.5216  155.7985 H   0  0  0  0  0  0  0  0  0  0  0  0
  148.4038  139.2137  154.7073 H   0  0  0  0  0  0  0  0  0  0  0  0
  148.3951  138.9999  156.4424 H   0  0  0  0  0  0  0  0  0  0  0  0
  146.6360  140.9357  154.8915 H   0  0  0  0  0  0  0  0  0  0  0  0
  144.5769  137.6239  156.3487 H   0  0  0  0  0  0  0  0  0  0  0  0
  145.1251  138.8426  157.4841 H   0  0  0  0  0  0  0  0  0  0  0  0
  146.2553  137.6175  156.9016 H   0  0  0  0  0  0  0  0  0  0  0  0
  147.1147  139.1375  151.2983 H   0  0  0  0  0  0  0  0  0  0  0  0
  143.4866  134.6385  154.1354 H   0  0  0  0  0  0  0  0  0  0  0  0
  143.6528  135.3030  150.7869 H   0  0  0  0  0  0  0  0  0  0  0  0
  144.4261  132.9348  152.5720 H   0  0  0  0  0  0  0  0  0  0  0  0
  142.9360  133.1347  151.5891 H   0  0  0  0  0  0  0  0  0  0  0  0
  146.2294  131.6904  151.4493 H   0  0  0  0  0  0  0  0  0  0  0  0
  145.0651  130.8014  150.5037 H   0  0  0  0  0  0  0  0  0  0  0  0
  147.4403  131.3170  149.8126 H   0  0  0  0  0  0  0  0  0  0  0  0
  143.6573  133.9169  148.8009 H   0  0  0  0  0  0  0  0  0  0  0  0
  144.6343  132.5865  148.2457 H   0  0  0  0  0  0  0  0  0  0  0  0
  142.1344  132.6063  149.3745 H   0  0  0  0  0  0  0  0  0  0  0  0
  145.8099  134.8770  149.7643 H   0  0  0  0  0  0  0  0  0  0  0  0
  146.4592  134.1642  151.2817 H   0  0  0  0  0  0  0  0  0  0  0  0
  145.4614  141.3667  157.0193 H   0  0  0  0  0  0  0  0  0  0  0  0
  146.5902  140.3391  157.8731 H   0  0  0  0  0  0  0  0  0  0  0  0
  147.2750  142.6824  158.1022 H   0  0  0  0  0  0  0  0  0  0  0  0
  147.2780  142.8985  156.3687 H   0  0  0  0  0  0  0  0  0  0  0  0
  1  2  1  0  0  0  0
  1 30  1  0  0  0  0
  1 31  1  0  0  0  0
  1 32  1  0  0  0  0
  2  3  2  0  0  0  0
  2  4  1  0  0  0  0
  4  5  1  0  0  0  0
  4 33  1  0  0  0  0
  5 29  1  0  0  0  0
  5  6  1  0  0  0  0
  5 34  1  0  0  0  0
  6  7  1  0  0  0  0
  6 35  1  0  0  0  0
  6 36  1  0  0  0  0
  7  8  1  0  0  0  0
  7 37  1  0  0  0  0
  7 38  1  0  0  0  0
  8  9  1  0  0  0  0
  8 28  1  0  0  0  0
  8 39  1  0  0  0  0
  9 10  1  0  0  0  0
  9 11  1  0  0  0  0
 10 40  1  0  0  0  0
 10 41  1  0  0  0  0
 10 42  1  0  0  0  0
 11 16  1  0  0  0  0
 11 12  2  0  0  0  0
 12 13  1  0  0  0  0
 13 14  2  0  0  0  0
 13 43  1  0  0  0  0
 14 15  1  0  0  0  0
 15 19  1  0  0  0  0
 15 16  2  0  0  0  0
 16 17  1  0  0  0  0
 17 18  2  0  0  0  0
 18 19  1  0  0  0  0
 18 44  1  0  0  0  0
 19 20  1  0  0  0  0
 20 27  1  0  0  0  0
 20 21  1  0  0  0  0
 20 45  1  0  0  0  0
 21 22  1  0  0  0  0
 21 46  1  0  0  0  0
 21 47  1  0  0  0  0
 22 23  1  0  0  0  0
 22 25  1  0  0  0  0
 22 27  1  0  0  0  0
 23 24  1  0  0  0  0
 23 48  1  0  0  0  0
 23 49  1  0  0  0  0
 24 50  1  0  0  0  0
 25 26  1  0  0  0  0
 25 51  1  0  0  0  0
 25 52  1  0  0  0  0
 26 53  1  0  0  0  0
 27 54  1  0  0  0  0
 27 55  1  0  0  0  0
 28 29  1  0  0  0  0
 28 56  1  0  0  0  0
 28 57  1  0  0  0  0
 29 58  1  0  0  0  0
 29 59  1  0  0  0  0
M  END
> <s_m_source_file>
AV-unprocessed.smi

> <i_m_source_file_index>
233

> <i_lp_mmshare_version>
43012

> <i_f3d_flags>
0

> <s_epik_input>
W0NIM11DKD1PKVtOSF1bQ0BASF0xW0NIMl1bQ0gyXVtDQEhdKFtDSDJdW0NIMl0xKU4oW0NIM10pYyhuW2NIXW4yKWMoYzIzKW5bY0hdbjNbQ0hdKFtDSDJdNClbQ0gyXUM0KFtDSDJdW09IXSlbQ0gyXVtPSF0=

> <s_epik_cmdline>
J2VwaWtfcHl0aG9uJywgJy1waCcsICc3LjAnLCAnLXRuJywgJzgnLCAnLW1hJywgJzIwMCcsICctbWV0YWxfYmluZGluZycsICctaW1hZScsICc8aW5maWxlLm1hZT4nLCAnLW9tYWUnLCAnPG91dGZpbGUubWFlPic=

> <r_lp_tautomer_probability>
1

> <r_epik_Ionization_Penalty>
0.0029036

> <r_epik_Ionization_Penalty_Charging>
0

> <r_epik_Ionization_Penalty_Neutral>
0.0029036

> <r_epik_State_Penalty>
0.00183591

> <r_epik_Charging_Adjusted_Penalty>
0.00183591

> <i_epik_Tot_Q>
0

> <i_epik_Tot_abs_Q>
0

> <r_epik_Metal_State_Penalty>
-0

> <b_epik_Metal_Only>
0

> <s_lp_Force_Field>
OPLS_2005

> <r_lp_Energy>
37.3152

> <b_lp_Chiralities_Consistent>
1

> <s_lp_Variant>
AV-unprocessed.smi:233-1

> <Gold.Version>
5.8.1

> <Gold.Id.Protein>
6NUR|6NUR_protein|mol2

> <Gold.PLP.Fitness>
56.0070

> <Gold.PLP.PLP>
-42.1399

> <Gold.PLP.part.hbond>
-5.4202

> <Gold.PLP.part.metal>
0.0000

> <Gold.PLP.part.buried>
-8.7741

> <Gold.PLP.part.nonpolar>
-30.3718

> <Gold.PLP.part.repulsive>
1.3833

> <Gold.PLP.ligand.clash>
0.0000

> <Gold.PLP.ligand.torsion>
1.1525

> <Gold.PLP.Chemscore.Hbond>
3.8935

> <Gold.PLP.Chemscore.CHOScore>
1.0000

> <Gold.PLP.Chemscore.Metal>
0.0000

> <Gold.Chemscore.Hbonds>
donor molecule, donor type, donor heavy atom, donor atom, acceptor molecule, acceptor atom, score
      L1  H     4    33       P1  8028  1.00
      L1  H    24    50       P1 10747  1.00
      L1  H    26    53       P1 10186  0.75
      P1  H 10785 10796       L1    26  1.00
      L1  C    13    43       P1  7957  0.82

> <Gold.PLP.Chemscore.Internal.Correction>
1.4915

> <Gold.Rescore>
     Score         DG    S(hbond)    S(metal)    S(lipo)     H(rot)  DE(clash)    DE(int)     intcor
     13.45     -17.92       3.66        0.00      79.90       3.57       0.72       3.76       ----

> <Gold.Chemscore.Fitness>
13.4451

> <Gold.Chemscore.DG>
-17.9246

> <Gold.Chemscore.ZeroCoef>
-5.4800

> <Gold.Chemscore.Hbond>
3.6646

> <Gold.Chemscore.Metal>
0.0000

> <Gold.Chemscore.Lipo>
79.9048

> <Gold.Chemscore.Internal_Hbond>
0.0000

> <Gold.Chemscore.DEClash>
0.7174

> <Gold.Chemscore.DEInternal>
3.7620

> <Gold.Chemscore.Rot>
3.5719

> <Gold.Chemscore.Internal.Correction>
   9.000000E+99

> <Gold.Chemscore.Hbonds>
donor molecule, donor type, donor heavy atom, donor atom, acceptor molecule, acceptor atom, score
      L1  H     4    33       P1  8028  0.97
      L1  H    24    50       P1 10747  1.00
      L1  H    26    53       P1 10186  0.74
      P1  H 10785 10796       L1    26  0.88

> <Gold.Chemscore.Hbond.Weighted>
-12.2397

> <Gold.Chemscore.Metal.Weighted>
-0.0000

> <Gold.Chemscore.Lipo.Weighted>
-9.3489

> <Gold.Chemscore.Internal_Hbond.Weighted>
0.0000

> <Gold.Chemscore.DEClash.Weighted>
0.7174

> <Gold.Chemscore.DEInternal.Weighted>
3.7620

> <Gold.Chemscore.Rot.Weighted>
9.1440

> <Gold.Chemscore.Internal.Correction.Weighted>
   9.000000E+99

> <Gold.Protein.RotatedTorsions>
[ 6907 6896 6895 6894 ] final    9.87 input  -60.11 | X-H torsion
[ 7974 7965 7964 7962 ] final  -58.21 input  175.53 | X-H torsion
[ 8008 7997 7996 7995 ] final   66.10 input   59.86 | X-H torsion
[ 10167 10162 10161 10158 ] final   80.25 input  -65.29 | X-H torsion
[ 10718 10713 10712 10709 ] final  -34.74 input   66.30 | X-H torsion
[ 10763 10752 10751 10750 ] final   16.77 input  -60.55 | X-H torsion
[ 11005 11000 10999 10996 ] final -166.96 input  -57.11 | X-H torsion

> <Gold.Protein.ActiveResidues>
 VAL166  LYS551  ARG553  GLY616  TRP617  ASP618  TYR619  PRO620  LYS621  CYS622 
 ASP623  PHE694  ASN695  SER759  ASP760  ASP761  ALA762  ILE779  LEU786  VAL792 
 PHE793  MET794  SER795  GLU796  ALA797  LYS798  CYS799  TRP800  GLU811  SER814 

> <Gold.Protein.RotatedAtoms>
  151.7292  135.0878  160.0296 H   0  0  0  0  0  0  0  0  0  0  0  0  # atno 6907 bound_to 6896
  152.3552  133.6224  159.5982 H   0  0  0  0  0  0  0  0  0  0  0  0  # atno 6908 bound_to 6896
  150.7566  133.9427  159.3503 H   0  0  0  0  0  0  0  0  0  0  0  0  # atno 6909 bound_to 6896
  145.8420  140.8410  143.0029 H   0  0  0  0  0  0  0  0  0  0  0  0  # atno 7974 bound_to 7965
  155.6722  140.3497  155.4822 H   0  0  0  0  0  0  0  0  0  0  0  0  # atno 8008 bound_to 7997
  155.9679  140.1150  157.0861 H   0  0  0  0  0  0  0  0  0  0  0  0  # atno 8009 bound_to 7997
  154.4159  140.1163  156.5253 H   0  0  0  0  0  0  0  0  0  0  0  0  # atno 8010 bound_to 7997
  139.9518  144.6021  150.8154 H   0  0  0  0  0  0  0  0  0  0  0  0  # atno 10167 bound_to 10162
  156.3470  130.4302  149.7737 H   0  0  0  0  0  0  0  0  0  0  0  0  # atno 10718 bound_to 10713
  153.1400  135.6758  153.9043 H   0  0  0  0  0  0  0  0  0  0  0  0  # atno 10763 bound_to 10752
  153.8503  135.3094  155.3433 H   0  0  0  0  0  0  0  0  0  0  0  0  # atno 10764 bound_to 10752
  154.7779  135.4904  153.9866 H   0  0  0  0  0  0  0  0  0  0  0  0  # atno 10765 bound_to 10752
  140.5586  134.5356  157.5138 H   0  0  0  0  0  0  0  0  0  0  0  0  # atno 11005 bound_to 11000
  144.6733  140.0827  143.7468 LP  0  0  0  0  0  0  0  0  0  0  0  0  # atno 17320 bound_to 7965
  145.9454  139.2697  143.1244 LP  0  0  0  0  0  0  0  0  0  0  0  0  # atno 17321 bound_to 7965
  140.7580  143.3099  151.2871 LP  0  0  0  0  0  0  0  0  0  0  0  0  # atno 17342 bound_to 10162
  139.6622  144.0168  152.2700 LP  0  0  0  0  0  0  0  0  0  0  0  0  # atno 17343 bound_to 10162
  156.4952  130.8103  151.3111 LP  0  0  0  0  0  0  0  0  0  0  0  0  # atno 17370 bound_to 10713
  157.7455  130.9962  150.2772 LP  0  0  0  0  0  0  0  0  0  0  0  0  # atno 17371 bound_to 10713
  139.9419  134.7772  156.0658 LP  0  0  0  0  0  0  0  0  0  0  0  0  # atno 17394 bound_to 11000
  141.1128  133.6637  156.3020 LP  0  0  0  0  0  0  0  0  0  0  0  0  # atno 17395 bound_to 11000

$$$$
