AV-unprocessed.smi:44|AV-procd|sdf|395|dock3
  -GOLD-   2262016253D 1   1.00000     0.00000
 Structure written by MMmdl.
 29 31  0  0  0  0  0  0  0  0  1 V2000
  151.2458  139.0844  154.4745 O   0  0  0  0  0  0  0  0  0  0  0  0
  150.9355  139.9413  155.2994 C   0  0  0  0  0  0  0  0  0  0  0  0
  149.9452  140.8464  155.1073 N   0  0  0  0  0  0  0  0  0  0  0  0
  149.5825  141.8370  156.0542 C   0  0  0  0  0  0  0  0  0  0  0  0
  150.1517  142.0044  157.2199 N   0  0  0  0  0  0  0  0  0  0  0  0
  151.1663  141.0951  157.4428 C   0  0  0  0  0  0  0  0  0  0  0  0
  151.6043  140.0978  156.6125 C   0  0  0  0  0  0  0  0  0  0  0  0
  152.6464  139.3808  157.1864 N   0  0  0  0  0  0  0  0  0  0  0  0
  152.7939  139.9891  158.3615 C   0  0  0  0  0  0  0  0  0  0  0  0
  151.9565  141.0198  158.5884 N   0  0  0  0  0  0  0  0  0  0  0  0
  151.9089  141.8670  159.8190 C   0  0  1  0  0  0  0  0  0  0  0  0
  153.1672  142.7373  159.9405 C   0  0  0  0  0  0  0  0  0  0  0  0
  152.6177  144.1428  159.7860 C   0  0  0  0  0  0  0  0  0  0  0  0
  151.1694  143.9916  160.2461 C   0  0  1  0  0  0  0  0  0  0  0  0
  150.2393  145.0828  159.6964 C   0  0  0  0  0  0  0  0  0  0  0  0
  150.3987  145.1968  158.2986 O   0  0  0  0  0  0  0  0  0  0  0  0
  150.8130  142.7227  159.7141 O   0  0  0  0  0  0  0  0  0  0  0  0
  149.4398  140.8062  154.2341 H   0  0  0  0  0  0  0  0  0  0  0  0
  151.7861  141.1688  160.6482 H   0  0  0  0  0  0  0  0  0  0  0  0
  151.1391  143.9566  161.3371 H   0  0  0  0  0  0  0  0  0  0  0  0
  148.7605  142.4687  155.7146 H   0  0  0  0  0  0  0  0  0  0  0  0
  153.5377  139.6765  159.0796 H   0  0  0  0  0  0  0  0  0  0  0  0
  153.5951  142.5934  160.9333 H   0  0  0  0  0  0  0  0  0  0  0  0
  153.9200  142.4854  159.1920 H   0  0  0  0  0  0  0  0  0  0  0  0
  153.1712  144.8801  160.3681 H   0  0  0  0  0  0  0  0  0  0  0  0
  152.6561  144.4450  158.7390 H   0  0  0  0  0  0  0  0  0  0  0  0
  149.1986  144.8180  159.8856 H   0  0  0  0  0  0  0  0  0  0  0  0
  150.4235  146.0420  160.1818 H   0  0  0  0  0  0  0  0  0  0  0  0
  149.6894  145.7186  157.9559 H   0  0  0  0  0  0  0  0  0  0  0  0
  1  2  2  0  0  0  0
  2  7  1  0  0  0  0
  2  3  1  0  0  0  0
  3 18  1  0  0  0  0
  3  4  1  0  0  0  0
  4  5  2  0  0  0  0
  4 21  1  0  0  0  0
  5  6  1  0  0  0  0
  6 10  1  0  0  0  0
  6  7  2  0  0  0  0
  7  8  1  0  0  0  0
  8  9  2  0  0  0  0
  9 10  1  0  0  0  0
  9 22  1  0  0  0  0
 10 11  1  0  0  0  0
 11 19  1  0  0  0  0
 11 17  1  0  0  0  0
 11 12  1  0  0  0  0
 12 13  1  0  0  0  0
 12 23  1  0  0  0  0
 12 24  1  0  0  0  0
 13 14  1  0  0  0  0
 13 25  1  0  0  0  0
 13 26  1  0  0  0  0
 14 20  1  0  0  0  0
 14 15  1  0  0  0  0
 14 17  1  0  0  0  0
 15 16  1  0  0  0  0
 15 27  1  0  0  0  0
 15 28  1  0  0  0  0
 16 29  1  0  0  0  0
M  END
> <s_m_source_file>
AV-unprocessed.smi

> <i_m_source_file_index>
44

> <i_lp_mmshare_version>
43012

> <i_f3d_flags>
0

> <s_epik_input>
bjFbY0hdW25IXWMoPU8pYyhjMTIpbltjSF1uMltDQEhdM1tDSDJdW0NIMl1bQ0BIXShPMylbQ0gyXVtPSF0=

> <s_epik_cmdline>
J2VwaWtfcHl0aG9uJywgJy1waCcsICc3LjAnLCAnLXRuJywgJzgnLCAnLW1hJywgJzIwMCcsICctbWV0YWxfYmluZGluZycsICctaW1hZScsICc8aW5maWxlLm1hZT4nLCAnLW9tYWUnLCAnPG91dGZpbGUubWFlPic=

> <r_lp_tautomer_probability>
0.85571

> <r_epik_Ionization_Penalty>
0.00801444

> <r_epik_Ionization_Penalty_Charging>
0.00794574

> <r_epik_Ionization_Penalty_Neutral>
6.87072e-05

> <r_epik_State_Penalty>
0.0826172

> <r_epik_Charging_Adjusted_Penalty>
0.090563

> <i_epik_Tot_Q>
0

> <i_epik_Tot_abs_Q>
0

> <r_epik_Metal_State_Penalty>
0.440697

> <b_epik_Metal_Only>
0

> <s_epik_Chemistry_Notes>
This compound contains an acetal/aminal-like group ( X-CH(R)-Y where X, Y are N, S, or O) that may be acid/base labile, releasing an aldehyde.

> <s_lp_Force_Field>
OPLS_2005

> <r_lp_Energy>
43.2881

> <b_lp_Chiralities_Consistent>
1

> <s_lp_Variant>
AV-unprocessed.smi:44-1

> <Gold.Version>
5.8.1

> <Gold.Id.Protein>
6NUR|6NUR_protein|mol2

> <Gold.PLP.Fitness>
37.3166

> <Gold.PLP.PLP>
-29.4371

> <Gold.PLP.part.hbond>
-5.0000

> <Gold.PLP.part.metal>
0.0000

> <Gold.PLP.part.buried>
-0.5885

> <Gold.PLP.part.nonpolar>
-24.5806

> <Gold.PLP.part.repulsive>
0.4356

> <Gold.PLP.ligand.clash>
0.0000

> <Gold.PLP.ligand.torsion>
0.1285

> <Gold.PLP.Chemscore.Hbond>
1.8296

> <Gold.PLP.Chemscore.CHOScore>
0.8779

> <Gold.PLP.Chemscore.Metal>
0.0000

> <Gold.Chemscore.Hbonds>
donor molecule, donor type, donor heavy atom, donor atom, acceptor molecule, acceptor atom, score
      L1  H    16    29       P1  8029  1.00
      P1  H  7997  8010       L1     8  0.76
      L1  C     4    21       P1  8028  0.87

> <Gold.PLP.Chemscore.Internal.Correction>
0.0140

> <Gold.Rescore>
     Score         DG    S(hbond)    S(metal)    S(lipo)     H(rot)  DE(clash)    DE(int)     intcor
      8.67     -10.47       1.57        0.00      47.68       2.27       0.18       1.62       ----

> <Gold.Chemscore.Fitness>
8.6689

> <Gold.Chemscore.DG>
-10.4744

> <Gold.Chemscore.ZeroCoef>
-5.4800

> <Gold.Chemscore.Hbond>
1.5667

> <Gold.Chemscore.Metal>
0.0000

> <Gold.Chemscore.Lipo>
47.6753

> <Gold.Chemscore.Internal_Hbond>
0.0000

> <Gold.Chemscore.DEClash>
0.1821

> <Gold.Chemscore.DEInternal>
1.6234

> <Gold.Chemscore.Rot>
2.2720

> <Gold.Chemscore.Internal.Correction>
   9.000000E+99

> <Gold.Chemscore.Hbonds>
donor molecule, donor type, donor heavy atom, donor atom, acceptor molecule, acceptor atom, score
      L1  H    16    29       P1  8029  0.29
      P1  H  7997  8010       L1     8  0.05

> <Gold.Chemscore.Hbond.Weighted>
-5.2328

> <Gold.Chemscore.Metal.Weighted>
-0.0000

> <Gold.Chemscore.Lipo.Weighted>
-5.5780

> <Gold.Chemscore.Internal_Hbond.Weighted>
0.0000

> <Gold.Chemscore.DEClash.Weighted>
0.1821

> <Gold.Chemscore.DEInternal.Weighted>
1.6234

> <Gold.Chemscore.Rot.Weighted>
5.8164

> <Gold.Chemscore.Internal.Correction.Weighted>
   9.000000E+99

> <Gold.Protein.RotatedTorsions>
[ 6907 6896 6895 6894 ] final  143.81 input  -60.11 | X-H torsion
[ 7974 7965 7964 7962 ] final  130.53 input  175.53 | X-H torsion
[ 8008 7997 7996 7995 ] final   79.74 input   59.86 | X-H torsion
[ 10167 10162 10161 10158 ] final -117.55 input  -65.29 | X-H torsion
[ 10718 10713 10712 10709 ] final  133.25 input   66.30 | X-H torsion
[ 10763 10752 10751 10750 ] final -179.25 input  -60.55 | X-H torsion
[ 11005 11000 10999 10996 ] final  148.55 input  -57.11 | X-H torsion

> <Gold.Protein.ActiveResidues>
 VAL166  LYS551  ARG553  GLY616  TRP617  ASP618  TYR619  PRO620  LYS621  CYS622 
 ASP623  PHE694  ASN695  SER759  ASP760  ASP761  ALA762  ILE779  LEU786  VAL792 
 PHE793  MET794  SER795  GLU796  ALA797  LYS798  CYS799  TRP800  GLU811  SER814 

> <Gold.Protein.RotatedAtoms>
  152.2016  133.4845  159.5061 H   0  0  0  0  0  0  0  0  0  0  0  0  # atno 6907 bound_to 6896
  150.6971  134.1583  159.4175 H   0  0  0  0  0  0  0  0  0  0  0  0  # atno 6908 bound_to 6896
  151.9501  135.0173  160.0592 H   0  0  0  0  0  0  0  0  0  0  0  0  # atno 6909 bound_to 6896
  145.0170  139.4167  143.5216 H   0  0  0  0  0  0  0  0  0  0  0  0  # atno 7974 bound_to 7965
  155.8738  140.3447  155.5840 H   0  0  0  0  0  0  0  0  0  0  0  0  # atno 8008 bound_to 7997
  155.7797  140.0856  157.2084 H   0  0  0  0  0  0  0  0  0  0  0  0  # atno 8009 bound_to 7997
  154.4019  140.1503  156.3025 H   0  0  0  0  0  0  0  0  0  0  0  0  # atno 8010 bound_to 7997
  140.0671  143.4912  152.2000 H   0  0  0  0  0  0  0  0  0  0  0  0  # atno 10167 bound_to 10162
  157.4791  131.1085  150.9704 H   0  0  0  0  0  0  0  0  0  0  0  0  # atno 10718 bound_to 10713
  154.5374  135.2804  155.1126 H   0  0  0  0  0  0  0  0  0  0  0  0  # atno 10763 bound_to 10752
  154.2622  135.6319  153.5282 H   0  0  0  0  0  0  0  0  0  0  0  0  # atno 10764 bound_to 10752
  152.9971  135.5608  154.5904 H   0  0  0  0  0  0  0  0  0  0  0  0  # atno 10765 bound_to 10752
  140.0969  134.9007  157.1737 H   0  0  0  0  0  0  0  0  0  0  0  0  # atno 11005 bound_to 11000
  146.3479  139.9646  142.8713 LP  0  0  0  0  0  0  0  0  0  0  0  0  # atno 17320 bound_to 7965
  145.1947  140.9827  143.4190 LP  0  0  0  0  0  0  0  0  0  0  0  0  # atno 17321 bound_to 7965
  139.5858  144.7530  151.3524 LP  0  0  0  0  0  0  0  0  0  0  0  0  # atno 17342 bound_to 10162
  140.7143  143.7307  150.7626 LP  0  0  0  0  0  0  0  0  0  0  0  0  # atno 17343 bound_to 10162
  157.0444  130.5762  149.5361 LP  0  0  0  0  0  0  0  0  0  0  0  0  # atno 17370 bound_to 10713
  156.0112  130.5204  150.7994 LP  0  0  0  0  0  0  0  0  0  0  0  0  # atno 17371 bound_to 10713
  140.3273  134.2849  155.7234 LP  0  0  0  0  0  0  0  0  0  0  0  0  # atno 17394 bound_to 11000
  141.2095  133.7748  156.9995 LP  0  0  0  0  0  0  0  0  0  0  0  0  # atno 17395 bound_to 11000

$$$$
