#       Name:                AV-unprocessed.smi:870
#       Creating user name   scv26
#       Creation time:       Fri Mar 27 01:50:01 2020


#       File generated by GOLD software.
#

@<TRIPOS>MOLECULE
AV-unprocessed.smi:870
    53    55     1
SMALL
NO_CHARGES


@<TRIPOS>ATOM
      1 ****        -1.4344   1.2284   5.7710 C.3            1 S1                 0.0000
      2 ****        -1.8536   1.7807   4.5353 O.3            1 S1                 0.0000
      3 ****        -1.6243   0.9046   3.4436 C.3            1 S1                 0.0000
      4 ****        -2.0700   1.4987   2.1476 C.2            1 S1                 0.0000
      5 ****        -2.7053   2.6944   1.9885 N.pl3          1 S1                 1.0000
      6 ****        -2.9628   2.9175   0.6353 C.ar           1 S1                 0.0000
      7 ****        -3.5801   3.9831  -0.0125 C.ar           1 S1                 0.0000
      8 ****        -3.6813   3.8968  -1.4167 C.ar           1 S1                 0.0000
      9 ****        -3.1807   2.7830  -2.1222 C.ar           1 S1                 0.0000
     10 ****        -2.5574   1.7083  -1.4542 C.ar           1 S1                 0.0000
     11 ****        -2.4609   1.8025  -0.0663 C.ar           1 S1                 0.0000
     12 ****        -1.9194   0.9548   0.9056 N.pl3          1 S1                 0.0000
     13 ****        -1.3019  -0.3135   0.4883 C.3            1 S1                 0.0000
     14 ****         0.1328  -0.1351  -0.0480 C.3            1 S1                 0.0000
     15 ****         0.9282   0.4579   0.9595 O.3            1 S1                 0.0000
     16 ****         0.7666  -1.4777  -0.4427 C.3            1 S1                 0.0000
     17 ****         1.8510  -1.2256  -1.3260 O.3            1 S1                 0.0000
     18 ****         2.5846  -2.2975  -1.7919 C.ar           1 S1                 0.0000
     19 ****         2.2942  -3.6491  -1.4730 C.ar           1 S1                 0.0000
     20 ****         3.0887  -4.6922  -1.9856 C.ar           1 S1                 0.0000
     21 ****         4.1808  -4.4017  -2.8222 C.ar           1 S1                 0.0000
     22 ****         4.4776  -3.0658  -3.1468 C.ar           1 S1                 0.0000
     23 ****         3.6849  -2.0165  -2.6356 C.ar           1 S1                 0.0000
     24 ****         4.0203  -0.5810  -2.9952 C.3            1 S1                 0.0000
     25 ****        -1.6221   1.9412   6.5741 H              1 S1                 0.0000
     26 ****        -0.3668   1.0050   5.7621 H              1 S1                 0.0000
     27 ****        -1.9815   0.3128   5.9989 H              1 S1                 0.0000
     28 ****        -0.5615   0.6693   3.3744 H              1 S1                 0.0000
     29 ****        -2.1597  -0.0332   3.5994 H              1 S1                 0.0000
     30 ****        -3.9642   4.8372   0.5258 H              1 S1                 0.0000
     31 ****        -4.1518   4.7009  -1.9637 H              1 S1                 0.0000
     32 ****        -3.2759   2.7520  -3.1980 H              1 S1                 0.0000
     33 ****        -2.1755   0.8602  -2.0032 H              1 S1                 0.0000
     34 ****        -1.3038  -0.9839   1.3486 H              1 S1                 0.0000
     35 ****        -1.9449  -0.7770  -0.2612 H              1 S1                 0.0000
     36 ****         0.1133   0.5272  -0.9142 H              1 S1                 0.0000
     37 ****         1.8044   0.5669   0.6216 H              1 S1                 0.0000
     38 ****         1.0847  -2.0306   0.4431 H              1 S1                 0.0000
     39 ****         0.0275  -2.0840  -0.9691 H              1 S1                 0.0000
     40 ****         1.4645  -3.9146  -0.8359 H              1 S1                 0.0000
     41 ****         2.8588  -5.7176  -1.7364 H              1 S1                 0.0000
     42 ****         4.7900  -5.2024  -3.2154 H              1 S1                 0.0000
     43 ****         5.3180  -2.8502  -3.7904 H              1 S1                 0.0000
     44 ****         4.9014  -0.5252  -3.6350 H              1 S1                 0.0000
     45 ****         4.2198  -0.0007  -2.0940 H              1 S1                 0.0000
     46 ****         3.1869  -0.1191  -3.5250 H              1 S1                 0.0000
     47 ****        -2.9407   3.3103   2.7561 H              1 S1                 0.0000
     48 ****        -1.3501   2.6300   4.3763 LP             1 S1                 0.0000
     49 ****        -2.8324   1.9783   4.5879 LP             1 S1                 0.0000
     50 ****         0.9482  -0.1332   1.7659 LP             1 S1                 0.0000
     51 ****         0.5489   1.3490   1.2087 LP             1 S1                 0.0000
     52 ****         2.4861  -0.6189  -0.8478 LP             1 S1                 0.0000
     53 ****         1.4774  -0.7542  -2.1249 LP             1 S1                 0.0000
@<TRIPOS>BOND
    1    1    2 1     
    2    1   25 1     
    3    1   26 1     
    4    1   27 1     
    5    2    3 1     
    6    3    4 1     
    7    3   28 1     
    8    3   29 1     
    9    4   12 1     
   10    4    5 2     
   11    5    6 1     
   12    5   47 1     
   13    6   11 ar    
   14    6    7 ar    
   15    7    8 ar    
   16    7   30 1     
   17    8    9 ar    
   18    8   31 1     
   19    9   10 ar    
   20    9   32 1     
   21   10   11 ar    
   22   10   33 1     
   23   11   12 1     
   24   12   13 1     
   25   13   14 1     
   26   13   34 1     
   27   13   35 1     
   28   14   15 1     
   29   14   16 1     
   30   14   36 1     
   31   15   37 1     
   32   16   17 1     
   33   16   38 1     
   34   16   39 1     
   35   17   18 1     
   36   18   23 ar    
   37   18   19 ar    
   38   19   20 ar    
   39   19   40 1     
   40   20   21 ar    
   41   20   41 1     
   42   21   22 ar    
   43   21   42 1     
   44   22   23 ar    
   45   22   43 1     
   46   23   24 1     
   47   24   44 1     
   48   24   45 1     
   49   24   46 1     
   50    2   48 1     
   51    2   49 1     
   52   15   50 1     
   53   15   51 1     
   54   17   52 1     
   55   17   53 1     
@<TRIPOS>SUBSTRUCTURE
      1 S1             1
@<TRIPOS>SET
LONE_PAIRS      STATIC     ATOMS    <user>   **** ""
6 48 49 50 51 52 53
DONOR_HYDROGENS      STATIC     ATOMS    <user>   **** ""
2 47 37
ATOM$BLUE        STATIC     ATOMS    COLORGROUP SYSTEM
6 48 49 50 51 52 53
ATOM$RED        STATIC     ATOMS    COLORGROUP SYSTEM
2 47 37
