AV-unprocessed.smi:1701|AV-procd|sdf|6828|dock10
  -GOLD-   22720 8 03D 1   1.00000     0.00000
 Structure written by MMmdl.
 55 57  0  0  0  0  0  0  0  0  3 V2000
  146.4655  129.7641  151.9897 C   0  0  0  0  0  0  0  0  0  0  0  0
  146.2686  131.2228  152.4292 C   0  0  0  0  0  0  0  0  0  0  0  0
  145.6798  132.0672  151.3895 N   0  0  0  0  0  0  0  0  0  0  0  0
  145.4838  131.5197  150.0449 C   0  0  0  0  0  0  0  0  0  0  0  0
  144.6459  132.4318  149.1363 C   0  0  0  0  0  0  0  0  0  0  0  0
  145.1319  133.3300  151.7237 C   0  0  0  0  0  0  0  0  0  0  0  0
  145.8107  134.5578  151.5218 C   0  0  0  0  0  0  0  0  0  0  0  0
  145.1949  135.7727  151.8856 C   0  0  0  0  0  0  0  0  0  0  0  0
  143.8995  135.7665  152.4418 C   0  0  0  0  0  0  0  0  0  0  0  0
  143.3315  137.0181  152.8050 N   0  0  0  0  0  0  0  0  0  0  0  0
  142.0937  137.2862  153.2671 C   0  0  0  0  0  0  0  0  0  0  0  0
  141.2068  136.4506  153.4225 O   0  0  0  0  0  0  0  0  0  0  0  0
  141.8752  138.5861  153.5346 N   0  0  0  0  0  0  0  0  0  0  0  0
  140.6525  139.2093  154.0442 C   0  0  1  0  0  0  0  0  0  0  0  0
  140.7761  140.7222  154.2900 C   0  0  0  0  0  0  0  0  0  0  0  0
  139.4314  141.3241  153.8346 C   0  0  0  0  0  0  0  0  0  0  0  0
  138.5660  140.1872  153.4453 N   0  3  2  0  0  0  0  0  0  0  0  0
  137.6304  139.7964  154.5356 C   0  0  0  0  0  0  0  0  0  0  0  0
  136.9025  138.4814  154.2283 C   0  0  0  0  0  0  0  0  0  0  0  0
  137.9161  137.3582  153.9977 C   0  0  0  0  0  0  0  0  0  0  0  0
  138.8479  137.7397  152.8422 C   0  0  0  0  0  0  0  0  0  0  0  0
  139.5106  139.1237  153.0261 C   0  0  2  0  0  0  0  0  0  0  0  0
  143.2624  134.5175  152.6302 C   0  0  0  0  0  0  0  0  0  0  0  0
  143.8911  133.3783  152.2686 N   0  3  0  0  0  0  0  0  0  0  0  0
  146.8641  129.1697  152.8118 H   0  0  0  0  0  0  0  0  0  0  0  0
  147.1702  129.6842  151.1633 H   0  0  0  0  0  0  0  0  0  0  0  0
  145.5276  129.3053  151.6764 H   0  0  0  0  0  0  0  0  0  0  0  0
  145.6666  131.2709  153.3362 H   0  0  0  0  0  0  0  0  0  0  0  0
  147.2369  131.6379  152.7104 H   0  0  0  0  0  0  0  0  0  0  0  0
  146.4483  131.3109  149.5813 H   0  0  0  0  0  0  0  0  0  0  0  0
  144.9891  130.5515  150.1267 H   0  0  0  0  0  0  0  0  0  0  0  0
  144.5466  131.9934  148.1432 H   0  0  0  0  0  0  0  0  0  0  0  0
  145.1057  133.4130  149.0169 H   0  0  0  0  0  0  0  0  0  0  0  0
  143.6403  132.5787  149.5274 H   0  0  0  0  0  0  0  0  0  0  0  0
  146.8026  134.5955  151.0984 H   0  0  0  0  0  0  0  0  0  0  0  0
  145.7198  136.7044  151.7340 H   0  0  0  0  0  0  0  0  0  0  0  0
  143.9299  137.8189  152.6660 H   0  0  0  0  0  0  0  0  0  0  0  0
  142.6418  139.2155  153.3427 H   0  0  0  0  0  0  0  0  0  0  0  0
  140.3429  138.7161  154.9672 H   0  0  0  0  0  0  0  0  0  0  0  0
  140.9764  140.9320  155.3412 H   0  0  0  0  0  0  0  0  0  0  0  0
  141.5910  141.1563  153.7086 H   0  0  0  0  0  0  0  0  0  0  0  0
  138.9763  141.9545  154.6002 H   0  0  0  0  0  0  0  0  0  0  0  0
  139.5905  141.9496  152.9553 H   0  0  0  0  0  0  0  0  0  0  0  0
  138.1754  139.6952  155.4755 H   0  0  0  0  0  0  0  0  0  0  0  0
  136.9034  140.5960  154.6831 H   0  0  0  0  0  0  0  0  0  0  0  0
  136.2408  138.2209  155.0550 H   0  0  0  0  0  0  0  0  0  0  0  0
  136.2693  138.6014  153.3480 H   0  0  0  0  0  0  0  0  0  0  0  0
  138.4924  137.1798  154.9061 H   0  0  0  0  0  0  0  0  0  0  0  0
  137.3989  136.4257  153.7699 H   0  0  0  0  0  0  0  0  0  0  0  0
  139.6091  136.9712  152.7039 H   0  0  0  0  0  0  0  0  0  0  0  0
  138.2653  137.7528  151.9200 H   0  0  0  0  0  0  0  0  0  0  0  0
  139.9073  139.4271  152.0549 H   0  0  0  0  0  0  0  0  0  0  0  0
  142.2848  134.3727  153.0637 H   0  0  0  0  0  0  0  0  0  0  0  0
  138.0027  140.4521  152.6496 H   0  0  0  0  0  0  0  0  0  0  0  0
  143.4012  132.4966  152.4203 H   0  0  0  0  0  0  0  0  0  0  0  0
  1  2  1  0  0  0  0
  1 25  1  0  0  0  0
  1 26  1  0  0  0  0
  1 27  1  0  0  0  0
  2  3  1  0  0  0  0
  2 28  1  0  0  0  0
  2 29  1  0  0  0  0
  3  4  1  0  0  0  0
  3  6  1  0  0  0  0
  4  5  1  0  0  0  0
  4 30  1  0  0  0  0
  4 31  1  0  0  0  0
  5 32  1  0  0  0  0
  5 33  1  0  0  0  0
  5 34  1  0  0  0  0
  6 24  1  0  0  0  0
  6  7  2  0  0  0  0
  7  8  1  0  0  0  0
  7 35  1  0  0  0  0
  8  9  2  0  0  0  0
  8 36  1  0  0  0  0
  9 10  1  0  0  0  0
  9 23  1  0  0  0  0
 10 11  1  0  0  0  0
 10 37  1  0  0  0  0
 11 12  2  0  0  0  0
 11 13  1  0  0  0  0
 13 14  1  0  0  0  0
 13 38  1  0  0  0  0
 14 22  1  0  0  0  0
 14 15  1  0  0  0  0
 14 39  1  0  0  0  0
 15 16  1  0  0  0  0
 15 40  1  0  0  0  0
 15 41  1  0  0  0  0
 16 17  1  0  0  0  0
 16 42  1  0  0  0  0
 16 43  1  0  0  0  0
 17 22  1  0  0  0  0
 17 18  1  0  0  0  0
 17 54  1  0  0  0  0
 18 19  1  0  0  0  0
 18 44  1  0  0  0  0
 18 45  1  0  0  0  0
 19 20  1  0  0  0  0
 19 46  1  0  0  0  0
 19 47  1  0  0  0  0
 20 21  1  0  0  0  0
 20 48  1  0  0  0  0
 20 49  1  0  0  0  0
 21 22  1  0  0  0  0
 21 50  1  0  0  0  0
 21 51  1  0  0  0  0
 22 52  1  0  0  0  0
 23 24  2  0  0  0  0
 23 53  1  0  0  0  0
 24 55  1  0  0  0  0
M  CHG  1  17   1
M  CHG  1  24   1
M  END
> <s_m_source_file>
AV-unprocessed.smi

> <i_m_source_file_index>
1701

> <i_lp_mmshare_version>
43012

> <i_f3d_flags>
0

> <s_epik_input>
W0NIM11bQ0gyXU4oW0NIMl1bQ0gzXSljMVtjSF1bY0hdYyhbY0hdbjEpW05IXUMoPU8pW05IXVtDQEhdKFtDSDJdW0NIMl0yKVtDQEBIXShOMjMpW0NIMl1bQ0gyXVtDSDJdW0NIMl0z

> <s_epik_cmdline>
J2VwaWtfcHl0aG9uJywgJy1waCcsICc3LjAnLCAnLXRuJywgJzgnLCAnLW1hJywgJzIwMCcsICctbWV0YWxfYmluZGluZycsICctaW1hZScsICc8aW5maWxlLm1hZT4nLCAnLW9tYWUnLCAnPG91dGZpbGUubWFlPic=

> <r_lp_tautomer_probability>
0.999994

> <r_epik_Ionization_Penalty>
0.302862

> <r_epik_Ionization_Penalty_Charging>
0.302842

> <r_epik_Ionization_Penalty_Neutral>
1.95166e-05

> <r_epik_State_Penalty>
0.019791

> <r_epik_Charging_Adjusted_Penalty>
0.322633

> <i_epik_Tot_Q>
2

> <i_epik_Tot_abs_Q>
2

> <r_epik_Metal_State_Penalty>
0.0536763

> <b_epik_Metal_Only>
0

> <s_lp_Force_Field>
OPLS_2005

> <r_lp_Energy>
65.6354

> <b_lp_Chiralities_Consistent>
1

> <s_lp_Variant>
AV-unprocessed.smi:1701-8

> <Gold.Version>
5.8.1

> <Gold.Id.Protein>
6NUR|6NUR_protein|mol2

> <Gold.PLP.Fitness>
42.3053

> <Gold.PLP.PLP>
-42.5376

> <Gold.PLP.part.hbond>
-1.5368

> <Gold.PLP.part.metal>
0.0000

> <Gold.PLP.part.buried>
-5.3690

> <Gold.PLP.part.nonpolar>
-36.3065

> <Gold.PLP.part.repulsive>
0.1513

> <Gold.PLP.ligand.clash>
0.0000

> <Gold.PLP.ligand.torsion>
1.6730

> <Gold.PLP.Chemscore.Hbond>
1.0000

> <Gold.PLP.Chemscore.CHOScore>
0.0000

> <Gold.PLP.Chemscore.Metal>
0.0000

> <Gold.Chemscore.Hbonds>
donor molecule, donor type, donor heavy atom, donor atom, acceptor molecule, acceptor atom, score
      L1  H    13    38       P1 10175  1.00

> <Gold.PLP.Chemscore.Internal.Correction>
0.1137

> <Gold.Rescore>
     Score         DG    S(hbond)    S(metal)    S(lipo)     H(rot)  DE(clash)    DE(int)     intcor
     13.35     -17.66       0.98        0.00     104.71       1.30       0.07       4.24       ----

> <Gold.Chemscore.Fitness>
13.3470

> <Gold.Chemscore.DG>
-17.6566

> <Gold.Chemscore.ZeroCoef>
-5.4800

> <Gold.Chemscore.Hbond>
0.9754

> <Gold.Chemscore.Metal>
0.0000

> <Gold.Chemscore.Lipo>
104.7146

> <Gold.Chemscore.Internal_Hbond>
0.0000

> <Gold.Chemscore.DEClash>
0.0718

> <Gold.Chemscore.DEInternal>
4.2378

> <Gold.Chemscore.Rot>
1.3020

> <Gold.Chemscore.Internal.Correction>
   9.000000E+99

> <Gold.Chemscore.Hbonds>
donor molecule, donor type, donor heavy atom, donor atom, acceptor molecule, acceptor atom, score
      L1  H    13    38       P1 10175  0.99

> <Gold.Chemscore.Hbond.Weighted>
-3.2580

> <Gold.Chemscore.Metal.Weighted>
-0.0000

> <Gold.Chemscore.Lipo.Weighted>
-12.2516

> <Gold.Chemscore.Internal_Hbond.Weighted>
0.0000

> <Gold.Chemscore.DEClash.Weighted>
0.0718

> <Gold.Chemscore.DEInternal.Weighted>
4.2378

> <Gold.Chemscore.Rot.Weighted>
3.3330

> <Gold.Chemscore.Internal.Correction.Weighted>
   9.000000E+99

> <Gold.Protein.RotatedTorsions>
[ 6907 6896 6895 6894 ] final -144.46 input  -60.11 | X-H torsion
[ 7974 7965 7964 7962 ] final  172.95 input  175.53 | X-H torsion
[ 8008 7997 7996 7995 ] final    8.98 input   59.86 | X-H torsion
[ 10167 10162 10161 10158 ] final  -59.10 input  -65.29 | X-H torsion
[ 10718 10713 10712 10709 ] final  172.26 input   66.30 | X-H torsion
[ 10763 10752 10751 10750 ] final  133.39 input  -60.55 | X-H torsion
[ 11005 11000 10999 10996 ] final   39.92 input  -57.11 | X-H torsion

> <Gold.Protein.ActiveResidues>
 VAL166  LYS551  ARG553  GLY616  TRP617  ASP618  TYR619  PRO620  LYS621  CYS622 
 ASP623  PHE694  ASN695  SER759  ASP760  ASP761  ALA762  ILE779  LEU786  VAL792 
 PHE793  MET794  SER795  GLU796  ALA797  LYS798  CYS799  TRP800  GLU811  SER814 

> <Gold.Protein.RotatedAtoms>
  151.1144  133.5149  159.2604 H   0  0  0  0  0  0  0  0  0  0  0  0  # atno 6907 bound_to 6896
  151.1931  135.0410  159.8851 H   0  0  0  0  0  0  0  0  0  0  0  0  # atno 6908 bound_to 6896
  152.5452  134.0982  159.8360 H   0  0  0  0  0  0  0  0  0  0  0  0  # atno 6909 bound_to 6896
  144.7255  139.9575  143.6434 H   0  0  0  0  0  0  0  0  0  0  0  0  # atno 7974 bound_to 7965
  154.7740  140.2807  155.6116 H   0  0  0  0  0  0  0  0  0  0  0  0  # atno 8008 bound_to 7997
  156.2938  140.2636  156.2477 H   0  0  0  0  0  0  0  0  0  0  0  0  # atno 8009 bound_to 7997
  154.9866  140.0374  157.2291 H   0  0  0  0  0  0  0  0  0  0  0  0  # atno 8010 bound_to 7997
  140.6156  143.2401  151.5604 H   0  0  0  0  0  0  0  0  0  0  0  0  # atno 10167 bound_to 10162
  156.9816  131.0120  151.2880 H   0  0  0  0  0  0  0  0  0  0  0  0  # atno 10718 bound_to 10713
  153.8064  135.3135  155.3396 H   0  0  0  0  0  0  0  0  0  0  0  0  # atno 10763 bound_to 10752
  154.8069  135.4692  154.0417 H   0  0  0  0  0  0  0  0  0  0  0  0  # atno 10764 bound_to 10752
  153.1782  135.6889  153.8602 H   0  0  0  0  0  0  0  0  0  0  0  0  # atno 10765 bound_to 10752
  140.1981  134.3904  155.8111 H   0  0  0  0  0  0  0  0  0  0  0  0  # atno 11005 bound_to 11000
  146.0664  139.3654  143.0550 LP  0  0  0  0  0  0  0  0  0  0  0  0  # atno 17320 bound_to 7965
  145.8026  140.9764  143.0991 LP  0  0  0  0  0  0  0  0  0  0  0  0  # atno 17321 bound_to 7965
  139.5396  144.2684  152.1323 LP  0  0  0  0  0  0  0  0  0  0  0  0  # atno 17342 bound_to 10162
  140.1893  144.4768  150.6487 LP  0  0  0  0  0  0  0  0  0  0  0  0  # atno 17343 bound_to 10162
  157.5522  130.8190  149.8160 LP  0  0  0  0  0  0  0  0  0  0  0  0  # atno 17370 bound_to 10713
  156.0242  130.3785  150.1871 LP  0  0  0  0  0  0  0  0  0  0  0  0  # atno 17371 bound_to 10713
  141.2227  133.7080  156.8210 LP  0  0  0  0  0  0  0  0  0  0  0  0  # atno 17394 bound_to 11000
  140.2085  134.8845  157.3248 LP  0  0  0  0  0  0  0  0  0  0  0  0  # atno 17395 bound_to 11000

$$$$
