AV-unprocessed.smi:3322|AV-procd|sdf|12775|dock3
  -GOLD-   2272019123D 1   1.00000     0.00000
 Structure written by MMmdl.
 38 39  0  0  0  0  0  0  0  0  1 V2000
  149.0220  135.2558  156.5515 C   0  0  0  0  0  0  0  0  0  0  0  0
  149.1488  135.7977  155.1156 C   0  0  2  0  0  0  0  0  0  0  0  0
  148.8672  134.7318  154.1355 N   0  0  0  0  0  0  0  0  0  0  0  0
  147.7310  133.8917  154.5005 C   0  0  0  0  0  0  0  0  0  0  0  0
  147.4607  132.8051  153.4385 C   0  0  0  0  0  0  0  0  0  0  0  0
  146.5327  133.2305  152.4054 N   0  0  0  0  0  0  0  0  0  0  0  0
  146.1611  132.5604  151.2589 C   0  0  0  0  0  0  0  0  0  0  0  0
  145.2430  133.3384  150.6132 C   0  0  0  0  0  0  0  0  0  0  0  0
  145.1203  134.4824  151.4503 C   0  0  0  0  0  0  0  0  0  0  0  0
  145.8964  134.4171  152.5199 N   0  0  0  0  0  0  0  0  0  0  0  0
  150.5535  136.3968  154.8915 C   0  0  0  0  0  0  0  0  0  0  0  0
  151.5340  135.6839  155.1162 O   0  0  0  0  0  0  0  0  0  0  0  0
  150.6878  137.6719  154.4450 N   0  0  0  0  0  0  0  0  0  0  0  0
  151.9933  138.2761  154.1558 C   0  0  0  0  0  0  0  0  0  0  0  0
  152.2159  139.4569  155.1156 C   0  0  0  0  0  0  0  0  0  0  0  0
  151.1630  140.4029  154.9551 O   0  0  0  0  0  0  0  0  0  0  0  0
  149.8763  139.8469  155.2084 C   0  0  0  0  0  0  0  0  0  0  0  0
  149.6191  138.6623  154.2590 C   0  0  0  0  0  0  0  0  0  0  0  0
  149.2331  136.0277  157.2916 H   0  0  0  0  0  0  0  0  0  0  0  0
  149.7160  134.4326  156.7277 H   0  0  0  0  0  0  0  0  0  0  0  0
  148.0166  134.8864  156.7526 H   0  0  0  0  0  0  0  0  0  0  0  0
  148.4165  136.5851  154.9637 H   0  0  0  0  0  0  0  0  0  0  0  0
  148.7013  135.1124  153.2142 H   0  0  0  0  0  0  0  0  0  0  0  0
  147.9942  133.3927  155.4333 H   0  0  0  0  0  0  0  0  0  0  0  0
  146.8356  134.4767  154.7133 H   0  0  0  0  0  0  0  0  0  0  0  0
  148.3944  132.4851  152.9728 H   0  0  0  0  0  0  0  0  0  0  0  0
  147.0402  131.9216  153.9202 H   0  0  0  0  0  0  0  0  0  0  0  0
  146.5698  131.5930  151.0064 H   0  0  0  0  0  0  0  0  0  0  0  0
  144.7347  133.1226  149.6852 H   0  0  0  0  0  0  0  0  0  0  0  0
  144.4941  135.3516  151.3143 H   0  0  0  0  0  0  0  0  0  0  0  0
  152.8221  137.5724  154.2429 H   0  0  0  0  0  0  0  0  0  0  0  0
  152.0064  138.6254  153.1223 H   0  0  0  0  0  0  0  0  0  0  0  0
  152.2591  139.1149  156.1510 H   0  0  0  0  0  0  0  0  0  0  0  0
  153.1656  139.9461  154.8996 H   0  0  0  0  0  0  0  0  0  0  0  0
  149.8064  139.5309  156.2505 H   0  0  0  0  0  0  0  0  0  0  0  0
  149.1230  140.6203  155.0589 H   0  0  0  0  0  0  0  0  0  0  0  0
  149.6220  139.0023  153.2224 H   0  0  0  0  0  0  0  0  0  0  0  0
  148.6164  138.2880  154.4474 H   0  0  0  0  0  0  0  0  0  0  0  0
  1  2  1  0  0  0  0
  1 19  1  0  0  0  0
  1 20  1  0  0  0  0
  1 21  1  0  0  0  0
  2  3  1  0  0  0  0
  2 11  1  0  0  0  0
  2 22  1  0  0  0  0
  3  4  1  0  0  0  0
  3 23  1  0  0  0  0
  4  5  1  0  0  0  0
  4 24  1  0  0  0  0
  4 25  1  0  0  0  0
  5  6  1  0  0  0  0
  5 26  1  0  0  0  0
  5 27  1  0  0  0  0
  6 10  1  0  0  0  0
  6  7  1  0  0  0  0
  7  8  2  0  0  0  0
  7 28  1  0  0  0  0
  8  9  1  0  0  0  0
  8 29  1  0  0  0  0
  9 10  2  0  0  0  0
  9 30  1  0  0  0  0
 11 12  2  0  0  0  0
 11 13  1  0  0  0  0
 13 18  1  0  0  0  0
 13 14  1  0  0  0  0
 14 15  1  0  0  0  0
 14 31  1  0  0  0  0
 14 32  1  0  0  0  0
 15 16  1  0  0  0  0
 15 33  1  0  0  0  0
 15 34  1  0  0  0  0
 16 17  1  0  0  0  0
 17 18  1  0  0  0  0
 17 35  1  0  0  0  0
 17 36  1  0  0  0  0
 18 37  1  0  0  0  0
 18 38  1  0  0  0  0
M  END
> <s_m_source_file>
AV-unprocessed.smi

> <i_m_source_file_index>
3322

> <i_lp_mmshare_version>
43012

> <i_f3d_flags>
0

> <s_epik_input>
W0NIMl0xW0NIMl1PW0NIMl1bQ0gyXU4xQyg9TylbQ0BIXShbQ0gzXSlbTkhdW0NIMl1bQ0gyXW4yW2NIXVtjSF1bY0hdbjI=

> <s_epik_cmdline>
J2VwaWtfcHl0aG9uJywgJy1waCcsICc3LjAnLCAnLXRuJywgJzgnLCAnLW1hJywgJzIwMCcsICctbWV0YWxfYmluZGluZycsICctaW1hZScsICc8aW5maWxlLm1hZT4nLCAnLW9tYWUnLCAnPG91dGZpbGUubWFlPic=

> <r_lp_tautomer_probability>
1

> <r_epik_Ionization_Penalty>
0.511228

> <r_epik_Ionization_Penalty_Charging>
0

> <r_epik_Ionization_Penalty_Neutral>
0.511228

> <r_epik_State_Penalty>
0.51753

> <r_epik_Charging_Adjusted_Penalty>
0.51753

> <i_epik_Tot_Q>
0

> <i_epik_Tot_abs_Q>
0

> <r_epik_Metal_State_Penalty>
0.517012

> <b_epik_Metal_Only>
0

> <s_lp_Force_Field>
OPLS_2005

> <r_lp_Energy>
29.3693

> <b_lp_Chiralities_Consistent>
1

> <s_lp_Variant>
AV-unprocessed.smi:3322-3

> <Gold.Version>
5.8.1

> <Gold.Id.Protein>
6NUR|6NUR_protein|mol2

> <Gold.PLP.Fitness>
41.4494

> <Gold.PLP.PLP>
-30.2975

> <Gold.PLP.part.hbond>
-3.0000

> <Gold.PLP.part.metal>
0.0000

> <Gold.PLP.part.buried>
-3.5166

> <Gold.PLP.part.nonpolar>
-24.3339

> <Gold.PLP.part.repulsive>
0.2384

> <Gold.PLP.ligand.clash>
0.0000

> <Gold.PLP.ligand.torsion>
0.4684

> <Gold.PLP.Chemscore.Hbond>
3.0000

> <Gold.PLP.Chemscore.CHOScore>
1.0000

> <Gold.PLP.Chemscore.Metal>
0.0000

> <Gold.Chemscore.Hbonds>
donor molecule, donor type, donor heavy atom, donor atom, acceptor molecule, acceptor atom, score
      L1  H     3    23       P1  7948  1.00
      P1  H  7989  7998       L1    16  0.75
      P1  H 10752 10765       L1    12  0.88
      L1  C     7    28       P1 10747  0.78

> <Gold.PLP.Chemscore.Internal.Correction>
0.0887

> <Gold.Rescore>
     Score         DG    S(hbond)    S(metal)    S(lipo)     H(rot)  DE(clash)    DE(int)     intcor
     16.25     -16.75       2.53        0.00      64.51       1.84       0.02       0.48       ----

> <Gold.Chemscore.Fitness>
16.2468

> <Gold.Chemscore.DG>
-16.7458

> <Gold.Chemscore.ZeroCoef>
-5.4800

> <Gold.Chemscore.Hbond>
2.5269

> <Gold.Chemscore.Metal>
0.0000

> <Gold.Chemscore.Lipo>
64.5069

> <Gold.Chemscore.Internal_Hbond>
0.0000

> <Gold.Chemscore.DEClash>
0.0223

> <Gold.Chemscore.DEInternal>
0.4767

> <Gold.Chemscore.Rot>
1.8442

> <Gold.Chemscore.Internal.Correction>
   9.000000E+99

> <Gold.Chemscore.Hbonds>
donor molecule, donor type, donor heavy atom, donor atom, acceptor molecule, acceptor atom, score
      L1  H     3    23       P1  7948  0.64
      P1  H  7989  7998       L1    16  0.09
      P1  H 10752 10765       L1    12  0.85

> <Gold.Chemscore.Hbond.Weighted>
-8.4397

> <Gold.Chemscore.Metal.Weighted>
-0.0000

> <Gold.Chemscore.Lipo.Weighted>
-7.5473

> <Gold.Chemscore.Internal_Hbond.Weighted>
0.0000

> <Gold.Chemscore.DEClash.Weighted>
0.0223

> <Gold.Chemscore.DEInternal.Weighted>
0.4767

> <Gold.Chemscore.Rot.Weighted>
4.7212

> <Gold.Chemscore.Internal.Correction.Weighted>
   9.000000E+99

> <Gold.Protein.RotatedTorsions>
[ 6907 6896 6895 6894 ] final -158.78 input  -60.11 | X-H torsion
[ 7974 7965 7964 7962 ] final   83.91 input  175.53 | X-H torsion
[ 8008 7997 7996 7995 ] final   42.67 input   59.86 | X-H torsion
[ 10167 10162 10161 10158 ] final -114.22 input  -65.29 | X-H torsion
[ 10718 10713 10712 10709 ] final  153.89 input   66.30 | X-H torsion
[ 10763 10752 10751 10750 ] final -172.13 input  -60.55 | X-H torsion
[ 11005 11000 10999 10996 ] final  179.92 input  -57.11 | X-H torsion

> <Gold.Protein.ActiveResidues>
 VAL166  LYS551  ARG553  GLY616  TRP617  ASP618  TYR619  PRO620  LYS621  CYS622 
 ASP623  PHE694  ASN695  SER759  ASP760  ASP761  ALA762  ILE779  LEU786  VAL792 
 PHE793  MET794  SER795  GLU796  ALA797  LYS798  CYS799  TRP800  GLU811  SER814 

> <Gold.Protein.RotatedAtoms>
  151.3234  133.4030  159.2656 H   0  0  0  0  0  0  0  0  0  0  0  0  # atno 6907 bound_to 6896
  151.0015  134.9326  159.7967 H   0  0  0  0  0  0  0  0  0  0  0  0  # atno 6908 bound_to 6896
  152.5276  134.3199  159.9197 H   0  0  0  0  0  0  0  0  0  0  0  0  # atno 6909 bound_to 6896
  145.6058  139.2360  143.2220 H   0  0  0  0  0  0  0  0  0  0  0  0  # atno 7974 bound_to 7965
  155.2899  140.3378  155.4253 H   0  0  0  0  0  0  0  0  0  0  0  0  # atno 8008 bound_to 7997
  156.2051  140.1747  156.7858 H   0  0  0  0  0  0  0  0  0  0  0  0  # atno 8009 bound_to 7997
  154.5609  140.0687  156.8802 H   0  0  0  0  0  0  0  0  0  0  0  0  # atno 8010 bound_to 7997
  140.1033  143.4593  152.1798 H   0  0  0  0  0  0  0  0  0  0  0  0  # atno 10167 bound_to 10162
  157.2389  131.0755  151.1805 H   0  0  0  0  0  0  0  0  0  0  0  0  # atno 10718 bound_to 10713
  154.6227  135.2877  155.0307 H   0  0  0  0  0  0  0  0  0  0  0  0  # atno 10763 bound_to 10752
  154.1496  135.6505  153.4964 H   0  0  0  0  0  0  0  0  0  0  0  0  # atno 10764 bound_to 10752
  153.0243  135.5352  154.7024 H   0  0  0  0  0  0  0  0  0  0  0  0  # atno 10765 bound_to 10752
  140.4115  134.6688  157.4616 H   0  0  0  0  0  0  0  0  0  0  0  0  # atno 11005 bound_to 11000
  146.1542  140.6882  142.9308 LP  0  0  0  0  0  0  0  0  0  0  0  0  # atno 17320 bound_to 7965
  144.7291  140.4616  143.6951 LP  0  0  0  0  0  0  0  0  0  0  0  0  # atno 17321 bound_to 7965
  139.5659  144.7435  151.4024 LP  0  0  0  0  0  0  0  0  0  0  0  0  # atno 17342 bound_to 10162
  140.6966  143.7735  150.7336 LP  0  0  0  0  0  0  0  0  0  0  0  0  # atno 17343 bound_to 10162
  157.3400  130.7028  149.6376 LP  0  0  0  0  0  0  0  0  0  0  0  0  # atno 17370 bound_to 10713
  155.9671  130.4282  150.4780 LP  0  0  0  0  0  0  0  0  0  0  0  0  # atno 17371 bound_to 10713
  140.0264  134.6470  155.9167 LP  0  0  0  0  0  0  0  0  0  0  0  0  # atno 17394 bound_to 11000
  141.1819  133.6548  156.5056 LP  0  0  0  0  0  0  0  0  0  0  0  0  # atno 17395 bound_to 11000

$$$$
