AV-unprocessed.smi:3068|AV-procd|sdf|11707|dock1
  -GOLD-   2272017113D 1   1.00000     0.00000
 Structure written by MMmdl.
 39 41  0  0  0  0  0  0  0  0  1 V2000
  151.1887  139.6230  154.7104 N   0  0  0  0  0  0  0  0  0  0  0  0
  150.0639  139.8730  154.6019 C   0  0  0  0  0  0  0  0  0  0  0  0
  148.6474  140.1881  154.4656 C   0  0  0  0  0  0  0  0  0  0  0  0
  147.9425  139.4438  153.5822 N   0  0  0  0  0  0  0  0  0  0  0  0
  146.6293  139.7255  153.4454 C   0  0  0  0  0  0  0  0  0  0  0  0
  146.0138  140.7505  154.1893 C   0  0  0  0  0  0  0  0  0  0  0  0
  146.7088  141.4966  155.0735 N   0  0  0  0  0  0  0  0  0  0  0  0
  148.0303  141.2260  155.2197 C   0  0  0  0  0  0  0  0  0  0  0  0
  148.7683  141.9933  156.1402 N   0  0  0  0  0  0  0  0  0  0  0  0
  149.5791  141.3728  157.1815 C   0  0  0  0  0  0  0  0  0  0  0  0
  151.0868  141.6515  156.9999 C   0  0  1  0  0  0  0  0  0  0  0  0
  151.4404  143.1428  157.1538 C   0  0  0  0  0  0  0  0  0  0  0  0
  151.3586  143.6038  158.5346 N   0  0  0  0  0  0  0  0  0  0  0  0
  151.7202  145.0171  158.6390 C   0  0  0  0  0  0  0  0  0  0  0  0
  151.6146  145.5458  160.0777 C   0  0  0  0  0  0  0  0  0  0  0  0
  152.4897  144.7051  161.0177 C   0  0  0  0  0  0  0  0  0  0  0  0
  152.1413  143.2163  160.8685 C   0  0  0  0  0  0  0  0  0  0  0  0
  152.2115  142.7751  159.3913 C   0  0  1  0  0  0  0  0  0  0  0  0
  151.8432  141.2842  159.2587 C   0  0  0  0  0  0  0  0  0  0  0  0
  151.8894  140.8770  157.8933 O   0  0  0  0  0  0  0  0  0  0  0  0
  146.0676  139.1309  152.7404 H   0  0  0  0  0  0  0  0  0  0  0  0
  144.9629  140.9719  154.0754 H   0  0  0  0  0  0  0  0  0  0  0  0
  148.5785  142.9825  156.2154 H   0  0  0  0  0  0  0  0  0  0  0  0
  149.2483  141.7252  158.1588 H   0  0  0  0  0  0  0  0  0  0  0  0
  149.3809  140.3016  157.1777 H   0  0  0  0  0  0  0  0  0  0  0  0
  151.3679  141.3547  155.9892 H   0  0  0  0  0  0  0  0  0  0  0  0
  152.4530  143.3018  156.7799 H   0  0  0  0  0  0  0  0  0  0  0  0
  150.7836  143.7416  156.5218 H   0  0  0  0  0  0  0  0  0  0  0  0
  152.7368  145.1672  158.2722 H   0  0  0  0  0  0  0  0  0  0  0  0
  151.0699  145.6098  157.9947 H   0  0  0  0  0  0  0  0  0  0  0  0
  151.9166  146.5925  160.1176 H   0  0  0  0  0  0  0  0  0  0  0  0
  150.5753  145.5068  160.4069 H   0  0  0  0  0  0  0  0  0  0  0  0
  153.5419  144.8608  160.7761 H   0  0  0  0  0  0  0  0  0  0  0  0
  152.3542  145.0255  162.0511 H   0  0  0  0  0  0  0  0  0  0  0  0
  152.8211  142.6166  161.4743 H   0  0  0  0  0  0  0  0  0  0  0  0
  151.1383  143.0385  161.2594 H   0  0  0  0  0  0  0  0  0  0  0  0
  153.2456  142.8875  159.0603 H   0  0  0  0  0  0  0  0  0  0  0  0
  152.5460  140.6708  159.8231 H   0  0  0  0  0  0  0  0  0  0  0  0
  150.8559  141.0870  159.6768 H   0  0  0  0  0  0  0  0  0  0  0  0
  1  2  3  0  0  0  0
  2  3  1  0  0  0  0
  3  8  1  0  0  0  0
  3  4  2  0  0  0  0
  4  5  1  0  0  0  0
  5  6  2  0  0  0  0
  5 21  1  0  0  0  0
  6  7  1  0  0  0  0
  6 22  1  0  0  0  0
  7  8  2  0  0  0  0
  8  9  1  0  0  0  0
  9 10  1  0  0  0  0
  9 23  1  0  0  0  0
 10 11  1  0  0  0  0
 10 24  1  0  0  0  0
 10 25  1  0  0  0  0
 11 20  1  0  0  0  0
 11 12  1  0  0  0  0
 11 26  1  0  0  0  0
 12 13  1  0  0  0  0
 12 27  1  0  0  0  0
 12 28  1  0  0  0  0
 13 18  1  0  0  0  0
 13 14  1  0  0  0  0
 14 15  1  0  0  0  0
 14 29  1  0  0  0  0
 14 30  1  0  0  0  0
 15 16  1  0  0  0  0
 15 31  1  0  0  0  0
 15 32  1  0  0  0  0
 16 17  1  0  0  0  0
 16 33  1  0  0  0  0
 16 34  1  0  0  0  0
 17 18  1  0  0  0  0
 17 35  1  0  0  0  0
 17 36  1  0  0  0  0
 18 19  1  0  0  0  0
 18 37  1  0  0  0  0
 19 20  1  0  0  0  0
 19 38  1  0  0  0  0
 19 39  1  0  0  0  0
M  END
> <s_m_source_file>
AV-unprocessed.smi

> <i_m_source_file_index>
3068

> <i_lp_mmshare_version>
43012

> <i_f3d_flags>
0

> <s_epik_input>
TiNDYzFuW2NIXVtjSF1uYzFbTkhdW0NIMl1bQ0BIXShbQ0gyXTIpT1tDSDJdW0NAQEhdKE4yMylbQ0gyXVtDSDJdW0NIMl1bQ0gyXTM=

> <s_epik_cmdline>
J2VwaWtfcHl0aG9uJywgJy1waCcsICc3LjAnLCAnLXRuJywgJzgnLCAnLW1hJywgJzIwMCcsICctbWV0YWxfYmluZGluZycsICctaW1hZScsICc8aW5maWxlLm1hZT4nLCAnLW9tYWUnLCAnPG91dGZpbGUubWFlPic=

> <r_epik_Ionization_Penalty>
1.22359

> <r_epik_Ionization_Penalty_Charging>
0

> <r_epik_Ionization_Penalty_Neutral>
1.22359

> <r_epik_State_Penalty>
1.29103

> <r_epik_Charging_Adjusted_Penalty>
1.29103

> <i_epik_Tot_Q>
0

> <i_epik_Tot_abs_Q>
0

> <r_epik_Metal_State_Penalty>
1.29103

> <b_epik_Metal_Only>
0

> <s_lp_Force_Field>
OPLS_2005

> <r_lp_Energy>
49.2936

> <b_lp_Chiralities_Consistent>
1

> <s_lp_Variant>
AV-unprocessed.smi:3068-10

> <Gold.Version>
5.8.1

> <Gold.Id.Protein>
6NUR|6NUR_protein|mol2

> <Gold.PLP.Fitness>
41.4406

> <Gold.PLP.PLP>
-32.7921

> <Gold.PLP.part.hbond>
-2.0000

> <Gold.PLP.part.metal>
0.0000

> <Gold.PLP.part.buried>
-2.6082

> <Gold.PLP.part.nonpolar>
-29.6950

> <Gold.PLP.part.repulsive>
1.6413

> <Gold.PLP.ligand.clash>
0.0000

> <Gold.PLP.ligand.torsion>
0.5111

> <Gold.PLP.Chemscore.Hbond>
1.7760

> <Gold.PLP.Chemscore.CHOScore>
1.4446

> <Gold.PLP.Chemscore.Metal>
0.0000

> <Gold.Chemscore.Hbonds>
donor molecule, donor type, donor heavy atom, donor atom, acceptor molecule, acceptor atom, score
      L1  H     9    23       P1  8028  1.00
      P1  H  7989  7998       L1     1  0.60
      L1  C     5    21       P1 10175  0.23
      L1  C     6    22       P1 10175  0.99

> <Gold.PLP.Chemscore.Internal.Correction>
0.0090

> <Gold.Rescore>
     Score         DG    S(hbond)    S(metal)    S(lipo)     H(rot)  DE(clash)    DE(int)     intcor
     17.07     -18.64       1.38        0.00     101.43       1.30       0.89       0.68       ----

> <Gold.Chemscore.Fitness>
17.0721

> <Gold.Chemscore.DG>
-18.6379

> <Gold.Chemscore.ZeroCoef>
-5.4800

> <Gold.Chemscore.Hbond>
1.3843

> <Gold.Chemscore.Metal>
0.0000

> <Gold.Chemscore.Lipo>
101.4267

> <Gold.Chemscore.Internal_Hbond>
0.0000

> <Gold.Chemscore.DEClash>
0.8896

> <Gold.Chemscore.DEInternal>
0.6763

> <Gold.Chemscore.Rot>
1.3019

> <Gold.Chemscore.Internal.Correction>
   9.000000E+99

> <Gold.Chemscore.Hbonds>
donor molecule, donor type, donor heavy atom, donor atom, acceptor molecule, acceptor atom, score
      L1  H     9    23       P1  8028  0.91
      P1  H  7989  7998       L1     1  0.04

> <Gold.Chemscore.Hbond.Weighted>
-4.6237

> <Gold.Chemscore.Metal.Weighted>
-0.0000

> <Gold.Chemscore.Lipo.Weighted>
-11.8669

> <Gold.Chemscore.Internal_Hbond.Weighted>
0.0000

> <Gold.Chemscore.DEClash.Weighted>
0.8896

> <Gold.Chemscore.DEInternal.Weighted>
0.6763

> <Gold.Chemscore.Rot.Weighted>
3.3327

> <Gold.Chemscore.Internal.Correction.Weighted>
   9.000000E+99

> <Gold.Protein.RotatedTorsions>
[ 6907 6896 6895 6894 ] final -110.10 input  -60.11 | X-H torsion
[ 7974 7965 7964 7962 ] final -170.97 input  175.53 | X-H torsion
[ 8008 7997 7996 7995 ] final   12.95 input   59.86 | X-H torsion
[ 10167 10162 10161 10158 ] final  159.44 input  -65.29 | X-H torsion
[ 10718 10713 10712 10709 ] final   35.39 input   66.30 | X-H torsion
[ 10763 10752 10751 10750 ] final -150.79 input  -60.55 | X-H torsion
[ 11005 11000 10999 10996 ] final   78.09 input  -57.11 | X-H torsion

> <Gold.Protein.ActiveResidues>
 VAL166  LYS551  ARG553  GLY616  TRP617  ASP618  TYR619  PRO620  LYS621  CYS622 
 ASP623  PHE694  ASN695  SER759  ASP760  ASP761  ALA762  ILE779  LEU786  VAL792 
 PHE793  MET794  SER795  GLU796  ALA797  LYS798  CYS799  TRP800  GLU811  SER814 

> <Gold.Protein.RotatedAtoms>
  150.7604  133.9431  159.3462 H   0  0  0  0  0  0  0  0  0  0  0  0  # atno 6907 bound_to 6896
  151.7341  135.0866  160.0314 H   0  0  0  0  0  0  0  0  0  0  0  0  # atno 6908 bound_to 6896
  152.3571  133.6213  159.6023 H   0  0  0  0  0  0  0  0  0  0  0  0  # atno 6909 bound_to 6896
  144.7163  140.1992  143.6340 H   0  0  0  0  0  0  0  0  0  0  0  0  # atno 7974 bound_to 7965
  154.8277  140.2894  155.5743 H   0  0  0  0  0  0  0  0  0  0  0  0  # atno 8008 bound_to 7997
  156.3003  140.2538  156.3127 H   0  0  0  0  0  0  0  0  0  0  0  0  # atno 8009 bound_to 7997
  154.9267  140.0384  157.2016 H   0  0  0  0  0  0  0  0  0  0  0  0  # atno 8010 bound_to 7997
  139.4832  144.4730  151.8550 H   0  0  0  0  0  0  0  0  0  0  0  0  # atno 10167 bound_to 10162
  157.3221  130.7453  149.6792 H   0  0  0  0  0  0  0  0  0  0  0  0  # atno 10718 bound_to 10713
  154.8098  135.3276  154.7336 H   0  0  0  0  0  0  0  0  0  0  0  0  # atno 10763 bound_to 10752
  153.7987  135.6905  153.4863 H   0  0  0  0  0  0  0  0  0  0  0  0  # atno 10764 bound_to 10752
  153.1868  135.4566  155.0044 H   0  0  0  0  0  0  0  0  0  0  0  0  # atno 10765 bound_to 10752
  139.9227  134.7735  156.1605 H   0  0  0  0  0  0  0  0  0  0  0  0  # atno 11005 bound_to 11000
  145.8696  139.2265  143.1669 LP  0  0  0  0  0  0  0  0  0  0  0  0  # atno 17320 bound_to 7965
  146.0098  140.8446  142.9977 LP  0  0  0  0  0  0  0  0  0  0  0  0  # atno 17321 bound_to 7965
  140.4200  144.2256  150.5887 LP  0  0  0  0  0  0  0  0  0  0  0  0  # atno 17342 bound_to 10162
  140.4883  143.2356  151.8856 LP  0  0  0  0  0  0  0  0  0  0  0  0  # atno 17343 bound_to 10162
  155.9687  130.4220  150.4496 LP  0  0  0  0  0  0  0  0  0  0  0  0  # atno 17370 bound_to 10713
  157.2513  131.0547  151.2377 LP  0  0  0  0  0  0  0  0  0  0  0  0  # atno 17371 bound_to 10713
  141.0761  133.6775  156.2239 LP  0  0  0  0  0  0  0  0  0  0  0  0  # atno 17394 bound_to 11000
  140.6426  134.5150  157.5571 LP  0  0  0  0  0  0  0  0  0  0  0  0  # atno 17395 bound_to 11000

$$$$
