#       Name:                AV-unprocessed.smi:148
#       Creating user name   scv26
#       Creation time:       Thu Mar 26 18:36:47 2020


#       File generated by GOLD software.
#

@<TRIPOS>MOLECULE
AV-unprocessed.smi:148
    73    77     1
SMALL
NO_CHARGES


@<TRIPOS>ATOM
      1 ****        -2.9963  -4.6418   3.2392 O.3            1 S1                 0.0000
      2 ****        -2.4073  -4.9647   1.9960 C.3            1 S1                 0.0000
      3 ****        -1.7103  -3.7359   1.3627 C.3            1 S1                 0.0000
      4 ****        -0.5597  -3.2651   2.2958 C.3            1 S1                 0.0000
      5 ****         0.1208  -2.0488   1.8832 N.pl3          1 S1                 0.0000
      6 ****         1.4531  -1.9260   1.5547 C.2            1 S1                 0.0000
      7 ****         1.8467  -0.7174   1.2581 N.2            1 S1                 0.0000
      8 ****         0.7014   0.0529   1.4083 C.ar           1 S1                 0.0000
      9 ****         0.4206   1.4370   1.2669 C.ar           1 S1                 0.0000
     10 ****         1.3904   2.3325   0.9750 N.3            1 S1                 0.0000
     11 ****         1.7592   3.0264   2.2123 C.3            1 S1                 0.0000
     12 ****         3.0404   3.8460   2.0431 C.3            1 S1                 0.0000
     13 ****         2.8714   4.8259   0.8835 C.3            1 S1                 0.0000
     14 ****         2.5011   4.0581  -0.3907 C.3            1 S1                 0.0000
     15 ****         1.2278   3.1784  -0.2281 C.3            1 S1                 0.0000
     16 ****         0.9617   2.3624  -1.5423 C.3            1 S1                 0.0000
     17 ****         1.2031   3.1590  -2.8414 C.3            1 S1                 0.0000
     18 ****         0.3882   2.4493  -3.9138 C.3            1 S1                 0.0000
     19 ****        -0.9026   2.1050  -3.1851 C.3            1 S1                 0.0000
     20 ****        -0.4809   1.8148  -1.7355 C.3            1 S1                 0.0000
     21 ****        -0.5098   0.4168  -1.5366 O.3            1 S1                 0.0000
     22 ****        -0.8462   1.8600   1.5209 N.ar           1 S1                 0.0000
     23 ****        -1.7846   0.9749   1.8724 C.ar           1 S1                 0.0000
     24 ****        -1.6677  -0.3441   2.0452 N.ar           1 S1                 0.0000
     25 ****        -0.3938  -0.7661   1.8004 C.ar           1 S1                 0.0000
     26 ****        -1.2313  -4.0366  -0.0890 C.3            1 S1                 0.0000
     27 ****        -0.8950  -2.8084  -0.9327 C.3            1 S1                 0.0000
     28 ****        -1.2711  -3.1874  -2.3675 C.3            1 S1                 0.0000
     29 ****        -1.7469  -4.5219  -2.2954 O.3            1 S1                 0.0000
     30 ****        -2.2612  -4.7227  -0.9917 C.3            1 S1                 0.0000
     31 ****        -3.4192  -5.4146   3.5815 H              1 S1                 0.0000
     32 ****        -1.7010  -5.7843   2.1321 H              1 S1                 0.0000
     33 ****        -3.2130  -5.3369   1.3645 H              1 S1                 0.0000
     34 ****        -2.4586  -2.9442   1.3072 H              1 S1                 0.0000
     35 ****        -0.9366  -3.0834   3.3025 H              1 S1                 0.0000
     36 ****         0.1829  -4.0586   2.3910 H              1 S1                 0.0000
     37 ****         2.1307  -2.7672   1.5431 H              1 S1                 0.0000
     38 ****         0.9438   3.6848   2.5165 H              1 S1                 0.0000
     39 ****         1.9016   2.3055   3.0195 H              1 S1                 0.0000
     40 ****         3.2664   4.3847   2.9636 H              1 S1                 0.0000
     41 ****         3.8839   3.1815   1.8513 H              1 S1                 0.0000
     42 ****         2.0923   5.5522   1.1190 H              1 S1                 0.0000
     43 ****         3.7918   5.3899   0.7298 H              1 S1                 0.0000
     44 ****         2.3748   4.7915  -1.1859 H              1 S1                 0.0000
     45 ****         3.3432   3.4284  -0.6821 H              1 S1                 0.0000
     46 ****         0.3835   3.8478  -0.0569 H              1 S1                 0.0000
     47 ****         1.6646   1.5269  -1.5676 H              1 S1                 0.0000
     48 ****         0.8252   4.1773  -2.7378 H              1 S1                 0.0000
     49 ****         2.2589   3.2184  -3.1076 H              1 S1                 0.0000
     50 ****         0.2221   3.0674  -4.7965 H              1 S1                 0.0000
     51 ****         0.8976   1.5372  -4.2283 H              1 S1                 0.0000
     52 ****        -1.5612   2.9745  -3.1990 H              1 S1                 0.0000
     53 ****        -1.4442   1.2844  -3.6584 H              1 S1                 0.0000
     54 ****        -1.1915   2.2892  -1.0599 H              1 S1                 0.0000
     55 ****         0.0873   0.0147  -2.1488 H              1 S1                 0.0000
     56 ****        -2.7691   1.3829   2.0480 H              1 S1                 0.0000
     57 ****        -0.3516  -4.6812  -0.0491 H              1 S1                 0.0000
     58 ****        -1.4877  -1.9482  -0.6205 H              1 S1                 0.0000
     59 ****         0.1576  -2.5367  -0.8582 H              1 S1                 0.0000
     60 ****        -2.0618  -2.5361  -2.7423 H              1 S1                 0.0000
     61 ****        -0.4236  -3.1212  -3.0500 H              1 S1                 0.0000
     62 ****        -2.3684  -5.7872  -0.7820 H              1 S1                 0.0000
     63 ****        -3.2418  -4.2504  -0.9085 H              1 S1                 0.0000
     64 ****        -3.6720  -3.9155   3.1136 LP             1 S1                 0.0000
     65 ****        -2.2903  -4.3336   3.8768 LP             1 S1                 0.0000
     66 ****         2.7606  -0.4163   0.9860 LP             1 S1                 0.0000
     67 ****         2.1746   1.8111   0.6386 LP             1 S1                 0.0000
     68 ****        -1.4357   0.0728  -1.6929 LP             1 S1                 0.0000
     69 ****        -0.2284   0.2032  -0.6010 LP             1 S1                 0.0000
     70 ****        -1.0755   2.8304   1.4451 LP             1 S1                 0.0000
     71 ****        -2.4181  -0.9456   2.3191 LP             1 S1                 0.0000
     72 ****        -0.9975  -5.1610  -2.4686 LP             1 S1                 0.0000
     73 ****        -2.4690  -4.6636  -2.9725 LP             1 S1                 0.0000
@<TRIPOS>BOND
    1    1    2 1     
    2    1   31 1     
    3    2    3 1     
    4    2   32 1     
    5    2   33 1     
    6    3    4 1     
    7    3   26 1     
    8    3   34 1     
    9    4    5 1     
   10    4   35 1     
   11    4   36 1     
   12    5   25 1     
   13    5    6 1     
   14    6    7 2     
   15    6   37 1     
   16    7    8 1     
   17    8   25 ar    
   18    8    9 ar    
   19    9   10 1     
   20    9   22 ar    
   21   10   15 1     
   22   10   11 1     
   23   11   12 1     
   24   11   38 1     
   25   11   39 1     
   26   12   13 1     
   27   12   40 1     
   28   12   41 1     
   29   13   14 1     
   30   13   42 1     
   31   13   43 1     
   32   14   15 1     
   33   14   44 1     
   34   14   45 1     
   35   15   16 1     
   36   15   46 1     
   37   16   20 1     
   38   16   17 1     
   39   16   47 1     
   40   17   18 1     
   41   17   48 1     
   42   17   49 1     
   43   18   19 1     
   44   18   50 1     
   45   18   51 1     
   46   19   20 1     
   47   19   52 1     
   48   19   53 1     
   49   20   21 1     
   50   20   54 1     
   51   21   55 1     
   52   22   23 ar    
   53   23   24 ar    
   54   23   56 1     
   55   24   25 ar    
   56   26   30 1     
   57   26   27 1     
   58   26   57 1     
   59   27   28 1     
   60   27   58 1     
   61   27   59 1     
   62   28   29 1     
   63   28   60 1     
   64   28   61 1     
   65   29   30 1     
   66   30   62 1     
   67   30   63 1     
   68    1   64 1     
   69    1   65 1     
   70    7   66 1     
   71   10   67 1     
   72   21   68 1     
   73   21   69 1     
   74   22   70 1     
   75   24   71 1     
   76   29   72 1     
   77   29   73 1     
@<TRIPOS>SUBSTRUCTURE
      1 S1             1
@<TRIPOS>SET
LONE_PAIRS      STATIC     ATOMS    <user>   **** ""
10 64 65 66 67 68 69 70 71 72 73
DONOR_HYDROGENS      STATIC     ATOMS    <user>   **** ""
2 31 55
ATOM$BLUE        STATIC     ATOMS    COLORGROUP SYSTEM
10 64 65 66 67 68 69 70 71 72 73
ATOM$RED        STATIC     ATOMS    COLORGROUP SYSTEM
2 31 55
