AV-unprocessed.smi:646|AV-procd|sdf|3165|dock9
  -GOLD-   22720 0 83D 1   1.00000     0.00000
 Structure written by MMmdl.
 44 45  0  0  0  0  0  0  0  0  1 V2000
  147.5562  133.1831  152.0204 C   0  0  0  0  0  0  0  0  0  0  0  0
  147.2998  133.6362  153.3444 O   0  0  0  0  0  0  0  0  0  0  0  0
  148.0876  133.0690  154.4004 C   0  0  1  0  0  0  0  0  0  0  0  0
  147.9470  131.5410  154.4057 C   0  0  0  0  0  0  0  0  0  0  0  0
  149.4949  133.6956  154.4074 C   0  0  0  0  0  0  0  0  0  0  0  0
  148.9646  134.8048  155.3181 C   0  0  1  0  0  0  0  0  0  0  0  0
  148.5459  135.9696  154.5404 N   0  0  0  0  0  0  0  0  0  0  0  0
  147.9177  137.0458  155.0360 C   0  0  0  0  0  0  0  0  0  0  0  0
  147.6323  137.1775  156.2257 O   0  0  0  0  0  0  0  0  0  0  0  0
  147.5371  138.1347  154.0314 C   0  0  0  0  0  0  0  0  0  0  0  0
  148.4471  139.3275  154.1838 C   0  0  0  0  0  0  0  0  0  0  0  0
  149.8302  139.3323  154.5232 C   0  0  0  0  0  0  0  0  0  0  0  0
  150.7209  138.1581  154.8105 C   0  0  0  0  0  0  0  0  0  0  0  0
  150.3243  140.5580  154.5673 N   0  0  0  0  0  0  0  0  0  0  0  0
  149.2617  141.4104  154.2518 O   0  0  0  0  0  0  0  0  0  0  0  0
  148.1569  140.6553  154.0257 C   0  0  0  0  0  0  0  0  0  0  0  0
  146.9112  141.3903  153.6622 C   0  0  0  0  0  0  0  0  0  0  0  0
  147.7996  133.8610  155.7184 C   0  0  0  0  0  0  0  0  0  0  0  0
  146.3941  134.4642  155.8788 C   0  0  0  0  0  0  0  0  0  0  0  0
  148.0639  133.1010  157.0269 C   0  0  0  0  0  0  0  0  0  0  0  0
  146.9935  133.7988  151.3194 H   0  0  0  0  0  0  0  0  0  0  0  0
  147.2282  132.1540  151.8756 H   0  0  0  0  0  0  0  0  0  0  0  0
  148.6094  133.2568  151.7515 H   0  0  0  0  0  0  0  0  0  0  0  0
  148.4463  131.0895  155.2623 H   0  0  0  0  0  0  0  0  0  0  0  0
  148.3970  131.0872  153.5234 H   0  0  0  0  0  0  0  0  0  0  0  0
  146.9000  131.2392  154.4414 H   0  0  0  0  0  0  0  0  0  0  0  0
  150.2297  133.0648  154.9103 H   0  0  0  0  0  0  0  0  0  0  0  0
  149.8774  134.0373  153.4456 H   0  0  0  0  0  0  0  0  0  0  0  0
  149.6483  135.0360  156.1369 H   0  0  0  0  0  0  0  0  0  0  0  0
  148.7340  135.9451  153.5486 H   0  0  0  0  0  0  0  0  0  0  0  0
  147.5916  137.7155  153.0263 H   0  0  0  0  0  0  0  0  0  0  0  0
  146.4941  138.4137  154.1850 H   0  0  0  0  0  0  0  0  0  0  0  0
  150.3174  137.5535  155.6229 H   0  0  0  0  0  0  0  0  0  0  0  0
  151.7256  138.4707  155.0976 H   0  0  0  0  0  0  0  0  0  0  0  0
  150.8110  137.5163  153.9340 H   0  0  0  0  0  0  0  0  0  0  0  0
  146.1501  140.7098  153.2803 H   0  0  0  0  0  0  0  0  0  0  0  0
  147.1120  142.1339  152.8909 H   0  0  0  0  0  0  0  0  0  0  0  0
  146.4998  141.9046  154.5305 H   0  0  0  0  0  0  0  0  0  0  0  0
  146.3475  135.1412  156.7324 H   0  0  0  0  0  0  0  0  0  0  0  0
  145.6436  133.6884  156.0338 H   0  0  0  0  0  0  0  0  0  0  0  0
  146.0784  135.0372  155.0071 H   0  0  0  0  0  0  0  0  0  0  0  0
  148.0200  133.7665  157.8897 H   0  0  0  0  0  0  0  0  0  0  0  0
  149.0507  132.6374  157.0375 H   0  0  0  0  0  0  0  0  0  0  0  0
  147.3322  132.3088  157.1895 H   0  0  0  0  0  0  0  0  0  0  0  0
  1  2  1  0  0  0  0
  1 21  1  0  0  0  0
  1 22  1  0  0  0  0
  1 23  1  0  0  0  0
  2  3  1  0  0  0  0
  3 18  1  0  0  0  0
  3  4  1  0  0  0  0
  3  5  1  0  0  0  0
  4 24  1  0  0  0  0
  4 25  1  0  0  0  0
  4 26  1  0  0  0  0
  5  6  1  0  0  0  0
  5 27  1  0  0  0  0
  5 28  1  0  0  0  0
  6  7  1  0  0  0  0
  6 18  1  0  0  0  0
  6 29  1  0  0  0  0
  7  8  1  0  0  0  0
  7 30  1  0  0  0  0
  8  9  2  0  0  0  0
  8 10  1  0  0  0  0
 10 11  1  0  0  0  0
 10 31  1  0  0  0  0
 10 32  1  0  0  0  0
 11 16  2  0  0  0  0
 11 12  1  0  0  0  0
 12 13  1  0  0  0  0
 12 14  2  0  0  0  0
 13 33  1  0  0  0  0
 13 34  1  0  0  0  0
 13 35  1  0  0  0  0
 14 15  1  0  0  0  0
 15 16  1  0  0  0  0
 16 17  1  0  0  0  0
 17 36  1  0  0  0  0
 17 37  1  0  0  0  0
 17 38  1  0  0  0  0
 18 19  1  0  0  0  0
 18 20  1  0  0  0  0
 19 39  1  0  0  0  0
 19 40  1  0  0  0  0
 19 41  1  0  0  0  0
 20 42  1  0  0  0  0
 20 43  1  0  0  0  0
 20 44  1  0  0  0  0
M  END
> <s_m_source_file>
AV-unprocessed.smi

> <i_m_source_file_index>
646

> <i_lp_mmshare_version>
43012

> <i_f3d_flags>
0

> <s_epik_input>
W0NIM11PW0NAQF0xKFtDSDNdKVtDSDJdW0NASF0oQzEoW0NIM10pW0NIM10pW05IXUMoPU8pW0NIMl1jMmMoW0NIM10pbm9jMltDSDNd

> <s_epik_cmdline>
J2VwaWtfcHl0aG9uJywgJy1waCcsICc3LjAnLCAnLXRuJywgJzgnLCAnLW1hJywgJzIwMCcsICctbWV0YWxfYmluZGluZycsICctaW1hZScsICc8aW5maWxlLm1hZT4nLCAnLW9tYWUnLCAnPG91dGZpbGUubWFlPic=

> <r_lp_tautomer_probability>
1

> <r_epik_Ionization_Penalty>
2.13169e-08

> <r_epik_Ionization_Penalty_Charging>
0

> <r_epik_Ionization_Penalty_Neutral>
2.13169e-08

> <r_epik_State_Penalty>
-0

> <r_epik_Charging_Adjusted_Penalty>
0

> <i_epik_Tot_Q>
0

> <i_epik_Tot_abs_Q>
0

> <r_epik_Metal_State_Penalty>
-0

> <b_epik_Metal_Only>
0

> <s_lp_Force_Field>
OPLS_2005

> <r_lp_Energy>
17.7516

> <b_lp_Chiralities_Consistent>
1

> <s_lp_Variant>
AV-unprocessed.smi:646-1

> <Gold.Version>
5.8.1

> <Gold.Id.Protein>
6NUR|6NUR_protein|mol2

> <Gold.PLP.Fitness>
33.0547

> <Gold.PLP.PLP>
-26.7818

> <Gold.PLP.part.hbond>
-3.5894

> <Gold.PLP.part.metal>
0.0000

> <Gold.PLP.part.buried>
-2.0152

> <Gold.PLP.part.nonpolar>
-21.5070

> <Gold.PLP.part.repulsive>
0.4249

> <Gold.PLP.ligand.clash>
0.0000

> <Gold.PLP.ligand.torsion>
0.7299

> <Gold.PLP.Chemscore.Hbond>
2.4472

> <Gold.PLP.Chemscore.CHOScore>
0.0000

> <Gold.PLP.Chemscore.Metal>
0.0000

> <Gold.Chemscore.Hbonds>
donor molecule, donor type, donor heavy atom, donor atom, acceptor molecule, acceptor atom, score
      L1  H     7    30       P1  7948  1.00
      P1  H  7989  7998       L1    14  0.93
      P1  H  8011  8017       L1    15  0.33

> <Gold.PLP.Chemscore.Internal.Correction>
0.3913

> <Gold.Rescore>
     Score         DG    S(hbond)    S(metal)    S(lipo)     H(rot)  DE(clash)    DE(int)     intcor
     14.25     -15.80       1.87        0.00      67.47       1.49       0.08       1.47       ----

> <Gold.Chemscore.Fitness>
14.2476

> <Gold.Chemscore.DG>
-15.7971

> <Gold.Chemscore.ZeroCoef>
-5.4800

> <Gold.Chemscore.Hbond>
1.8697

> <Gold.Chemscore.Metal>
0.0000

> <Gold.Chemscore.Lipo>
67.4707

> <Gold.Chemscore.Internal_Hbond>
0.0000

> <Gold.Chemscore.DEClash>
0.0762

> <Gold.Chemscore.DEInternal>
1.4733

> <Gold.Chemscore.Rot>
1.4928

> <Gold.Chemscore.Internal.Correction>
   9.000000E+99

> <Gold.Chemscore.Hbonds>
donor molecule, donor type, donor heavy atom, donor atom, acceptor molecule, acceptor atom, score
      L1  H     7    30       P1  7948  1.00
      P1  H  7989  7998       L1    14  0.54
      P1  H  8011  8017       L1    15  0.13

> <Gold.Chemscore.Hbond.Weighted>
-6.2447

> <Gold.Chemscore.Metal.Weighted>
-0.0000

> <Gold.Chemscore.Lipo.Weighted>
-7.8941

> <Gold.Chemscore.Internal_Hbond.Weighted>
0.0000

> <Gold.Chemscore.DEClash.Weighted>
0.0762

> <Gold.Chemscore.DEInternal.Weighted>
1.4733

> <Gold.Chemscore.Rot.Weighted>
3.8217

> <Gold.Chemscore.Internal.Correction.Weighted>
   9.000000E+99

> <Gold.Protein.RotatedTorsions>
[ 6907 6896 6895 6894 ] final -147.01 input  -60.11 | X-H torsion
[ 7974 7965 7964 7962 ] final   85.52 input  175.53 | X-H torsion
[ 8008 7997 7996 7995 ] final -128.01 input   59.86 | X-H torsion
[ 10167 10162 10161 10158 ] final  125.26 input  -65.29 | X-H torsion
[ 10718 10713 10712 10709 ] final  -10.46 input   66.30 | X-H torsion
[ 10763 10752 10751 10750 ] final   52.72 input  -60.55 | X-H torsion
[ 11005 11000 10999 10996 ] final  133.90 input  -57.11 | X-H torsion

> <Gold.Protein.ActiveResidues>
 VAL166  LYS551  ARG553  GLY616  TRP617  ASP618  TYR619  PRO620  LYS621  CYS622 
 ASP623  PHE694  ASN695  SER759  ASP760  ASP761  ALA762  ILE779  LEU786  VAL792 
 PHE793  MET794  SER795  GLU796  ALA797  LYS798  CYS799  TRP800  GLU811  SER814 

> <Gold.Protein.RotatedAtoms>
  151.1497  133.4916  159.2595 H   0  0  0  0  0  0  0  0  0  0  0  0  # atno 6907 bound_to 6896
  151.1567  135.0253  159.8702 H   0  0  0  0  0  0  0  0  0  0  0  0  # atno 6908 bound_to 6896
  152.5463  134.1375  159.8518 H   0  0  0  0  0  0  0  0  0  0  0  0  # atno 6909 bound_to 6896
  145.5844  139.2329  143.2334 H   0  0  0  0  0  0  0  0  0  0  0  0  # atno 7974 bound_to 7965
  155.2556  140.0434  157.2991 H   0  0  0  0  0  0  0  0  0  0  0  0  # atno 8008 bound_to 7997
  154.5742  140.2382  155.8116 H   0  0  0  0  0  0  0  0  0  0  0  0  # atno 8009 bound_to 7997
  156.2145  140.2989  155.9817 H   0  0  0  0  0  0  0  0  0  0  0  0  # atno 8010 bound_to 7997
  139.5695  144.6931  151.3817 H   0  0  0  0  0  0  0  0  0  0  0  0  # atno 10167 bound_to 10162
  156.6732  130.5015  149.5994 H   0  0  0  0  0  0  0  0  0  0  0  0  # atno 10718 bound_to 10713
  152.9790  135.5803  154.4624 H   0  0  0  0  0  0  0  0  0  0  0  0  # atno 10763 bound_to 10752
  154.4198  135.2771  155.1985 H   0  0  0  0  0  0  0  0  0  0  0  0  # atno 10764 bound_to 10752
  154.3738  135.6162  153.5808 H   0  0  0  0  0  0  0  0  0  0  0  0  # atno 10765 bound_to 10752
  139.9880  134.9525  156.9790 H   0  0  0  0  0  0  0  0  0  0  0  0  # atno 11005 bound_to 11000
  146.1693  140.6671  142.9241 LP  0  0  0  0  0  0  0  0  0  0  0  0  # atno 17320 bound_to 7965
  144.7379  140.4861  143.6890 LP  0  0  0  0  0  0  0  0  0  0  0  0  # atno 17321 bound_to 7965
  140.6979  143.7703  150.7356 LP  0  0  0  0  0  0  0  0  0  0  0  0  # atno 17342 bound_to 10162
  140.1205  143.4616  152.2316 LP  0  0  0  0  0  0  0  0  0  0  0  0  # atno 17343 bound_to 10162
  156.1923  130.6567  151.1075 LP  0  0  0  0  0  0  0  0  0  0  0  0  # atno 17370 bound_to 10713
  157.7070  131.0752  150.6634 LP  0  0  0  0  0  0  0  0  0  0  0  0  # atno 17371 bound_to 10713
  140.4963  134.1142  155.7242 LP  0  0  0  0  0  0  0  0  0  0  0  0  # atno 17394 bound_to 11000
  141.1542  133.8914  157.2021 LP  0  0  0  0  0  0  0  0  0  0  0  0  # atno 17395 bound_to 11000

$$$$
