AV-unprocessed.smi:2964|AV-procd|sdf|11321|dock10
  -GOLD-   2272016223D 1   1.00000     0.00000
 Structure written by MMmdl.
 35 36  0  0  0  0  0  0  0  0  1 V2000
  152.6444  140.2981  157.5179 O   0  0  0  0  0  0  0  0  0  0  0  0
  151.5724  140.5421  158.0739 C   0  0  0  0  0  0  0  0  0  0  0  0
  150.2923  139.7871  157.6875 C   0  0  0  0  0  0  0  0  0  0  0  0
  149.4836  140.4856  156.6738 N   0  0  0  0  0  0  0  0  0  0  0  0
  148.1960  140.9082  157.0598 C   0  0  0  0  0  0  0  0  0  0  0  0
  147.3560  141.5510  156.2253 C   0  0  0  0  0  0  0  0  0  0  0  0
  145.9766  142.0235  156.6565 C   0  0  0  0  0  0  0  0  0  0  0  0
  145.2402  140.9900  157.0643 F   0  0  0  0  0  0  0  0  0  0  0  0
  146.0858  142.8764  157.6743 F   0  0  0  0  0  0  0  0  0  0  0  0
  145.3285  142.6353  155.6642 F   0  0  0  0  0  0  0  0  0  0  0  0
  147.8473  141.8103  154.8874 C   0  0  0  0  0  0  0  0  0  0  0  0
  149.0750  141.4114  154.5016 C   0  0  0  0  0  0  0  0  0  0  0  0
  149.9728  140.7019  155.4159 C   0  0  0  0  0  0  0  0  0  0  0  0
  151.0944  140.3271  155.0734 O   0  0  0  0  0  0  0  0  0  0  0  0
  151.4439  141.4518  159.0514 N   0  0  0  0  0  0  0  0  0  0  0  0
  152.5276  142.2805  159.5724 C   0  0  0  0  0  0  0  0  0  0  0  0
  152.8138  141.9851  161.0597 C   0  0  0  0  0  0  0  0  0  0  0  0
  152.8711  143.3448  161.7574 C   0  0  0  0  0  0  0  0  0  0  0  0
  151.9306  144.2251  160.9412 C   0  0  0  0  0  0  0  0  0  0  0  0
  152.1539  143.7724  159.4976 C   0  0  0  0  0  0  0  0  0  0  0  0
  150.5771  138.7957  157.3325 H   0  0  0  0  0  0  0  0  0  0  0  0
  149.6966  139.6069  158.5845 H   0  0  0  0  0  0  0  0  0  0  0  0
  147.9353  140.6687  158.0806 H   0  0  0  0  0  0  0  0  0  0  0  0
  147.2154  142.3306  154.1827 H   0  0  0  0  0  0  0  0  0  0  0  0
  149.4069  141.6189  153.4949 H   0  0  0  0  0  0  0  0  0  0  0  0
  150.5299  141.5864  159.4590 H   0  0  0  0  0  0  0  0  0  0  0  0
  153.4265  142.1133  158.9759 H   0  0  0  0  0  0  0  0  0  0  0  0
  152.0055  141.3970  161.4974 H   0  0  0  0  0  0  0  0  0  0  0  0
  153.7347  141.4171  161.1960 H   0  0  0  0  0  0  0  0  0  0  0  0
  152.5892  143.2894  162.8091 H   0  0  0  0  0  0  0  0  0  0  0  0
  153.8851  143.7431  161.7040 H   0  0  0  0  0  0  0  0  0  0  0  0
  150.8983  144.0292  161.2343 H   0  0  0  0  0  0  0  0  0  0  0  0
  152.1219  145.2891  161.0823 H   0  0  0  0  0  0  0  0  0  0  0  0
  152.9894  144.3305  159.0730 H   0  0  0  0  0  0  0  0  0  0  0  0
  151.2855  143.9714  158.8681 H   0  0  0  0  0  0  0  0  0  0  0  0
  1  2  2  0  0  0  0
  2  3  1  0  0  0  0
  2 15  1  0  0  0  0
  3  4  1  0  0  0  0
  3 21  1  0  0  0  0
  3 22  1  0  0  0  0
  4 13  1  0  0  0  0
  4  5  1  0  0  0  0
  5  6  2  0  0  0  0
  5 23  1  0  0  0  0
  6  7  1  0  0  0  0
  6 11  1  0  0  0  0
  7  8  1  0  0  0  0
  7  9  1  0  0  0  0
  7 10  1  0  0  0  0
 11 12  2  0  0  0  0
 11 24  1  0  0  0  0
 12 13  1  0  0  0  0
 12 25  1  0  0  0  0
 13 14  2  0  0  0  0
 15 16  1  0  0  0  0
 15 26  1  0  0  0  0
 16 20  1  0  0  0  0
 16 17  1  0  0  0  0
 16 27  1  0  0  0  0
 17 18  1  0  0  0  0
 17 28  1  0  0  0  0
 17 29  1  0  0  0  0
 18 19  1  0  0  0  0
 18 30  1  0  0  0  0
 18 31  1  0  0  0  0
 19 20  1  0  0  0  0
 19 32  1  0  0  0  0
 19 33  1  0  0  0  0
 20 34  1  0  0  0  0
 20 35  1  0  0  0  0
M  END
> <s_m_source_file>
AV-unprocessed.smi

> <i_m_source_file_index>
2964

> <i_lp_mmshare_version>
43012

> <i_f3d_flags>
0

> <s_epik_input>
W0NIMl0xW0NIMl1bQ0gyXVtDSDJdW0NIXTFbTkhdQyg9TylbQ0gyXW4yW2NIXWMoQyhGKShGKUYpW2NIXVtjSF1jMj1P

> <s_epik_cmdline>
J2VwaWtfcHl0aG9uJywgJy1waCcsICc3LjAnLCAnLXRuJywgJzgnLCAnLW1hJywgJzIwMCcsICctbWV0YWxfYmluZGluZycsICctaW1hZScsICc8aW5maWxlLm1hZT4nLCAnLW9tYWUnLCAnPG91dGZpbGUubWFlPic=

> <r_lp_tautomer_probability>
1

> <r_epik_Ionization_Penalty>
3.84201e-08

> <r_epik_Ionization_Penalty_Charging>
1.91184e-08

> <r_epik_Ionization_Penalty_Neutral>
1.93017e-08

> <r_epik_State_Penalty>
-0

> <r_epik_Charging_Adjusted_Penalty>
1.91184e-08

> <i_epik_Tot_Q>
0

> <i_epik_Tot_abs_Q>
0

> <r_epik_Metal_State_Penalty>
-0

> <b_epik_Metal_Only>
0

> <s_lp_Force_Field>
OPLS_2005

> <r_lp_Energy>
29.7678

> <b_lp_Chiralities_Consistent>
1

> <s_lp_Variant>
AV-unprocessed.smi:2964-1

> <Gold.Version>
5.8.1

> <Gold.Id.Protein>
6NUR|6NUR_protein|mol2

> <Gold.PLP.Fitness>
43.5103

> <Gold.PLP.PLP>
-38.4617

> <Gold.PLP.part.hbond>
-2.0000

> <Gold.PLP.part.metal>
0.0000

> <Gold.PLP.part.buried>
-4.7296

> <Gold.PLP.part.nonpolar>
-31.3935

> <Gold.PLP.part.repulsive>
0.1931

> <Gold.PLP.ligand.clash>
0.0000

> <Gold.PLP.ligand.torsion>
0.3974

> <Gold.PLP.Chemscore.Hbond>
1.9440

> <Gold.PLP.Chemscore.CHOScore>
0.0000

> <Gold.PLP.Chemscore.Metal>
0.0000

> <Gold.Chemscore.Hbonds>
donor molecule, donor type, donor heavy atom, donor atom, acceptor molecule, acceptor atom, score
      P1  H  7989  7998       L1    14  1.00
      P1  H  7997  8010       L1     1  0.91

> <Gold.PLP.Chemscore.Internal.Correction>
0.0115

> <Gold.Rescore>
     Score         DG    S(hbond)    S(metal)    S(lipo)     H(rot)  DE(clash)    DE(int)     intcor
     16.95     -17.48       1.94        0.00      81.38       1.56       0.10       0.43       ----

> <Gold.Chemscore.Fitness>
16.9471

> <Gold.Chemscore.DG>
-17.4827

> <Gold.Chemscore.ZeroCoef>
-5.4800

> <Gold.Chemscore.Hbond>
1.9361

> <Gold.Chemscore.Metal>
0.0000

> <Gold.Chemscore.Lipo>
81.3804

> <Gold.Chemscore.Internal_Hbond>
0.0000

> <Gold.Chemscore.DEClash>
0.1007

> <Gold.Chemscore.DEInternal>
0.4348

> <Gold.Chemscore.Rot>
1.5568

> <Gold.Chemscore.Internal.Correction>
   9.000000E+99

> <Gold.Chemscore.Hbonds>
donor molecule, donor type, donor heavy atom, donor atom, acceptor molecule, acceptor atom, score
      P1  H  7989  7998       L1    14  0.91
      P1  H  7997  8010       L1     1  0.89

> <Gold.Chemscore.Hbond.Weighted>
-6.4666

> <Gold.Chemscore.Metal.Weighted>
-0.0000

> <Gold.Chemscore.Lipo.Weighted>
-9.5215

> <Gold.Chemscore.Internal_Hbond.Weighted>
0.0000

> <Gold.Chemscore.DEClash.Weighted>
0.1007

> <Gold.Chemscore.DEInternal.Weighted>
0.4348

> <Gold.Chemscore.Rot.Weighted>
3.9854

> <Gold.Chemscore.Internal.Correction.Weighted>
   9.000000E+99

> <Gold.Protein.RotatedTorsions>
[ 6907 6896 6895 6894 ] final   13.37 input  -60.11 | X-H torsion
[ 7974 7965 7964 7962 ] final -172.24 input  175.53 | X-H torsion
[ 8008 7997 7996 7995 ] final   62.77 input   59.86 | X-H torsion
[ 10167 10162 10161 10158 ] final  134.68 input  -65.29 | X-H torsion
[ 10718 10713 10712 10709 ] final -156.39 input   66.30 | X-H torsion
[ 10763 10752 10751 10750 ] final  -81.17 input  -60.55 | X-H torsion
[ 11005 11000 10999 10996 ] final   65.69 input  -57.11 | X-H torsion

> <Gold.Protein.ActiveResidues>
 VAL166  LYS551  ARG553  GLY616  TRP617  ASP618  TYR619  PRO620  LYS621  CYS622 
 ASP623  PHE694  ASN695  SER759  ASP760  ASP761  ALA762  ILE779  LEU786  VAL792 
 PHE793  MET794  SER795  GLU796  ALA797  LYS798  CYS799  TRP800  GLU811  SER814 

> <Gold.Protein.RotatedAtoms>
  151.7853  135.0750  160.0379 H   0  0  0  0  0  0  0  0  0  0  0  0  # atno 6907 bound_to 6896
  152.3194  133.5833  159.5743 H   0  0  0  0  0  0  0  0  0  0  0  0  # atno 6908 bound_to 6896
  150.7362  133.9949  159.3661 H   0  0  0  0  0  0  0  0  0  0  0  0  # atno 6909 bound_to 6896
  144.7148  140.1802  143.6359 H   0  0  0  0  0  0  0  0  0  0  0  0  # atno 7974 bound_to 7965
  155.6196  140.3495  155.4648 H   0  0  0  0  0  0  0  0  0  0  0  0  # atno 8008 bound_to 7997
  156.0089  140.1229  157.0497 H   0  0  0  0  0  0  0  0  0  0  0  0  # atno 8009 bound_to 7997
  154.4274  140.1085  156.5788 H   0  0  0  0  0  0  0  0  0  0  0  0  # atno 8010 bound_to 7997
  139.5246  144.6555  151.5175 H   0  0  0  0  0  0  0  0  0  0  0  0  # atno 10167 bound_to 10162
  156.5258  130.8499  151.2698 H   0  0  0  0  0  0  0  0  0  0  0  0  # atno 10718 bound_to 10713
  154.5603  135.5635  153.7001 H   0  0  0  0  0  0  0  0  0  0  0  0  # atno 10763 bound_to 10752
  153.0016  135.6272  154.2253 H   0  0  0  0  0  0  0  0  0  0  0  0  # atno 10764 bound_to 10752
  154.2191  135.2870  155.2911 H   0  0  0  0  0  0  0  0  0  0  0  0  # atno 10765 bound_to 10752
  139.9879  134.6639  156.0144 H   0  0  0  0  0  0  0  0  0  0  0  0  # atno 11005 bound_to 11000
  145.8863  139.2350  143.1576 LP  0  0  0  0  0  0  0  0  0  0  0  0  # atno 17320 bound_to 7965
  145.9947  140.8573  143.0049 LP  0  0  0  0  0  0  0  0  0  0  0  0  # atno 17321 bound_to 7965
  140.6379  143.8948  150.6664 LP  0  0  0  0  0  0  0  0  0  0  0  0  # atno 17342 bound_to 10162
  140.2273  143.3763  152.1594 LP  0  0  0  0  0  0  0  0  0  0  0  0  # atno 17343 bound_to 10162
  157.7429  130.9901  150.2556 LP  0  0  0  0  0  0  0  0  0  0  0  0  # atno 17370 bound_to 10713
  156.3106  130.3771  149.7665 LP  0  0  0  0  0  0  0  0  0  0  0  0  # atno 17371 bound_to 10713
  141.1540  133.6545  156.4103 LP  0  0  0  0  0  0  0  0  0  0  0  0  # atno 17394 bound_to 11000
  140.4967  134.6524  157.5232 LP  0  0  0  0  0  0  0  0  0  0  0  0  # atno 17395 bound_to 11000

$$$$
