#       Name:                AV-unprocessed.smi:266
#       Creating user name   scv26
#       Creation time:       Thu Mar 26 21:24:04 2020


#       File generated by GOLD software.
#

@<TRIPOS>MOLECULE
AV-unprocessed.smi:266
    59    62     1
SMALL
NO_CHARGES


@<TRIPOS>ATOM
      1 ****        -6.3285   0.8627  -0.0764 C.3            1 S1                 0.0000
      2 ****        -5.4752   0.6920  -1.3437 C.3            1 S1                 0.0000
      3 ****        -5.7493   1.7723  -2.2305 O.3            1 S1                 0.0000
      4 ****        -4.5949   2.0123  -3.0141 C.3            1 S1                 0.0000
      5 ****        -3.4795   1.8727  -1.9913 C.3            1 S1                 0.0000
      6 ****        -3.9326   0.6766  -1.1517 C.3            1 S1                 0.0000
      7 ****        -3.5507   0.9081   0.1936 O.3            1 S1                 0.0000
      8 ****        -3.3308  -0.6778  -1.6123 C.3            1 S1                 0.0000
      9 ****        -1.8771  -0.7440  -1.5612 N.pl3          1 S1                 0.0000
     10 ****        -1.0074  -0.5082  -2.5996 C.2            1 S1                 0.0000
     11 ****         0.2555  -0.6415  -2.3049 N.2            1 S1                 0.0000
     12 ****         0.2690  -1.0146  -0.9635 C.ar           1 S1                 0.0000
     13 ****         1.2929  -1.3292  -0.0137 C.ar           1 S1                 0.0000
     14 ****         2.6347  -1.3125  -0.2720 N.pl3          1 S1                 0.0000
     15 ****         3.1314  -0.7794  -1.5351 C.3            1 S1                 0.0000
     16 ****         3.6215  -1.6478   0.7594 C.3            1 S1                 0.0000
     17 ****         4.2330  -0.4027   1.4326 C.3            1 S1                 0.0000
     18 ****         5.4385  -0.7584   2.3234 C.3            1 S1                 0.0000
     19 ****         5.8289   0.4791   3.1386 C.3            1 S1                 0.0000
     20 ****         4.2626   1.3714   3.4638 S.o2           1 S1                 0.0000
     21 ****         3.8200   1.1044   4.8407 O.2            1 S1                 0.0000
     22 ****         4.3855   2.7479   2.9606 O.2            1 S1                 0.0000
     23 ****         3.2422   0.3847   2.3050 C.3            1 S1                 0.0000
     24 ****         0.8754  -1.6759   1.2338 N.ar           1 S1                 0.0000
     25 ****        -0.4222  -1.7080   1.5452 C.ar           1 S1                 0.0000
     26 ****        -1.4699  -1.4357   0.7693 N.ar           1 S1                 0.0000
     27 ****        -1.0742  -1.0900  -0.4876 C.ar           1 S1                 0.0000
     28 ****        -6.1590   0.0453   0.6249 H              1 S1                 0.0000
     29 ****        -7.3904   0.8698  -0.3236 H              1 S1                 0.0000
     30 ****        -6.1031   1.7998   0.4333 H              1 S1                 0.0000
     31 ****        -5.7925  -0.2209  -1.8502 H              1 S1                 0.0000
     32 ****        -4.5105   1.2568  -3.7967 H              1 S1                 0.0000
     33 ****        -4.6214   2.9972  -3.4804 H              1 S1                 0.0000
     34 ****        -2.4975   1.7659  -2.4485 H              1 S1                 0.0000
     35 ****        -3.4554   2.7795  -1.3843 H              1 S1                 0.0000
     36 ****        -2.6072   0.8994   0.2444 H              1 S1                 0.0000
     37 ****        -3.7285  -1.4889  -1.0008 H              1 S1                 0.0000
     38 ****        -3.6381  -0.8943  -2.6364 H              1 S1                 0.0000
     39 ****        -1.3406  -0.2280  -3.5884 H              1 S1                 0.0000
     40 ****         2.7589   0.2318  -1.7014 H              1 S1                 0.0000
     41 ****         2.8260  -1.4140  -2.3674 H              1 S1                 0.0000
     42 ****         4.2208  -0.7335  -1.5410 H              1 S1                 0.0000
     43 ****         3.2223  -2.3322   1.5080 H              1 S1                 0.0000
     44 ****         4.4193  -2.2069   0.2691 H              1 S1                 0.0000
     45 ****         4.6020   0.2724   0.6591 H              1 S1                 0.0000
     46 ****         5.1539  -1.5577   3.0091 H              1 S1                 0.0000
     47 ****         6.2798  -1.1276   1.7360 H              1 S1                 0.0000
     48 ****         6.3271   0.2337   4.0766 H              1 S1                 0.0000
     49 ****         6.4774   1.1363   2.5587 H              1 S1                 0.0000
     50 ****         2.5870   1.0370   1.7278 H              1 S1                 0.0000
     51 ****         2.6267  -0.2881   2.9023 H              1 S1                 0.0000
     52 ****        -0.6534  -1.9917   2.5614 H              1 S1                 0.0000
     53 ****        -5.9765   2.5917  -1.7042 LP             1 S1                 0.0000
     54 ****        -6.5174   1.5345  -2.8250 LP             1 S1                 0.0000
     55 ****        -3.9264   0.1896   0.7790 LP             1 S1                 0.0000
     56 ****        -3.8962   1.7972   0.4938 LP             1 S1                 0.0000
     57 ****         1.0409  -0.5058  -2.9088 LP             1 S1                 0.0000
     58 ****         1.5532  -1.9111   1.9304 LP             1 S1                 0.0000
     59 ****        -2.4226  -1.4793   1.0701 LP             1 S1                 0.0000
@<TRIPOS>BOND
    1    1    2 1     
    2    1   28 1     
    3    1   29 1     
    4    1   30 1     
    5    2    6 1     
    6    2    3 1     
    7    2   31 1     
    8    3    4 1     
    9    4    5 1     
   10    4   32 1     
   11    4   33 1     
   12    5    6 1     
   13    5   34 1     
   14    5   35 1     
   15    6    7 1     
   16    6    8 1     
   17    7   36 1     
   18    8    9 1     
   19    8   37 1     
   20    8   38 1     
   21    9   27 1     
   22    9   10 1     
   23   10   11 2     
   24   10   39 1     
   25   11   12 1     
   26   12   27 ar    
   27   12   13 ar    
   28   13   14 1     
   29   13   24 ar    
   30   14   15 1     
   31   14   16 1     
   32   15   40 1     
   33   15   41 1     
   34   15   42 1     
   35   16   17 1     
   36   16   43 1     
   37   16   44 1     
   38   17   23 1     
   39   17   18 1     
   40   17   45 1     
   41   18   19 1     
   42   18   46 1     
   43   18   47 1     
   44   19   20 1     
   45   19   48 1     
   46   19   49 1     
   47   20   21 2     
   48   20   22 2     
   49   20   23 1     
   50   23   50 1     
   51   23   51 1     
   52   24   25 ar    
   53   25   26 ar    
   54   25   52 1     
   55   26   27 ar    
   56    3   53 1     
   57    3   54 1     
   58    7   55 1     
   59    7   56 1     
   60   11   57 1     
   61   24   58 1     
   62   26   59 1     
@<TRIPOS>SUBSTRUCTURE
      1 S1             1
@<TRIPOS>SET
LONE_PAIRS      STATIC     ATOMS    <user>   **** ""
9 53 54 55 56 57 21 22 58 59
DONOR_HYDROGENS      STATIC     ATOMS    <user>   **** ""
1 36
ATOM$BLUE        STATIC     ATOMS    COLORGROUP SYSTEM
9 53 54 55 56 57 21 22 58 59
ATOM$RED        STATIC     ATOMS    COLORGROUP SYSTEM
1 36
