AV-unprocessed.smi:1046|AV-procd|sdf|4551|dock4
  -GOLD-   22720 2583D 1   1.00000     0.00000
 Structure written by MMmdl.
 53 55  0  0  0  0  0  0  0  0  2 V2000
  152.7506  144.1366  159.4585 C   0  0  0  0  0  0  0  0  0  0  0  0
  152.2157  143.0085  158.5938 C   0  0  0  0  0  0  0  0  0  0  0  0
  151.3651  143.3191  157.5087 C   0  0  0  0  0  0  0  0  0  0  0  0
  150.8466  142.2998  156.6803 C   0  0  0  0  0  0  0  0  0  0  0  0
  150.0099  142.3738  155.5796 N   0  0  0  0  0  0  0  0  0  0  0  0
  149.8919  141.0917  155.2461 C   0  0  0  0  0  0  0  0  0  0  0  0
  150.5540  140.1946  156.0020 N   0  0  0  0  0  0  0  0  0  0  0  0
  150.5814  138.7527  155.8354 C   0  0  0  0  0  0  0  0  0  0  0  0
  149.8301  138.2930  154.5717 C   0  0  1  0  0  0  0  0  0  0  0  0
  150.4158  137.0981  154.0926 O   0  0  0  0  0  0  0  0  0  0  0  0
  148.3377  138.0379  154.8643 C   0  0  0  0  0  0  0  0  0  0  0  0
  147.4336  139.1639  154.5966 N   0  0  0  0  0  0  0  0  0  0  0  0
  147.2064  139.3766  153.1675 C   0  0  0  0  0  0  0  0  0  0  0  0
  146.3190  138.2909  152.5233 C   0  0  0  0  0  0  0  0  0  0  0  0
  145.0135  138.2004  153.2271 N   0  3  0  0  0  0  0  0  0  0  0  0
  144.0988  137.2139  152.5989 C   0  0  0  0  0  0  0  0  0  0  0  0
  142.7112  137.1850  153.2623 C   0  0  0  0  0  0  0  0  0  0  0  0
  142.0959  138.4510  153.1516 O   0  0  0  0  0  0  0  0  0  0  0  0
  145.2151  137.9858  154.6851 C   0  0  0  0  0  0  0  0  0  0  0  0
  146.1311  139.0827  155.2635 C   0  0  0  0  0  0  0  0  0  0  0  0
  151.2058  140.9510  156.9694 C   0  0  0  0  0  0  0  0  0  0  0  0
  152.0507  140.6291  158.0463 C   0  0  0  0  0  0  0  0  0  0  0  0
  152.5592  141.6595  158.8645 C   0  0  0  0  0  0  0  0  0  0  0  0
  153.4695  141.3023  160.0260 C   0  0  0  0  0  0  0  0  0  0  0  0
  152.3999  145.1075  159.1081 H   0  0  0  0  0  0  0  0  0  0  0  0
  153.8406  144.1490  159.4402 H   0  0  0  0  0  0  0  0  0  0  0  0
  152.4222  144.0151  160.4907 H   0  0  0  0  0  0  0  0  0  0  0  0
  151.1028  144.3463  157.3026 H   0  0  0  0  0  0  0  0  0  0  0  0
  149.2876  140.7864  154.4044 H   0  0  0  0  0  0  0  0  0  0  0  0
  151.6205  138.4207  155.8087 H   0  0  0  0  0  0  0  0  0  0  0  0
  150.1336  138.3040  156.7230 H   0  0  0  0  0  0  0  0  0  0  0  0
  149.9460  139.0617  153.8091 H   0  0  0  0  0  0  0  0  0  0  0  0
  149.9767  136.8447  153.2954 H   0  0  0  0  0  0  0  0  0  0  0  0
  148.0213  137.1804  154.2686 H   0  0  0  0  0  0  0  0  0  0  0  0
  148.2359  137.7219  155.9019 H   0  0  0  0  0  0  0  0  0  0  0  0
  146.7337  140.3494  153.0239 H   0  0  0  0  0  0  0  0  0  0  0  0
  148.1618  139.4330  152.6445 H   0  0  0  0  0  0  0  0  0  0  0  0
  146.1512  138.5428  151.4755 H   0  0  0  0  0  0  0  0  0  0  0  0
  146.8174  137.3207  152.5362 H   0  0  0  0  0  0  0  0  0  0  0  0
  143.9696  137.4538  151.5423 H   0  0  0  0  0  0  0  0  0  0  0  0
  144.5552  136.2235  152.6323 H   0  0  0  0  0  0  0  0  0  0  0  0
  142.0781  136.4543  152.7584 H   0  0  0  0  0  0  0  0  0  0  0  0
  142.7597  136.8877  154.3093 H   0  0  0  0  0  0  0  0  0  0  0  0
  142.6641  139.0211  152.6549 H   0  0  0  0  0  0  0  0  0  0  0  0
  144.2588  138.0197  155.2056 H   0  0  0  0  0  0  0  0  0  0  0  0
  145.6323  136.9945  154.8657 H   0  0  0  0  0  0  0  0  0  0  0  0
  146.2531  138.9407  156.3361 H   0  0  0  0  0  0  0  0  0  0  0  0
  145.6260  140.0443  155.1610 H   0  0  0  0  0  0  0  0  0  0  0  0
  152.3039  139.5976  158.2404 H   0  0  0  0  0  0  0  0  0  0  0  0
  153.6166  140.2245  160.0992 H   0  0  0  0  0  0  0  0  0  0  0  0
  153.0407  141.6461  160.9675 H   0  0  0  0  0  0  0  0  0  0  0  0
  154.4482  141.7661  159.9009 H   0  0  0  0  0  0  0  0  0  0  0  0
  144.5746  139.1041  153.1201 H   0  0  0  0  0  0  0  0  0  0  0  0
  1  2  1  0  0  0  0
  1 25  1  0  0  0  0
  1 26  1  0  0  0  0
  1 27  1  0  0  0  0
  2 23  1  0  0  0  0
  2  3  2  0  0  0  0
  3  4  1  0  0  0  0
  3 28  1  0  0  0  0
  4 21  2  0  0  0  0
  4  5  1  0  0  0  0
  5  6  2  0  0  0  0
  6  7  1  0  0  0  0
  6 29  1  0  0  0  0
  7  8  1  0  0  0  0
  7 21  1  0  0  0  0
  8  9  1  0  0  0  0
  8 30  1  0  0  0  0
  8 31  1  0  0  0  0
  9 10  1  0  0  0  0
  9 11  1  0  0  0  0
  9 32  1  0  0  0  0
 10 33  1  0  0  0  0
 11 12  1  0  0  0  0
 11 34  1  0  0  0  0
 11 35  1  0  0  0  0
 12 20  1  0  0  0  0
 12 13  1  0  0  0  0
 13 14  1  0  0  0  0
 13 36  1  0  0  0  0
 13 37  1  0  0  0  0
 14 15  1  0  0  0  0
 14 38  1  0  0  0  0
 14 39  1  0  0  0  0
 15 16  1  0  0  0  0
 15 19  1  0  0  0  0
 15 53  1  0  0  0  0
 16 17  1  0  0  0  0
 16 40  1  0  0  0  0
 16 41  1  0  0  0  0
 17 18  1  0  0  0  0
 17 42  1  0  0  0  0
 17 43  1  0  0  0  0
 18 44  1  0  0  0  0
 19 20  1  0  0  0  0
 19 45  1  0  0  0  0
 19 46  1  0  0  0  0
 20 47  1  0  0  0  0
 20 48  1  0  0  0  0
 21 22  1  0  0  0  0
 22 23  2  0  0  0  0
 22 49  1  0  0  0  0
 23 24  1  0  0  0  0
 24 50  1  0  0  0  0
 24 51  1  0  0  0  0
 24 52  1  0  0  0  0
M  CHG  1  15   1
M  END
> <s_m_source_file>
AV-unprocessed.smi

> <i_m_source_file_index>
1046

> <i_lp_mmshare_version>
43012

> <i_f3d_flags>
0

> <s_epik_input>
W0NIM11jKFtjSF0xKWMoW0NIM10pW2NIXWMoYzEyKW4oW2NIXW4yKVtDSDJdW0NASF0oW09IXSlbQ0gyXU4zW0NIMl1bQ0gyXU4oW0NIMl1bQ0gyXTMpW0NIMl1bQ0gyXVtPSF0=

> <s_epik_cmdline>
J2VwaWtfcHl0aG9uJywgJy1waCcsICc3LjAnLCAnLXRuJywgJzgnLCAnLW1hJywgJzIwMCcsICctbWV0YWxfYmluZGluZycsICctaW1hZScsICc8aW5maWxlLm1hZT4nLCAnLW9tYWUnLCAnPG91dGZpbGUubWFlPic=

> <r_epik_Ionization_Penalty>
0.218081

> <r_epik_Ionization_Penalty_Charging>
0.0909554

> <r_epik_Ionization_Penalty_Neutral>
0.127126

> <r_epik_State_Penalty>
0.825642

> <r_epik_Charging_Adjusted_Penalty>
0.916597

> <i_epik_Tot_Q>
1

> <i_epik_Tot_abs_Q>
1

> <r_epik_Metal_State_Penalty>
0.740189

> <b_epik_Metal_Only>
0

> <s_lp_Force_Field>
OPLS_2005

> <r_lp_Energy>
34.993

> <b_lp_Chiralities_Consistent>
1

> <s_lp_Variant>
AV-unprocessed.smi:1046-4

> <Gold.Version>
5.8.1

> <Gold.Id.Protein>
6NUR|6NUR_protein|mol2

> <Gold.PLP.Fitness>
49.5440

> <Gold.PLP.PLP>
-39.6545

> <Gold.PLP.part.hbond>
-4.0000

> <Gold.PLP.part.metal>
0.0000

> <Gold.PLP.part.buried>
-3.4883

> <Gold.PLP.part.nonpolar>
-36.5899

> <Gold.PLP.part.repulsive>
3.6737

> <Gold.PLP.ligand.clash>
0.0000

> <Gold.PLP.ligand.torsion>
0.9849

> <Gold.PLP.Chemscore.Hbond>
3.9000

> <Gold.PLP.Chemscore.CHOScore>
0.0000

> <Gold.PLP.Chemscore.Metal>
0.0000

> <Gold.Chemscore.Hbonds>
donor molecule, donor type, donor heavy atom, donor atom, acceptor molecule, acceptor atom, score
      L1  H    10    33       P1  7948  0.85
      L1  H    15    53       P1 10175  2.00
      L1  H    18    44       P1 10175  1.00

> <Gold.PLP.Chemscore.Internal.Correction>
0.1592

> <Gold.Rescore>
     Score         DG    S(hbond)    S(metal)    S(lipo)     H(rot)  DE(clash)    DE(int)     intcor
     16.45     -18.82       2.84        0.00     103.21       3.21       1.37       1.00       ----

> <Gold.Chemscore.Fitness>
16.4493

> <Gold.Chemscore.DG>
-18.8234

> <Gold.Chemscore.ZeroCoef>
-5.4800

> <Gold.Chemscore.Hbond>
2.8369

> <Gold.Chemscore.Metal>
0.0000

> <Gold.Chemscore.Lipo>
103.2058

> <Gold.Chemscore.Internal_Hbond>
0.0000

> <Gold.Chemscore.DEClash>
1.3704

> <Gold.Chemscore.DEInternal>
1.0038

> <Gold.Chemscore.Rot>
3.2058

> <Gold.Chemscore.Internal.Correction>
   9.000000E+99

> <Gold.Chemscore.Hbonds>
donor molecule, donor type, donor heavy atom, donor atom, acceptor molecule, acceptor atom, score
      L1  H    10    33       P1  7948  0.15
      L1  H    15    53       P1 10175  1.00
      L1  H    18    44       P1 10175  0.97

> <Gold.Chemscore.Hbond.Weighted>
-9.4751

> <Gold.Chemscore.Metal.Weighted>
-0.0000

> <Gold.Chemscore.Lipo.Weighted>
-12.0751

> <Gold.Chemscore.Internal_Hbond.Weighted>
0.0000

> <Gold.Chemscore.DEClash.Weighted>
1.3704

> <Gold.Chemscore.DEInternal.Weighted>
1.0038

> <Gold.Chemscore.Rot.Weighted>
8.2067

> <Gold.Chemscore.Internal.Correction.Weighted>
   9.000000E+99

> <Gold.Protein.RotatedTorsions>
[ 6907 6896 6895 6894 ] final -121.73 input  -60.11 | X-H torsion
[ 7974 7965 7964 7962 ] final   80.62 input  175.53 | X-H torsion
[ 8008 7997 7996 7995 ] final -101.30 input   59.86 | X-H torsion
[ 10167 10162 10161 10158 ] final   45.89 input  -65.29 | X-H torsion
[ 10718 10713 10712 10709 ] final   69.80 input   66.30 | X-H torsion
[ 10763 10752 10751 10750 ] final  164.39 input  -60.55 | X-H torsion
[ 11005 11000 10999 10996 ] final -105.25 input  -57.11 | X-H torsion

> <Gold.Protein.ActiveResidues>
 VAL166  LYS551  ARG553  GLY616  TRP617  ASP618  TYR619  PRO620  LYS621  CYS622 
 ASP623  PHE694  ASN695  SER759  ASP760  ASP761  ALA762  ILE779  LEU786  VAL792 
 PHE793  MET794  SER795  GLU796  ALA797  LYS798  CYS799  TRP800  GLU811  SER814 

> <Gold.Protein.RotatedAtoms>
  150.8511  133.7786  159.3025 H   0  0  0  0  0  0  0  0  0  0  0  0  # atno 6907 bound_to 6896
  151.5458  135.1066  159.9947 H   0  0  0  0  0  0  0  0  0  0  0  0  # atno 6908 bound_to 6896
  152.4553  133.7667  159.6832 H   0  0  0  0  0  0  0  0  0  0  0  0  # atno 6909 bound_to 6896
  145.6488  139.2442  143.1989 H   0  0  0  0  0  0  0  0  0  0  0  0  # atno 7974 bound_to 7965
  154.8407  140.0435  157.1539 H   0  0  0  0  0  0  0  0  0  0  0  0  # atno 8008 bound_to 7997
  154.9050  140.3005  155.5276 H   0  0  0  0  0  0  0  0  0  0  0  0  # atno 8009 bound_to 7997
  156.2992  140.2369  156.4082 H   0  0  0  0  0  0  0  0  0  0  0  0  # atno 8010 bound_to 7997
  140.3195  144.2723  150.6185 H   0  0  0  0  0  0  0  0  0  0  0  0  # atno 10167 bound_to 10162
  157.6365  130.9444  150.0563 H   0  0  0  0  0  0  0  0  0  0  0  0  # atno 10718 bound_to 10713
  154.3082  135.2758  155.2578 H   0  0  0  0  0  0  0  0  0  0  0  0  # atno 10763 bound_to 10752
  154.4985  135.5814  153.6516 H   0  0  0  0  0  0  0  0  0  0  0  0  # atno 10764 bound_to 10752
  152.9891  135.6152  154.3257 H   0  0  0  0  0  0  0  0  0  0  0  0  # atno 10765 bound_to 10752
  141.1062  133.8792  157.1711 H   0  0  0  0  0  0  0  0  0  0  0  0  # atno 11005 bound_to 11000
  146.1221  140.7296  142.9452 LP  0  0  0  0  0  0  0  0  0  0  0  0  # atno 17320 bound_to 7965
  144.7130  140.4109  143.7066 LP  0  0  0  0  0  0  0  0  0  0  0  0  # atno 17321 bound_to 7965
  140.5496  143.2208  151.7949 LP  0  0  0  0  0  0  0  0  0  0  0  0  # atno 17342 bound_to 10162
  139.4877  144.4494  151.9672 LP  0  0  0  0  0  0  0  0  0  0  0  0  # atno 17343 bound_to 10162
  156.1609  130.3644  149.9300 LP  0  0  0  0  0  0  0  0  0  0  0  0  # atno 17370 bound_to 10713
  156.7298  130.9039  151.3625 LP  0  0  0  0  0  0  0  0  0  0  0  0  # atno 17371 bound_to 10713
  139.9933  135.0056  157.0026 LP  0  0  0  0  0  0  0  0  0  0  0  0  # atno 17394 bound_to 11000
  140.4896  134.1207  155.7230 LP  0  0  0  0  0  0  0  0  0  0  0  0  # atno 17395 bound_to 11000

$$$$
