AV-unprocessed.smi:1839|AV-procd|sdf|7487|dock9
  -GOLD-   22720 9183D 1   1.00000     0.00000
 Structure written by MMmdl.
 47 48  0  0  0  0  0  0  0  0  2 V2000
  148.4365  141.9003  157.3406 C   0  0  0  0  0  0  0  0  0  0  0  0
  149.1557  140.7144  156.8749 N   0  0  0  0  0  0  0  0  0  0  0  0
  150.5984  140.7431  157.1447 C   0  0  0  0  0  0  0  0  0  0  0  0
  148.4745  139.5972  156.5172 C   0  0  0  0  0  0  0  0  0  0  0  0
  147.3095  139.4021  156.8694 O   0  0  0  0  0  0  0  0  0  0  0  0
  149.1607  138.6902  155.7821 N   0  0  0  0  0  0  0  0  0  0  0  0
  150.0833  139.0732  154.7034 C   0  0  0  0  0  0  0  0  0  0  0  0
  151.3347  138.1797  154.7537 C   0  0  0  0  0  0  0  0  0  0  0  0
  150.9485  136.6923  154.6835 C   0  0  0  0  0  0  0  0  0  0  0  0
  149.8751  136.3391  155.7370 C   0  0  2  0  0  0  0  0  0  0  0  0
  149.4073  134.8855  155.5912 C   0  0  0  0  0  0  0  0  0  0  0  0
  149.4261  134.1254  156.5599 O   0  0  0  0  0  0  0  0  0  0  0  0
  148.9967  134.5076  154.3706 N   0  0  0  0  0  0  0  0  0  0  0  0
  148.5339  133.1698  154.0223 C   0  0  0  0  0  0  0  0  0  0  0  0
  148.4220  132.9866  152.4989 C   0  0  0  0  0  0  0  0  0  0  0  0
  147.0564  133.3824  151.9735 C   0  0  0  0  0  0  0  0  0  0  0  0
  146.0880  132.4234  151.6060 C   0  0  0  0  0  0  0  0  0  0  0  0
  144.8318  132.8586  151.1342 C   0  0  0  0  0  0  0  0  0  0  0  0
  144.5710  134.2416  151.0407 C   0  0  0  0  0  0  0  0  0  0  0  0
  145.5741  135.1557  151.4229 C   0  0  0  0  0  0  0  0  0  0  0  0
  146.7647  134.6993  151.8707 N   0  3  0  0  0  0  0  0  0  0  0  0
  148.6801  137.3122  155.6292 C   0  0  0  0  0  0  0  0  0  0  0  0
  147.5293  142.0735  156.7588 H   0  0  0  0  0  0  0  0  0  0  0  0
  149.0519  142.7961  157.2481 H   0  0  0  0  0  0  0  0  0  0  0  0
  148.1548  141.7874  158.3883 H   0  0  0  0  0  0  0  0  0  0  0  0
  150.9895  139.7592  157.4084 H   0  0  0  0  0  0  0  0  0  0  0  0
  150.8296  141.4031  157.9819 H   0  0  0  0  0  0  0  0  0  0  0  0
  151.1444  141.1102  156.2759 H   0  0  0  0  0  0  0  0  0  0  0  0
  149.5774  138.9494  153.7447 H   0  0  0  0  0  0  0  0  0  0  0  0
  150.3707  140.1239  154.7498 H   0  0  0  0  0  0  0  0  0  0  0  0
  152.0067  138.4294  153.9322 H   0  0  0  0  0  0  0  0  0  0  0  0
  151.8876  138.3707  155.6739 H   0  0  0  0  0  0  0  0  0  0  0  0
  150.5745  136.4746  153.6817 H   0  0  0  0  0  0  0  0  0  0  0  0
  151.8358  136.0737  154.8228 H   0  0  0  0  0  0  0  0  0  0  0  0
  150.3213  136.4603  156.7262 H   0  0  0  0  0  0  0  0  0  0  0  0
  149.0104  135.1955  153.6313 H   0  0  0  0  0  0  0  0  0  0  0  0
  149.2050  132.4225  154.4496 H   0  0  0  0  0  0  0  0  0  0  0  0
  147.5608  133.0168  154.4900 H   0  0  0  0  0  0  0  0  0  0  0  0
  149.1834  133.5825  151.9933 H   0  0  0  0  0  0  0  0  0  0  0  0
  148.6151  131.9484  152.2255 H   0  0  0  0  0  0  0  0  0  0  0  0
  146.3027  131.3675  151.6869 H   0  0  0  0  0  0  0  0  0  0  0  0
  144.0775  132.1401  150.8486 H   0  0  0  0  0  0  0  0  0  0  0  0
  143.6153  134.5957  150.6821 H   0  0  0  0  0  0  0  0  0  0  0  0
  145.4610  136.2292  151.3847 H   0  0  0  0  0  0  0  0  0  0  0  0
  147.9443  137.0612  156.3963 H   0  0  0  0  0  0  0  0  0  0  0  0
  148.1736  137.2103  154.6676 H   0  0  0  0  0  0  0  0  0  0  0  0
  147.4763  135.3781  152.1427 H   0  0  0  0  0  0  0  0  0  0  0  0
  1  2  1  0  0  0  0
  1 23  1  0  0  0  0
  1 24  1  0  0  0  0
  1 25  1  0  0  0  0
  2  3  1  0  0  0  0
  2  4  1  0  0  0  0
  3 26  1  0  0  0  0
  3 27  1  0  0  0  0
  3 28  1  0  0  0  0
  4  5  2  0  0  0  0
  4  6  1  0  0  0  0
  6 22  1  0  0  0  0
  6  7  1  0  0  0  0
  7  8  1  0  0  0  0
  7 29  1  0  0  0  0
  7 30  1  0  0  0  0
  8  9  1  0  0  0  0
  8 31  1  0  0  0  0
  8 32  1  0  0  0  0
  9 10  1  0  0  0  0
  9 33  1  0  0  0  0
  9 34  1  0  0  0  0
 10 11  1  0  0  0  0
 10 22  1  0  0  0  0
 10 35  1  0  0  0  0
 11 12  2  0  0  0  0
 11 13  1  0  0  0  0
 13 14  1  0  0  0  0
 13 36  1  0  0  0  0
 14 15  1  0  0  0  0
 14 37  1  0  0  0  0
 14 38  1  0  0  0  0
 15 16  1  0  0  0  0
 15 39  1  0  0  0  0
 15 40  1  0  0  0  0
 16 21  1  0  0  0  0
 16 17  2  0  0  0  0
 17 18  1  0  0  0  0
 17 41  1  0  0  0  0
 18 19  2  0  0  0  0
 18 42  1  0  0  0  0
 19 20  1  0  0  0  0
 19 43  1  0  0  0  0
 20 21  2  0  0  0  0
 20 44  1  0  0  0  0
 21 47  1  0  0  0  0
 22 45  1  0  0  0  0
 22 46  1  0  0  0  0
M  CHG  1  21   1
M  END
> <s_m_source_file>
AV-unprocessed.smi

> <i_m_source_file_index>
1839

> <i_lp_mmshare_version>
43012

> <i_f3d_flags>
0

> <s_epik_input>
W0NIM11OKFtDSDNdKUMoPU8pTjFbQ0gyXVtDSDJdW0NIMl1bQ0BIXShbQ0gyXTEpQyg9TylbTkhdW0NIMl1bQ0gyXWMyW2NIXVtjSF1bY0hdW2NIXW4y

> <s_epik_cmdline>
J2VwaWtfcHl0aG9uJywgJy1waCcsICc3LjAnLCAnLXRuJywgJzgnLCAnLW1hJywgJzIwMCcsICctbWV0YWxfYmluZGluZycsICctaW1hZScsICc8aW5maWxlLm1hZT4nLCAnLW9tYWUnLCAnPG91dGZpbGUubWFlPic=

> <r_epik_Ionization_Penalty>
1.8476

> <r_epik_Ionization_Penalty_Charging>
1.84754

> <r_epik_Ionization_Penalty_Neutral>
5.83857e-05

> <r_epik_State_Penalty>
1.96477

> <r_epik_Charging_Adjusted_Penalty>
3.81231

> <i_epik_Tot_Q>
1

> <i_epik_Tot_abs_Q>
1

> <r_epik_Metal_State_Penalty>
1.99061

> <b_epik_Metal_Only>
0

> <s_lp_Force_Field>
OPLS_2005

> <r_lp_Energy>
52.6854

> <b_lp_Chiralities_Consistent>
1

> <s_lp_Variant>
AV-unprocessed.smi:1839-4

> <Gold.Version>
5.8.1

> <Gold.Id.Protein>
6NUR|6NUR_protein|mol2

> <Gold.PLP.Fitness>
40.0990

> <Gold.PLP.PLP>
-32.2317

> <Gold.PLP.part.hbond>
-2.0000

> <Gold.PLP.part.metal>
0.0000

> <Gold.PLP.part.buried>
-4.2972

> <Gold.PLP.part.nonpolar>
-26.6636

> <Gold.PLP.part.repulsive>
0.0585

> <Gold.PLP.ligand.clash>
0.0000

> <Gold.PLP.ligand.torsion>
1.2371

> <Gold.PLP.Chemscore.Hbond>
3.0000

> <Gold.PLP.Chemscore.CHOScore>
0.0000

> <Gold.PLP.Chemscore.Metal>
0.0000

> <Gold.Chemscore.Hbonds>
donor molecule, donor type, donor heavy atom, donor atom, acceptor molecule, acceptor atom, score
      L1  H    13    36       P1  7948  1.00
      L1  H    21    47       P1  7948  1.98

> <Gold.PLP.Chemscore.Internal.Correction>
1.3416

> <Gold.Rescore>
     Score         DG    S(hbond)    S(metal)    S(lipo)     H(rot)  DE(clash)    DE(int)     intcor
     14.60     -16.58       1.91        0.00      75.42       1.60       0.02       1.96       ----

> <Gold.Chemscore.Fitness>
14.6042

> <Gold.Chemscore.DG>
-16.5808

> <Gold.Chemscore.ZeroCoef>
-5.4800

> <Gold.Chemscore.Hbond>
1.9119

> <Gold.Chemscore.Metal>
0.0000

> <Gold.Chemscore.Lipo>
75.4166

> <Gold.Chemscore.Internal_Hbond>
0.0000

> <Gold.Chemscore.DEClash>
0.0166

> <Gold.Chemscore.DEInternal>
1.9600

> <Gold.Chemscore.Rot>
1.6049

> <Gold.Chemscore.Internal.Correction>
   9.000000E+99

> <Gold.Chemscore.Hbonds>
donor molecule, donor type, donor heavy atom, donor atom, acceptor molecule, acceptor atom, score
      L1  H    13    36       P1  7948  0.52
      L1  H    21    47       P1  7948  0.94

> <Gold.Chemscore.Hbond.Weighted>
-6.3857

> <Gold.Chemscore.Metal.Weighted>
-0.0000

> <Gold.Chemscore.Lipo.Weighted>
-8.8237

> <Gold.Chemscore.Internal_Hbond.Weighted>
0.0000

> <Gold.Chemscore.DEClash.Weighted>
0.0166

> <Gold.Chemscore.DEInternal.Weighted>
1.9600

> <Gold.Chemscore.Rot.Weighted>
4.1087

> <Gold.Chemscore.Internal.Correction.Weighted>
   9.000000E+99

> <Gold.Protein.RotatedTorsions>
[ 6907 6896 6895 6894 ] final  171.00 input  -60.11 | X-H torsion
[ 7974 7965 7964 7962 ] final   90.53 input  175.53 | X-H torsion
[ 8008 7997 7996 7995 ] final    1.30 input   59.86 | X-H torsion
[ 10167 10162 10161 10158 ] final -151.00 input  -65.29 | X-H torsion
[ 10718 10713 10712 10709 ] final  -13.23 input   66.30 | X-H torsion
[ 10763 10752 10751 10750 ] final   83.43 input  -60.55 | X-H torsion
[ 11005 11000 10999 10996 ] final  -17.47 input  -57.11 | X-H torsion

> <Gold.Protein.ActiveResidues>
 VAL166  LYS551  ARG553  GLY616  TRP617  ASP618  TYR619  PRO620  LYS621  CYS622 
 ASP623  PHE694  ASN695  SER759  ASP760  ASP761  ALA762  ILE779  LEU786  VAL792 
 PHE793  MET794  SER795  GLU796  ALA797  LYS798  CYS799  TRP800  GLU811  SER814 

> <Gold.Protein.RotatedAtoms>
  151.8072  133.3377  159.3544 H   0  0  0  0  0  0  0  0  0  0  0  0  # atno 6907 bound_to 6896
  150.7338  134.5698  159.5894 H   0  0  0  0  0  0  0  0  0  0  0  0  # atno 6908 bound_to 6896
  152.3101  134.7509  160.0389 H   0  0  0  0  0  0  0  0  0  0  0  0  # atno 6909 bound_to 6896
  145.5177  139.2278  143.2689 H   0  0  0  0  0  0  0  0  0  0  0  0  # atno 7974 bound_to 7965
  154.6781  140.2627  155.6936 H   0  0  0  0  0  0  0  0  0  0  0  0  # atno 8008 bound_to 7997
  156.2686  140.2815  156.1238 H   0  0  0  0  0  0  0  0  0  0  0  0  # atno 8009 bound_to 7997
  155.1070  140.0375  157.2703 H   0  0  0  0  0  0  0  0  0  0  0  0  # atno 8010 bound_to 7997
  139.7305  143.8815  152.2533 H   0  0  0  0  0  0  0  0  0  0  0  0  # atno 10167 bound_to 10162
  156.6333  130.4907  149.6121 H   0  0  0  0  0  0  0  0  0  0  0  0  # atno 10718 bound_to 10713
  153.1290  135.4691  154.9319 H   0  0  0  0  0  0  0  0  0  0  0  0  # atno 10763 bound_to 10752
  154.7647  135.3141  154.8312 H   0  0  0  0  0  0  0  0  0  0  0  0  # atno 10764 bound_to 10752
  153.8859  135.6889  153.4817 H   0  0  0  0  0  0  0  0  0  0  0  0  # atno 10765 bound_to 10752
  140.8172  133.8096  155.9622 H   0  0  0  0  0  0  0  0  0  0  0  0  # atno 11005 bound_to 11000
  146.2126  140.5988  142.9053 LP  0  0  0  0  0  0  0  0  0  0  0  0  # atno 17320 bound_to 7965
  144.7692  140.5601  143.6681 LP  0  0  0  0  0  0  0  0  0  0  0  0  # atno 17321 bound_to 7965
  139.8737  144.7055  150.8958 LP  0  0  0  0  0  0  0  0  0  0  0  0  # atno 17342 bound_to 10162
  140.7770  143.3717  151.1637 LP  0  0  0  0  0  0  0  0  0  0  0  0  # atno 17343 bound_to 10162
  156.2217  130.6741  151.1375 LP  0  0  0  0  0  0  0  0  0  0  0  0  # atno 17370 bound_to 10713
  157.7193  131.0691  150.6200 LP  0  0  0  0  0  0  0  0  0  0  0  0  # atno 17371 bound_to 10713
  140.9137  134.2229  157.4970 LP  0  0  0  0  0  0  0  0  0  0  0  0  # atno 17394 bound_to 11000
  139.8710  134.9761  156.4909 LP  0  0  0  0  0  0  0  0  0  0  0  0  # atno 17395 bound_to 11000

$$$$
