AV-unprocessed.smi:1006|AV-procd|sdf|4395|dock3
  -GOLD-   22720 2323D 1   1.00000     0.00000
 Structure written by MMmdl.
 46 48  0  0  0  0  0  0  0  0  2 V2000
  147.0598  136.8654  162.4747 C   0  0  0  0  0  0  0  0  0  0  0  0
  147.7659  136.3552  161.2369 C   0  0  0  0  0  0  0  0  0  0  0  0
  147.5367  135.0541  160.7400 C   0  0  0  0  0  0  0  0  0  0  0  0
  148.2560  134.6941  159.5814 C   0  0  0  0  0  0  0  0  0  0  0  0
  148.1008  133.4340  159.0094 N   0  0  0  0  0  0  0  0  0  0  0  0
  149.1148  135.5467  158.9829 N   0  0  0  0  0  0  0  0  0  0  0  0
  149.2469  136.7518  159.5416 C   0  0  0  0  0  0  0  0  0  0  0  0
  150.3907  137.8473  158.7193 S   0  0  0  0  0  0  0  0  0  0  0  0
  149.5579  138.1727  157.1344 C   0  0  0  0  0  0  0  0  0  0  0  0
  150.5430  138.1790  155.9549 C   0  0  1  0  0  0  0  0  0  0  0  0
  149.8384  138.4663  154.7619 O   0  0  0  0  0  0  0  0  0  0  0  0
  151.6739  139.2061  156.1571 C   0  0  0  0  0  0  0  0  0  0  0  0
  151.1701  140.5688  156.3814 N   0  0  0  0  0  0  0  0  0  0  0  0
  150.2884  141.2981  155.6453 C   0  0  0  0  0  0  0  0  0  0  0  0
  150.1346  142.5022  156.2623 N   0  3  0  0  0  0  0  0  0  0  0  0
  150.9286  142.5425  157.4102 C   0  0  0  0  0  0  0  0  0  0  0  0
  151.1065  143.5432  158.3581 C   0  0  0  0  0  0  0  0  0  0  0  0
  151.9911  143.2705  159.4258 C   0  0  0  0  0  0  0  0  0  0  0  0
  152.2065  144.3424  160.4810 C   0  0  0  0  0  0  0  0  0  0  0  0
  152.6634  142.0243  159.5166 C   0  0  0  0  0  0  0  0  0  0  0  0
  153.6093  141.7403  160.6710 C   0  0  0  0  0  0  0  0  0  0  0  0
  152.4707  141.0204  158.5407 C   0  0  0  0  0  0  0  0  0  0  0  0
  151.5961  141.3048  157.4940 C   0  0  0  0  0  0  0  0  0  0  0  0
  148.6258  137.2064  160.6346 N   0  0  0  0  0  0  0  0  0  0  0  0
  146.2631  136.1864  162.7801 H   0  0  0  0  0  0  0  0  0  0  0  0
  146.6177  137.8441  162.2862 H   0  0  0  0  0  0  0  0  0  0  0  0
  147.7655  136.9589  163.3004 H   0  0  0  0  0  0  0  0  0  0  0  0
  146.8495  134.3727  161.2204 H   0  0  0  0  0  0  0  0  0  0  0  0
  147.4746  132.7472  159.4036 H   0  0  0  0  0  0  0  0  0  0  0  0
  148.6056  133.1713  158.1752 H   0  0  0  0  0  0  0  0  0  0  0  0
  148.7830  137.4222  156.9723 H   0  0  0  0  0  0  0  0  0  0  0  0
  149.0600  139.1406  157.2020 H   0  0  0  0  0  0  0  0  0  0  0  0
  150.9837  137.1863  155.8523 H   0  0  0  0  0  0  0  0  0  0  0  0
  148.9143  138.3536  154.9232 H   0  0  0  0  0  0  0  0  0  0  0  0
  152.3282  138.9206  156.9808 H   0  0  0  0  0  0  0  0  0  0  0  0
  152.3039  139.2419  155.2673 H   0  0  0  0  0  0  0  0  0  0  0  0
  149.7975  140.9784  154.7374 H   0  0  0  0  0  0  0  0  0  0  0  0
  150.5894  144.4888  158.2839 H   0  0  0  0  0  0  0  0  0  0  0  0
  153.2603  144.6154  160.5421 H   0  0  0  0  0  0  0  0  0  0  0  0
  151.8829  143.9858  161.4592 H   0  0  0  0  0  0  0  0  0  0  0  0
  151.6417  145.2466  160.2521 H   0  0  0  0  0  0  0  0  0  0  0  0
  154.0197  140.7317  160.6124 H   0  0  0  0  0  0  0  0  0  0  0  0
  153.0897  141.8320  161.6248 H   0  0  0  0  0  0  0  0  0  0  0  0
  154.4446  142.4406  160.6618 H   0  0  0  0  0  0  0  0  0  0  0  0
  152.9806  140.0716  158.6142 H   0  0  0  0  0  0  0  0  0  0  0  0
  149.5293  143.2393  155.9241 H   0  0  0  0  0  0  0  0  0  0  0  0
  1  2  1  0  0  0  0
  1 25  1  0  0  0  0
  1 26  1  0  0  0  0
  1 27  1  0  0  0  0
  2 24  1  0  0  0  0
  2  3  2  0  0  0  0
  3  4  1  0  0  0  0
  3 28  1  0  0  0  0
  4  5  1  0  0  0  0
  4  6  2  0  0  0  0
  5 29  1  0  0  0  0
  5 30  1  0  0  0  0
  6  7  1  0  0  0  0
  7  8  1  0  0  0  0
  7 24  2  0  0  0  0
  8  9  1  0  0  0  0
  9 10  1  0  0  0  0
  9 31  1  0  0  0  0
  9 32  1  0  0  0  0
 10 11  1  0  0  0  0
 10 12  1  0  0  0  0
 10 33  1  0  0  0  0
 11 34  1  0  0  0  0
 12 13  1  0  0  0  0
 12 35  1  0  0  0  0
 12 36  1  0  0  0  0
 13 23  1  0  0  0  0
 13 14  1  0  0  0  0
 14 15  2  0  0  0  0
 14 37  1  0  0  0  0
 15 16  1  0  0  0  0
 15 46  1  0  0  0  0
 16 23  2  0  0  0  0
 16 17  1  0  0  0  0
 17 18  2  0  0  0  0
 17 38  1  0  0  0  0
 18 19  1  0  0  0  0
 18 20  1  0  0  0  0
 19 39  1  0  0  0  0
 19 40  1  0  0  0  0
 19 41  1  0  0  0  0
 20 21  1  0  0  0  0
 20 22  2  0  0  0  0
 21 42  1  0  0  0  0
 21 43  1  0  0  0  0
 21 44  1  0  0  0  0
 22 23  1  0  0  0  0
 22 45  1  0  0  0  0
M  CHG  1  15   1
M  END
> <s_m_source_file>
AV-unprocessed.smi

> <i_m_source_file_index>
1006

> <i_lp_mmshare_version>
43012

> <i_f3d_flags>
0

> <s_epik_input>
W0NIM11jMVtjSF1jKFtOSDJdKW5jKG4xKVNbQ0gyXVtDQEhdKFtPSF0pW0NIMl1uKFtjSF1uMiljKGMyMylbY0hdYyhbQ0gzXSljKFtjSF0zKVtDSDNd

> <s_epik_cmdline>
J2VwaWtfcHl0aG9uJywgJy1waCcsICc3LjAnLCAnLXRuJywgJzgnLCAnLW1hJywgJzIwMCcsICctbWV0YWxfYmluZGluZycsICctaW1hZScsICc8aW5maWxlLm1hZT4nLCAnLW9tYWUnLCAnPG91dGZpbGUubWFlPic=

> <r_epik_Ionization_Penalty>
1.4378

> <r_epik_Ionization_Penalty_Charging>
1.06724

> <r_epik_Ionization_Penalty_Neutral>
0.370564

> <r_epik_State_Penalty>
1.48666

> <r_epik_Charging_Adjusted_Penalty>
2.5539

> <i_epik_Tot_Q>
1

> <i_epik_Tot_abs_Q>
1

> <r_epik_Metal_State_Penalty>
1.38026

> <b_epik_Metal_Only>
0

> <s_lp_Force_Field>
OPLS_2005

> <r_lp_Energy>
7.15152

> <b_lp_Chiralities_Consistent>
1

> <s_lp_Variant>
AV-unprocessed.smi:1006-6

> <Gold.Version>
5.8.1

> <Gold.Id.Protein>
6NUR|6NUR_protein|mol2

> <Gold.PLP.Fitness>
58.4011

> <Gold.PLP.PLP>
-48.2927

> <Gold.PLP.part.hbond>
-4.0000

> <Gold.PLP.part.metal>
0.0000

> <Gold.PLP.part.buried>
-5.7971

> <Gold.PLP.part.nonpolar>
-39.1266

> <Gold.PLP.part.repulsive>
0.1790

> <Gold.PLP.ligand.clash>
0.0000

> <Gold.PLP.ligand.torsion>
0.4069

> <Gold.PLP.Chemscore.Hbond>
3.6356

> <Gold.PLP.Chemscore.CHOScore>
0.0000

> <Gold.PLP.Chemscore.Metal>
0.0000

> <Gold.Chemscore.Hbonds>
donor molecule, donor type, donor heavy atom, donor atom, acceptor molecule, acceptor atom, score
      L1  H    15    46       P1  8028  2.00
      P1  H  6896  6907       L1     6  0.81
      P1  H  6931  6943       L1    24  0.75
      P1  H  6934  6947       L1    24  0.08

> <Gold.PLP.Chemscore.Internal.Correction>
0.0155

> <Gold.Rescore>
     Score         DG    S(hbond)    S(metal)    S(lipo)     H(rot)  DE(clash)    DE(int)     intcor
     17.13     -18.75       2.11        0.00     116.45       2.89       0.04       1.58       ----

> <Gold.Chemscore.Fitness>
17.1349

> <Gold.Chemscore.DG>
-18.7463

> <Gold.Chemscore.ZeroCoef>
-5.4800

> <Gold.Chemscore.Hbond>
2.1084

> <Gold.Chemscore.Metal>
0.0000

> <Gold.Chemscore.Lipo>
116.4543

> <Gold.Chemscore.Internal_Hbond>
0.0000

> <Gold.Chemscore.DEClash>
0.0361

> <Gold.Chemscore.DEInternal>
1.5754

> <Gold.Chemscore.Rot>
2.8910

> <Gold.Chemscore.Internal.Correction>
   9.000000E+99

> <Gold.Chemscore.Hbonds>
donor molecule, donor type, donor heavy atom, donor atom, acceptor molecule, acceptor atom, score
      L1  H    15    46       P1  8028  0.99
      P1  H  6896  6907       L1     6  0.03
      P1  H  6931  6943       L1    24  0.30
      P1  H  6934  6947       L1    24  0.01

> <Gold.Chemscore.Hbond.Weighted>
-7.0421

> <Gold.Chemscore.Metal.Weighted>
-0.0000

> <Gold.Chemscore.Lipo.Weighted>
-13.6252

> <Gold.Chemscore.Internal_Hbond.Weighted>
0.0000

> <Gold.Chemscore.DEClash.Weighted>
0.0361

> <Gold.Chemscore.DEInternal.Weighted>
1.5754

> <Gold.Chemscore.Rot.Weighted>
7.4009

> <Gold.Chemscore.Internal.Correction.Weighted>
   9.000000E+99

> <Gold.Protein.RotatedTorsions>
[ 6907 6896 6895 6894 ] final  -58.20 input  -60.11 | X-H torsion
[ 7974 7965 7964 7962 ] final  106.22 input  175.53 | X-H torsion
[ 8008 7997 7996 7995 ] final  -70.13 input   59.86 | X-H torsion
[ 10167 10162 10161 10158 ] final   99.64 input  -65.29 | X-H torsion
[ 10718 10713 10712 10709 ] final -170.72 input   66.30 | X-H torsion
[ 10763 10752 10751 10750 ] final  -52.43 input  -60.55 | X-H torsion
[ 11005 11000 10999 10996 ] final  -51.20 input  -57.11 | X-H torsion

> <Gold.Protein.ActiveResidues>
 VAL166  LYS551  ARG553  GLY616  TRP617  ASP618  TYR619  PRO620  LYS621  CYS622 
 ASP623  PHE694  ASN695  SER759  ASP760  ASP761  ALA762  ILE779  LEU786  VAL792 
 PHE793  MET794  SER795  GLU796  ALA797  LYS798  CYS799  TRP800  GLU811  SER814 

> <Gold.Protein.RotatedAtoms>
  150.8025  134.7129  159.6613 H   0  0  0  0  0  0  0  0  0  0  0  0  # atno 6907 bound_to 6896
  152.4143  134.6066  160.0024 H   0  0  0  0  0  0  0  0  0  0  0  0  # atno 6908 bound_to 6896
  151.6300  133.3296  159.3143 H   0  0  0  0  0  0  0  0  0  0  0  0  # atno 6909 bound_to 6896
  145.3094  139.2545  143.3771 H   0  0  0  0  0  0  0  0  0  0  0  0  # atno 7974 bound_to 7965
  154.4989  140.0840  156.7756 H   0  0  0  0  0  0  0  0  0  0  0  0  # atno 8008 bound_to 7997
  155.4050  140.3439  155.4241 H   0  0  0  0  0  0  0  0  0  0  0  0  # atno 8009 bound_to 7997
  156.1431  140.1535  156.8878 H   0  0  0  0  0  0  0  0  0  0  0  0  # atno 8010 bound_to 7997
  139.7599  144.6957  151.0308 H   0  0  0  0  0  0  0  0  0  0  0  0  # atno 10167 bound_to 10162
  156.7304  130.9304  151.3104 H   0  0  0  0  0  0  0  0  0  0  0  0  # atno 10718 bound_to 10713
  154.1426  135.6503  153.4945 H   0  0  0  0  0  0  0  0  0  0  0  0  # atno 10763 bound_to 10752
  153.0161  135.5319  154.6889 H   0  0  0  0  0  0  0  0  0  0  0  0  # atno 10764 bound_to 10752
  154.6155  135.2958  155.0356 H   0  0  0  0  0  0  0  0  0  0  0  0  # atno 10765 bound_to 10752
  141.0858  133.6643  156.3842 H   0  0  0  0  0  0  0  0  0  0  0  0  # atno 11005 bound_to 11000
  146.3123  140.3627  142.8666 LP  0  0  0  0  0  0  0  0  0  0  0  0  # atno 17320 bound_to 7965
  144.9028  140.7663  143.5856 LP  0  0  0  0  0  0  0  0  0  0  0  0  # atno 17321 bound_to 7965
  140.7806  143.4709  151.0147 LP  0  0  0  0  0  0  0  0  0  0  0  0  # atno 17342 bound_to 10162
  139.8395  143.7582  152.3180 LP  0  0  0  0  0  0  0  0  0  0  0  0  # atno 17343 bound_to 10162
  157.6861  130.9187  150.0390 LP  0  0  0  0  0  0  0  0  0  0  0  0  # atno 17370 bound_to 10713
  156.1533  130.3643  149.9406 LP  0  0  0  0  0  0  0  0  0  0  0  0  # atno 17371 bound_to 10713
  140.5367  134.6160  157.5367 LP  0  0  0  0  0  0  0  0  0  0  0  0  # atno 17394 bound_to 11000
  139.9676  134.7347  156.0107 LP  0  0  0  0  0  0  0  0  0  0  0  0  # atno 17395 bound_to 11000

$$$$
