AV-unprocessed.smi:1033|AV-procd|sdf|4504|dock7
  -GOLD-   22720 2503D 1   1.00000     0.00000
 Structure written by MMmdl.
 57 59  0  0  0  0  0  0  0  0  3 V2000
  152.8300  143.7552  161.8977 C   0  0  0  0  0  0  0  0  0  0  0  0
  152.4795  143.0498  160.5987 C   0  0  0  0  0  0  0  0  0  0  0  0
  152.5496  141.6386  160.5574 C   0  0  0  0  0  0  0  0  0  0  0  0
  152.2247  141.0226  159.3547 C   0  0  0  0  0  0  0  0  0  0  0  0
  152.1954  139.6732  158.9952 N   0  3  0  0  0  0  0  0  0  0  0  0
  151.8127  139.5581  157.6934 C   0  0  0  0  0  0  0  0  0  0  0  0
  151.5963  140.8143  157.2174 N   0  0  0  0  0  0  0  0  0  0  0  0
  151.1728  141.2591  155.8832 C   0  0  0  0  0  0  0  0  0  0  0  0
  149.9341  140.5037  155.3601 C   0  0  2  0  0  0  0  0  0  0  0  0
  150.2324  139.9986  154.0724 O   0  0  0  0  0  0  0  0  0  0  0  0
  148.7033  141.4291  155.2703 C   0  0  0  0  0  0  0  0  0  0  0  0
  147.8246  141.1987  154.1174 N   0  0  0  0  0  0  0  0  0  0  0  0
  147.0007  139.9994  154.2682 C   0  0  0  0  0  0  0  0  0  0  0  0
  145.8830  140.1569  155.3199 C   0  0  0  0  0  0  0  0  0  0  0  0
  145.0152  141.3154  154.9853 N   0  3  0  0  0  0  0  0  0  0  0  0
  143.8853  141.4688  155.9365 C   0  0  0  0  0  0  0  0  0  0  0  0
  143.0077  140.2048  156.0294 C   0  0  1  0  0  0  0  0  0  0  0  0
  141.8527  140.3477  157.0318 C   0  0  0  0  0  0  0  0  0  0  0  0
  142.4567  139.9505  154.7545 O   0  0  0  0  0  0  0  0  0  0  0  0
  145.8274  142.5511  154.8211 C   0  0  0  0  0  0  0  0  0  0  0  0
  146.9459  142.3222  153.7838 C   0  0  0  0  0  0  0  0  0  0  0  0
  151.8412  141.7600  158.2179 C   0  0  0  0  0  0  0  0  0  0  0  0
  151.7665  143.1504  158.2406 C   0  0  0  0  0  0  0  0  0  0  0  0
  152.0915  143.7957  159.4553 C   0  0  0  0  0  0  0  0  0  0  0  0
  152.0164  145.3121  159.5122 C   0  0  0  0  0  0  0  0  0  0  0  0
  153.1085  143.0437  162.6757 H   0  0  0  0  0  0  0  0  0  0  0  0
  151.9794  144.3312  162.2627 H   0  0  0  0  0  0  0  0  0  0  0  0
  153.6711  144.4330  161.7499 H   0  0  0  0  0  0  0  0  0  0  0  0
  152.8432  141.0644  161.4238 H   0  0  0  0  0  0  0  0  0  0  0  0
  151.6989  138.6371  157.1394 H   0  0  0  0  0  0  0  0  0  0  0  0
  150.9888  142.3335  155.9239 H   0  0  0  0  0  0  0  0  0  0  0  0
  152.0175  141.1152  155.2077 H   0  0  0  0  0  0  0  0  0  0  0  0
  149.7208  139.6663  156.0256 H   0  0  0  0  0  0  0  0  0  0  0  0
  149.5751  140.3089  153.4689 H   0  0  0  0  0  0  0  0  0  0  0  0
  148.1072  141.2557  156.1672 H   0  0  0  0  0  0  0  0  0  0  0  0
  149.0127  142.4723  155.3353 H   0  0  0  0  0  0  0  0  0  0  0  0
  146.5476  139.7565  153.3059 H   0  0  0  0  0  0  0  0  0  0  0  0
  147.6303  139.1456  154.5215 H   0  0  0  0  0  0  0  0  0  0  0  0
  145.2825  139.2466  155.3414 H   0  0  0  0  0  0  0  0  0  0  0  0
  146.3005  140.2802  156.3201 H   0  0  0  0  0  0  0  0  0  0  0  0
  144.2747  141.6926  156.9311 H   0  0  0  0  0  0  0  0  0  0  0  0
  143.2864  142.3331  155.6433 H   0  0  0  0  0  0  0  0  0  0  0  0
  143.6113  139.3364  156.2916 H   0  0  0  0  0  0  0  0  0  0  0  0
  142.2250  140.5055  158.0443 H   0  0  0  0  0  0  0  0  0  0  0  0
  141.2345  139.4495  157.0488 H   0  0  0  0  0  0  0  0  0  0  0  0
  141.2077  141.1905  156.7796 H   0  0  0  0  0  0  0  0  0  0  0  0
  143.1177  140.1108  154.0981 H   0  0  0  0  0  0  0  0  0  0  0  0
  145.1971  143.3721  154.4813 H   0  0  0  0  0  0  0  0  0  0  0  0
  146.2453  142.8561  155.7813 H   0  0  0  0  0  0  0  0  0  0  0  0
  147.5269  143.2339  153.6504 H   0  0  0  0  0  0  0  0  0  0  0  0
  146.4858  142.1318  152.8129 H   0  0  0  0  0  0  0  0  0  0  0  0
  151.4717  143.7169  157.3698 H   0  0  0  0  0  0  0  0  0  0  0  0
  151.6832  145.7314  158.5624 H   0  0  0  0  0  0  0  0  0  0  0  0
  152.9953  145.7352  159.7381 H   0  0  0  0  0  0  0  0  0  0  0  0
  151.3136  145.6331  160.2813 H   0  0  0  0  0  0  0  0  0  0  0  0
  144.6085  141.1078  154.0843 H   0  0  0  0  0  0  0  0  0  0  0  0
  152.4193  138.8871  159.5915 H   0  0  0  0  0  0  0  0  0  0  0  0
  1  2  1  0  0  0  0
  1 26  1  0  0  0  0
  1 27  1  0  0  0  0
  1 28  1  0  0  0  0
  2 24  1  0  0  0  0
  2  3  2  0  0  0  0
  3  4  1  0  0  0  0
  3 29  1  0  0  0  0
  4 22  2  0  0  0  0
  4  5  1  0  0  0  0
  5  6  2  0  0  0  0
  5 57  1  0  0  0  0
  6  7  1  0  0  0  0
  6 30  1  0  0  0  0
  7  8  1  0  0  0  0
  7 22  1  0  0  0  0
  8  9  1  0  0  0  0
  8 31  1  0  0  0  0
  8 32  1  0  0  0  0
  9 10  1  0  0  0  0
  9 11  1  0  0  0  0
  9 33  1  0  0  0  0
 10 34  1  0  0  0  0
 11 12  1  0  0  0  0
 11 35  1  0  0  0  0
 11 36  1  0  0  0  0
 12 21  1  0  0  0  0
 12 13  1  0  0  0  0
 13 14  1  0  0  0  0
 13 37  1  0  0  0  0
 13 38  1  0  0  0  0
 14 15  1  0  0  0  0
 14 39  1  0  0  0  0
 14 40  1  0  0  0  0
 15 16  1  0  0  0  0
 15 20  1  0  0  0  0
 15 56  1  0  0  0  0
 16 17  1  0  0  0  0
 16 41  1  0  0  0  0
 16 42  1  0  0  0  0
 17 18  1  0  0  0  0
 17 19  1  0  0  0  0
 17 43  1  0  0  0  0
 18 44  1  0  0  0  0
 18 45  1  0  0  0  0
 18 46  1  0  0  0  0
 19 47  1  0  0  0  0
 20 21  1  0  0  0  0
 20 48  1  0  0  0  0
 20 49  1  0  0  0  0
 21 50  1  0  0  0  0
 21 51  1  0  0  0  0
 22 23  1  0  0  0  0
 23 24  2  0  0  0  0
 23 52  1  0  0  0  0
 24 25  1  0  0  0  0
 25 53  1  0  0  0  0
 25 54  1  0  0  0  0
 25 55  1  0  0  0  0
M  CHG  1   5   1
M  CHG  1  15   1
M  END
> <s_m_source_file>
AV-unprocessed.smi

> <i_m_source_file_index>
1033

> <i_lp_mmshare_version>
43012

> <i_f3d_flags>
0

> <s_epik_input>
W0NIM11jKFtjSF0xKWMoW0NIM10pW2NIXWMoYzEyKW4oW2NIXW4yKVtDSDJdW0NASF0oW09IXSlbQ0gyXU4zW0NIMl1bQ0gyXU4oW0NIMl1bQ0gyXTMpW0NIMl1bQ0BIXShbQ0gzXSlbT0hd

> <s_epik_cmdline>
J2VwaWtfcHl0aG9uJywgJy1waCcsICc3LjAnLCAnLXRuJywgJzgnLCAnLW1hJywgJzIwMCcsICctbWV0YWxfYmluZGluZycsICctaW1hZScsICc8aW5maWxlLm1hZT4nLCAnLW9tYWUnLCAnPG91dGZpbGUubWFlPic=

> <r_epik_Ionization_Penalty>
1.28617

> <r_epik_Ionization_Penalty_Charging>
1.23646

> <r_epik_Ionization_Penalty_Neutral>
0.0497112

> <r_epik_State_Penalty>
1.79157

> <r_epik_Charging_Adjusted_Penalty>
3.02803

> <i_epik_Tot_Q>
2

> <i_epik_Tot_abs_Q>
2

> <r_epik_Metal_State_Penalty>
5.81739

> <b_epik_Metal_Only>
0

> <s_lp_Force_Field>
OPLS_2005

> <r_lp_Energy>
41.725

> <b_lp_Chiralities_Consistent>
1

> <s_lp_Variant>
AV-unprocessed.smi:1033-15

> <Gold.Version>
5.8.1

> <Gold.Id.Protein>
6NUR|6NUR_protein|mol2

> <Gold.PLP.Fitness>
57.5434

> <Gold.PLP.PLP>
-47.8991

> <Gold.PLP.part.hbond>
-4.0000

> <Gold.PLP.part.metal>
0.0000

> <Gold.PLP.part.buried>
-7.9913

> <Gold.PLP.part.nonpolar>
-35.7529

> <Gold.PLP.part.repulsive>
0.2705

> <Gold.PLP.ligand.clash>
0.0000

> <Gold.PLP.ligand.torsion>
1.4888

> <Gold.PLP.Chemscore.Hbond>
4.1459

> <Gold.PLP.Chemscore.CHOScore>
0.0000

> <Gold.PLP.Chemscore.Metal>
0.0000

> <Gold.Chemscore.Hbonds>
donor molecule, donor type, donor heavy atom, donor atom, acceptor molecule, acceptor atom, score
      L1  H    10    34       P1  7957  0.14
      L1  H    15    56       P1 10175  2.00
      L1  H    19    47       P1 10175  1.00
      P1  H  7989  7998       L1    10  1.00

> <Gold.PLP.Chemscore.Internal.Correction>
0.1844

> <Gold.Rescore>
     Score         DG    S(hbond)    S(metal)    S(lipo)     H(rot)  DE(clash)    DE(int)     intcor
     19.19     -20.72       2.66        0.00     123.12       3.15       0.05       1.47       ----

> <Gold.Chemscore.Fitness>
19.1943

> <Gold.Chemscore.DG>
-20.7182

> <Gold.Chemscore.ZeroCoef>
-5.4800

> <Gold.Chemscore.Hbond>
2.6626

> <Gold.Chemscore.Metal>
0.0000

> <Gold.Chemscore.Lipo>
123.1186

> <Gold.Chemscore.Internal_Hbond>
0.0000

> <Gold.Chemscore.DEClash>
0.0518

> <Gold.Chemscore.DEInternal>
1.4721

> <Gold.Chemscore.Rot>
3.1483

> <Gold.Chemscore.Internal.Correction>
   9.000000E+99

> <Gold.Chemscore.Hbonds>
donor molecule, donor type, donor heavy atom, donor atom, acceptor molecule, acceptor atom, score
      L1  H    10    34       P1  7957  0.14
      L1  H    15    56       P1 10175  0.78
      L1  H    19    47       P1 10175  0.96
      P1  H  7989  7998       L1    10  0.16

> <Gold.Chemscore.Hbond.Weighted>
-8.8930

> <Gold.Chemscore.Metal.Weighted>
-0.0000

> <Gold.Chemscore.Lipo.Weighted>
-14.4049

> <Gold.Chemscore.Internal_Hbond.Weighted>
0.0000

> <Gold.Chemscore.DEClash.Weighted>
0.0518

> <Gold.Chemscore.DEInternal.Weighted>
1.4721

> <Gold.Chemscore.Rot.Weighted>
8.0597

> <Gold.Chemscore.Internal.Correction.Weighted>
   9.000000E+99

> <Gold.Protein.RotatedTorsions>
[ 6907 6896 6895 6894 ] final  164.37 input  -60.11 | X-H torsion
[ 7974 7965 7964 7962 ] final  141.48 input  175.53 | X-H torsion
[ 8008 7997 7996 7995 ] final  -28.93 input   59.86 | X-H torsion
[ 10167 10162 10161 10158 ] final   22.08 input  -65.29 | X-H torsion
[ 10718 10713 10712 10709 ] final  -25.79 input   66.30 | X-H torsion
[ 10763 10752 10751 10750 ] final  113.17 input  -60.55 | X-H torsion
[ 11005 11000 10999 10996 ] final -157.50 input  -57.11 | X-H torsion

> <Gold.Protein.ActiveResidues>
 VAL166  LYS551  ARG553  GLY616  TRP617  ASP618  TYR619  PRO620  LYS621  CYS622 
 ASP623  PHE694  ASN695  SER759  ASP760  ASP761  ALA762  ILE779  LEU786  VAL792 
 PHE793  MET794  SER795  GLU796  ALA797  LYS798  CYS799  TRP800  GLU811  SER814 

> <Gold.Protein.RotatedAtoms>
  151.9108  133.3561  159.3862 H   0  0  0  0  0  0  0  0  0  0  0  0  # atno 6907 bound_to 6896
  150.7058  134.4733  159.5445 H   0  0  0  0  0  0  0  0  0  0  0  0  # atno 6908 bound_to 6896
  152.2339  134.8295  160.0520 H   0  0  0  0  0  0  0  0  0  0  0  0  # atno 6909 bound_to 6896
  144.9093  139.5315  143.5716 H   0  0  0  0  0  0  0  0  0  0  0  0  # atno 7974 bound_to 7965
  154.4311  140.1832  156.1168 H   0  0  0  0  0  0  0  0  0  0  0  0  # atno 8008 bound_to 7997
  156.0174  140.3344  155.6978 H   0  0  0  0  0  0  0  0  0  0  0  0  # atno 8009 bound_to 7997
  155.6024  140.0642  157.2720 H   0  0  0  0  0  0  0  0  0  0  0  0  # atno 8010 bound_to 7997
  140.5377  143.9732  150.6501 H   0  0  0  0  0  0  0  0  0  0  0  0  # atno 10167 bound_to 10162
  156.4597  130.4501  149.6936 H   0  0  0  0  0  0  0  0  0  0  0  0  # atno 10718 bound_to 10713
  153.4886  135.3663  155.2480 H   0  0  0  0  0  0  0  0  0  0  0  0  # atno 10763 bound_to 10752
  154.8753  135.3971  154.3616 H   0  0  0  0  0  0  0  0  0  0  0  0  # atno 10764 bound_to 10752
  153.4231  135.7080  153.6346 H   0  0  0  0  0  0  0  0  0  0  0  0  # atno 10765 bound_to 10752
  140.6639  134.4320  157.5234 H   0  0  0  0  0  0  0  0  0  0  0  0  # atno 11005 bound_to 11000
  146.3150  139.7885  142.8990 LP  0  0  0  0  0  0  0  0  0  0  0  0  # atno 17320 bound_to 7965
  145.3482  141.0302  143.3353 LP  0  0  0  0  0  0  0  0  0  0  0  0  # atno 17321 bound_to 7965
  140.3124  143.3189  152.0865 LP  0  0  0  0  0  0  0  0  0  0  0  0  # atno 17342 bound_to 10162
  139.4977  144.6627  151.6427 LP  0  0  0  0  0  0  0  0  0  0  0  0  # atno 17343 bound_to 10162
  156.3729  130.7540  151.2525 LP  0  0  0  0  0  0  0  0  0  0  0  0  # atno 17370 bound_to 10713
  157.7498  131.0318  150.4197 LP  0  0  0  0  0  0  0  0  0  0  0  0  # atno 17371 bound_to 10713
  139.9004  134.8570  156.1922 LP  0  0  0  0  0  0  0  0  0  0  0  0  # atno 17394 bound_to 11000
  141.0444  133.6921  156.1656 LP  0  0  0  0  0  0  0  0  0  0  0  0  # atno 17395 bound_to 11000

$$$$
