#       Name:                AV-unprocessed.smi:249
#       Creating user name   scv26
#       Creation time:       Thu Mar 26 20:57:11 2020


#       File generated by GOLD software.
#

@<TRIPOS>MOLECULE
AV-unprocessed.smi:249
    72    75     1
SMALL
NO_CHARGES


@<TRIPOS>ATOM
      1 ****        -0.7024  -4.0866   0.7455 C.3            1 S1                 0.0000
      2 ****        -1.2918  -2.8299   0.0874 C.3            1 S1                 0.0000
      3 ****        -2.7081  -2.5677   0.4823 N.4            1 S1                 1.0000
      4 ****        -2.8962  -2.2875   1.9335 C.3            1 S1                 0.0000
      5 ****        -2.3583  -0.8975   2.3219 C.3            1 S1                 0.0000
      6 ****        -3.0160   0.2144   1.4736 C.3            1 S1                 0.0000
      7 ****        -2.5530   1.5677   1.8139 N.3            1 S1                 0.0000
      8 ****        -3.3617   2.6920   1.3583 C.3            1 S1                 0.0000
      9 ****        -1.2187   1.7926   1.7611 C.ar           1 S1                 0.0000
     10 ****        -0.5061   1.5930   2.8980 N.ar           1 S1                 0.0000
     11 ****         0.8199   1.7576   2.8953 C.ar           1 S1                 0.0000
     12 ****         1.6156   2.1002   1.8805 N.ar           1 S1                 0.0000
     13 ****         0.9008   2.3138   0.7389 C.ar           1 S1                 0.0000
     14 ****        -0.5106   2.2037   0.5959 C.ar           1 S1                 0.0000
     15 ****        -0.8791   2.5104  -0.7092 N.2            1 S1                 0.0000
     16 ****         0.2507   2.7688  -1.3080 C.2            1 S1                 0.0000
     17 ****         1.3727   2.6364  -0.5214 N.pl3          1 S1                 0.0000
     18 ****         2.7490   2.8283  -0.9391 C.3            1 S1                 0.0000
     19 ****         3.6552   1.5709  -0.8050 C.3            1 S1                 0.0000
     20 ****         5.1018   1.9522  -1.2050 C.3            1 S1                 0.0000
     21 ****         5.6333   2.9371  -0.3426 O.3            1 S1                 0.0000
     22 ****         3.1458   0.3381  -1.6157 C.3            1 S1                 0.0000
     23 ****         1.9087  -0.3654  -1.0684 C.3            1 S1                 0.0000
     24 ****         1.9662  -1.7419  -1.7227 C.3            1 S1                 0.0000
     25 ****         3.3391  -1.9958  -1.9831 O.3            1 S1                 0.0000
     26 ****         4.1126  -0.8535  -1.6409 C.3            1 S1                 0.0000
     27 ****        -2.8828  -0.1209  -0.0300 C.3            1 S1                 0.0000
     28 ****        -3.4137  -1.5360  -0.3367 C.3            1 S1                 0.0000
     29 ****        -3.4231  -1.8474  -1.8442 C.3            1 S1                 0.0000
     30 ****         0.2712  -4.3206   0.3143 H              1 S1                 0.0000
     31 ****        -1.3459  -4.9532   0.5920 H              1 S1                 0.0000
     32 ****        -0.5507  -3.9585   1.8167 H              1 S1                 0.0000
     33 ****        -0.6588  -1.9681   0.2973 H              1 S1                 0.0000
     34 ****        -1.2341  -2.9917  -0.9873 H              1 S1                 0.0000
     35 ****        -3.9625  -2.3351   2.1585 H              1 S1                 0.0000
     36 ****        -2.4384  -3.0597   2.5495 H              1 S1                 0.0000
     37 ****        -2.5507  -0.7152   3.3798 H              1 S1                 0.0000
     38 ****        -1.2751  -0.8915   2.2053 H              1 S1                 0.0000
     39 ****        -4.0806   0.2004   1.7113 H              1 S1                 0.0000
     40 ****        -2.9571   3.6375   1.7224 H              1 S1                 0.0000
     41 ****        -4.3792   2.5988   1.7386 H              1 S1                 0.0000
     42 ****        -3.4114   2.7375   0.2706 H              1 S1                 0.0000
     43 ****         1.3157   1.5789   3.8381 H              1 S1                 0.0000
     44 ****         0.2985   3.0378  -2.3534 H              1 S1                 0.0000
     45 ****         2.7496   3.1730  -1.9740 H              1 S1                 0.0000
     46 ****         3.1454   3.6519  -0.3446 H              1 S1                 0.0000
     47 ****         3.6865   1.2788   0.2452 H              1 S1                 0.0000
     48 ****         5.7747   1.0983  -1.1434 H              1 S1                 0.0000
     49 ****         5.1372   2.3147  -2.2327 H              1 S1                 0.0000
     50 ****         6.5170   3.1309  -0.6157 H              1 S1                 0.0000
     51 ****         2.9509   0.6401  -2.6459 H              1 S1                 0.0000
     52 ****         1.9753  -0.4662   0.0159 H              1 S1                 0.0000
     53 ****         0.9725   0.1346  -1.3069 H              1 S1                 0.0000
     54 ****         1.5331  -2.5173  -1.0911 H              1 S1                 0.0000
     55 ****         1.4282  -1.7383  -2.6713 H              1 S1                 0.0000
     56 ****         4.9277  -0.7201  -2.3525 H              1 S1                 0.0000
     57 ****         4.5477  -1.0177  -0.6541 H              1 S1                 0.0000
     58 ****        -3.4359   0.6070  -0.6239 H              1 S1                 0.0000
     59 ****        -1.8436  -0.0502  -0.3492 H              1 S1                 0.0000
     60 ****        -4.4588  -1.5659  -0.0237 H              1 S1                 0.0000
     61 ****        -4.1189  -1.1898  -2.3659 H              1 S1                 0.0000
     62 ****        -3.7389  -2.8734  -2.0355 H              1 S1                 0.0000
     63 ****        -2.4459  -1.6987  -2.3035 H              1 S1                 0.0000
     64 ****        -3.1948  -3.4346   0.3034 H              1 S1                 0.0000
     65 ****        -2.7477   1.5395   2.7944 LP             1 S1                 0.0000
     66 ****        -0.9739   1.3222   3.7394 LP             1 S1                 0.0000
     67 ****         2.6093   2.1890   1.9484 LP             1 S1                 0.0000
     68 ****        -1.7996   2.5287  -1.0995 LP             1 S1                 0.0000
     69 ****         5.6382   2.5951   0.5971 LP             1 S1                 0.0000
     70 ****         5.0756   3.7656  -0.3928 LP             1 S1                 0.0000
     71 ****         3.4606  -2.2004  -2.9544 LP             1 S1                 0.0000
     72 ****         3.6416  -2.7774  -1.4375 LP             1 S1                 0.0000
@<TRIPOS>BOND
    1    1    2 1     
    2    1   30 1     
    3    1   31 1     
    4    1   32 1     
    5    2    3 1     
    6    2   33 1     
    7    2   34 1     
    8    3   28 1     
    9    3    4 1     
   10    3   64 1     
   11    4    5 1     
   12    4   35 1     
   13    4   36 1     
   14    5    6 1     
   15    5   37 1     
   16    5   38 1     
   17    6    7 1     
   18    6   27 1     
   19    6   39 1     
   20    7    8 1     
   21    7    9 1     
   22    8   40 1     
   23    8   41 1     
   24    8   42 1     
   25    9   14 ar    
   26    9   10 ar    
   27   10   11 ar    
   28   11   12 ar    
   29   11   43 1     
   30   12   13 ar    
   31   13   17 1     
   32   13   14 ar    
   33   14   15 1     
   34   15   16 2     
   35   16   17 1     
   36   16   44 1     
   37   17   18 1     
   38   18   19 1     
   39   18   45 1     
   40   18   46 1     
   41   19   20 1     
   42   19   22 1     
   43   19   47 1     
   44   20   21 1     
   45   20   48 1     
   46   20   49 1     
   47   21   50 1     
   48   22   26 1     
   49   22   23 1     
   50   22   51 1     
   51   23   24 1     
   52   23   52 1     
   53   23   53 1     
   54   24   25 1     
   55   24   54 1     
   56   24   55 1     
   57   25   26 1     
   58   26   56 1     
   59   26   57 1     
   60   27   28 1     
   61   27   58 1     
   62   27   59 1     
   63   28   29 1     
   64   28   60 1     
   65   29   61 1     
   66   29   62 1     
   67   29   63 1     
   68    7   65 1     
   69   10   66 1     
   70   12   67 1     
   71   15   68 1     
   72   21   69 1     
   73   21   70 1     
   74   25   71 1     
   75   25   72 1     
@<TRIPOS>SUBSTRUCTURE
      1 S1             1
@<TRIPOS>SET
LONE_PAIRS      STATIC     ATOMS    <user>   **** ""
8 65 66 67 68 69 70 71 72
DONOR_HYDROGENS      STATIC     ATOMS    <user>   **** ""
2 64 50
ATOM$BLUE        STATIC     ATOMS    COLORGROUP SYSTEM
8 65 66 67 68 69 70 71 72
ATOM$RED        STATIC     ATOMS    COLORGROUP SYSTEM
2 64 50
