AV-unprocessed.smi:1133|AV-procd|sdf|4855|dock6
  -GOLD-   22720 3423D 1   1.00000     0.00000
 Structure written by MMmdl.
 42 43  0  0  0  0  0  0  0  0  2 V2000
  145.2372  143.6456  154.5067 C   0  0  0  0  0  0  0  0  0  0  0  0
  145.8164  142.6752  155.5385 C   0  0  0  0  0  0  0  0  0  0  0  0
  145.2221  142.5472  156.6091 O   0  0  0  0  0  0  0  0  0  0  0  0
  146.9477  141.9910  155.2430 N   0  0  0  0  0  0  0  0  0  0  0  0
  147.5171  140.9753  156.1357 C   0  0  0  0  0  0  0  0  0  0  0  0
  147.3001  139.5866  155.5077 C   0  0  0  0  0  0  0  0  0  0  0  0
  147.8989  139.5115  154.0865 C   0  0  0  0  0  0  0  0  0  0  0  0
  147.5084  138.2548  153.4548 N   0  0  0  0  0  0  0  0  0  0  0  0
  146.2628  137.7609  153.4273 C   0  0  0  0  0  0  0  0  0  0  0  0
  145.2849  138.3219  153.9230 O   0  0  0  0  0  0  0  0  0  0  0  0
  146.2085  136.5754  152.8041 N   0  0  0  0  0  0  0  0  0  0  0  0
  144.9948  135.7878  152.6255 C   0  0  0  0  0  0  0  0  0  0  0  0
  144.7022  135.5260  151.1383 C   0  0  0  0  0  0  0  0  0  0  0  0
  145.1543  134.1979  150.7227 N   0  0  0  0  0  0  0  0  0  0  0  0
  144.3987  133.1944  150.1732 C   0  0  0  0  0  0  0  0  0  0  0  0
  145.2501  132.1428  149.9508 C   0  0  0  0  0  0  0  0  0  0  0  0
  146.4873  132.5483  150.3755 N   0  3  0  0  0  0  0  0  0  0  0  0
  146.4267  133.7988  150.8449 C   0  0  0  0  0  0  0  0  0  0  0  0
  147.4541  140.7137  153.2211 C   0  0  0  0  0  0  0  0  0  0  0  0
  147.6641  142.0454  153.9629 C   0  0  0  0  0  0  0  0  0  0  0  0
  145.0136  143.1297  153.5724 H   0  0  0  0  0  0  0  0  0  0  0  0
  145.9355  144.4583  154.3060 H   0  0  0  0  0  0  0  0  0  0  0  0
  144.3096  144.0870  154.8726 H   0  0  0  0  0  0  0  0  0  0  0  0
  148.5831  141.1654  156.2685 H   0  0  0  0  0  0  0  0  0  0  0  0
  147.0846  141.0018  157.1367 H   0  0  0  0  0  0  0  0  0  0  0  0
  147.7439  138.8186  156.1423 H   0  0  0  0  0  0  0  0  0  0  0  0
  146.2297  139.3773  155.4709 H   0  0  0  0  0  0  0  0  0  0  0  0
  148.9857  139.5412  154.1852 H   0  0  0  0  0  0  0  0  0  0  0  0
  148.2440  137.7183  153.0181 H   0  0  0  0  0  0  0  0  0  0  0  0
  147.0637  136.1930  152.4275 H   0  0  0  0  0  0  0  0  0  0  0  0
  145.0832  134.8473  153.1723 H   0  0  0  0  0  0  0  0  0  0  0  0
  144.1656  136.3328  153.0775 H   0  0  0  0  0  0  0  0  0  0  0  0
  143.6326  135.5964  150.9367 H   0  0  0  0  0  0  0  0  0  0  0  0
  145.1973  136.2616  150.5024 H   0  0  0  0  0  0  0  0  0  0  0  0
  143.3398  133.3003  149.9859 H   0  0  0  0  0  0  0  0  0  0  0  0
  145.0727  131.1621  149.5335 H   0  0  0  0  0  0  0  0  0  0  0  0
  147.2439  134.3729  151.2449 H   0  0  0  0  0  0  0  0  0  0  0  0
  148.0042  140.7251  152.2795 H   0  0  0  0  0  0  0  0  0  0  0  0
  146.3990  140.6127  152.9611 H   0  0  0  0  0  0  0  0  0  0  0  0
  147.3610  142.8765  153.3276 H   0  0  0  0  0  0  0  0  0  0  0  0
  148.7270  142.2003  154.1536 H   0  0  0  0  0  0  0  0  0  0  0  0
  147.3280  131.9856  150.3406 H   0  0  0  0  0  0  0  0  0  0  0  0
  1  2  1  0  0  0  0
  1 21  1  0  0  0  0
  1 22  1  0  0  0  0
  1 23  1  0  0  0  0
  2  3  2  0  0  0  0
  2  4  1  0  0  0  0
  4 20  1  0  0  0  0
  4  5  1  0  0  0  0
  5  6  1  0  0  0  0
  5 24  1  0  0  0  0
  5 25  1  0  0  0  0
  6  7  1  0  0  0  0
  6 26  1  0  0  0  0
  6 27  1  0  0  0  0
  7  8  1  0  0  0  0
  7 19  1  0  0  0  0
  7 28  1  0  0  0  0
  8  9  1  0  0  0  0
  8 29  1  0  0  0  0
  9 10  2  0  0  0  0
  9 11  1  0  0  0  0
 11 12  1  0  0  0  0
 11 30  1  0  0  0  0
 12 13  1  0  0  0  0
 12 31  1  0  0  0  0
 12 32  1  0  0  0  0
 13 14  1  0  0  0  0
 13 33  1  0  0  0  0
 13 34  1  0  0  0  0
 14 18  1  0  0  0  0
 14 15  1  0  0  0  0
 15 16  2  0  0  0  0
 15 35  1  0  0  0  0
 16 17  1  0  0  0  0
 16 36  1  0  0  0  0
 17 18  2  0  0  0  0
 17 42  1  0  0  0  0
 18 37  1  0  0  0  0
 19 20  1  0  0  0  0
 19 38  1  0  0  0  0
 19 39  1  0  0  0  0
 20 40  1  0  0  0  0
 20 41  1  0  0  0  0
M  CHG  1  17   1
M  END
> <s_m_source_file>
AV-unprocessed.smi

> <i_m_source_file_index>
1133

> <i_lp_mmshare_version>
43012

> <i_f3d_flags>
0

> <s_epik_input>
W0NIM11DKD1PKU4xW0NIMl1bQ0gyXVtDSF0oW0NIMl1bQ0gyXTEpW05IXUMoPU8pW05IXVtDSDJdW0NIMl1uMltjSF1bY0hdbltjSF0y

> <s_epik_cmdline>
J2VwaWtfcHl0aG9uJywgJy1waCcsICc3LjAnLCAnLXRuJywgJzgnLCAnLW1hJywgJzIwMCcsICctbWV0YWxfYmluZGluZycsICctaW1hZScsICc8aW5maWxlLm1hZT4nLCAnLW9tYWUnLCAnPG91dGZpbGUubWFlPic=

> <r_lp_tautomer_probability>
1

> <r_epik_Ionization_Penalty>
0.255167

> <r_epik_Ionization_Penalty_Charging>
0

> <r_epik_Ionization_Penalty_Neutral>
0.255167

> <r_epik_State_Penalty>
0.246616

> <r_epik_Charging_Adjusted_Penalty>
0.246616

> <i_epik_Tot_Q>
1

> <i_epik_Tot_abs_Q>
1

> <r_epik_Metal_State_Penalty>
0.536415

> <b_epik_Metal_Only>
0

> <s_lp_Force_Field>
OPLS_2005

> <r_lp_Energy>
22.8295

> <b_lp_Chiralities_Consistent>
1

> <s_lp_Variant>
AV-unprocessed.smi:1133-1

> <Gold.Version>
5.8.1

> <Gold.Id.Protein>
6NUR|6NUR_protein|mol2

> <Gold.PLP.Fitness>
45.6690

> <Gold.PLP.PLP>
-32.0941

> <Gold.PLP.part.hbond>
-2.9722

> <Gold.PLP.part.metal>
0.0000

> <Gold.PLP.part.buried>
-5.2662

> <Gold.PLP.part.nonpolar>
-24.4156

> <Gold.PLP.part.repulsive>
1.2132

> <Gold.PLP.ligand.clash>
0.0000

> <Gold.PLP.ligand.torsion>
0.4452

> <Gold.PLP.Chemscore.Hbond>
3.0000

> <Gold.PLP.Chemscore.CHOScore>
1.8136

> <Gold.PLP.Chemscore.Metal>
0.0000

> <Gold.Chemscore.Hbonds>
donor molecule, donor type, donor heavy atom, donor atom, acceptor molecule, acceptor atom, score
      L1  H     8    29       P1  7948  1.00
      L1  H    11    30       P1  7948  1.00
      L1  H    17    42       P1 10747  1.00
      L1  C    15    35       P1 10186  0.77
      L1  C    18    37       P1  7948  0.92

> <Gold.PLP.Chemscore.Internal.Correction>
0.0246

> <Gold.Rescore>
     Score         DG    S(hbond)    S(metal)    S(lipo)     H(rot)  DE(clash)    DE(int)     intcor
     14.66     -16.79       2.93        0.00      58.49       2.08       0.40       1.73       ----

> <Gold.Chemscore.Fitness>
14.6603

> <Gold.Chemscore.DG>
-16.7874

> <Gold.Chemscore.ZeroCoef>
-5.4800

> <Gold.Chemscore.Hbond>
2.9303

> <Gold.Chemscore.Metal>
0.0000

> <Gold.Chemscore.Lipo>
58.4913

> <Gold.Chemscore.Internal_Hbond>
0.0000

> <Gold.Chemscore.DEClash>
0.4012

> <Gold.Chemscore.DEInternal>
1.7260

> <Gold.Chemscore.Rot>
2.0794

> <Gold.Chemscore.Internal.Correction>
   9.000000E+99

> <Gold.Chemscore.Hbonds>
donor molecule, donor type, donor heavy atom, donor atom, acceptor molecule, acceptor atom, score
      L1  H     8    29       P1  7948  0.94
      L1  H    11    30       P1  7948  0.97
      L1  H    17    42       P1 10747  0.97

> <Gold.Chemscore.Hbond.Weighted>
-9.7871

> <Gold.Chemscore.Metal.Weighted>
-0.0000

> <Gold.Chemscore.Lipo.Weighted>
-6.8435

> <Gold.Chemscore.Internal_Hbond.Weighted>
0.0000

> <Gold.Chemscore.DEClash.Weighted>
0.4012

> <Gold.Chemscore.DEInternal.Weighted>
1.7260

> <Gold.Chemscore.Rot.Weighted>
5.3232

> <Gold.Chemscore.Internal.Correction.Weighted>
   9.000000E+99

> <Gold.Protein.RotatedTorsions>
[ 6907 6896 6895 6894 ] final  154.59 input  -60.11 | X-H torsion
[ 7974 7965 7964 7962 ] final -109.55 input  175.53 | X-H torsion
[ 8008 7997 7996 7995 ] final  117.68 input   59.86 | X-H torsion
[ 10167 10162 10161 10158 ] final   54.02 input  -65.29 | X-H torsion
[ 10718 10713 10712 10709 ] final -120.21 input   66.30 | X-H torsion
[ 10763 10752 10751 10750 ] final    9.70 input  -60.55 | X-H torsion
[ 11005 11000 10999 10996 ] final    6.35 input  -57.11 | X-H torsion

> <Gold.Protein.ActiveResidues>
 VAL166  LYS551  ARG553  GLY616  TRP617  ASP618  TYR619  PRO620  LYS621  CYS622 
 ASP623  PHE694  ASN695  SER759  ASP760  ASP761  ALA762  ILE779  LEU786  VAL792 
 PHE793  MET794  SER795  GLU796  ALA797  LYS798  CYS799  TRP800  GLU811  SER814 

> <Gold.Protein.RotatedAtoms>
  152.0563  133.4042  159.4398 H   0  0  0  0  0  0  0  0  0  0  0  0  # atno 6907 bound_to 6896
  150.6868  134.3250  159.4812 H   0  0  0  0  0  0  0  0  0  0  0  0  # atno 6908 bound_to 6896
  152.1066  134.9303  160.0618 H   0  0  0  0  0  0  0  0  0  0  0  0  # atno 6909 bound_to 6896
  145.1791  140.8962  143.3490 H   0  0  0  0  0  0  0  0  0  0  0  0  # atno 7974 bound_to 7965
  156.2507  140.2891  156.0717 H   0  0  0  0  0  0  0  0  0  0  0  0  # atno 8008 bound_to 7997
  155.1664  140.0401  157.2871 H   0  0  0  0  0  0  0  0  0  0  0  0  # atno 8009 bound_to 7997
  154.6357  140.2510  155.7388 H   0  0  0  0  0  0  0  0  0  0  0  0  # atno 8010 bound_to 7997
  140.2346  144.3650  150.6402 H   0  0  0  0  0  0  0  0  0  0  0  0  # atno 10167 bound_to 10162
  156.1240  130.6345  150.9512 H   0  0  0  0  0  0  0  0  0  0  0  0  # atno 10718 bound_to 10713
  153.2112  135.6869  153.8112 H   0  0  0  0  0  0  0  0  0  0  0  0  # atno 10763 bound_to 10752
  153.7344  135.3247  155.3293 H   0  0  0  0  0  0  0  0  0  0  0  0  # atno 10764 bound_to 10752
  154.8223  135.4643  154.0920 H   0  0  0  0  0  0  0  0  0  0  0  0  # atno 10765 bound_to 10752
  140.5604  134.0197  155.7970 H   0  0  0  0  0  0  0  0  0  0  0  0  # atno 11005 bound_to 11000
  145.0154  139.3472  143.6099 LP  0  0  0  0  0  0  0  0  0  0  0  0  # atno 17320 bound_to 7965
  146.3456  139.9433  142.8738 LP  0  0  0  0  0  0  0  0  0  0  0  0  # atno 17321 bound_to 7965
  140.6159  143.2172  151.6792 LP  0  0  0  0  0  0  0  0  0  0  0  0  # atno 17342 bound_to 10162
  139.5098  144.3564  152.0603 LP  0  0  0  0  0  0  0  0  0  0  0  0  # atno 17343 bound_to 10162
  157.6423  131.0908  150.8226 LP  0  0  0  0  0  0  0  0  0  0  0  0  # atno 17370 bound_to 10713
  156.8319  130.5019  149.5330 LP  0  0  0  0  0  0  0  0  0  0  0  0  # atno 17371 bound_to 10713
  141.1118  133.9605  157.2897 LP  0  0  0  0  0  0  0  0  0  0  0  0  # atno 17394 bound_to 11000
  139.9410  135.0191  156.8709 LP  0  0  0  0  0  0  0  0  0  0  0  0  # atno 17395 bound_to 11000

$$$$
