AV-unprocessed.smi:2667|AV-procd|sdf|10335|dock10
  -GOLD-   2272014353D 1   1.00000     0.00000
 Structure written by MMmdl.
 44 46  0  0  0  0  0  0  0  0  1 V2000
  142.8080  147.2920  155.4278 C   0  0  0  0  0  0  0  0  0  0  0  0
  142.7329  145.7619  155.3046 C   0  0  0  0  0  0  0  0  0  0  0  0
  143.6233  145.1808  154.1952 C   0  0  0  0  0  0  0  0  0  0  0  0
  143.4459  145.5236  153.0254 O   0  0  0  0  0  0  0  0  0  0  0  0
  144.6742  144.2032  154.6018 C   0  0  0  0  0  0  0  0  0  0  0  0
  144.8349  143.7934  155.9459 C   0  0  0  0  0  0  0  0  0  0  0  0
  145.8343  142.8653  156.2948 C   0  0  0  0  0  0  0  0  0  0  0  0
  146.6938  142.3239  155.3190 C   0  0  0  0  0  0  0  0  0  0  0  0
  147.6352  141.4137  155.7491 O   0  0  0  0  0  0  0  0  0  0  0  0
  148.7189  141.1072  154.8820 C   0  0  0  0  0  0  0  0  0  0  0  0
  149.9743  140.8484  155.7349 C   0  0  1  0  0  0  0  0  0  0  0  0
  150.8992  140.1227  154.9518 O   0  0  0  0  0  0  0  0  0  0  0  0
  150.6871  142.1340  156.1992 C   0  0  0  0  0  0  0  0  0  0  0  0
  151.3163  141.9919  157.4998 N   0  0  0  0  0  0  0  0  0  0  0  0
  151.8361  140.8669  158.0270 C   0  0  0  0  0  0  0  0  0  0  0  0
  152.3724  140.9536  159.2409 N   0  0  0  0  0  0  0  0  0  0  0  0
  152.1806  142.2925  159.5359 C   0  0  0  0  0  0  0  0  0  0  0  0
  152.5274  143.0367  160.6862 C   0  0  0  0  0  0  0  0  0  0  0  0
  152.2258  144.4124  160.7646 C   0  0  0  0  0  0  0  0  0  0  0  0
  151.5738  145.0638  159.6975 C   0  0  0  0  0  0  0  0  0  0  0  0
  151.2191  144.3433  158.5409 C   0  0  0  0  0  0  0  0  0  0  0  0
  151.5230  142.9712  158.4657 C   0  0  0  0  0  0  0  0  0  0  0  0
  146.5416  142.7408  153.9739 C   0  0  0  0  0  0  0  0  0  0  0  0
  145.5436  143.6705  153.6233 C   0  0  0  0  0  0  0  0  0  0  0  0
  142.1418  147.6454  156.2146 H   0  0  0  0  0  0  0  0  0  0  0  0
  142.5094  147.7813  154.4997 H   0  0  0  0  0  0  0  0  0  0  0  0
  143.8166  147.6237  155.6771 H   0  0  0  0  0  0  0  0  0  0  0  0
  143.0188  145.3086  156.2540 H   0  0  0  0  0  0  0  0  0  0  0  0
  141.7005  145.4712  155.1090 H   0  0  0  0  0  0  0  0  0  0  0  0
  144.2017  144.1778  156.7313 H   0  0  0  0  0  0  0  0  0  0  0  0
  145.9397  142.5619  157.3262 H   0  0  0  0  0  0  0  0  0  0  0  0
  148.5010  140.2454  154.2487 H   0  0  0  0  0  0  0  0  0  0  0  0
  148.8772  141.9677  154.2317 H   0  0  0  0  0  0  0  0  0  0  0  0
  149.7100  140.2516  156.6089 H   0  0  0  0  0  0  0  0  0  0  0  0
  151.6593  139.9385  155.4824 H   0  0  0  0  0  0  0  0  0  0  0  0
  151.4588  142.4169  155.4817 H   0  0  0  0  0  0  0  0  0  0  0  0
  149.9830  142.9661  156.2403 H   0  0  0  0  0  0  0  0  0  0  0  0
  151.8183  139.9307  157.4882 H   0  0  0  0  0  0  0  0  0  0  0  0
  153.0268  142.5483  161.5097 H   0  0  0  0  0  0  0  0  0  0  0  0
  152.4961  144.9706  161.6490 H   0  0  0  0  0  0  0  0  0  0  0  0
  151.3462  146.1174  159.7671 H   0  0  0  0  0  0  0  0  0  0  0  0
  150.7179  144.8390  157.7228 H   0  0  0  0  0  0  0  0  0  0  0  0
  147.1787  142.3622  153.1891 H   0  0  0  0  0  0  0  0  0  0  0  0
  145.4522  143.9655  152.5880 H   0  0  0  0  0  0  0  0  0  0  0  0
  1  2  1  0  0  0  0
  1 25  1  0  0  0  0
  1 26  1  0  0  0  0
  1 27  1  0  0  0  0
  2  3  1  0  0  0  0
  2 28  1  0  0  0  0
  2 29  1  0  0  0  0
  3  4  2  0  0  0  0
  3  5  1  0  0  0  0
  5 24  1  0  0  0  0
  5  6  2  0  0  0  0
  6  7  1  0  0  0  0
  6 30  1  0  0  0  0
  7  8  2  0  0  0  0
  7 31  1  0  0  0  0
  8  9  1  0  0  0  0
  8 23  1  0  0  0  0
  9 10  1  0  0  0  0
 10 11  1  0  0  0  0
 10 32  1  0  0  0  0
 10 33  1  0  0  0  0
 11 12  1  0  0  0  0
 11 13  1  0  0  0  0
 11 34  1  0  0  0  0
 12 35  1  0  0  0  0
 13 14  1  0  0  0  0
 13 36  1  0  0  0  0
 13 37  1  0  0  0  0
 14 22  1  0  0  0  0
 14 15  1  0  0  0  0
 15 16  2  0  0  0  0
 15 38  1  0  0  0  0
 16 17  1  0  0  0  0
 17 22  2  0  0  0  0
 17 18  1  0  0  0  0
 18 19  2  0  0  0  0
 18 39  1  0  0  0  0
 19 20  1  0  0  0  0
 19 40  1  0  0  0  0
 20 21  2  0  0  0  0
 20 41  1  0  0  0  0
 21 22  1  0  0  0  0
 21 42  1  0  0  0  0
 23 24  2  0  0  0  0
 23 43  1  0  0  0  0
 24 44  1  0  0  0  0
M  END
> <s_m_source_file>
AV-unprocessed.smi

> <i_m_source_file_index>
2667

> <i_lp_mmshare_version>
43012

> <i_f3d_flags>
0

> <s_epik_input>
W0NIM11bQ0gyXUMoPU8pYzFbY0hdW2NIXWMoW2NIXVtjSF0xKU9bQ0gyXVtDQEhdKFtPSF0pW0NIMl1uKFtjSF1uMiljKGMyMylbY0hdW2NIXVtjSF1bY0hdMw==

> <s_epik_cmdline>
J2VwaWtfcHl0aG9uJywgJy1waCcsICc3LjAnLCAnLXRuJywgJzgnLCAnLW1hJywgJzIwMCcsICctbWV0YWxfYmluZGluZycsICctaW1hZScsICc8aW5maWxlLm1hZT4nLCAnLW9tYWUnLCAnPG91dGZpbGUubWFlPic=

> <r_lp_tautomer_probability>
0.9999

> <r_epik_Ionization_Penalty>
0.0583018

> <r_epik_Ionization_Penalty_Charging>
0

> <r_epik_Ionization_Penalty_Neutral>
0.0583018

> <r_epik_State_Penalty>
0.0504087

> <r_epik_Charging_Adjusted_Penalty>
0.0504087

> <i_epik_Tot_Q>
0

> <i_epik_Tot_abs_Q>
0

> <r_epik_Metal_State_Penalty>
5.26129e-05

> <b_epik_Metal_Only>
0

> <s_lp_Force_Field>
OPLS_2005

> <r_lp_Energy>
23.9231

> <b_lp_Chiralities_Consistent>
1

> <s_lp_Variant>
AV-unprocessed.smi:2667-2

> <Gold.Version>
5.8.1

> <Gold.Id.Protein>
6NUR|6NUR_protein|mol2

> <Gold.PLP.Fitness>
56.9976

> <Gold.PLP.PLP>
-56.7198

> <Gold.PLP.part.hbond>
-1.3001

> <Gold.PLP.part.metal>
0.0000

> <Gold.PLP.part.buried>
-8.4780

> <Gold.PLP.part.nonpolar>
-46.3093

> <Gold.PLP.part.repulsive>
0.2346

> <Gold.PLP.ligand.clash>
0.0000

> <Gold.PLP.ligand.torsion>
1.4294

> <Gold.PLP.Chemscore.Hbond>
1.0000

> <Gold.PLP.Chemscore.CHOScore>
0.0000

> <Gold.PLP.Chemscore.Metal>
0.0000

> <Gold.Chemscore.Hbonds>
donor molecule, donor type, donor heavy atom, donor atom, acceptor molecule, acceptor atom, score
      P1  H  7989  7998       L1    12  1.00

> <Gold.PLP.Chemscore.Internal.Correction>
0.1365

> <Gold.Rescore>
     Score         DG    S(hbond)    S(metal)    S(lipo)     H(rot)  DE(clash)    DE(int)     intcor
     14.76     -18.06       0.88        0.00     136.87       2.49       1.98       1.32       ----

> <Gold.Chemscore.Fitness>
14.7625

> <Gold.Chemscore.DG>
-18.0607

> <Gold.Chemscore.ZeroCoef>
-5.4800

> <Gold.Chemscore.Hbond>
0.8830

> <Gold.Chemscore.Metal>
0.0000

> <Gold.Chemscore.Lipo>
136.8743

> <Gold.Chemscore.Internal_Hbond>
0.0000

> <Gold.Chemscore.DEClash>
1.9808

> <Gold.Chemscore.DEInternal>
1.3174

> <Gold.Chemscore.Rot>
2.4932

> <Gold.Chemscore.Internal.Correction>
   9.000000E+99

> <Gold.Chemscore.Hbonds>
donor molecule, donor type, donor heavy atom, donor atom, acceptor molecule, acceptor atom, score
      P1  H  7989  7998       L1    12  0.34

> <Gold.Chemscore.Hbond.Weighted>
-2.9491

> <Gold.Chemscore.Metal.Weighted>
-0.0000

> <Gold.Chemscore.Lipo.Weighted>
-16.0143

> <Gold.Chemscore.Internal_Hbond.Weighted>
0.0000

> <Gold.Chemscore.DEClash.Weighted>
1.9808

> <Gold.Chemscore.DEInternal.Weighted>
1.3174

> <Gold.Chemscore.Rot.Weighted>
6.3826

> <Gold.Chemscore.Internal.Correction.Weighted>
   9.000000E+99

> <Gold.Protein.RotatedTorsions>
[ 6907 6896 6895 6894 ] final   78.20 input  -60.11 | X-H torsion
[ 7974 7965 7964 7962 ] final  113.53 input  175.53 | X-H torsion
[ 8008 7997 7996 7995 ] final -135.24 input   59.86 | X-H torsion
[ 10167 10162 10161 10158 ] final  169.22 input  -65.29 | X-H torsion
[ 10718 10713 10712 10709 ] final  -14.51 input   66.30 | X-H torsion
[ 10763 10752 10751 10750 ] final  -87.09 input  -60.55 | X-H torsion
[ 11005 11000 10999 10996 ] final   -4.18 input  -57.11 | X-H torsion

> <Gold.Protein.ActiveResidues>
 VAL166  LYS551  ARG553  GLY616  TRP617  ASP618  TYR619  PRO620  LYS621  CYS622 
 ASP623  PHE694  ASN695  SER759  ASP760  ASP761  ALA762  ILE779  LEU786  VAL792 
 PHE793  MET794  SER795  GLU796  ALA797  LYS798  CYS799  TRP800  GLU811  SER814 

> <Gold.Protein.RotatedAtoms>
  152.5150  134.3700  159.9314 H   0  0  0  0  0  0  0  0  0  0  0  0  # atno 6907 bound_to 6896
  151.3654  133.3868  159.2702 H   0  0  0  0  0  0  0  0  0  0  0  0  # atno 6908 bound_to 6896
  150.9619  134.9025  159.7794 H   0  0  0  0  0  0  0  0  0  0  0  0  # atno 6909 bound_to 6896
  145.2158  139.2885  143.4244 H   0  0  0  0  0  0  0  0  0  0  0  0  # atno 7974 bound_to 7965
  155.3754  140.0491  157.3045 H   0  0  0  0  0  0  0  0  0  0  0  0  # atno 8008 bound_to 7997
  154.5109  140.2191  155.9121 H   0  0  0  0  0  0  0  0  0  0  0  0  # atno 8009 bound_to 7997
  156.1581  140.3122  155.8766 H   0  0  0  0  0  0  0  0  0  0  0  0  # atno 8010 bound_to 7997
  139.4987  144.3730  151.9704 H   0  0  0  0  0  0  0  0  0  0  0  0  # atno 10167 bound_to 10162
  156.6150  130.4860  149.6187 H   0  0  0  0  0  0  0  0  0  0  0  0  # atno 10718 bound_to 10713
  154.6297  135.5426  153.7667 H   0  0  0  0  0  0  0  0  0  0  0  0  # atno 10763 bound_to 10752
  153.0278  135.6433  154.1319 H   0  0  0  0  0  0  0  0  0  0  0  0  # atno 10764 bound_to 10752
  154.1250  135.2918  155.3179 H   0  0  0  0  0  0  0  0  0  0  0  0  # atno 10765 bound_to 10752
  140.6774  133.9183  155.8533 H   0  0  0  0  0  0  0  0  0  0  0  0  # atno 11005 bound_to 11000
  146.3387  140.2449  142.8597 LP  0  0  0  0  0  0  0  0  0  0  0  0  # atno 17320 bound_to 7965
  144.9812  140.8461  143.5396 LP  0  0  0  0  0  0  0  0  0  0  0  0  # atno 17321 bound_to 7965
  140.3166  144.3476  150.6020 LP  0  0  0  0  0  0  0  0  0  0  0  0  # atno 17342 bound_to 10162
  140.5756  143.2177  151.7521 LP  0  0  0  0  0  0  0  0  0  0  0  0  # atno 17343 bound_to 10162
  156.2358  130.6822  151.1508 LP  0  0  0  0  0  0  0  0  0  0  0  0  # atno 17370 bound_to 10713
  157.7244  131.0660  150.5998 LP  0  0  0  0  0  0  0  0  0  0  0  0  # atno 17371 bound_to 10713
  141.0344  134.0710  157.3976 LP  0  0  0  0  0  0  0  0  0  0  0  0  # atno 17394 bound_to 11000
  139.8962  135.0145  156.7041 LP  0  0  0  0  0  0  0  0  0  0  0  0  # atno 17395 bound_to 11000

$$$$
