AV-unprocessed.smi:258|AV-procd|sdf|1966|dock2
  -GOLD-   2262021113D 1   1.00000     0.00000
 Structure written by MMmdl.
 57 60  0  0  0  0  0  0  0  0  1 V2000
  146.8304  131.1726  151.1186 O   0  0  0  0  0  0  0  0  0  0  0  0
  146.6682  132.2133  152.0588 C   0  0  0  0  0  0  0  0  0  0  0  0
  147.5144  131.9375  153.3075 C   0  0  0  0  0  0  0  0  0  0  0  0
  148.0938  133.1555  153.7535 O   0  0  0  0  0  0  0  0  0  0  0  0
  148.7856  133.0588  154.9914 C   0  0  1  0  0  0  0  0  0  0  0  0
  150.0337  132.1631  154.8586 C   0  0  0  0  0  0  0  0  0  0  0  0
  150.8480  132.1910  156.1607 C   0  0  0  0  0  0  0  0  0  0  0  0
  151.2041  133.6324  156.5584 C   0  0  0  0  0  0  0  0  0  0  0  0
  150.0024  134.4660  156.6248 N   0  0  0  0  0  0  0  0  0  0  0  0
  150.0950  135.6604  157.2635 C   0  0  0  0  0  0  0  0  0  0  0  0
  149.3817  135.8797  158.4012 N   0  0  0  0  0  0  0  0  0  0  0  0
  149.4756  137.0476  159.0439 C   0  0  0  0  0  0  0  0  0  0  0  0
  150.2085  138.1172  158.7291 N   0  0  0  0  0  0  0  0  0  0  0  0
  150.9186  137.9080  157.5843 C   0  0  0  0  0  0  0  0  0  0  0  0
  150.9193  136.7229  156.7951 C   0  0  0  0  0  0  0  0  0  0  0  0
  151.7531  136.8898  155.6949 N   0  0  0  0  0  0  0  0  0  0  0  0
  152.2284  138.0973  155.8338 C   0  0  0  0  0  0  0  0  0  0  0  0
  151.7779  138.7800  156.9409 N   0  0  0  0  0  0  0  0  0  0  0  0
  152.1406  140.1286  157.3395 C   0  0  0  0  0  0  0  0  0  0  0  0
  150.9206  141.0627  157.5377 C   0  0  2  0  0  0  0  0  0  0  0  0
  150.1705  141.3592  156.2164 C   0  0  0  0  0  0  0  0  0  0  0  0
  149.0049  142.1247  156.4447 O   0  0  0  0  0  0  0  0  0  0  0  0
  151.3147  142.3580  158.2917 C   0  0  2  0  0  0  0  0  0  0  0  0
  151.6545  143.5378  157.3979 C   0  0  0  0  0  0  0  0  0  0  0  0
  152.4157  144.4542  158.3499 C   0  0  0  0  0  0  0  0  0  0  0  0
  153.0822  143.5915  159.2651 O   0  0  0  0  0  0  0  0  0  0  0  0
  152.6033  142.2588  159.1146 C   0  0  0  0  0  0  0  0  0  0  0  0
  149.1951  134.4833  155.4048 C   0  0  0  0  0  0  0  0  0  0  0  0
  147.5871  131.3642  150.5862 H   0  0  0  0  0  0  0  0  0  0  0  0
  146.9204  133.1753  151.6117 H   0  0  0  0  0  0  0  0  0  0  0  0
  145.6128  132.2499  152.3294 H   0  0  0  0  0  0  0  0  0  0  0  0
  146.8653  131.5552  154.0966 H   0  0  0  0  0  0  0  0  0  0  0  0
  148.2641  131.1714  153.1071 H   0  0  0  0  0  0  0  0  0  0  0  0
  148.1222  132.6591  155.7609 H   0  0  0  0  0  0  0  0  0  0  0  0
  149.7549  131.1359  154.6262 H   0  0  0  0  0  0  0  0  0  0  0  0
  150.6529  132.5140  154.0320 H   0  0  0  0  0  0  0  0  0  0  0  0
  150.2702  131.7256  156.9603 H   0  0  0  0  0  0  0  0  0  0  0  0
  151.7565  131.5989  156.0490 H   0  0  0  0  0  0  0  0  0  0  0  0
  151.7110  133.6255  157.5246 H   0  0  0  0  0  0  0  0  0  0  0  0
  151.8976  134.0584  155.8320 H   0  0  0  0  0  0  0  0  0  0  0  0
  148.8784  137.1365  159.9394 H   0  0  0  0  0  0  0  0  0  0  0  0
  152.9191  138.5292  155.1240 H   0  0  0  0  0  0  0  0  0  0  0  0
  152.7212  140.0553  158.2593 H   0  0  0  0  0  0  0  0  0  0  0  0
  152.8115  140.5406  156.5848 H   0  0  0  0  0  0  0  0  0  0  0  0
  150.2144  140.5254  158.1725 H   0  0  0  0  0  0  0  0  0  0  0  0
  150.8095  141.8965  155.5156 H   0  0  0  0  0  0  0  0  0  0  0  0
  149.8893  140.4350  155.7123 H   0  0  0  0  0  0  0  0  0  0  0  0
  149.1920  143.0267  156.2338 H   0  0  0  0  0  0  0  0  0  0  0  0
  150.5016  142.6566  158.9554 H   0  0  0  0  0  0  0  0  0  0  0  0
  152.3060  143.2228  156.5813 H   0  0  0  0  0  0  0  0  0  0  0  0
  150.7770  144.0213  156.9680 H   0  0  0  0  0  0  0  0  0  0  0  0
  153.1185  145.1055  157.8297 H   0  0  0  0  0  0  0  0  0  0  0  0
  151.7210  145.0823  158.9086 H   0  0  0  0  0  0  0  0  0  0  0  0
  152.4443  141.7897  160.0858 H   0  0  0  0  0  0  0  0  0  0  0  0
  153.3603  141.6824  158.5810 H   0  0  0  0  0  0  0  0  0  0  0  0
  149.7802  134.9474  154.6093 H   0  0  0  0  0  0  0  0  0  0  0  0
  148.3000  135.0923  155.5255 H   0  0  0  0  0  0  0  0  0  0  0  0
  1  2  1  0  0  0  0
  1 29  1  0  0  0  0
  2  3  1  0  0  0  0
  2 30  1  0  0  0  0
  2 31  1  0  0  0  0
  3  4  1  0  0  0  0
  3 32  1  0  0  0  0
  3 33  1  0  0  0  0
  4  5  1  0  0  0  0
  5 28  1  0  0  0  0
  5  6  1  0  0  0  0
  5 34  1  0  0  0  0
  6  7  1  0  0  0  0
  6 35  1  0  0  0  0
  6 36  1  0  0  0  0
  7  8  1  0  0  0  0
  7 37  1  0  0  0  0
  7 38  1  0  0  0  0
  8  9  1  0  0  0  0
  8 39  1  0  0  0  0
  8 40  1  0  0  0  0
  9 10  1  0  0  0  0
  9 28  1  0  0  0  0
 10 15  1  0  0  0  0
 10 11  2  0  0  0  0
 11 12  1  0  0  0  0
 12 13  2  0  0  0  0
 12 41  1  0  0  0  0
 13 14  1  0  0  0  0
 14 18  1  0  0  0  0
 14 15  2  0  0  0  0
 15 16  1  0  0  0  0
 16 17  2  0  0  0  0
 17 18  1  0  0  0  0
 17 42  1  0  0  0  0
 18 19  1  0  0  0  0
 19 20  1  0  0  0  0
 19 43  1  0  0  0  0
 19 44  1  0  0  0  0
 20 21  1  0  0  0  0
 20 23  1  0  0  0  0
 20 45  1  0  0  0  0
 21 22  1  0  0  0  0
 21 46  1  0  0  0  0
 21 47  1  0  0  0  0
 22 48  1  0  0  0  0
 23 27  1  0  0  0  0
 23 24  1  0  0  0  0
 23 49  1  0  0  0  0
 24 25  1  0  0  0  0
 24 50  1  0  0  0  0
 24 51  1  0  0  0  0
 25 26  1  0  0  0  0
 25 52  1  0  0  0  0
 25 53  1  0  0  0  0
 26 27  1  0  0  0  0
 27 54  1  0  0  0  0
 27 55  1  0  0  0  0
 28 56  1  0  0  0  0
 28 57  1  0  0  0  0
M  END
> <s_m_source_file>
AV-unprocessed.smi

> <i_m_source_file_index>
258

> <i_lp_mmshare_version>
43012

> <i_f3d_flags>
0

> <s_epik_input>
W09IXVtDSDJdW0NIMl1PW0NAQEhdMVtDSDJdW0NIMl1bQ0gyXU4oW0NIMl0xKWMobltjSF1uMiljKGMyMyluW2NIXW4zW0NIMl1bQ0BIXShbQ0gyXVtPSF0pW0NAQEhdNFtDSDJdW0NIMl1PW0NIMl00

> <s_epik_cmdline>
J2VwaWtfcHl0aG9uJywgJy1waCcsICc3LjAnLCAnLXRuJywgJzgnLCAnLW1hJywgJzIwMCcsICctbWV0YWxfYmluZGluZycsICctaW1hZScsICc8aW5maWxlLm1hZT4nLCAnLW9tYWUnLCAnPG91dGZpbGUubWFlPic=

> <r_lp_tautomer_probability>
1

> <r_epik_Ionization_Penalty>
0.00349036

> <r_epik_Ionization_Penalty_Charging>
0

> <r_epik_Ionization_Penalty_Neutral>
0.00349036

> <r_epik_State_Penalty>
0.00229798

> <r_epik_Charging_Adjusted_Penalty>
0.00229798

> <i_epik_Tot_Q>
0

> <i_epik_Tot_abs_Q>
0

> <r_epik_Metal_State_Penalty>
-0

> <b_epik_Metal_Only>
0

> <s_lp_Force_Field>
OPLS_2005

> <r_lp_Energy>
45.891

> <b_lp_Chiralities_Consistent>
1

> <s_lp_Variant>
AV-unprocessed.smi:258-2

> <Gold.Version>
5.8.1

> <Gold.Id.Protein>
6NUR|6NUR_protein|mol2

> <Gold.PLP.Fitness>
51.3942

> <Gold.PLP.PLP>
-42.7345

> <Gold.PLP.part.hbond>
-3.4950

> <Gold.PLP.part.metal>
0.0000

> <Gold.PLP.part.buried>
-6.7562

> <Gold.PLP.part.nonpolar>
-32.9168

> <Gold.PLP.part.repulsive>
0.1592

> <Gold.PLP.ligand.clash>
0.0000

> <Gold.PLP.ligand.torsion>
1.4753

> <Gold.PLP.Chemscore.Hbond>
3.5078

> <Gold.PLP.Chemscore.CHOScore>
0.0000

> <Gold.PLP.Chemscore.Metal>
0.0000

> <Gold.Chemscore.Hbonds>
donor molecule, donor type, donor heavy atom, donor atom, acceptor molecule, acceptor atom, score
      L1  H     1    29       P1 10747  0.80
      L1  H    22    48       P1  8028  1.00
      P1  H  6896  6909       L1    11  0.28
      P1  H 10752 10763       L1    16  0.98

> <Gold.PLP.Chemscore.Internal.Correction>
1.0870

> <Gold.Rescore>
     Score         DG    S(hbond)    S(metal)    S(lipo)     H(rot)  DE(clash)    DE(int)     intcor
     15.13     -16.57       2.94        0.00     103.17       4.22       0.04       1.40       ----

> <Gold.Chemscore.Fitness>
15.1273

> <Gold.Chemscore.DG>
-16.5718

> <Gold.Chemscore.ZeroCoef>
-5.4800

> <Gold.Chemscore.Hbond>
2.9450

> <Gold.Chemscore.Metal>
0.0000

> <Gold.Chemscore.Lipo>
103.1663

> <Gold.Chemscore.Internal_Hbond>
0.0000

> <Gold.Chemscore.DEClash>
0.0445

> <Gold.Chemscore.DEInternal>
1.4000

> <Gold.Chemscore.Rot>
4.2246

> <Gold.Chemscore.Internal.Correction>
   9.000000E+99

> <Gold.Chemscore.Hbonds>
donor molecule, donor type, donor heavy atom, donor atom, acceptor molecule, acceptor atom, score
      L1  H     1    29       P1 10747  0.75
      L1  H    22    48       P1  8028  0.99
      P1  H 10752 10763       L1    16  0.81

> <Gold.Chemscore.Hbond.Weighted>
-9.8362

> <Gold.Chemscore.Metal.Weighted>
-0.0000

> <Gold.Chemscore.Lipo.Weighted>
-12.0705

> <Gold.Chemscore.Internal_Hbond.Weighted>
0.0000

> <Gold.Chemscore.DEClash.Weighted>
0.0445

> <Gold.Chemscore.DEInternal.Weighted>
1.4000

> <Gold.Chemscore.Rot.Weighted>
10.8149

> <Gold.Chemscore.Internal.Correction.Weighted>
   9.000000E+99

> <Gold.Protein.RotatedTorsions>
[ 6907 6896 6895 6894 ] final   72.72 input  -60.11 | X-H torsion
[ 7974 7965 7964 7962 ] final   91.02 input  175.53 | X-H torsion
[ 8008 7997 7996 7995 ] final -109.76 input   59.86 | X-H torsion
[ 10167 10162 10161 10158 ] final -158.11 input  -65.29 | X-H torsion
[ 10718 10713 10712 10709 ] final  -34.63 input   66.30 | X-H torsion
[ 10763 10752 10751 10750 ] final   80.83 input  -60.55 | X-H torsion
[ 11005 11000 10999 10996 ] final   12.09 input  -57.11 | X-H torsion

> <Gold.Protein.ActiveResidues>
 VAL166  LYS551  ARG553  GLY616  TRP617  ASP618  TYR619  PRO620  LYS621  CYS622 
 ASP623  PHE694  ASN695  SER759  ASP760  ASP761  ALA762  ILE779  LEU786  VAL792 
 PHE793  MET794  SER795  GLU796  ALA797  LYS798  CYS799  TRP800  GLU811  SER814 

> <Gold.Protein.RotatedAtoms>
  152.4883  134.4529  159.9580 H   0  0  0  0  0  0  0  0  0  0  0  0  # atno 6907 bound_to 6896
  151.4521  133.3608  159.2804 H   0  0  0  0  0  0  0  0  0  0  0  0  # atno 6908 bound_to 6896
  150.9014  134.8451  159.7423 H   0  0  0  0  0  0  0  0  0  0  0  0  # atno 6909 bound_to 6896
  145.5112  139.2277  143.2723 H   0  0  0  0  0  0  0  0  0  0  0  0  # atno 7974 bound_to 7965
  154.9643  140.0398  157.2204 H   0  0  0  0  0  0  0  0  0  0  0  0  # atno 8008 bound_to 7997
  154.7860  140.2827  155.6005 H   0  0  0  0  0  0  0  0  0  0  0  0  # atno 8009 bound_to 7997
  156.2943  140.2582  156.2697 H   0  0  0  0  0  0  0  0  0  0  0  0  # atno 8010 bound_to 7997
  139.6718  143.9732  152.2288 H   0  0  0  0  0  0  0  0  0  0  0  0  # atno 10167 bound_to 10162
  156.3482  130.4304  149.7727 H   0  0  0  0  0  0  0  0  0  0  0  0  # atno 10718 bound_to 10713
  153.1066  135.4788  154.8961 H   0  0  0  0  0  0  0  0  0  0  0  0  # atno 10763 bound_to 10752
  154.7436  135.3088  154.8687 H   0  0  0  0  0  0  0  0  0  0  0  0  # atno 10764 bound_to 10752
  153.9288  135.6847  153.4799 H   0  0  0  0  0  0  0  0  0  0  0  0  # atno 10765 bound_to 10752
  140.4959  134.0794  155.7782 H   0  0  0  0  0  0  0  0  0  0  0  0  # atno 11005 bound_to 11000
  146.2165  140.5919  142.9036 LP  0  0  0  0  0  0  0  0  0  0  0  0  # atno 17320 bound_to 7965
  144.7726  140.5671  143.6659 LP  0  0  0  0  0  0  0  0  0  0  0  0  # atno 17321 bound_to 7965
  139.9499  144.6627  150.8182 LP  0  0  0  0  0  0  0  0  0  0  0  0  # atno 17342 bound_to 10162
  140.7621  143.3189  151.2668 LP  0  0  0  0  0  0  0  0  0  0  0  0  # atno 17343 bound_to 10162
  156.4937  130.8097  151.3105 LP  0  0  0  0  0  0  0  0  0  0  0  0  # atno 17370 bound_to 10713
  157.7457  130.9967  150.2789 LP  0  0  0  0  0  0  0  0  0  0  0  0  # atno 17371 bound_to 10713
  141.1460  133.9053  157.2213 LP  0  0  0  0  0  0  0  0  0  0  0  0  # atno 17394 bound_to 11000
  139.9742  135.0119  156.9589 LP  0  0  0  0  0  0  0  0  0  0  0  0  # atno 17395 bound_to 11000

$$$$
