#       Name:                AV-unprocessed.smi:2746
#       Creating user name   scv26
#       Creation time:       Fri Mar 27 15:02:36 2020


#       File generated by GOLD software.
#

@<TRIPOS>MOLECULE
AV-unprocessed.smi:2746
    44    45     1
SMALL
NO_CHARGES


@<TRIPOS>ATOM
      1 ****        -5.3282  -0.3015   1.2794 C.2            1 S1                 0.0000
      2 ****        -4.5291   0.7717   1.3750 C.2            1 S1                 0.0000
      3 ****        -4.0338   1.5821   0.1914 C.3            1 S1                 0.0000
      4 ****        -4.5791   3.0152   0.2354 C.3            1 S1                 0.0000
      5 ****        -2.5757   1.6189   0.1772 N.am           1 S1                 0.0000
      6 ****        -1.7739   0.6534  -0.3048 C.2            1 S1                 0.0000
      7 ****        -2.1971  -0.3993  -0.7846 O.2            1 S1                 0.0000
      8 ****        -0.2955   0.9113  -0.1864 C.ar           1 S1                 0.0000
      9 ****         0.6173  -0.1634  -0.2983 C.ar           1 S1                 0.0000
     10 ****         2.0024   0.0975  -0.2007 C.ar           1 S1                 0.0000
     11 ****         2.9618  -0.9190  -0.3036 N.3            1 S1                 0.0000
     12 ****         2.8686  -1.9223   0.7493 C.3            1 S1                 0.0000
     13 ****         4.0300  -2.9240   0.6245 C.3            1 S1                 0.0000
     14 ****         4.0259  -3.5015  -0.6782 O.3            1 S1                 0.0000
     15 ****         4.1904  -2.5205  -1.6986 C.3            1 S1                 0.0000
     16 ****         3.0322  -1.5097  -1.6336 C.3            1 S1                 0.0000
     17 ****         2.4214   1.4268   0.0004 C.ar           1 S1                 0.0000
     18 ****         1.4419   2.4327   0.0965 C.ar           1 S1                 0.0000
     19 ****         0.1180   2.1885   0.0047 N.ar           1 S1                 0.0000
     20 ****        -5.6733  -0.6597   0.3204 H              1 S1                 0.0000
     21 ****        -5.6472  -0.8367   2.1615 H              1 S1                 0.0000
     22 ****        -4.2045   1.1002   2.3518 H              1 S1                 0.0000
     23 ****        -4.3883   1.1146  -0.7294 H              1 S1                 0.0000
     24 ****        -5.6695   3.0195   0.2232 H              1 S1                 0.0000
     25 ****        -4.2396   3.5901  -0.6269 H              1 S1                 0.0000
     26 ****        -4.2539   3.5397   1.1349 H              1 S1                 0.0000
     27 ****        -2.1341   2.4417   0.5617 H              1 S1                 0.0000
     28 ****         0.2639  -1.1723  -0.4568 H              1 S1                 0.0000
     29 ****         2.8966  -1.4369   1.7256 H              1 S1                 0.0000
     30 ****         1.9171  -2.4509   0.6775 H              1 S1                 0.0000
     31 ****         4.9872  -2.4355   0.8139 H              1 S1                 0.0000
     32 ****         3.9248  -3.7166   1.3652 H              1 S1                 0.0000
     33 ****         5.1520  -2.0179  -1.5827 H              1 S1                 0.0000
     34 ****         4.2044  -3.0153  -2.6696 H              1 S1                 0.0000
     35 ****         2.0911  -2.0101  -1.8666 H              1 S1                 0.0000
     36 ****         3.1760  -0.7269  -2.3794 H              1 S1                 0.0000
     37 ****         3.4702   1.6731   0.0793 H              1 S1                 0.0000
     38 ****         1.7294   3.4621   0.2503 H              1 S1                 0.0000
     39 ****        -3.1817  -0.5682  -0.8292 LP             1 S1                 0.0000
     40 ****        -1.5560  -1.0849  -1.1294 LP             1 S1                 0.0000
     41 ****         3.8372  -0.4582  -0.1573 LP             1 S1                 0.0000
     42 ****         3.1548  -3.9716  -0.8200 LP             1 S1                 0.0000
     43 ****         4.7748  -4.1612  -0.7410 LP             1 S1                 0.0000
     44 ****        -0.5446   2.9341   0.0762 LP             1 S1                 0.0000
@<TRIPOS>BOND
    1    1    2 2     
    2    1   20 1     
    3    1   21 1     
    4    2    3 1     
    5    2   22 1     
    6    3    4 1     
    7    3    5 1     
    8    3   23 1     
    9    4   24 1     
   10    4   25 1     
   11    4   26 1     
   12    5    6 am    
   13    5   27 1     
   14    6    7 2     
   15    6    8 1     
   16    8   19 ar    
   17    8    9 ar    
   18    9   10 ar    
   19    9   28 1     
   20   10   11 1     
   21   10   17 ar    
   22   11   16 1     
   23   11   12 1     
   24   12   13 1     
   25   12   29 1     
   26   12   30 1     
   27   13   14 1     
   28   13   31 1     
   29   13   32 1     
   30   14   15 1     
   31   15   16 1     
   32   15   33 1     
   33   15   34 1     
   34   16   35 1     
   35   16   36 1     
   36   17   18 ar    
   37   17   37 1     
   38   18   19 ar    
   39   18   38 1     
   40    7   39 1     
   41    7   40 1     
   42   11   41 1     
   43   14   42 1     
   44   14   43 1     
   45   19   44 1     
@<TRIPOS>SUBSTRUCTURE
      1 S1             1
@<TRIPOS>SET
LONE_PAIRS      STATIC     ATOMS    <user>   **** ""
6 39 40 41 42 43 44
DONOR_HYDROGENS      STATIC     ATOMS    <user>   **** ""
1 27
ATOM$BLUE        STATIC     ATOMS    COLORGROUP SYSTEM
6 39 40 41 42 43 44
ATOM$RED        STATIC     ATOMS    COLORGROUP SYSTEM
1 27
