AV-unprocessed.smi:1643|AV-procd|sdf|6572|dock6
  -GOLD-   22720 7253D 1   1.00000     0.00000
 Structure written by MMmdl.
 54 56  0  0  0  0  0  0  0  0  2 V2000
  143.4485  139.9903  155.6711 C   0  0  0  0  0  0  0  0  0  0  0  0
  144.5235  140.0764  156.7579 C   0  0  0  0  0  0  0  0  0  0  0  0
  144.7389  139.0735  157.4385 O   0  0  0  0  0  0  0  0  0  0  0  0
  145.2044  141.2368  156.9279 N   0  0  0  0  0  0  0  0  0  0  0  0
  144.8550  142.4454  156.1668 C   0  0  0  0  0  0  0  0  0  0  0  0
  145.8120  142.6885  154.9782 C   0  0  0  0  0  0  0  0  0  0  0  0
  147.1277  141.8776  154.9946 C   0  0  0  0  0  0  0  0  0  0  0  0
  148.0459  142.1786  156.1318 N   0  3  2  0  0  0  0  0  0  0  0  0
  149.1652  141.2034  156.2439 C   0  0  0  0  0  0  0  0  0  0  0  0
  150.4039  141.7654  156.9724 C   0  0  2  0  0  0  0  0  0  0  0  0
  150.7071  143.0185  156.3933 O   0  0  0  0  0  0  0  0  0  0  0  0
  151.6351  140.8419  156.8656 C   0  0  0  0  0  0  0  0  0  0  0  0
  152.2867  140.6363  158.1468 N   0  0  0  0  0  0  0  0  0  0  0  0
  152.9281  139.5264  158.5600 C   0  0  0  0  0  0  0  0  0  0  0  0
  153.4554  139.5462  159.7802 N   0  0  0  0  0  0  0  0  0  0  0  0
  153.1192  140.8187  160.2093 C   0  0  0  0  0  0  0  0  0  0  0  0
  153.3831  141.4735  161.4320 C   0  0  0  0  0  0  0  0  0  0  0  0
  152.9347  142.7943  161.6581 C   0  0  0  0  0  0  0  0  0  0  0  0
  153.2391  143.4600  162.9888 C   0  0  0  0  0  0  0  0  0  0  0  0
  152.2101  143.4810  160.6510 C   0  0  0  0  0  0  0  0  0  0  0  0
  151.7184  144.9005  160.8719 C   0  0  0  0  0  0  0  0  0  0  0  0
  151.9381  142.8416  159.4234 C   0  0  0  0  0  0  0  0  0  0  0  0
  152.3889  141.5269  159.2106 C   0  0  0  0  0  0  0  0  0  0  0  0
  147.3925  142.4372  157.4484 C   0  0  0  0  0  0  0  0  0  0  0  0
  146.3269  141.3923  157.8725 C   0  0  0  0  0  0  0  0  0  0  0  0
  143.8261  140.3551  154.7154 H   0  0  0  0  0  0  0  0  0  0  0  0
  142.5697  140.5712  155.9512 H   0  0  0  0  0  0  0  0  0  0  0  0
  143.1320  138.9565  155.5275 H   0  0  0  0  0  0  0  0  0  0  0  0
  143.8260  142.4185  155.8045 H   0  0  0  0  0  0  0  0  0  0  0  0
  144.8625  143.3024  156.8407 H   0  0  0  0  0  0  0  0  0  0  0  0
  145.2807  142.4312  154.0611 H   0  0  0  0  0  0  0  0  0  0  0  0
  146.0305  143.7540  154.8976 H   0  0  0  0  0  0  0  0  0  0  0  0
  146.9053  140.8097  154.9687 H   0  0  0  0  0  0  0  0  0  0  0  0
  147.6568  142.0889  154.0658 H   0  0  0  0  0  0  0  0  0  0  0  0
  148.8287  140.3183  156.7858 H   0  0  0  0  0  0  0  0  0  0  0  0
  149.4378  140.8614  155.2439 H   0  0  0  0  0  0  0  0  0  0  0  0
  150.1749  141.9547  158.0207 H   0  0  0  0  0  0  0  0  0  0  0  0
  149.8999  143.4926  156.2595 H   0  0  0  0  0  0  0  0  0  0  0  0
  151.3456  139.8655  156.4761 H   0  0  0  0  0  0  0  0  0  0  0  0
  152.3634  141.2517  156.1645 H   0  0  0  0  0  0  0  0  0  0  0  0
  153.0103  138.6528  157.9298 H   0  0  0  0  0  0  0  0  0  0  0  0
  153.9344  140.9496  162.1990 H   0  0  0  0  0  0  0  0  0  0  0  0
  153.8323  144.3623  162.8383 H   0  0  0  0  0  0  0  0  0  0  0  0
  153.8005  142.7963  163.6471 H   0  0  0  0  0  0  0  0  0  0  0  0
  152.3153  143.7333  163.4992 H   0  0  0  0  0  0  0  0  0  0  0  0
  151.1664  145.2693  160.0069 H   0  0  0  0  0  0  0  0  0  0  0  0
  152.5587  145.5734  161.0442 H   0  0  0  0  0  0  0  0  0  0  0  0
  151.0547  144.9458  161.7356 H   0  0  0  0  0  0  0  0  0  0  0  0
  151.3854  143.3528  158.6492 H   0  0  0  0  0  0  0  0  0  0  0  0
  148.1534  142.5005  158.2271 H   0  0  0  0  0  0  0  0  0  0  0  0
  146.9673  143.4400  157.4269 H   0  0  0  0  0  0  0  0  0  0  0  0
  145.9153  141.6704  158.8434 H   0  0  0  0  0  0  0  0  0  0  0  0
  146.8487  140.4473  158.0222 H   0  0  0  0  0  0  0  0  0  0  0  0
  148.4860  143.0577  155.9001 H   0  0  0  0  0  0  0  0  0  0  0  0
  1  2  1  0  0  0  0
  1 26  1  0  0  0  0
  1 27  1  0  0  0  0
  1 28  1  0  0  0  0
  2  3  2  0  0  0  0
  2  4  1  0  0  0  0
  4 25  1  0  0  0  0
  4  5  1  0  0  0  0
  5  6  1  0  0  0  0
  5 29  1  0  0  0  0
  5 30  1  0  0  0  0
  6  7  1  0  0  0  0
  6 31  1  0  0  0  0
  6 32  1  0  0  0  0
  7  8  1  0  0  0  0
  7 33  1  0  0  0  0
  7 34  1  0  0  0  0
  8  9  1  0  0  0  0
  8 24  1  0  0  0  0
  8 54  1  0  0  0  0
  9 10  1  0  0  0  0
  9 35  1  0  0  0  0
  9 36  1  0  0  0  0
 10 11  1  0  0  0  0
 10 12  1  0  0  0  0
 10 37  1  0  0  0  0
 11 38  1  0  0  0  0
 12 13  1  0  0  0  0
 12 39  1  0  0  0  0
 12 40  1  0  0  0  0
 13 23  1  0  0  0  0
 13 14  1  0  0  0  0
 14 15  2  0  0  0  0
 14 41  1  0  0  0  0
 15 16  1  0  0  0  0
 16 23  2  0  0  0  0
 16 17  1  0  0  0  0
 17 18  2  0  0  0  0
 17 42  1  0  0  0  0
 18 19  1  0  0  0  0
 18 20  1  0  0  0  0
 19 43  1  0  0  0  0
 19 44  1  0  0  0  0
 19 45  1  0  0  0  0
 20 21  1  0  0  0  0
 20 22  2  0  0  0  0
 21 46  1  0  0  0  0
 21 47  1  0  0  0  0
 21 48  1  0  0  0  0
 22 23  1  0  0  0  0
 22 49  1  0  0  0  0
 24 25  1  0  0  0  0
 24 50  1  0  0  0  0
 24 51  1  0  0  0  0
 25 52  1  0  0  0  0
 25 53  1  0  0  0  0
M  CHG  1   8   1
M  END
> <s_m_source_file>
AV-unprocessed.smi

> <i_m_source_file_index>
1643

> <i_lp_mmshare_version>
43012

> <i_f3d_flags>
0

> <s_epik_input>
W0NIM11DKD1PKU4xW0NIMl1bQ0gyXVtDSDJdTihbQ0gyXVtDSDJdMSlbQ0gyXVtDQEhdKFtPSF0pW0NIMl1uKFtjSF1uMiljKGMyMylbY0hdYyhbQ0gzXSljKFtjSF0zKVtDSDNd

> <s_epik_cmdline>
J2VwaWtfcHl0aG9uJywgJy1waCcsICc3LjAnLCAnLXRuJywgJzgnLCAnLW1hJywgJzIwMCcsICctbWV0YWxfYmluZGluZycsICctaW1hZScsICc8aW5maWxlLm1hZT4nLCAnLW9tYWUnLCAnPG91dGZpbGUubWFlPic=

> <r_epik_Ionization_Penalty>
0.189467

> <r_epik_Ionization_Penalty_Charging>
0.101761

> <r_epik_Ionization_Penalty_Neutral>
0.0877056

> <r_epik_State_Penalty>
0.170758

> <r_epik_Charging_Adjusted_Penalty>
0.272519

> <i_epik_Tot_Q>
1

> <i_epik_Tot_abs_Q>
1

> <r_epik_Metal_State_Penalty>
0.0948013

> <b_epik_Metal_Only>
0

> <s_lp_Force_Field>
OPLS_2005

> <r_lp_Energy>
49.989

> <b_lp_Chiralities_Consistent>
1

> <s_lp_Variant>
AV-unprocessed.smi:1643-1

> <Gold.Version>
5.8.1

> <Gold.Id.Protein>
6NUR|6NUR_protein|mol2

> <Gold.PLP.Fitness>
51.1099

> <Gold.PLP.PLP>
-44.5325

> <Gold.PLP.part.hbond>
-2.0000

> <Gold.PLP.part.metal>
0.0000

> <Gold.PLP.part.buried>
-5.3549

> <Gold.PLP.part.nonpolar>
-36.6533

> <Gold.PLP.part.repulsive>
0.0386

> <Gold.PLP.ligand.clash>
0.0000

> <Gold.PLP.ligand.torsion>
1.2625

> <Gold.PLP.Chemscore.Hbond>
3.0000

> <Gold.PLP.Chemscore.CHOScore>
0.0000

> <Gold.PLP.Chemscore.Metal>
0.0000

> <Gold.Chemscore.Hbonds>
donor molecule, donor type, donor heavy atom, donor atom, acceptor molecule, acceptor atom, score
      L1  H     8    54       P1  8028  2.00
      L1  H    11    38       P1  8028  1.00

> <Gold.PLP.Chemscore.Internal.Correction>
0.1023

> <Gold.Rescore>
     Score         DG    S(hbond)    S(metal)    S(lipo)     H(rot)  DE(clash)    DE(int)     intcor
     18.06     -20.27       1.96        0.00     116.85       2.12       0.06       2.15       ----

> <Gold.Chemscore.Fitness>
18.0641

> <Gold.Chemscore.DG>
-20.2703

> <Gold.Chemscore.ZeroCoef>
-5.4800

> <Gold.Chemscore.Hbond>
1.9580

> <Gold.Chemscore.Metal>
0.0000

> <Gold.Chemscore.Lipo>
116.8545

> <Gold.Chemscore.Internal_Hbond>
0.0000

> <Gold.Chemscore.DEClash>
0.0558

> <Gold.Chemscore.DEInternal>
2.1504

> <Gold.Chemscore.Rot>
2.1178

> <Gold.Chemscore.Internal.Correction>
   9.000000E+99

> <Gold.Chemscore.Hbonds>
donor molecule, donor type, donor heavy atom, donor atom, acceptor molecule, acceptor atom, score
      L1  H     8    54       P1  8028  0.98
      L1  H    11    38       P1  8028  0.98

> <Gold.Chemscore.Hbond.Weighted>
-6.5398

> <Gold.Chemscore.Metal.Weighted>
-0.0000

> <Gold.Chemscore.Lipo.Weighted>
-13.6720

> <Gold.Chemscore.Internal_Hbond.Weighted>
0.0000

> <Gold.Chemscore.DEClash.Weighted>
0.0558

> <Gold.Chemscore.DEInternal.Weighted>
2.1504

> <Gold.Chemscore.Rot.Weighted>
5.4215

> <Gold.Chemscore.Internal.Correction.Weighted>
   9.000000E+99

> <Gold.Protein.RotatedTorsions>
[ 6907 6896 6895 6894 ] final -136.01 input  -60.11 | X-H torsion
[ 7974 7965 7964 7962 ] final   89.95 input  175.53 | X-H torsion
[ 8008 7997 7996 7995 ] final  -16.86 input   59.86 | X-H torsion
[ 10167 10162 10161 10158 ] final -163.81 input  -65.29 | X-H torsion
[ 10718 10713 10712 10709 ] final   43.93 input   66.30 | X-H torsion
[ 10763 10752 10751 10750 ] final  169.46 input  -60.55 | X-H torsion
[ 11005 11000 10999 10996 ] final  139.47 input  -57.11 | X-H torsion

> <Gold.Protein.ActiveResidues>
 VAL166  LYS551  ARG553  GLY616  TRP617  ASP618  TYR619  PRO620  LYS621  CYS622 
 ASP623  PHE694  ASN695  SER759  ASP760  ASP761  ALA762  ILE779  LEU786  VAL792 
 PHE793  MET794  SER795  GLU796  ALA797  LYS798  CYS799  TRP800  GLU811  SER814 

> <Gold.Protein.RotatedAtoms>
  151.0048  133.6022  159.2690 H   0  0  0  0  0  0  0  0  0  0  0  0  # atno 6907 bound_to 6896
  151.3195  135.0814  159.9310 H   0  0  0  0  0  0  0  0  0  0  0  0  # atno 6908 bound_to 6896
  152.5283  133.9698  159.7810 H   0  0  0  0  0  0  0  0  0  0  0  0  # atno 6909 bound_to 6896
  145.5256  139.2281  143.2647 H   0  0  0  0  0  0  0  0  0  0  0  0  # atno 7974 bound_to 7965
  154.5021  140.2158  155.9326 H   0  0  0  0  0  0  0  0  0  0  0  0  # atno 8008 bound_to 7997
  156.1447  140.3173  155.8518 H   0  0  0  0  0  0  0  0  0  0  0  0  # atno 8009 bound_to 7997
  155.4054  140.0487  157.3025 H   0  0  0  0  0  0  0  0  0  0  0  0  # atno 8010 bound_to 7997
  139.6295  144.0468  152.2003 H   0  0  0  0  0  0  0  0  0  0  0  0  # atno 10167 bound_to 10162
  157.4213  130.7970  149.7517 H   0  0  0  0  0  0  0  0  0  0  0  0  # atno 10718 bound_to 10713
  154.3835  135.2753  155.2197 H   0  0  0  0  0  0  0  0  0  0  0  0  # atno 10763 bound_to 10752
  154.4294  135.5981  153.6063 H   0  0  0  0  0  0  0  0  0  0  0  0  # atno 10764 bound_to 10752
  152.9834  135.5992  154.4080 H   0  0  0  0  0  0  0  0  0  0  0  0  # atno 10765 bound_to 10752
  140.0257  134.9376  157.0563 H   0  0  0  0  0  0  0  0  0  0  0  0  # atno 11005 bound_to 11000
  146.2078  140.6070  142.9073 LP  0  0  0  0  0  0  0  0  0  0  0  0  # atno 17320 bound_to 7965
  144.7653  140.5516  143.6707 LP  0  0  0  0  0  0  0  0  0  0  0  0  # atno 17321 bound_to 7965
  140.0130  144.6210  150.7631 LP  0  0  0  0  0  0  0  0  0  0  0  0  # atno 17342 bound_to 10162
  140.7430  143.2840  151.3515 LP  0  0  0  0  0  0  0  0  0  0  0  0  # atno 17343 bound_to 10162
  155.9881  130.3961  150.3132 LP  0  0  0  0  0  0  0  0  0  0  0  0  # atno 17370 bound_to 10713
  157.1280  131.0264  151.2981 LP  0  0  0  0  0  0  0  0  0  0  0  0  # atno 17371 bound_to 10713
  140.4311  134.1779  155.7168 LP  0  0  0  0  0  0  0  0  0  0  0  0  # atno 17394 bound_to 11000
  141.1801  133.8432  157.1287 LP  0  0  0  0  0  0  0  0  0  0  0  0  # atno 17395 bound_to 11000

$$$$
