AV-unprocessed.smi:2583|AV-procd|sdf|10140|dock7
  -GOLD-   2272014153D 1   1.00000     0.00000
 Structure written by MMmdl.
 54 56  0  0  0  0  0  0  0  0  2 V2000
  153.0590  141.8493  160.7746 C   0  0  0  0  0  0  0  0  0  0  0  0
  152.4399  142.7086  159.6921 C   0  0  0  0  0  0  0  0  0  0  0  0
  152.6293  144.1057  159.6748 C   0  0  0  0  0  0  0  0  0  0  0  0
  152.1082  144.9111  158.7257 N   0  0  0  0  0  0  0  0  0  0  0  0
  151.3640  144.3430  157.7532 C   0  0  0  0  0  0  0  0  0  0  0  0
  151.0946  142.9600  157.6803 C   0  0  0  0  0  0  0  0  0  0  0  0
  150.3021  142.4931  156.5970 N   0  0  0  0  0  0  0  0  0  0  0  0
  150.1154  141.2286  156.1814 C   0  0  0  0  0  0  0  0  0  0  0  0
  150.6289  140.2294  156.6844 O   0  0  0  0  0  0  0  0  0  0  0  0
  149.2675  141.1792  155.1441 N   0  0  0  0  0  0  0  0  0  0  0  0
  148.8318  139.9563  154.4760 C   0  0  0  0  0  0  0  0  0  0  0  0
  147.6383  140.2489  153.5636 C   0  0  0  0  0  0  0  0  0  0  0  0
  147.0964  138.9549  152.9318 C   0  0  0  0  0  0  0  0  0  0  0  0
  146.6596  137.9869  153.9526 N   0  0  0  0  0  0  0  0  0  0  0  0
  146.0680  136.7790  153.3312 C   0  0  2  0  0  0  0  0  0  0  0  0
  144.8950  137.0913  152.3663 C   0  0  0  0  0  0  0  0  0  0  0  0
  143.6515  137.6005  153.1175 C   0  0  0  0  0  0  0  0  0  0  0  0
  143.2006  136.6185  154.1338 N   0  3  2  0  0  0  0  0  0  0  0  0
  141.9591  137.0433  154.8153 C   0  0  0  0  0  0  0  0  0  0  0  0
  144.2780  136.2636  155.0900 C   0  0  0  0  0  0  0  0  0  0  0  0
  145.5253  135.7449  154.3517 C   0  0  0  0  0  0  0  0  0  0  0  0
  147.8238  137.6530  154.7907 C   0  0  0  0  0  0  0  0  0  0  0  0
  148.4033  138.8923  155.4934 C   0  0  0  0  0  0  0  0  0  0  0  0
  151.6610  142.1244  158.6732 C   0  0  0  0  0  0  0  0  0  0  0  0
  153.6314  142.4514  161.4809 H   0  0  0  0  0  0  0  0  0  0  0  0
  153.7295  141.1109  160.3344 H   0  0  0  0  0  0  0  0  0  0  0  0
  152.2823  141.3209  161.3280 H   0  0  0  0  0  0  0  0  0  0  0  0
  153.2189  144.5915  160.4385 H   0  0  0  0  0  0  0  0  0  0  0  0
  150.9647  145.0187  157.0108 H   0  0  0  0  0  0  0  0  0  0  0  0
  149.7540  143.1993  156.1276 H   0  0  0  0  0  0  0  0  0  0  0  0
  148.8908  142.0484  154.7955 H   0  0  0  0  0  0  0  0  0  0  0  0
  149.6493  139.5667  153.8661 H   0  0  0  0  0  0  0  0  0  0  0  0
  146.8426  140.7380  154.1277 H   0  0  0  0  0  0  0  0  0  0  0  0
  147.9331  140.9448  152.7774 H   0  0  0  0  0  0  0  0  0  0  0  0
  146.2700  139.2543  152.2931 H   0  0  0  0  0  0  0  0  0  0  0  0
  147.8524  138.5034  152.2874 H   0  0  0  0  0  0  0  0  0  0  0  0
  146.8600  136.2961  152.7564 H   0  0  0  0  0  0  0  0  0  0  0  0
  145.1659  137.7734  151.5638 H   0  0  0  0  0  0  0  0  0  0  0  0
  144.6244  136.1706  151.8474 H   0  0  0  0  0  0  0  0  0  0  0  0
  143.8658  138.5567  153.5976 H   0  0  0  0  0  0  0  0  0  0  0  0
  142.8448  137.7781  152.4052 H   0  0  0  0  0  0  0  0  0  0  0  0
  142.1178  137.9618  155.3818 H   0  0  0  0  0  0  0  0  0  0  0  0
  141.6141  136.2714  155.5039 H   0  0  0  0  0  0  0  0  0  0  0  0
  141.1640  137.2211  154.0906 H   0  0  0  0  0  0  0  0  0  0  0  0
  144.5329  137.1327  155.6985 H   0  0  0  0  0  0  0  0  0  0  0  0
  143.9149  135.4945  155.7728 H   0  0  0  0  0  0  0  0  0  0  0  0
  145.2457  134.8419  153.8072 H   0  0  0  0  0  0  0  0  0  0  0  0
  146.2789  135.3997  155.0564 H   0  0  0  0  0  0  0  0  0  0  0  0
  147.5490  136.9631  155.5843 H   0  0  0  0  0  0  0  0  0  0  0  0
  148.5916  137.1645  154.1884 H   0  0  0  0  0  0  0  0  0  0  0  0
  149.2540  138.5958  156.1078 H   0  0  0  0  0  0  0  0  0  0  0  0
  147.6584  139.3040  156.1763 H   0  0  0  0  0  0  0  0  0  0  0  0
  151.5259  141.0541  158.6668 H   0  0  0  0  0  0  0  0  0  0  0  0
  142.9750  135.7717  153.6318 H   0  0  0  0  0  0  0  0  0  0  0  0
  1  2  1  0  0  0  0
  1 25  1  0  0  0  0
  1 26  1  0  0  0  0
  1 27  1  0  0  0  0
  2 24  1  0  0  0  0
  2  3  2  0  0  0  0
  3  4  1  0  0  0  0
  3 28  1  0  0  0  0
  4  5  2  0  0  0  0
  5  6  1  0  0  0  0
  5 29  1  0  0  0  0
  6  7  1  0  0  0  0
  6 24  2  0  0  0  0
  7  8  1  0  0  0  0
  7 30  1  0  0  0  0
  8  9  2  0  0  0  0
  8 10  1  0  0  0  0
 10 11  1  0  0  0  0
 10 31  1  0  0  0  0
 11 23  1  0  0  0  0
 11 12  1  0  0  0  0
 11 32  1  0  0  0  0
 12 13  1  0  0  0  0
 12 33  1  0  0  0  0
 12 34  1  0  0  0  0
 13 14  1  0  0  0  0
 13 35  1  0  0  0  0
 13 36  1  0  0  0  0
 14 15  1  0  0  0  0
 14 22  1  0  0  0  0
 15 21  1  0  0  0  0
 15 16  1  0  0  0  0
 15 37  1  0  0  0  0
 16 17  1  0  0  0  0
 16 38  1  0  0  0  0
 16 39  1  0  0  0  0
 17 18  1  0  0  0  0
 17 40  1  0  0  0  0
 17 41  1  0  0  0  0
 18 19  1  0  0  0  0
 18 20  1  0  0  0  0
 18 54  1  0  0  0  0
 19 42  1  0  0  0  0
 19 43  1  0  0  0  0
 19 44  1  0  0  0  0
 20 21  1  0  0  0  0
 20 45  1  0  0  0  0
 20 46  1  0  0  0  0
 21 47  1  0  0  0  0
 21 48  1  0  0  0  0
 22 23  1  0  0  0  0
 22 49  1  0  0  0  0
 22 50  1  0  0  0  0
 23 51  1  0  0  0  0
 23 52  1  0  0  0  0
 24 53  1  0  0  0  0
M  CHG  1  18   1
M  END
> <s_m_source_file>
AV-unprocessed.smi

> <i_m_source_file_index>
2583

> <i_lp_mmshare_version>
43012

> <i_f3d_flags>
0

> <s_epik_input>
W0NIM11jMVtjSF1uW2NIXWMoW2NIXTEpW05IXUMoPU8pW05IXVtDSF0yW0NIMl1bQ0gyXU4oW0NIMl1bQ0gyXTIpW0NIXTNbQ0gyXVtDSDJdTihbQ0gzXSlbQ0gyXVtDSDJdMw==

> <s_epik_cmdline>
J2VwaWtfcHl0aG9uJywgJy1waCcsICc3LjAnLCAnLXRuJywgJzgnLCAnLW1hJywgJzIwMCcsICctbWV0YWxfYmluZGluZycsICctaW1hZScsICc8aW5maWxlLm1hZT4nLCAnLW9tYWUnLCAnPG91dGZpbGUubWFlPic=

> <r_epik_Ionization_Penalty>
1.01912

> <r_epik_Ionization_Penalty_Charging>
0.000974969

> <r_epik_Ionization_Penalty_Neutral>
1.01814

> <r_epik_State_Penalty>
1.10721

> <r_epik_Charging_Adjusted_Penalty>
1.10819

> <i_epik_Tot_Q>
1

> <i_epik_Tot_abs_Q>
1

> <r_epik_Metal_State_Penalty>
1.10135

> <b_epik_Metal_Only>
0

> <s_lp_Force_Field>
OPLS_2005

> <r_lp_Energy>
36.2524

> <b_lp_Chiralities_Consistent>
1

> <s_lp_Variant>
AV-unprocessed.smi:2583-6

> <Gold.Version>
5.8.1

> <Gold.Id.Protein>
6NUR|6NUR_protein|mol2

> <Gold.PLP.Fitness>
41.3526

> <Gold.PLP.PLP>
-35.7386

> <Gold.PLP.part.hbond>
-1.0000

> <Gold.PLP.part.metal>
0.0000

> <Gold.PLP.part.buried>
-1.4281

> <Gold.PLP.part.nonpolar>
-32.6354

> <Gold.PLP.part.repulsive>
0.4080

> <Gold.PLP.ligand.clash>
0.0000

> <Gold.PLP.ligand.torsion>
0.1888

> <Gold.PLP.Chemscore.Hbond>
1.0000

> <Gold.PLP.Chemscore.CHOScore>
0.9960

> <Gold.PLP.Chemscore.Metal>
0.0000

> <Gold.Chemscore.Hbonds>
donor molecule, donor type, donor heavy atom, donor atom, acceptor molecule, acceptor atom, score
      L1  H     7    30       P1  8028  1.00
      L1  C     5    29       P1  8028  0.97

> <Gold.PLP.Chemscore.Internal.Correction>
0.0036

> <Gold.Rescore>
     Score         DG    S(hbond)    S(metal)    S(lipo)     H(rot)  DE(clash)    DE(int)     intcor
     16.60     -19.66       1.48        0.00     105.19       1.20       0.36       2.69       ----

> <Gold.Chemscore.Fitness>
16.6002

> <Gold.Chemscore.DG>
-19.6591

> <Gold.Chemscore.ZeroCoef>
-5.4800

> <Gold.Chemscore.Hbond>
1.4782

> <Gold.Chemscore.Metal>
0.0000

> <Gold.Chemscore.Lipo>
105.1884

> <Gold.Chemscore.Internal_Hbond>
0.0000

> <Gold.Chemscore.DEClash>
0.3646

> <Gold.Chemscore.DEInternal>
2.6943

> <Gold.Chemscore.Rot>
1.1974

> <Gold.Chemscore.Internal.Correction>
   9.000000E+99

> <Gold.Chemscore.Hbonds>
donor molecule, donor type, donor heavy atom, donor atom, acceptor molecule, acceptor atom, score
      L1  H     7    30       P1  8028  1.00

> <Gold.Chemscore.Hbond.Weighted>
-4.9373

> <Gold.Chemscore.Metal.Weighted>
-0.0000

> <Gold.Chemscore.Lipo.Weighted>
-12.3070

> <Gold.Chemscore.Internal_Hbond.Weighted>
0.0000

> <Gold.Chemscore.DEClash.Weighted>
0.3646

> <Gold.Chemscore.DEInternal.Weighted>
2.6943

> <Gold.Chemscore.Rot.Weighted>
3.0652

> <Gold.Chemscore.Internal.Correction.Weighted>
   9.000000E+99

> <Gold.Protein.RotatedTorsions>
[ 6907 6896 6895 6894 ] final  140.83 input  -60.11 | X-H torsion
[ 7974 7965 7964 7962 ] final -104.94 input  175.53 | X-H torsion
[ 8008 7997 7996 7995 ] final -171.80 input   59.86 | X-H torsion
[ 10167 10162 10161 10158 ] final  -52.08 input  -65.29 | X-H torsion
[ 10718 10713 10712 10709 ] final -159.88 input   66.30 | X-H torsion
[ 10763 10752 10751 10750 ] final -119.19 input  -60.55 | X-H torsion
[ 11005 11000 10999 10996 ] final  -66.24 input  -57.11 | X-H torsion

> <Gold.Protein.ActiveResidues>
 VAL166  LYS551  ARG553  GLY616  TRP617  ASP618  TYR619  PRO620  LYS621  CYS622 
 ASP623  PHE694  ASN695  SER759  ASP760  ASP761  ALA762  ILE779  LEU786  VAL792 
 PHE793  MET794  SER795  GLU796  ALA797  LYS798  CYS799  TRP800  GLU811  SER814 

> <Gold.Protein.RotatedAtoms>
  152.2383  133.5115  159.5255 H   0  0  0  0  0  0  0  0  0  0  0  0  # atno 6907 bound_to 6896
  150.7057  134.1123  159.4013 H   0  0  0  0  0  0  0  0  0  0  0  0  # atno 6908 bound_to 6896
  151.9044  135.0365  160.0560 H   0  0  0  0  0  0  0  0  0  0  0  0  # atno 6909 bound_to 6896
  145.2368  140.9190  143.3173 H   0  0  0  0  0  0  0  0  0  0  0  0  # atno 7974 bound_to 7965
  155.9363  140.1100  157.1091 H   0  0  0  0  0  0  0  0  0  0  0  0  # atno 8008 bound_to 7997
  154.4080  140.1227  156.4935 H   0  0  0  0  0  0  0  0  0  0  0  0  # atno 8009 bound_to 7997
  155.7017  140.3472  155.4938 H   0  0  0  0  0  0  0  0  0  0  0  0  # atno 8010 bound_to 7997
  140.6556  143.2596  151.4596 H   0  0  0  0  0  0  0  0  0  0  0  0  # atno 10167 bound_to 10162
  156.5743  130.8702  151.2847 H   0  0  0  0  0  0  0  0  0  0  0  0  # atno 10718 bound_to 10713
  154.8610  135.4247  154.2260 H   0  0  0  0  0  0  0  0  0  0  0  0  # atno 10763 bound_to 10752
  153.3255  135.6985  153.6999 H   0  0  0  0  0  0  0  0  0  0  0  0  # atno 10764 bound_to 10752
  153.6037  135.3532  155.2928 H   0  0  0  0  0  0  0  0  0  0  0  0  # atno 10765 bound_to 10752
  141.1477  133.6696  156.6110 H   0  0  0  0  0  0  0  0  0  0  0  0  # atno 11005 bound_to 11000
  144.9626  139.3964  143.6348 LP  0  0  0  0  0  0  0  0  0  0  0  0  # atno 17320 bound_to 7965
  146.3339  139.8686  142.8844 LP  0  0  0  0  0  0  0  0  0  0  0  0  # atno 17321 bound_to 7965
  139.5778  144.1780  152.1927 LP  0  0  0  0  0  0  0  0  0  0  0  0  # atno 17342 bound_to 10162
  140.1095  144.5469  150.6934 LP  0  0  0  0  0  0  0  0  0  0  0  0  # atno 17343 bound_to 10162
  157.7341  130.9741  150.2011 LP  0  0  0  0  0  0  0  0  0  0  0  0  # atno 17370 bound_to 10713
  156.2687  130.3719  149.8054 LP  0  0  0  0  0  0  0  0  0  0  0  0  # atno 17371 bound_to 10713
  140.3614  134.7684  157.4537 LP  0  0  0  0  0  0  0  0  0  0  0  0  # atno 17394 bound_to 11000
  140.0782  134.5768  155.8569 LP  0  0  0  0  0  0  0  0  0  0  0  0  # atno 17395 bound_to 11000

$$$$
