AV-unprocessed.smi:2424|AV-procd|sdf|9568|dock4
  -GOLD-   2272013203D 1   1.00000     0.00000
 Structure written by MMmdl.
 49 50  0  0  0  0  0  0  0  0  2 V2000
  152.5224  139.6170  157.5923 C   0  0  0  0  0  0  0  0  0  0  0  0
  151.2469  138.8775  157.1588 C   0  0  0  0  0  0  0  0  0  0  0  0
  150.9175  138.9522  155.6500 C   0  0  0  0  0  0  0  0  0  0  0  0
  152.1040  138.3595  154.8443 C   0  0  0  0  0  0  0  0  0  0  0  0
  153.3001  139.3050  154.6449 C   0  0  0  0  0  0  0  0  0  0  0  0
  149.4989  138.4470  155.2699 C   0  0  2  0  0  0  0  0  0  0  0  0
  149.4750  137.1363  154.6256 N   0  0  0  0  0  0  0  0  0  0  0  0
  149.9086  135.9951  155.1768 C   0  0  0  0  0  0  0  0  0  0  0  0
  150.3600  135.9241  156.3193 O   0  0  0  0  0  0  0  0  0  0  0  0
  149.7788  134.9712  154.3149 N   0  0  0  0  0  0  0  0  0  0  0  0
  150.1513  133.6319  154.4849 C   0  0  0  0  0  0  0  0  0  0  0  0
  151.1125  133.2892  155.4142 C   0  0  0  0  0  0  0  0  0  0  0  0
  151.5981  132.0667  155.7201 N   0  5  0  0  0  0  0  0  0  0  0  0
  151.0995  130.9905  155.0467 C   0  0  0  0  0  0  0  0  0  0  0  0
  151.4963  129.8471  155.2689 O   0  0  0  0  0  0  0  0  0  0  0  0
  150.0548  131.2105  154.0262 C   0  0  0  0  0  0  0  0  0  0  0  0
  149.4949  130.0085  153.2847 C   0  0  0  0  0  0  0  0  0  0  0  0
  149.6178  132.4700  153.7745 C   0  0  0  0  0  0  0  0  0  0  0  0
  149.3748  139.5913  154.2600 C   0  0  1  0  0  0  0  0  0  0  0  0
  148.0145  140.2211  153.9885 C   0  0  0  0  0  0  0  0  0  0  0  0
  150.4129  140.3284  155.1209 C   0  0  1  0  0  0  0  0  0  0  0  0
  149.7669  141.1303  156.1034 O   0  0  0  0  0  0  0  0  0  0  0  0
  150.6711  141.9296  156.8473 C   0  0  0  0  0  0  0  0  0  0  0  0
  152.7281  139.4321  158.6468 H   0  0  0  0  0  0  0  0  0  0  0  0
  152.4340  140.6956  157.4681 H   0  0  0  0  0  0  0  0  0  0  0  0
  153.3912  139.2798  157.0290 H   0  0  0  0  0  0  0  0  0  0  0  0
  151.3768  137.8353  157.4514 H   0  0  0  0  0  0  0  0  0  0  0  0
  150.4092  139.2294  157.7592 H   0  0  0  0  0  0  0  0  0  0  0  0
  152.4562  137.4328  155.2965 H   0  0  0  0  0  0  0  0  0  0  0  0
  151.7660  138.0630  153.8515 H   0  0  0  0  0  0  0  0  0  0  0  0
  154.0305  138.8571  153.9711 H   0  0  0  0  0  0  0  0  0  0  0  0
  153.8166  139.5105  155.5820 H   0  0  0  0  0  0  0  0  0  0  0  0
  152.9950  140.2569  154.2108 H   0  0  0  0  0  0  0  0  0  0  0  0
  148.7839  138.5640  156.0881 H   0  0  0  0  0  0  0  0  0  0  0  0
  149.1151  137.0994  153.6834 H   0  0  0  0  0  0  0  0  0  0  0  0
  149.3634  135.1848  153.4200 H   0  0  0  0  0  0  0  0  0  0  0  0
  151.5617  134.1230  155.9961 H   0  0  0  0  0  0  0  0  0  0  0  0
  148.7286  130.3039  152.5674 H   0  0  0  0  0  0  0  0  0  0  0  0
  149.0467  129.3031  153.9849 H   0  0  0  0  0  0  0  0  0  0  0  0
  150.2874  129.4956  152.7387 H   0  0  0  0  0  0  0  0  0  0  0  0
  148.8488  132.5909  153.0292 H   0  0  0  0  0  0  0  0  0  0  0  0
  149.8459  139.3102  153.3162 H   0  0  0  0  0  0  0  0  0  0  0  0
  147.4921  140.4653  154.9138 H   0  0  0  0  0  0  0  0  0  0  0  0
  147.3753  139.5429  153.4230 H   0  0  0  0  0  0  0  0  0  0  0  0
  148.1141  141.1405  153.4113 H   0  0  0  0  0  0  0  0  0  0  0  0
  151.1263  140.8841  154.5099 H   0  0  0  0  0  0  0  0  0  0  0  0
  150.1262  142.4830  157.6119 H   0  0  0  0  0  0  0  0  0  0  0  0
  151.1723  142.6526  156.2027 H   0  0  0  0  0  0  0  0  0  0  0  0
  151.4293  141.3250  157.3447 H   0  0  0  0  0  0  0  0  0  0  0  0
  1  2  1  0  0  0  0
  1 24  1  0  0  0  0
  1 25  1  0  0  0  0
  1 26  1  0  0  0  0
  2  3  1  0  0  0  0
  2 27  1  0  0  0  0
  2 28  1  0  0  0  0
  3 21  1  0  0  0  0
  3  4  1  0  0  0  0
  3  6  1  0  0  0  0
  4  5  1  0  0  0  0
  4 29  1  0  0  0  0
  4 30  1  0  0  0  0
  5 31  1  0  0  0  0
  5 32  1  0  0  0  0
  5 33  1  0  0  0  0
  6  7  1  0  0  0  0
  6 19  1  0  0  0  0
  6 34  1  0  0  0  0
  7  8  1  0  0  0  0
  7 35  1  0  0  0  0
  8  9  2  0  0  0  0
  8 10  1  0  0  0  0
 10 11  1  0  0  0  0
 10 36  1  0  0  0  0
 11 18  1  0  0  0  0
 11 12  2  0  0  0  0
 12 13  1  0  0  0  0
 12 37  1  0  0  0  0
 13 14  1  0  0  0  0
 14 15  2  0  0  0  0
 14 16  1  0  0  0  0
 16 17  1  0  0  0  0
 16 18  2  0  0  0  0
 17 38  1  0  0  0  0
 17 39  1  0  0  0  0
 17 40  1  0  0  0  0
 18 41  1  0  0  0  0
 19 20  1  0  0  0  0
 19 21  1  0  0  0  0
 19 42  1  0  0  0  0
 20 43  1  0  0  0  0
 20 44  1  0  0  0  0
 20 45  1  0  0  0  0
 21 22  1  0  0  0  0
 21 46  1  0  0  0  0
 22 23  1  0  0  0  0
 23 47  1  0  0  0  0
 23 48  1  0  0  0  0
 23 49  1  0  0  0  0
M  CHG  1  13  -1
M  END
> <s_m_source_file>
AV-unprocessed.smi

> <i_m_source_file_index>
2424

> <i_lp_mmshare_version>
43012

> <i_f3d_flags>
0

> <s_epik_input>
W0NIM11PW0NAQEhdMVtDQEhdKFtDSDNdKVtDQEBIXShDMShbQ0gyXVtDSDNdKVtDSDJdW0NIM10pW05IXUMoPU8pW05IXWMyW2NIXVtuSF1jKD1PKWMoW0NIM10pW2NIXTI=

> <s_epik_cmdline>
J2VwaWtfcHl0aG9uJywgJy1waCcsICc3LjAnLCAnLXRuJywgJzgnLCAnLW1hJywgJzIwMCcsICctbWV0YWxfYmluZGluZycsICctaW1hZScsICc8aW5maWxlLm1hZT4nLCAnLW9tYWUnLCAnPG91dGZpbGUubWFlPic=

> <r_lp_tautomer_probability>
1

> <r_epik_Ionization_Penalty>
7.6122

> <r_epik_Ionization_Penalty_Charging>
1.53843

> <r_epik_Ionization_Penalty_Neutral>
6.07377

> <r_epik_State_Penalty>
6.07371

> <r_epik_Charging_Adjusted_Penalty>
7.61214

> <i_epik_Tot_Q>
-1

> <i_epik_Tot_abs_Q>
1

> <r_epik_Metal_State_Penalty>
2.02136

> <b_epik_Metal_Only>
1

> <s_lp_Force_Field>
OPLS_2005

> <r_lp_Energy>
41.6495

> <b_lp_Chiralities_Consistent>
1

> <s_lp_Variant>
AV-unprocessed.smi:2424-10

> <Gold.Version>
5.8.1

> <Gold.Id.Protein>
6NUR|6NUR_protein|mol2

> <Gold.PLP.Fitness>
40.9153

> <Gold.PLP.PLP>
-35.8007

> <Gold.PLP.part.hbond>
-2.0000

> <Gold.PLP.part.metal>
0.0000

> <Gold.PLP.part.buried>
-1.7172

> <Gold.PLP.part.nonpolar>
-32.1800

> <Gold.PLP.part.repulsive>
0.1355

> <Gold.PLP.ligand.clash>
0.0000

> <Gold.PLP.ligand.torsion>
0.7858

> <Gold.PLP.Chemscore.Hbond>
1.9920

> <Gold.PLP.Chemscore.CHOScore>
0.0000

> <Gold.PLP.Chemscore.Metal>
0.0000

> <Gold.Chemscore.Hbonds>
donor molecule, donor type, donor heavy atom, donor atom, acceptor molecule, acceptor atom, score
      L1  H     7    35       P1  7948  1.00
      L1  H    10    36       P1  7948  0.75

> <Gold.PLP.Chemscore.Internal.Correction>
0.7103

> <Gold.Rescore>
     Score         DG    S(hbond)    S(metal)    S(lipo)     H(rot)  DE(clash)    DE(int)     intcor
     13.38     -17.11       1.55        0.00      88.48       1.52       0.64       3.09       ----

> <Gold.Chemscore.Fitness>
13.3781

> <Gold.Chemscore.DG>
-17.1060

> <Gold.Chemscore.ZeroCoef>
-5.4800

> <Gold.Chemscore.Hbond>
1.5467

> <Gold.Chemscore.Metal>
0.0000

> <Gold.Chemscore.Lipo>
88.4802

> <Gold.Chemscore.Internal_Hbond>
0.0000

> <Gold.Chemscore.DEClash>
0.6428

> <Gold.Chemscore.DEInternal>
3.0851

> <Gold.Chemscore.Rot>
1.5204

> <Gold.Chemscore.Internal.Correction>
   9.000000E+99

> <Gold.Chemscore.Hbonds>
donor molecule, donor type, donor heavy atom, donor atom, acceptor molecule, acceptor atom, score
      L1  H     7    35       P1  7948  0.91
      L1  H    10    36       P1  7948  0.09

> <Gold.Chemscore.Hbond.Weighted>
-5.1660

> <Gold.Chemscore.Metal.Weighted>
-0.0000

> <Gold.Chemscore.Lipo.Weighted>
-10.3522

> <Gold.Chemscore.Internal_Hbond.Weighted>
0.0000

> <Gold.Chemscore.DEClash.Weighted>
0.6428

> <Gold.Chemscore.DEInternal.Weighted>
3.0851

> <Gold.Chemscore.Rot.Weighted>
3.8922

> <Gold.Chemscore.Internal.Correction.Weighted>
   9.000000E+99

> <Gold.Protein.RotatedTorsions>
[ 6907 6896 6895 6894 ] final   -2.37 input  -60.11 | X-H torsion
[ 7974 7965 7964 7962 ] final   33.03 input  175.53 | X-H torsion
[ 8008 7997 7996 7995 ] final  173.27 input   59.86 | X-H torsion
[ 10167 10162 10161 10158 ] final  -58.80 input  -65.29 | X-H torsion
[ 10718 10713 10712 10709 ] final  -92.20 input   66.30 | X-H torsion
[ 10763 10752 10751 10750 ] final -135.84 input  -60.55 | X-H torsion
[ 11005 11000 10999 10996 ] final    3.86 input  -57.11 | X-H torsion

> <Gold.Protein.ActiveResidues>
 VAL166  LYS551  ARG553  GLY616  TRP617  ASP618  TYR619  PRO620  LYS621  CYS622 
 ASP623  PHE694  ASN695  SER759  ASP760  ASP761  ALA762  ILE779  LEU786  VAL792 
 PHE793  MET794  SER795  GLU796  ALA797  LYS798  CYS799  TRP800  GLU811  SER814 

> <Gold.Protein.RotatedAtoms>
  151.5310  135.1068  159.9902 H   0  0  0  0  0  0  0  0  0  0  0  0  # atno 6907 bound_to 6896
  152.4578  133.7755  159.6833 H   0  0  0  0  0  0  0  0  0  0  0  0  # atno 6908 bound_to 6896
  150.8528  133.7695  159.3044 H   0  0  0  0  0  0  0  0  0  0  0  0  # atno 6909 bound_to 6896
  146.1447  139.6449  142.9139 H   0  0  0  0  0  0  0  0  0  0  0  0  # atno 7974 bound_to 7965
  156.1092  140.1464  156.9362 H   0  0  0  0  0  0  0  0  0  0  0  0  # atno 8008 bound_to 7997
  154.4755  140.0896  156.7295 H   0  0  0  0  0  0  0  0  0  0  0  0  # atno 8009 bound_to 7997
  155.4626  140.3439  155.4317 H   0  0  0  0  0  0  0  0  0  0  0  0  # atno 8010 bound_to 7997
  140.6175  143.2407  151.5562 H   0  0  0  0  0  0  0  0  0  0  0  0  # atno 10167 bound_to 10162
  156.0000  130.4977  150.5589 H   0  0  0  0  0  0  0  0  0  0  0  0  # atno 10718 bound_to 10713
  154.8695  135.3691  154.4963 H   0  0  0  0  0  0  0  0  0  0  0  0  # atno 10763 bound_to 10752
  153.5607  135.7023  153.5554 H   0  0  0  0  0  0  0  0  0  0  0  0  # atno 10764 bound_to 10752
  153.3631  135.4041  155.1696 H   0  0  0  0  0  0  0  0  0  0  0  0  # atno 10765 bound_to 10752
  140.5884  133.9947  155.8078 H   0  0  0  0  0  0  0  0  0  0  0  0  # atno 11005 bound_to 11000
  145.4964  141.0438  143.2564 LP  0  0  0  0  0  0  0  0  0  0  0  0  # atno 17320 bound_to 7965
  144.7833  139.6480  143.7145 LP  0  0  0  0  0  0  0  0  0  0  0  0  # atno 17321 bound_to 7965
  139.5410  144.2647  152.1351 LP  0  0  0  0  0  0  0  0  0  0  0  0  # atno 17342 bound_to 10162
  140.1859  144.4799  150.6504 LP  0  0  0  0  0  0  0  0  0  0  0  0  # atno 17343 bound_to 10162
  157.3501  131.0732  151.1720 LP  0  0  0  0  0  0  0  0  0  0  0  0  # atno 17370 bound_to 10713
  157.2539  130.6627  149.5944 LP  0  0  0  0  0  0  0  0  0  0  0  0  # atno 17371 bound_to 10713
  141.0951  133.9856  157.3173 LP  0  0  0  0  0  0  0  0  0  0  0  0  # atno 17394 bound_to 11000
  139.9285  135.0201  156.8319 LP  0  0  0  0  0  0  0  0  0  0  0  0  # atno 17395 bound_to 11000

$$$$
