#       Name:                AV-unprocessed.smi:189
#       Creating user name   scv26
#       Creation time:       Thu Mar 26 19:29:52 2020


#       File generated by GOLD software.
#

@<TRIPOS>MOLECULE
AV-unprocessed.smi:189
    61    65     1
SMALL
NO_CHARGES


@<TRIPOS>ATOM
      1 ****        -1.7599   0.1013  -2.0838 C.3            1 S1                 0.0000
      2 ****        -2.3968  -0.5309  -0.8283 C.3            1 S1                 0.0000
      3 ****        -3.9202  -0.2562  -0.7843 C.3            1 S1                 0.0000
      4 ****        -4.1740   0.1299   0.6695 C.3            1 S1                 0.0000
      5 ****        -5.3864   1.0088   0.9997 C.3            1 S1                 0.0000
      6 ****        -5.3809   1.3234   2.5107 C.3            1 S1                 0.0000
      7 ****        -4.0355   1.9206   2.9829 C.3            1 S1                 0.0000
      8 ****        -2.8249   1.0642   2.5543 C.3            1 S1                 0.0000
      9 ****        -2.8801   0.8434   1.0314 C.3            1 S1                 0.0000
     10 ****        -1.8663  -0.0198   0.4446 N.3            1 S1                 0.0000
     11 ****        -0.5397   0.2455   0.5478 C.ar           1 S1                 0.0000
     12 ****        -0.1197   1.4980   0.8664 N.ar           1 S1                 0.0000
     13 ****         1.1861   1.7711   0.9434 C.ar           1 S1                 0.0000
     14 ****         2.2229   0.9563   0.7381 N.ar           1 S1                 0.0000
     15 ****         1.8064  -0.3023   0.4175 C.ar           1 S1                 0.0000
     16 ****         0.4570  -0.7399   0.3048 C.ar           1 S1                 0.0000
     17 ****         0.4222  -2.0878  -0.0311 N.2            1 S1                 0.0000
     18 ****         1.6796  -2.4257  -0.1197 C.2            1 S1                 0.0000
     19 ****         2.5792  -1.4120   0.1229 N.pl3          1 S1                 0.0000
     20 ****         4.0309  -1.5056   0.0883 C.3            1 S1                 0.0000
     21 ****         4.6312  -1.4600  -1.3401 C.3            1 S1                 0.0000
     22 ****         4.1881  -2.5928  -2.0653 O.3            1 S1                 0.0000
     23 ****         4.2830  -0.1948  -2.1251 C.3            1 S1                 0.0000
     24 ****         5.4856   0.6991  -1.8652 C.3            1 S1                 0.0000
     25 ****         6.5649  -0.2155  -1.9438 O.3            1 S1                 0.0000
     26 ****         6.1732  -1.4268  -1.3063 C.3            1 S1                 0.0000
     27 ****        -2.2531  -0.2560  -2.9880 H              1 S1                 0.0000
     28 ****        -0.7036  -0.1510  -2.1773 H              1 S1                 0.0000
     29 ****        -1.8432   1.1886  -2.0675 H              1 S1                 0.0000
     30 ****        -2.2346  -1.6090  -0.8426 H              1 S1                 0.0000
     31 ****        -4.1831   0.5787  -1.4358 H              1 S1                 0.0000
     32 ****        -4.5100  -1.1185  -1.0961 H              1 S1                 0.0000
     33 ****        -4.2463  -0.7939   1.2480 H              1 S1                 0.0000
     34 ****        -5.3485   1.9351   0.4248 H              1 S1                 0.0000
     35 ****        -6.3107   0.5012   0.7226 H              1 S1                 0.0000
     36 ****        -6.1960   2.0066   2.7512 H              1 S1                 0.0000
     37 ****        -5.5775   0.4062   3.0674 H              1 S1                 0.0000
     38 ****        -3.9263   2.9239   2.5691 H              1 S1                 0.0000
     39 ****        -4.0422   2.0370   4.0669 H              1 S1                 0.0000
     40 ****        -1.9029   1.5631   2.8503 H              1 S1                 0.0000
     41 ****        -2.8429   0.1058   3.0747 H              1 S1                 0.0000
     42 ****        -2.8372   1.8094   0.5244 H              1 S1                 0.0000
     43 ****         1.4354   2.7893   1.2032 H              1 S1                 0.0000
     44 ****         1.9883  -3.4299  -0.3719 H              1 S1                 0.0000
     45 ****         4.4376  -0.6928   0.6913 H              1 S1                 0.0000
     46 ****         4.3227  -2.4293   0.5901 H              1 S1                 0.0000
     47 ****         4.5718  -2.5638  -2.9285 H              1 S1                 0.0000
     48 ****         4.2324  -0.4065  -3.1945 H              1 S1                 0.0000
     49 ****         3.3402   0.2721  -1.8438 H              1 S1                 0.0000
     50 ****         5.5824   1.5020  -2.5961 H              1 S1                 0.0000
     51 ****         5.4409   1.1387  -0.8675 H              1 S1                 0.0000
     52 ****         6.5509  -1.4251  -0.2830 H              1 S1                 0.0000
     53 ****         6.6302  -2.2739  -1.8195 H              1 S1                 0.0000
     54 ****        -1.7316  -0.7654   1.0972 LP             1 S1                 0.0000
     55 ****        -0.7905   2.2181   1.0439 LP             1 S1                 0.0000
     56 ****         3.1812   1.2328   0.8100 LP             1 S1                 0.0000
     57 ****        -0.3815  -2.6659  -0.1724 LP             1 S1                 0.0000
     58 ****         3.1909  -2.5780  -2.1385 LP             1 S1                 0.0000
     59 ****         4.4755  -3.4277  -1.5960 LP             1 S1                 0.0000
     60 ****         7.3655   0.1660  -1.4818 LP             1 S1                 0.0000
     61 ****         6.7870  -0.3945  -2.9023 LP             1 S1                 0.0000
@<TRIPOS>BOND
    1    1    2 1     
    2    1   27 1     
    3    1   28 1     
    4    1   29 1     
    5    2   10 1     
    6    2    3 1     
    7    2   30 1     
    8    3    4 1     
    9    3   31 1     
   10    3   32 1     
   11    4    9 1     
   12    4    5 1     
   13    4   33 1     
   14    5    6 1     
   15    5   34 1     
   16    5   35 1     
   17    6    7 1     
   18    6   36 1     
   19    6   37 1     
   20    7    8 1     
   21    7   38 1     
   22    7   39 1     
   23    8    9 1     
   24    8   40 1     
   25    8   41 1     
   26    9   10 1     
   27    9   42 1     
   28   10   11 1     
   29   11   16 ar    
   30   11   12 ar    
   31   12   13 ar    
   32   13   14 ar    
   33   13   43 1     
   34   14   15 ar    
   35   15   19 1     
   36   15   16 ar    
   37   16   17 1     
   38   17   18 2     
   39   18   19 1     
   40   18   44 1     
   41   19   20 1     
   42   20   21 1     
   43   20   45 1     
   44   20   46 1     
   45   21   26 1     
   46   21   22 1     
   47   21   23 1     
   48   22   47 1     
   49   23   24 1     
   50   23   48 1     
   51   23   49 1     
   52   24   25 1     
   53   24   50 1     
   54   24   51 1     
   55   25   26 1     
   56   26   52 1     
   57   26   53 1     
   58   10   54 1     
   59   12   55 1     
   60   14   56 1     
   61   17   57 1     
   62   22   58 1     
   63   22   59 1     
   64   25   60 1     
   65   25   61 1     
@<TRIPOS>SUBSTRUCTURE
      1 S1             1
@<TRIPOS>SET
LONE_PAIRS      STATIC     ATOMS    <user>   **** ""
8 54 55 56 57 58 59 60 61
DONOR_HYDROGENS      STATIC     ATOMS    <user>   **** ""
1 47
ATOM$BLUE        STATIC     ATOMS    COLORGROUP SYSTEM
8 54 55 56 57 58 59 60 61
ATOM$RED        STATIC     ATOMS    COLORGROUP SYSTEM
1 47
