AV-unprocessed.smi:1084|AV-procd|sdf|4716|dock1
  -GOLD-   22720 3243D 1   1.00000     0.00000
 Structure written by MMmdl.
 52 54  0  0  0  0  0  0  0  0  1 V2000
  147.7718  131.2049  153.2283 C   0  0  0  0  0  0  0  0  0  0  0  0
  147.4856  132.6990  152.9292 C   0  0  2  0  0  0  0  0  0  0  0  0
  147.6664  133.5140  154.2392 C   0  0  0  0  0  0  0  0  0  0  0  0
  148.2441  134.8321  153.9986 N   0  0  0  0  0  0  0  0  0  0  0  0
  148.6769  135.6627  154.9558 C   0  0  0  0  0  0  0  0  0  0  0  0
  148.6068  135.4097  156.1584 O   0  0  0  0  0  0  0  0  0  0  0  0
  149.1670  136.7975  154.4289 N   0  0  0  0  0  0  0  0  0  0  0  0
  149.8011  137.8757  155.1015 C   0  0  0  0  0  0  0  0  0  0  0  0
  149.8658  137.8369  156.5086 C   0  0  0  0  0  0  0  0  0  0  0  0
  150.4640  138.9085  157.1980 C   0  0  0  0  0  0  0  0  0  0  0  0
  150.9709  139.9967  156.4511 C   0  0  0  0  0  0  0  0  0  0  0  0
  151.5722  141.0987  157.0729 N   0  0  0  0  0  0  0  0  0  0  0  0
  152.0268  140.8198  158.4285 C   0  0  0  0  0  0  0  0  0  0  0  0
  152.7903  142.0336  158.9863 C   0  0  0  0  0  0  0  0  0  0  0  0
  151.9654  143.1936  158.9129 O   0  0  0  0  0  0  0  0  0  0  0  0
  151.5902  143.5001  157.5726 C   0  0  0  0  0  0  0  0  0  0  0  0
  150.7921  142.3260  156.9807 C   0  0  0  0  0  0  0  0  0  0  0  0
  150.9039  140.0464  155.1036 N   0  0  0  0  0  0  0  0  0  0  0  0
  150.3308  139.0148  154.4480 C   0  0  0  0  0  0  0  0  0  0  0  0
  146.1675  132.9099  152.2869 N   0  0  0  0  0  0  0  0  0  0  0  0
  146.0014  132.1121  151.0663 C   0  0  0  0  0  0  0  0  0  0  0  0
  144.6432  132.3423  150.3818 C   0  0  0  0  0  0  0  0  0  0  0  0
  144.4861  133.7227  150.0847 O   0  0  0  0  0  0  0  0  0  0  0  0
  144.5630  134.5307  151.2508 C   0  0  0  0  0  0  0  0  0  0  0  0
  145.9191  134.3152  151.9449 C   0  0  0  0  0  0  0  0  0  0  0  0
  148.7142  131.0553  153.7538 H   0  0  0  0  0  0  0  0  0  0  0  0
  147.8583  130.6105  152.3198 H   0  0  0  0  0  0  0  0  0  0  0  0
  146.9832  130.7693  153.8429 H   0  0  0  0  0  0  0  0  0  0  0  0
  148.2555  133.0384  152.2343 H   0  0  0  0  0  0  0  0  0  0  0  0
  146.7150  133.7005  154.7345 H   0  0  0  0  0  0  0  0  0  0  0  0
  148.2869  132.9498  154.9381 H   0  0  0  0  0  0  0  0  0  0  0  0
  148.3335  135.1224  153.0361 H   0  0  0  0  0  0  0  0  0  0  0  0
  149.0539  136.9134  153.4325 H   0  0  0  0  0  0  0  0  0  0  0  0
  149.4654  136.9963  157.0565 H   0  0  0  0  0  0  0  0  0  0  0  0
  150.5285  138.8911  158.2761 H   0  0  0  0  0  0  0  0  0  0  0  0
  151.1704  140.5955  159.0657 H   0  0  0  0  0  0  0  0  0  0  0  0
  152.6704  139.9392  158.4290 H   0  0  0  0  0  0  0  0  0  0  0  0
  153.0669  141.8588  160.0261 H   0  0  0  0  0  0  0  0  0  0  0  0
  153.7164  142.1977  158.4329 H   0  0  0  0  0  0  0  0  0  0  0  0
  150.9841  144.4062  157.5708 H   0  0  0  0  0  0  0  0  0  0  0  0
  152.4780  143.7084  156.9731 H   0  0  0  0  0  0  0  0  0  0  0  0
  150.5437  142.5283  155.9381 H   0  0  0  0  0  0  0  0  0  0  0  0
  149.8521  142.2116  157.5216 H   0  0  0  0  0  0  0  0  0  0  0  0
  150.2815  139.1324  153.3767 H   0  0  0  0  0  0  0  0  0  0  0  0
  146.8037  132.3406  150.3632 H   0  0  0  0  0  0  0  0  0  0  0  0
  146.0681  131.0489  151.2896 H   0  0  0  0  0  0  0  0  0  0  0  0
  144.5842  131.7702  149.4558 H   0  0  0  0  0  0  0  0  0  0  0  0
  143.8262  132.0020  151.0201 H   0  0  0  0  0  0  0  0  0  0  0  0
  144.4459  135.5766  150.9669 H   0  0  0  0  0  0  0  0  0  0  0  0
  143.7414  134.2885  151.9268 H   0  0  0  0  0  0  0  0  0  0  0  0
  145.9160  134.9358  152.8383 H   0  0  0  0  0  0  0  0  0  0  0  0
  146.7182  134.6865  151.3014 H   0  0  0  0  0  0  0  0  0  0  0  0
  1  2  1  0  0  0  0
  1 26  1  0  0  0  0
  1 27  1  0  0  0  0
  1 28  1  0  0  0  0
  2  3  1  0  0  0  0
  2 20  1  0  0  0  0
  2 29  1  0  0  0  0
  3  4  1  0  0  0  0
  3 30  1  0  0  0  0
  3 31  1  0  0  0  0
  4  5  1  0  0  0  0
  4 32  1  0  0  0  0
  5  6  2  0  0  0  0
  5  7  1  0  0  0  0
  7  8  1  0  0  0  0
  7 33  1  0  0  0  0
  8 19  1  0  0  0  0
  8  9  2  0  0  0  0
  9 10  1  0  0  0  0
  9 34  1  0  0  0  0
 10 11  2  0  0  0  0
 10 35  1  0  0  0  0
 11 12  1  0  0  0  0
 11 18  1  0  0  0  0
 12 17  1  0  0  0  0
 12 13  1  0  0  0  0
 13 14  1  0  0  0  0
 13 36  1  0  0  0  0
 13 37  1  0  0  0  0
 14 15  1  0  0  0  0
 14 38  1  0  0  0  0
 14 39  1  0  0  0  0
 15 16  1  0  0  0  0
 16 17  1  0  0  0  0
 16 40  1  0  0  0  0
 16 41  1  0  0  0  0
 17 42  1  0  0  0  0
 17 43  1  0  0  0  0
 18 19  2  0  0  0  0
 19 44  1  0  0  0  0
 20 25  1  0  0  0  0
 20 21  1  0  0  0  0
 21 22  1  0  0  0  0
 21 45  1  0  0  0  0
 21 46  1  0  0  0  0
 22 23  1  0  0  0  0
 22 47  1  0  0  0  0
 22 48  1  0  0  0  0
 23 24  1  0  0  0  0
 24 25  1  0  0  0  0
 24 49  1  0  0  0  0
 24 50  1  0  0  0  0
 25 51  1  0  0  0  0
 25 52  1  0  0  0  0
M  END
> <s_m_source_file>
AV-unprocessed.smi

> <i_m_source_file_index>
1084

> <i_lp_mmshare_version>
43012

> <i_f3d_flags>
0

> <s_epik_input>
W0NIMl0xW0NIMl1PW0NIMl1bQ0gyXU4xW0NASF0oW0NIM10pW0NIMl1bTkhdQyg9TylbTkhdYzJbY0hdW2NIXWMobltjSF0yKU4zW0NIMl1bQ0gyXU9bQ0gyXVtDSDJdMw==

> <s_epik_cmdline>
J2VwaWtfcHl0aG9uJywgJy1waCcsICc3LjAnLCAnLXRuJywgJzgnLCAnLW1hJywgJzIwMCcsICctbWV0YWxfYmluZGluZycsICctaW1hZScsICc8aW5maWxlLm1hZT4nLCAnLW9tYWUnLCAnPG91dGZpbGUubWFlPic=

> <r_lp_tautomer_probability>
1

> <r_epik_Ionization_Penalty>
0.268053

> <r_epik_Ionization_Penalty_Charging>
0

> <r_epik_Ionization_Penalty_Neutral>
0.268053

> <r_epik_State_Penalty>
0.269834

> <r_epik_Charging_Adjusted_Penalty>
0.269834

> <i_epik_Tot_Q>
0

> <i_epik_Tot_abs_Q>
0

> <r_epik_Metal_State_Penalty>
0.268436

> <b_epik_Metal_Only>
0

> <s_lp_Force_Field>
OPLS_2005

> <r_lp_Energy>
46.8762

> <b_lp_Chiralities_Consistent>
1

> <s_lp_Variant>
AV-unprocessed.smi:1084-1

> <Gold.Version>
5.8.1

> <Gold.Id.Protein>
6NUR|6NUR_protein|mol2

> <Gold.PLP.Fitness>
45.8795

> <Gold.PLP.PLP>
-35.9286

> <Gold.PLP.part.hbond>
-3.0000

> <Gold.PLP.part.metal>
0.0000

> <Gold.PLP.part.buried>
-6.2375

> <Gold.PLP.part.nonpolar>
-27.5425

> <Gold.PLP.part.repulsive>
0.3923

> <Gold.PLP.ligand.clash>
0.0000

> <Gold.PLP.ligand.torsion>
0.8435

> <Gold.PLP.Chemscore.Hbond>
2.8000

> <Gold.PLP.Chemscore.CHOScore>
1.0000

> <Gold.PLP.Chemscore.Metal>
0.0000

> <Gold.Chemscore.Hbonds>
donor molecule, donor type, donor heavy atom, donor atom, acceptor molecule, acceptor atom, score
      L1  H     4    32       P1  7948  1.00
      L1  H     7    33       P1  7948  0.99
      P1  H  7989  7998       L1    18  0.75
      L1  C    19    44       P1  7957  1.00

> <Gold.PLP.Chemscore.Internal.Correction>
0.2379

> <Gold.Rescore>
     Score         DG    S(hbond)    S(metal)    S(lipo)     H(rot)  DE(clash)    DE(int)     intcor
     16.78     -19.31       1.99        0.00      96.97       1.62       0.20       2.34       ----

> <Gold.Chemscore.Fitness>
16.7760

> <Gold.Chemscore.DG>
-19.3147

> <Gold.Chemscore.ZeroCoef>
-5.4800

> <Gold.Chemscore.Hbond>
1.9877

> <Gold.Chemscore.Metal>
0.0000

> <Gold.Chemscore.Lipo>
96.9728

> <Gold.Chemscore.Internal_Hbond>
0.0000

> <Gold.Chemscore.DEClash>
0.1992

> <Gold.Chemscore.DEInternal>
2.3394

> <Gold.Chemscore.Rot>
1.6211

> <Gold.Chemscore.Internal.Correction>
   9.000000E+99

> <Gold.Chemscore.Hbonds>
donor molecule, donor type, donor heavy atom, donor atom, acceptor molecule, acceptor atom, score
      L1  H     4    32       P1  7948  0.86
      L1  H     7    33       P1  7948  0.94
      P1  H  7989  7998       L1    18  0.09

> <Gold.Chemscore.Hbond.Weighted>
-6.6389

> <Gold.Chemscore.Metal.Weighted>
-0.0000

> <Gold.Chemscore.Lipo.Weighted>
-11.3458

> <Gold.Chemscore.Internal_Hbond.Weighted>
0.0000

> <Gold.Chemscore.DEClash.Weighted>
0.1992

> <Gold.Chemscore.DEInternal.Weighted>
2.3394

> <Gold.Chemscore.Rot.Weighted>
4.1501

> <Gold.Chemscore.Internal.Correction.Weighted>
   9.000000E+99

> <Gold.Protein.RotatedTorsions>
[ 6907 6896 6895 6894 ] final   12.23 input  -60.11 | X-H torsion
[ 7974 7965 7964 7962 ] final   30.41 input  175.53 | X-H torsion
[ 8008 7997 7996 7995 ] final  -52.10 input   59.86 | X-H torsion
[ 10167 10162 10161 10158 ] final  160.33 input  -65.29 | X-H torsion
[ 10718 10713 10712 10709 ] final -122.85 input   66.30 | X-H torsion
[ 10763 10752 10751 10750 ] final   80.66 input  -60.55 | X-H torsion
[ 11005 11000 10999 10996 ] final   97.37 input  -57.11 | X-H torsion

> <Gold.Protein.ActiveResidues>
 VAL166  LYS551  ARG553  GLY616  TRP617  ASP618  TYR619  PRO620  LYS621  CYS622 
 ASP623  PHE694  ASN695  SER759  ASP760  ASP761  ALA762  ILE779  LEU786  VAL792 
 PHE793  MET794  SER795  GLU796  ALA797  LYS798  CYS799  TRP800  GLU811  SER814 

> <Gold.Protein.RotatedAtoms>
  151.7670  135.0796  160.0353 H   0  0  0  0  0  0  0  0  0  0  0  0  # atno 6907 bound_to 6896
  152.3314  133.5958  159.5821 H   0  0  0  0  0  0  0  0  0  0  0  0  # atno 6908 bound_to 6896
  150.7425  133.9778  159.3608 H   0  0  0  0  0  0  0  0  0  0  0  0  # atno 6909 bound_to 6896
  146.1613  139.6792  142.9031 H   0  0  0  0  0  0  0  0  0  0  0  0  # atno 7974 bound_to 7965
  154.4098  140.1232  156.4937 H   0  0  0  0  0  0  0  0  0  0  0  0  # atno 8008 bound_to 7997
  155.6964  140.3495  155.4895 H   0  0  0  0  0  0  0  0  0  0  0  0  # atno 8009 bound_to 7997
  155.9423  140.1089  157.1035 H   0  0  0  0  0  0  0  0  0  0  0  0  # atno 8010 bound_to 7997
  139.4839  144.4644  151.8661 H   0  0  0  0  0  0  0  0  0  0  0  0  # atno 10167 bound_to 10162
  156.1453  130.6495  150.9833 H   0  0  0  0  0  0  0  0  0  0  0  0  # atno 10718 bound_to 10713
  153.1052  135.4794  154.8938 H   0  0  0  0  0  0  0  0  0  0  0  0  # atno 10763 bound_to 10752
  154.7422  135.3085  154.8710 H   0  0  0  0  0  0  0  0  0  0  0  0  # atno 10764 bound_to 10752
  153.9314  135.6844  153.4799 H   0  0  0  0  0  0  0  0  0  0  0  0  # atno 10765 bound_to 10752
  139.8776  134.8997  156.4297 H   0  0  0  0  0  0  0  0  0  0  0  0  # atno 11005 bound_to 11000
  145.4580  141.0431  143.2767 LP  0  0  0  0  0  0  0  0  0  0  0  0  # atno 17320 bound_to 7965
  144.8031  139.6102  143.7063 LP  0  0  0  0  0  0  0  0  0  0  0  0  # atno 17321 bound_to 7965
  140.4109  144.2371  150.5889 LP  0  0  0  0  0  0  0  0  0  0  0  0  # atno 17342 bound_to 10162
  140.4967  143.2330  151.8738 LP  0  0  0  0  0  0  0  0  0  0  0  0  # atno 17343 bound_to 10162
  157.6611  131.0880  150.7836 LP  0  0  0  0  0  0  0  0  0  0  0  0  # atno 17370 bound_to 10713
  156.7908  130.4889  149.5385 LP  0  0  0  0  0  0  0  0  0  0  0  0  # atno 17371 bound_to 10713
  140.9075  133.7735  155.9752 LP  0  0  0  0  0  0  0  0  0  0  0  0  # atno 17394 bound_to 11000
  140.8583  134.2871  157.5246 LP  0  0  0  0  0  0  0  0  0  0  0  0  # atno 17395 bound_to 11000

$$$$
