#       Name:                AV-unprocessed.smi:3150
#       Creating user name   scv26
#       Creation time:       Fri Mar 27 17:41:55 2020


#       File generated by GOLD software.
#

@<TRIPOS>MOLECULE
AV-unprocessed.smi:3150
    37    38     1
SMALL
NO_CHARGES


@<TRIPOS>ATOM
      1 ****        -0.4283  -2.2839  -2.6444 C.3            1 S1                 0.0000
      2 ****        -0.1748  -1.7014  -1.2456 C.3            1 S1                 0.0000
      3 ****         1.2280  -1.7682  -1.0032 O.3            1 S1                 0.0000
      4 ****         1.6253  -1.5573   0.3462 C.3            1 S1                 0.0000
      5 ****         3.1229  -1.7511   0.4466 C.3            1 S1                 0.0000
      6 ****         3.8852  -1.2035   1.6317 C.3            1 S1                 0.0000
      7 ****         4.0658  -0.5822   0.2702 C.3            1 S1                 0.0000
      8 ****        -0.6649  -0.2478  -1.1433 C.2            1 S1                 0.0000
      9 ****        -0.3339   0.5707  -2.0028 O.2            1 S1                 0.0000
     10 ****        -1.4339   0.0345  -0.0750 N.am           1 S1                 0.0000
     11 ****        -2.0200   1.2760   0.2976 C.ar           1 S1                 0.0000
     12 ****        -1.8782   2.3961  -0.4546 N.pl3          1 S1                 1.0000
     13 ****        -2.4215   3.5887  -0.1294 C.ar           1 S1                 0.0000
     14 ****        -3.1839   3.7130   1.0478 C.ar           1 S1                 0.0000
     15 ****        -3.3635   2.5808   1.8668 C.ar           1 S1                 0.0000
     16 ****        -2.7781   1.3526   1.4914 C.ar           1 S1                 0.0000
     17 ****        -2.9519   0.2547   2.2869 O.co2          1 S1                -1.0000
     18 ****        -1.4877  -2.2542  -2.9013 H              1 S1                 0.0000
     19 ****        -0.1076  -3.3247  -2.6922 H              1 S1                 0.0000
     20 ****         0.1199  -1.7380  -3.4133 H              1 S1                 0.0000
     21 ****        -0.6990  -2.3235  -0.5173 H              1 S1                 0.0000
     22 ****         1.3648  -0.5559   0.6910 H              1 S1                 0.0000
     23 ****         1.1328  -2.2764   1.0019 H              1 S1                 0.0000
     24 ****         3.4682  -2.7118   0.0692 H              1 S1                 0.0000
     25 ****         3.3296  -0.6333   2.3737 H              1 S1                 0.0000
     26 ****         4.7031  -1.8051   2.0228 H              1 S1                 0.0000
     27 ****         5.0044  -0.7681  -0.2479 H              1 S1                 0.0000
     28 ****         3.6294   0.4010   0.1045 H              1 S1                 0.0000
     29 ****        -1.6222  -0.7295   0.5585 H              1 S1                 0.0000
     30 ****        -2.2309   4.4001  -0.8164 H              1 S1                 0.0000
     31 ****        -3.6244   4.6609   1.3195 H              1 S1                 0.0000
     32 ****        -3.9451   2.6554   2.7743 H              1 S1                 0.0000
     33 ****        -1.3299   2.3315  -1.3129 H              1 S1                 0.0000
     34 ****         1.6720  -1.0724  -1.5678 LP             1 S1                 0.0000
     35 ****         1.5460  -2.6749  -1.2802 LP             1 S1                 0.0000
     36 ****         0.2513   0.2885  -2.7631 LP             1 S1                 0.0000
     37 ****        -0.6504   1.5172  -1.9402 LP             1 S1                 0.0000
@<TRIPOS>BOND
    1    1    2 1     
    2    1   18 1     
    3    1   19 1     
    4    1   20 1     
    5    2    3 1     
    6    2    8 1     
    7    2   21 1     
    8    3    4 1     
    9    4    5 1     
   10    4   22 1     
   11    4   23 1     
   12    5    7 1     
   13    5    6 1     
   14    5   24 1     
   15    6    7 1     
   16    6   25 1     
   17    6   26 1     
   18    7   27 1     
   19    7   28 1     
   20    8    9 2     
   21    8   10 am    
   22   10   29 1     
   23   10   11 1     
   24   11   16 ar    
   25   11   12 ar    
   26   12   33 1     
   27   12   13 ar    
   28   13   30 1     
   29   13   14 ar    
   30   14   31 1     
   31   14   15 ar    
   32   15   16 ar    
   33   15   32 1     
   34   16   17 ar    
   35    3   34 1     
   36    3   35 1     
   37    9   36 1     
   38    9   37 1     
@<TRIPOS>SUBSTRUCTURE
      1 S1             1
@<TRIPOS>SET
LONE_PAIRS      STATIC     ATOMS    <user>   **** ""
5 34 35 36 37 17
DONOR_HYDROGENS      STATIC     ATOMS    <user>   **** ""
2 29 33
ATOM$BLUE        STATIC     ATOMS    COLORGROUP SYSTEM
5 34 35 36 37 17
ATOM$RED        STATIC     ATOMS    COLORGROUP SYSTEM
2 29 33
