#       Name:                AV-unprocessed.smi:1934
#       Creating user name   scv26
#       Creation time:       Fri Mar 27 09:57:01 2020


#       File generated by GOLD software.
#

@<TRIPOS>MOLECULE
AV-unprocessed.smi:1934
    49    50     1
SMALL
NO_CHARGES


@<TRIPOS>ATOM
      1 ****        -6.0613   3.5293   1.0004 C.3            1 S1                 0.0000
      2 ****        -5.4573   2.1633   0.8592 C.2            1 S1                 0.0000
      3 ****        -4.0761   1.8138   0.8258 C.2            1 S1                 0.0000
      4 ****        -4.1128   0.4533   0.6859 C.2            1 S1                 0.0000
      5 ****        -3.0792  -0.4257   0.5970 N.am           1 S1                 0.0000
      6 ****        -1.7591  -0.1764   0.6504 C.2            1 S1                 0.0000
      7 ****        -1.2448   0.9350   0.7784 O.2            1 S1                 0.0000
      8 ****        -1.0452  -1.3064   0.5434 N.am           1 S1                 0.0000
      9 ****         0.4109  -1.3740   0.5848 C.3            1 S1                 0.0000
     10 ****         1.0375  -0.9284  -0.7508 C.3            1 S1                 0.0000
     11 ****         2.5199  -0.9985  -0.7267 N.4            1 S1                 1.0000
     12 ****         3.0994  -1.1575  -2.0855 C.3            1 S1                 0.0000
     13 ****         4.6206  -1.3670  -2.0175 C.3            1 S1                 0.0000
     14 ****         5.3014  -0.2172  -1.2640 C.3            1 S1                 0.0000
     15 ****         4.6701  -0.0435   0.1279 C.3            1 S1                 0.0000
     16 ****         5.3140   1.1193   0.8960 C.3            1 S1                 0.0000
     17 ****         3.1445   0.1392   0.0013 C.3            1 S1                 0.0000
     18 ****        -5.4278   0.0462   0.6408 N.pl3          1 S1                 0.0000
     19 ****        -5.9753  -1.2889   0.4986 C.3            1 S1                 0.0000
     20 ****        -6.2559   1.1078   0.7472 N.2            1 S1                 0.0000
     21 ****        -5.2898   4.2923   1.1061 H              1 S1                 0.0000
     22 ****        -6.7048   3.5854   1.8787 H              1 S1                 0.0000
     23 ****        -6.6629   3.7847   0.1278 H              1 S1                 0.0000
     24 ****        -3.2203   2.4683   0.8949 H              1 S1                 0.0000
     25 ****        -3.3470  -1.3928   0.4881 H              1 S1                 0.0000
     26 ****        -1.5428  -2.1795   0.4425 H              1 S1                 0.0000
     27 ****         0.7702  -0.7711   1.4191 H              1 S1                 0.0000
     28 ****         0.6962  -2.4033   0.8028 H              1 S1                 0.0000
     29 ****         0.6559  -1.5848  -1.5343 H              1 S1                 0.0000
     30 ****         0.7253   0.0822  -1.0196 H              1 S1                 0.0000
     31 ****         2.6446  -2.0145  -2.5843 H              1 S1                 0.0000
     32 ****         2.8657  -0.2782  -2.6878 H              1 S1                 0.0000
     33 ****         4.8389  -2.3122  -1.5187 H              1 S1                 0.0000
     34 ****         5.0315  -1.4467  -3.0245 H              1 S1                 0.0000
     35 ****         6.3702  -0.4146  -1.1741 H              1 S1                 0.0000
     36 ****         5.2019   0.7061  -1.8369 H              1 S1                 0.0000
     37 ****         4.8538  -0.9549   0.6992 H              1 S1                 0.0000
     38 ****         5.1702   2.0674   0.3766 H              1 S1                 0.0000
     39 ****         6.3867   0.9647   1.0152 H              1 S1                 0.0000
     40 ****         4.8836   1.2178   1.8932 H              1 S1                 0.0000
     41 ****         2.9181   1.0713  -0.5194 H              1 S1                 0.0000
     42 ****         2.7147   0.2271   0.9985 H              1 S1                 0.0000
     43 ****        -5.4894  -1.9635   1.2040 H              1 S1                 0.0000
     44 ****        -5.8023  -1.6477  -0.5162 H              1 S1                 0.0000
     45 ****        -7.0481  -1.2863   0.6971 H              1 S1                 0.0000
     46 ****         2.7581  -1.8398  -0.2210 H              1 S1                 0.0000
     47 ****        -1.8227   1.7478   0.8525 LP             1 S1                 0.0000
     48 ****        -0.2493   1.0249   0.8083 LP             1 S1                 0.0000
     49 ****        -7.2559   1.1007   0.7427 LP             1 S1                 0.0000
@<TRIPOS>BOND
    1    1    2 1     
    2    1   21 1     
    3    1   22 1     
    4    1   23 1     
    5    2   20 2     
    6    2    3 1     
    7    3    4 2     
    8    3   24 1     
    9    4    5 1     
   10    4   18 1     
   11    5    6 am    
   12    5   25 1     
   13    6    7 2     
   14    6    8 am    
   15    8    9 1     
   16    8   26 1     
   17    9   10 1     
   18    9   27 1     
   19    9   28 1     
   20   10   11 1     
   21   10   29 1     
   22   10   30 1     
   23   11   17 1     
   24   11   12 1     
   25   11   46 1     
   26   12   13 1     
   27   12   31 1     
   28   12   32 1     
   29   13   14 1     
   30   13   33 1     
   31   13   34 1     
   32   14   15 1     
   33   14   35 1     
   34   14   36 1     
   35   15   16 1     
   36   15   17 1     
   37   15   37 1     
   38   16   38 1     
   39   16   39 1     
   40   16   40 1     
   41   17   41 1     
   42   17   42 1     
   43   18   19 1     
   44   18   20 1     
   45   19   43 1     
   46   19   44 1     
   47   19   45 1     
   48    7   47 1     
   49    7   48 1     
   50   20   49 1     
@<TRIPOS>SUBSTRUCTURE
      1 S1             1
@<TRIPOS>SET
LONE_PAIRS      STATIC     ATOMS    <user>   **** ""
3 47 48 49
DONOR_HYDROGENS      STATIC     ATOMS    <user>   **** ""
3 25 26 46
ATOM$BLUE        STATIC     ATOMS    COLORGROUP SYSTEM
3 47 48 49
ATOM$RED        STATIC     ATOMS    COLORGROUP SYSTEM
3 25 26 46
