AV-unprocessed.smi:308|AV-procd|sdf|2289|dock6
  -GOLD-   2262022193D 1   1.00000     0.00000
 Structure written by MMmdl.
 50 51  0  0  0  0  0  0  0  0  4 V2000
  145.6258  132.7464  151.0013 C   0  0  0  0  0  0  0  0  0  0  0  0
  145.4636  133.9883  151.8893 C   0  0  2  0  0  0  0  0  0  0  0  0
  145.5554  135.2878  151.0714 C   0  0  0  0  0  0  0  0  0  0  0  0
  145.4245  136.5255  151.9740 C   0  0  0  0  0  0  0  0  0  0  0  0
  146.4549  136.5137  153.0475 N   0  3  1  0  0  0  0  0  0  0  0  0
  146.4946  137.7632  153.8544 C   0  0  0  0  0  0  0  0  0  0  0  0
  147.8347  137.9255  154.6031 C   0  0  0  0  0  0  0  0  0  0  0  0
  148.7040  138.8752  153.9022 N   0  5  0  0  0  0  0  0  0  0  0  0
  149.3378  139.9284  154.4849 C   0  0  0  0  0  0  0  0  0  0  0  0
  149.6192  141.0153  153.9684 O   0  0  0  0  0  0  0  0  0  0  0  0
  149.6694  139.6721  155.7630 N   0  0  0  0  0  0  0  0  0  0  0  0
  150.3402  140.4983  156.7053 C   0  0  0  0  0  0  0  0  0  0  0  0
  150.3260  141.8900  156.4811 C   0  0  0  0  0  0  0  0  0  0  0  0
  150.9910  142.7524  157.3761 C   0  0  0  0  0  0  0  0  0  0  0  0
  151.6790  142.2155  158.4917 C   0  0  0  0  0  0  0  0  0  0  0  0
  152.3674  143.0128  159.4317 N   0  0  0  0  0  0  0  0  0  0  0  0
  152.3901  144.4623  159.2711 C   0  0  0  0  0  0  0  0  0  0  0  0
  153.1571  142.3776  160.4784 C   0  0  0  0  0  0  0  0  0  0  0  0
  151.6779  140.8699  158.6565 N   0  3  0  0  0  0  0  0  0  0  0  0
  151.0534  140.0084  157.8246 C   0  0  0  0  0  0  0  0  0  0  0  0
  146.3644  135.2873  153.8803 C   0  0  0  0  0  0  0  0  0  0  0  0
  146.5089  134.0222  153.0177 C   0  0  0  0  0  0  0  0  0  0  0  0
  146.6038  132.7271  150.5192 H   0  0  0  0  0  0  0  0  0  0  0  0
  144.8680  132.7226  150.2174 H   0  0  0  0  0  0  0  0  0  0  0  0
  145.5243  131.8309  151.5848 H   0  0  0  0  0  0  0  0  0  0  0  0
  144.4730  133.9433  152.3444 H   0  0  0  0  0  0  0  0  0  0  0  0
  146.5074  135.3260  150.5396 H   0  0  0  0  0  0  0  0  0  0  0  0
  144.7753  135.3061  150.3095 H   0  0  0  0  0  0  0  0  0  0  0  0
  145.5284  137.4247  151.3660 H   0  0  0  0  0  0  0  0  0  0  0  0
  144.4303  136.5604  152.4222 H   0  0  0  0  0  0  0  0  0  0  0  0
  146.3100  138.6284  153.2163 H   0  0  0  0  0  0  0  0  0  0  0  0
  145.6874  137.7658  154.5887 H   0  0  0  0  0  0  0  0  0  0  0  0
  147.6280  138.2654  155.6179 H   0  0  0  0  0  0  0  0  0  0  0  0
  148.3012  136.9465  154.7166 H   0  0  0  0  0  0  0  0  0  0  0  0
  149.4733  138.7320  156.0743 H   0  0  0  0  0  0  0  0  0  0  0  0
  149.8028  142.2999  155.6293 H   0  0  0  0  0  0  0  0  0  0  0  0
  150.9613  143.8151  157.1888 H   0  0  0  0  0  0  0  0  0  0  0  0
  151.3775  144.8663  159.2867 H   0  0  0  0  0  0  0  0  0  0  0  0
  152.8588  144.7348  158.3252 H   0  0  0  0  0  0  0  0  0  0  0  0
  152.9513  144.9414  160.0734 H   0  0  0  0  0  0  0  0  0  0  0  0
  153.9459  141.7626  160.0437 H   0  0  0  0  0  0  0  0  0  0  0  0
  152.5263  141.7459  161.1046 H   0  0  0  0  0  0  0  0  0  0  0  0
  153.6281  143.1182  161.1248 H   0  0  0  0  0  0  0  0  0  0  0  0
  151.1635  138.9665  158.0855 H   0  0  0  0  0  0  0  0  0  0  0  0
  147.1548  135.2964  154.6324 H   0  0  0  0  0  0  0  0  0  0  0  0
  145.4135  135.2774  154.4154 H   0  0  0  0  0  0  0  0  0  0  0  0
  146.4096  133.1370  153.6469 H   0  0  0  0  0  0  0  0  0  0  0  0
  147.5133  133.9877  152.5930 H   0  0  0  0  0  0  0  0  0  0  0  0
  147.3563  136.4721  152.5917 H   0  0  0  0  0  0  0  0  0  0  0  0
  152.1806  140.4823  159.4549 H   0  0  0  0  0  0  0  0  0  0  0  0
  1  2  1  0  0  0  0
  1 23  1  0  0  0  0
  1 24  1  0  0  0  0
  1 25  1  0  0  0  0
  2 22  1  0  0  0  0
  2  3  1  0  0  0  0
  2 26  1  0  0  0  0
  3  4  1  0  0  0  0
  3 27  1  0  0  0  0
  3 28  1  0  0  0  0
  4  5  1  0  0  0  0
  4 29  1  0  0  0  0
  4 30  1  0  0  0  0
  5  6  1  0  0  0  0
  5 21  1  0  0  0  0
  5 49  1  0  0  0  0
  6  7  1  0  0  0  0
  6 31  1  0  0  0  0
  6 32  1  0  0  0  0
  7  8  1  0  0  0  0
  7 33  1  0  0  0  0
  7 34  1  0  0  0  0
  8  9  1  0  0  0  0
  9 10  2  0  0  0  0
  9 11  1  0  0  0  0
 11 12  1  0  0  0  0
 11 35  1  0  0  0  0
 12 20  1  0  0  0  0
 12 13  2  0  0  0  0
 13 14  1  0  0  0  0
 13 36  1  0  0  0  0
 14 15  2  0  0  0  0
 14 37  1  0  0  0  0
 15 16  1  0  0  0  0
 15 19  1  0  0  0  0
 16 17  1  0  0  0  0
 16 18  1  0  0  0  0
 17 38  1  0  0  0  0
 17 39  1  0  0  0  0
 17 40  1  0  0  0  0
 18 41  1  0  0  0  0
 18 42  1  0  0  0  0
 18 43  1  0  0  0  0
 19 20  2  0  0  0  0
 19 50  1  0  0  0  0
 20 44  1  0  0  0  0
 21 22  1  0  0  0  0
 21 45  1  0  0  0  0
 21 46  1  0  0  0  0
 22 47  1  0  0  0  0
 22 48  1  0  0  0  0
M  CHG  1   5   1
M  CHG  1   8  -1
M  CHG  1  19   1
M  END
> <s_m_source_file>
AV-unprocessed.smi

> <i_m_source_file_index>
308

> <i_lp_mmshare_version>
43012

> <i_f3d_flags>
0

> <s_epik_input>
W0NIM11bQ0hdMVtDSDJdW0NIMl1OKFtDSDJdW0NIMl0xKVtDSDJdW0NIMl1bTkhdQyg9TylbTkhdYzJbY0hdW2NIXWMoTihbQ0gzXSlbQ0gzXSluW2NIXTI=

> <s_epik_cmdline>
J2VwaWtfcHl0aG9uJywgJy1waCcsICc3LjAnLCAnLXRuJywgJzgnLCAnLW1hJywgJzIwMCcsICctbWV0YWxfYmluZGluZycsICctaW1hZScsICc8aW5maWxlLm1hZT4nLCAnLW9tYWUnLCAnPG91dGZpbGUubWFlPic=

> <r_lp_tautomer_probability>
0.999994

> <r_epik_Ionization_Penalty>
7.42107

> <r_epik_Ionization_Penalty_Charging>
7.42107

> <r_epik_Ionization_Penalty_Neutral>
3.68925e-06

> <r_epik_State_Penalty>
7.0982

> <r_epik_Charging_Adjusted_Penalty>
14.5193

> <i_epik_Tot_Q>
1

> <i_epik_Tot_abs_Q>
3

> <r_epik_Metal_State_Penalty>
3.28646

> <b_epik_Metal_Only>
1

> <s_lp_Force_Field>
OPLS_2005

> <r_lp_Energy>
19.707

> <b_lp_Chiralities_Consistent>
1

> <s_lp_Variant>
AV-unprocessed.smi:308-5

> <Gold.Version>
5.8.1

> <Gold.Id.Protein>
6NUR|6NUR_protein|mol2

> <Gold.PLP.Fitness>
48.1644

> <Gold.PLP.PLP>
-40.1106

> <Gold.PLP.part.hbond>
-3.0000

> <Gold.PLP.part.metal>
0.0000

> <Gold.PLP.part.buried>
-4.0985

> <Gold.PLP.part.nonpolar>
-34.1896

> <Gold.PLP.part.repulsive>
2.5451

> <Gold.PLP.ligand.clash>
0.0000

> <Gold.PLP.ligand.torsion>
0.7829

> <Gold.PLP.Chemscore.Hbond>
3.1640

> <Gold.PLP.Chemscore.CHOScore>
0.0000

> <Gold.PLP.Chemscore.Metal>
0.0000

> <Gold.Chemscore.Hbonds>
donor molecule, donor type, donor heavy atom, donor atom, acceptor molecule, acceptor atom, score
      L1  H     5    49       P1  7948  2.00
      P1  H  7989  7998       L1    10  0.41
      P1  H  8011  8017       L1    10  0.60

> <Gold.PLP.Chemscore.Internal.Correction>
0.1275

> <Gold.Rescore>
     Score         DG    S(hbond)    S(metal)    S(lipo)     H(rot)  DE(clash)    DE(int)     intcor
     15.41     -18.10       1.86        0.00      85.82       1.42       0.53       2.16       ----

> <Gold.Chemscore.Fitness>
15.4085

> <Gold.Chemscore.DG>
-18.1012

> <Gold.Chemscore.ZeroCoef>
-5.4800

> <Gold.Chemscore.Hbond>
1.8639

> <Gold.Chemscore.Metal>
0.0000

> <Gold.Chemscore.Lipo>
85.8247

> <Gold.Chemscore.Internal_Hbond>
0.0000

> <Gold.Chemscore.DEClash>
0.5332

> <Gold.Chemscore.DEInternal>
2.1594

> <Gold.Chemscore.Rot>
1.4241

> <Gold.Chemscore.Internal.Correction>
   9.000000E+99

> <Gold.Chemscore.Hbonds>
donor molecule, donor type, donor heavy atom, donor atom, acceptor molecule, acceptor atom, score
      L1  H     5    49       P1  7948  1.00
      P1  H  7989  7998       L1    10  0.21
      P1  H  8011  8017       L1    10  0.59

> <Gold.Chemscore.Hbond.Weighted>
-6.2253

> <Gold.Chemscore.Metal.Weighted>
-0.0000

> <Gold.Chemscore.Lipo.Weighted>
-10.0415

> <Gold.Chemscore.Internal_Hbond.Weighted>
0.0000

> <Gold.Chemscore.DEClash.Weighted>
0.5332

> <Gold.Chemscore.DEInternal.Weighted>
2.1594

> <Gold.Chemscore.Rot.Weighted>
3.6456

> <Gold.Chemscore.Internal.Correction.Weighted>
   9.000000E+99

> <Gold.Protein.RotatedTorsions>
[ 6907 6896 6895 6894 ] final   35.80 input  -60.11 | X-H torsion
[ 7974 7965 7964 7962 ] final  -92.14 input  175.53 | X-H torsion
[ 8008 7997 7996 7995 ] final -169.78 input   59.86 | X-H torsion
[ 10167 10162 10161 10158 ] final -169.47 input  -65.29 | X-H torsion
[ 10718 10713 10712 10709 ] final  -76.14 input   66.30 | X-H torsion
[ 10763 10752 10751 10750 ] final   73.79 input  -60.55 | X-H torsion
[ 11005 11000 10999 10996 ] final  135.74 input  -57.11 | X-H torsion

> <Gold.Protein.ActiveResidues>
 VAL166  LYS551  ARG553  GLY616  TRP617  ASP618  TYR619  PRO620  LYS621  CYS622 
 ASP623  PHE694  ASN695  SER759  ASP760  ASP761  ALA762  ILE779  LEU786  VAL792 
 PHE793  MET794  SER795  GLU796  ALA797  LYS798  CYS799  TRP800  GLU811  SER814 

> <Gold.Protein.RotatedAtoms>
  152.1211  134.9205  160.0562 H   0  0  0  0  0  0  0  0  0  0  0  0  # atno 6907 bound_to 6896
  152.0346  133.3946  159.4319 H   0  0  0  0  0  0  0  0  0  0  0  0  # atno 6908 bound_to 6896
  150.6849  134.3404  159.4909 H   0  0  0  0  0  0  0  0  0  0  0  0  # atno 6909 bound_to 6896
  145.4037  140.9539  143.2273 H   0  0  0  0  0  0  0  0  0  0  0  0  # atno 7974 bound_to 7965
  155.9095  140.1055  157.1290 H   0  0  0  0  0  0  0  0  0  0  0  0  # atno 8008 bound_to 7997
  154.4037  140.1277  156.4604 H   0  0  0  0  0  0  0  0  0  0  0  0  # atno 8009 bound_to 7997
  155.7327  140.3468  155.5069 H   0  0  0  0  0  0  0  0  0  0  0  0  # atno 8010 bound_to 7997
  139.5921  144.1191  152.1646 H   0  0  0  0  0  0  0  0  0  0  0  0  # atno 10167 bound_to 10162
  156.0184  130.4458  150.3149 H   0  0  0  0  0  0  0  0  0  0  0  0  # atno 10718 bound_to 10713
  153.0544  135.5050  154.7946 H   0  0  0  0  0  0  0  0  0  0  0  0  # atno 10763 bound_to 10752
  154.6783  135.2964  154.9650 H   0  0  0  0  0  0  0  0  0  0  0  0  # atno 10764 bound_to 10752
  154.0445  135.6712  153.4846 H   0  0  0  0  0  0  0  0  0  0  0  0  # atno 10765 bound_to 10752
  139.9999  134.9482  157.0049 H   0  0  0  0  0  0  0  0  0  0  0  0  # atno 11005 bound_to 11000
  144.8356  139.5556  143.6924 LP  0  0  0  0  0  0  0  0  0  0  0  0  # atno 17320 bound_to 7965
  146.2739  139.6704  142.9277 LP  0  0  0  0  0  0  0  0  0  0  0  0  # atno 17321 bound_to 7965
  140.0768  144.5734  150.7151 LP  0  0  0  0  0  0  0  0  0  0  0  0  # atno 17342 bound_to 10162
  140.7181  143.2563  151.4367 LP  0  0  0  0  0  0  0  0  0  0  0  0  # atno 17343 bound_to 10162
  157.1250  131.0257  151.2993 LP  0  0  0  0  0  0  0  0  0  0  0  0  # atno 17370 bound_to 10713
  157.4597  130.7646  149.7225 LP  0  0  0  0  0  0  0  0  0  0  0  0  # atno 17371 bound_to 10713
  140.4747  134.1350  155.7208 LP  0  0  0  0  0  0  0  0  0  0  0  0  # atno 17394 bound_to 11000
  141.1634  133.8750  157.1784 LP  0  0  0  0  0  0  0  0  0  0  0  0  # atno 17395 bound_to 11000

$$$$
