AV-unprocessed.smi:740|AV-procd|sdf|3551|dock10
  -GOLD-   22720 0543D 1   1.00000     0.00000
 Structure written by MMmdl.
 45 47  0  0  0  0  0  0  0  0  2 V2000
  152.1875  144.4986  160.9886 C   0  0  0  0  0  0  0  0  0  0  0  0
  152.0530  143.4673  159.8812 C   0  0  0  0  0  0  0  0  0  0  0  0
  151.2523  143.7821  158.7605 C   0  0  0  0  0  0  0  0  0  0  0  0
  151.1503  142.8197  157.7634 C   0  0  0  0  0  0  0  0  0  0  0  0
  150.4527  142.8289  156.5540 N   0  3  0  0  0  0  0  0  0  0  0  0
  150.6578  141.6512  155.9024 C   0  0  0  0  0  0  0  0  0  0  0  0
  151.4736  140.8881  156.6792 N   0  0  0  0  0  0  0  0  0  0  0  0
  151.9965  139.5361  156.4361 C   0  0  0  0  0  0  0  0  0  0  0  0
  151.7581  139.0558  154.9911 C   0  0  1  0  0  0  0  0  0  0  0  0
  152.6607  138.0054  154.7044 O   0  0  0  0  0  0  0  0  0  0  0  0
  150.3164  138.5421  154.7948 C   0  0  0  0  0  0  0  0  0  0  0  0
  149.9350  137.5624  155.8185 N   0  0  0  0  0  0  0  0  0  0  0  0
  150.4544  136.3305  155.9094 C   0  0  0  0  0  0  0  0  0  0  0  0
  151.3035  135.8417  155.1646 O   0  0  0  0  0  0  0  0  0  0  0  0
  149.8601  135.5729  157.0884 C   0  0  0  0  0  0  0  0  0  0  0  0
  148.8866  136.5879  157.7064 C   0  0  1  0  0  0  0  0  0  0  0  0
  149.1965  136.9288  159.1735 C   0  0  0  0  0  0  0  0  0  0  0  0
  149.0489  137.8032  156.7953 C   0  0  0  0  0  0  0  0  0  0  0  0
  148.4308  138.8534  156.9706 O   0  0  0  0  0  0  0  0  0  0  0  0
  151.8080  141.5770  157.8516 C   0  0  0  0  0  0  0  0  0  0  0  0
  152.6001  141.2510  158.9502 C   0  0  0  0  0  0  0  0  0  0  0  0
  152.7198  142.2182  159.9739 C   0  0  0  0  0  0  0  0  0  0  0  0
  153.5820  141.8914  161.1815 C   0  0  0  0  0  0  0  0  0  0  0  0
  151.5809  145.3819  160.7867 H   0  0  0  0  0  0  0  0  0  0  0  0
  153.2245  144.8210  161.0857 H   0  0  0  0  0  0  0  0  0  0  0  0
  151.8624  144.0833  161.9428 H   0  0  0  0  0  0  0  0  0  0  0  0
  150.7432  144.7316  158.6815 H   0  0  0  0  0  0  0  0  0  0  0  0
  150.2473  141.3722  154.9427 H   0  0  0  0  0  0  0  0  0  0  0  0
  153.0531  139.4994  156.7021 H   0  0  0  0  0  0  0  0  0  0  0  0
  151.4838  138.8726  157.1336 H   0  0  0  0  0  0  0  0  0  0  0  0
  151.9594  139.8834  154.3094 H   0  0  0  0  0  0  0  0  0  0  0  0
  153.0253  137.6916  155.5179 H   0  0  0  0  0  0  0  0  0  0  0  0
  149.6117  139.3750  154.7582 H   0  0  0  0  0  0  0  0  0  0  0  0
  150.2329  138.0576  153.8204 H   0  0  0  0  0  0  0  0  0  0  0  0
  149.3448  134.6758  156.7438 H   0  0  0  0  0  0  0  0  0  0  0  0
  150.6498  135.2758  157.7796 H   0  0  0  0  0  0  0  0  0  0  0  0
  147.8631  136.2202  157.6216 H   0  0  0  0  0  0  0  0  0  0  0  0
  148.4607  137.6232  159.5804 H   0  0  0  0  0  0  0  0  0  0  0  0
  150.1815  137.3850  159.2811 H   0  0  0  0  0  0  0  0  0  0  0  0
  149.1778  136.0318  159.7928 H   0  0  0  0  0  0  0  0  0  0  0  0
  153.1107  140.3023  159.0213 H   0  0  0  0  0  0  0  0  0  0  0  0
  154.0660  140.9200  161.0758 H   0  0  0  0  0  0  0  0  0  0  0  0
  152.9757  141.8654  162.0873 H   0  0  0  0  0  0  0  0  0  0  0  0
  154.3648  142.6393  161.3090 H   0  0  0  0  0  0  0  0  0  0  0  0
  149.8788  143.5822  156.1968 H   0  0  0  0  0  0  0  0  0  0  0  0
  1  2  1  0  0  0  0
  1 24  1  0  0  0  0
  1 25  1  0  0  0  0
  1 26  1  0  0  0  0
  2 22  1  0  0  0  0
  2  3  2  0  0  0  0
  3  4  1  0  0  0  0
  3 27  1  0  0  0  0
  4 20  2  0  0  0  0
  4  5  1  0  0  0  0
  5  6  2  0  0  0  0
  5 45  1  0  0  0  0
  6  7  1  0  0  0  0
  6 28  1  0  0  0  0
  7  8  1  0  0  0  0
  7 20  1  0  0  0  0
  8  9  1  0  0  0  0
  8 29  1  0  0  0  0
  8 30  1  0  0  0  0
  9 10  1  0  0  0  0
  9 11  1  0  0  0  0
  9 31  1  0  0  0  0
 10 32  1  0  0  0  0
 11 12  1  0  0  0  0
 11 33  1  0  0  0  0
 11 34  1  0  0  0  0
 12 18  1  0  0  0  0
 12 13  1  0  0  0  0
 13 14  2  0  0  0  0
 13 15  1  0  0  0  0
 15 16  1  0  0  0  0
 15 35  1  0  0  0  0
 15 36  1  0  0  0  0
 16 17  1  0  0  0  0
 16 18  1  0  0  0  0
 16 37  1  0  0  0  0
 17 38  1  0  0  0  0
 17 39  1  0  0  0  0
 17 40  1  0  0  0  0
 18 19  2  0  0  0  0
 20 21  1  0  0  0  0
 21 22  2  0  0  0  0
 21 41  1  0  0  0  0
 22 23  1  0  0  0  0
 23 42  1  0  0  0  0
 23 43  1  0  0  0  0
 23 44  1  0  0  0  0
M  CHG  1   5   1
M  END
> <s_m_source_file>
AV-unprocessed.smi

> <i_m_source_file_index>
740

> <i_lp_mmshare_version>
43012

> <i_f3d_flags>
0

> <s_epik_input>
W0NIM11jKFtjSF0xKWMoW0NIM10pW2NIXWMoYzEyKW4oW2NIXW4yKVtDSDJdW0NASF0oW09IXSlbQ0gyXU4zQyg9TylbQ0gyXVtDQEBIXShbQ0gzXSlDMz1P

> <s_epik_cmdline>
J2VwaWtfcHl0aG9uJywgJy1waCcsICc3LjAnLCAnLXRuJywgJzgnLCAnLW1hJywgJzIwMCcsICctbWV0YWxfYmluZGluZycsICctaW1hZScsICc8aW5maWxlLm1hZT4nLCAnLW9tYWUnLCAnPG91dGZpbGUubWFlPic=

> <r_lp_tautomer_probability>
1

> <r_epik_Ionization_Penalty>
1.08202

> <r_epik_Ionization_Penalty_Charging>
1.08202

> <r_epik_Ionization_Penalty_Neutral>
1.16605e-06

> <r_epik_State_Penalty>
1.13754

> <r_epik_Charging_Adjusted_Penalty>
2.21956

> <i_epik_Tot_Q>
1

> <i_epik_Tot_abs_Q>
1

> <r_epik_Metal_State_Penalty>
5.13645

> <b_epik_Metal_Only>
0

> <s_lp_Force_Field>
OPLS_2005

> <r_lp_Energy>
22.2654

> <b_lp_Chiralities_Consistent>
1

> <s_lp_Variant>
AV-unprocessed.smi:740-6

> <Gold.Version>
5.8.1

> <Gold.Id.Protein>
6NUR|6NUR_protein|mol2

> <Gold.PLP.Fitness>
53.1424

> <Gold.PLP.PLP>
-45.0085

> <Gold.PLP.part.hbond>
-2.9407

> <Gold.PLP.part.metal>
0.0000

> <Gold.PLP.part.buried>
-7.4650

> <Gold.PLP.part.nonpolar>
-35.0420

> <Gold.PLP.part.repulsive>
0.1867

> <Gold.PLP.ligand.clash>
0.0000

> <Gold.PLP.ligand.torsion>
0.4430

> <Gold.PLP.Chemscore.Hbond>
3.0000

> <Gold.PLP.Chemscore.CHOScore>
0.0000

> <Gold.PLP.Chemscore.Metal>
0.0000

> <Gold.Chemscore.Hbonds>
donor molecule, donor type, donor heavy atom, donor atom, acceptor molecule, acceptor atom, score
      L1  H     5    45       P1  8028  2.00
      P1  H 10752 10765       L1    14  1.00

> <Gold.PLP.Chemscore.Internal.Correction>
0.0198

> <Gold.Rescore>
     Score         DG    S(hbond)    S(metal)    S(lipo)     H(rot)  DE(clash)    DE(int)     intcor
     17.28     -19.31       1.99        0.00     113.26       2.37       0.02       2.01       ----

> <Gold.Chemscore.Fitness>
17.2785

> <Gold.Chemscore.DG>
-19.3066

> <Gold.Chemscore.ZeroCoef>
-5.4800

> <Gold.Chemscore.Hbond>
1.9906

> <Gold.Chemscore.Metal>
0.0000

> <Gold.Chemscore.Lipo>
113.2606

> <Gold.Chemscore.Internal_Hbond>
0.0000

> <Gold.Chemscore.DEClash>
0.0204

> <Gold.Chemscore.DEInternal>
2.0077

> <Gold.Chemscore.Rot>
2.3724

> <Gold.Chemscore.Internal.Correction>
   9.000000E+99

> <Gold.Chemscore.Hbonds>
donor molecule, donor type, donor heavy atom, donor atom, acceptor molecule, acceptor atom, score
      L1  H     5    45       P1  8028  0.99
      P1  H 10752 10765       L1    14  1.00

> <Gold.Chemscore.Hbond.Weighted>
-6.6485

> <Gold.Chemscore.Metal.Weighted>
-0.0000

> <Gold.Chemscore.Lipo.Weighted>
-13.2515

> <Gold.Chemscore.Internal_Hbond.Weighted>
0.0000

> <Gold.Chemscore.DEClash.Weighted>
0.0204

> <Gold.Chemscore.DEInternal.Weighted>
2.0077

> <Gold.Chemscore.Rot.Weighted>
6.0734

> <Gold.Chemscore.Internal.Correction.Weighted>
   9.000000E+99

> <Gold.Protein.RotatedTorsions>
[ 6907 6896 6895 6894 ] final  -54.43 input  -60.11 | X-H torsion
[ 7974 7965 7964 7962 ] final   -7.57 input  175.53 | X-H torsion
[ 8008 7997 7996 7995 ] final  -36.49 input   59.86 | X-H torsion
[ 10167 10162 10161 10158 ] final  -22.59 input  -65.29 | X-H torsion
[ 10718 10713 10712 10709 ] final  -34.85 input   66.30 | X-H torsion
[ 10763 10752 10751 10750 ] final -179.96 input  -60.55 | X-H torsion
[ 11005 11000 10999 10996 ] final  -27.82 input  -57.11 | X-H torsion

> <Gold.Protein.ActiveResidues>
 VAL166  LYS551  ARG553  GLY616  TRP617  ASP618  TYR619  PRO620  LYS621  CYS622 
 ASP623  PHE694  ASN695  SER759  ASP760  ASP761  ALA762  ILE779  LEU786  VAL792 
 PHE793  MET794  SER795  GLU796  ALA797  LYS798  CYS799  TRP800  GLU811  SER814 

> <Gold.Protein.RotatedAtoms>
  150.8338  134.7603  159.6875 H   0  0  0  0  0  0  0  0  0  0  0  0  # atno 6907 bound_to 6896
  152.4438  134.5532  159.9883 H   0  0  0  0  0  0  0  0  0  0  0  0  # atno 6908 bound_to 6896
  151.5687  133.3355  159.3021 H   0  0  0  0  0  0  0  0  0  0  0  0  # atno 6909 bound_to 6896
  146.2303  140.2339  142.8341 H   0  0  0  0  0  0  0  0  0  0  0  0  # atno 7974 bound_to 7965
  154.4072  140.1629  156.2382 H   0  0  0  0  0  0  0  0  0  0  0  0  # atno 8008 bound_to 7997
  155.9224  140.3420  155.6161 H   0  0  0  0  0  0  0  0  0  0  0  0  # atno 8009 bound_to 7997
  155.7206  140.0768  157.2323 H   0  0  0  0  0  0  0  0  0  0  0  0  # atno 8010 bound_to 7997
  140.7286  143.4521  151.0501 H   0  0  0  0  0  0  0  0  0  0  0  0  # atno 10167 bound_to 10162
  156.3456  130.4300  149.7749 H   0  0  0  0  0  0  0  0  0  0  0  0  # atno 10718 bound_to 10713
  154.5283  135.2798  155.1202 H   0  0  0  0  0  0  0  0  0  0  0  0  # atno 10763 bound_to 10752
  154.2732  135.6299  153.5322 H   0  0  0  0  0  0  0  0  0  0  0  0  # atno 10764 bound_to 10752
  152.9951  135.5633  154.5790 H   0  0  0  0  0  0  0  0  0  0  0  0  # atno 10765 bound_to 10752
  140.9154  133.7433  156.0727 H   0  0  0  0  0  0  0  0  0  0  0  0  # atno 11005 bound_to 11000
  144.9536  140.8204  143.5556 LP  0  0  0  0  0  0  0  0  0  0  0  0  # atno 17320 bound_to 7965
  145.2302  139.2118  143.5047 LP  0  0  0  0  0  0  0  0  0  0  0  0  # atno 17321 bound_to 7965
  139.8198  143.7835  152.3176 LP  0  0  0  0  0  0  0  0  0  0  0  0  # atno 17342 bound_to 10162
  139.7914  144.7409  150.9950 LP  0  0  0  0  0  0  0  0  0  0  0  0  # atno 17343 bound_to 10162
  156.4969  130.8110  151.3117 LP  0  0  0  0  0  0  0  0  0  0  0  0  # atno 17370 bound_to 10713
  157.7453  130.9957  150.2754 LP  0  0  0  0  0  0  0  0  0  0  0  0  # atno 17371 bound_to 10713
  140.8057  134.3458  157.5427 LP  0  0  0  0  0  0  0  0  0  0  0  0  # atno 17394 bound_to 11000
  139.8765  134.9224  156.3299 LP  0  0  0  0  0  0  0  0  0  0  0  0  # atno 17395 bound_to 11000

$$$$
