AV-unprocessed.smi:35|AV-procd|sdf|268|dock8
  -GOLD-   2262016 33D 1   1.00000     0.00000
 Structure written by MMmdl.
 28 29  0  0  0  0  0  0  0  0  2 V2000
  151.2105  136.9420  159.5599 O   0  0  0  0  0  0  0  0  0  0  0  0
  151.0243  137.6330  158.5599 C   0  0  0  0  0  0  0  0  0  0  0  0
  152.0443  138.1799  157.8369 N   0  5  0  0  0  0  0  0  0  0  0  0
  151.8329  138.9446  156.7252 C   0  0  0  0  0  0  0  0  0  0  0  0
  152.7444  139.4689  156.0854 O   0  0  0  0  0  0  0  0  0  0  0  0
  150.4984  139.1651  156.2880 N   0  0  0  0  0  0  0  0  0  0  0  0
  150.2429  140.0122  155.0601 C   0  0  1  0  0  0  0  0  0  0  0  0
  149.2521  139.4012  154.2942 O   0  0  0  0  0  0  0  0  0  0  0  0
  148.5219  140.4085  153.6118 C   0  0  1  0  0  0  0  0  0  0  0  0
  147.1594  139.8577  153.1633 C   0  0  0  0  0  0  0  0  0  0  0  0
  147.3389  138.7826  152.2658 O   0  0  0  0  0  0  0  0  0  0  0  0
  148.4171  141.5132  154.6682 C   0  0  2  0  0  0  0  0  0  0  0  0
  148.2484  142.7737  154.0509 O   0  0  0  0  0  0  0  0  0  0  0  0
  149.7594  141.4430  155.3898 C   0  0  1  0  0  0  0  0  0  0  0  0
  149.5918  141.7058  156.7717 O   0  0  0  0  0  0  0  0  0  0  0  0
  149.4415  138.6405  157.0121 C   0  0  0  0  0  0  0  0  0  0  0  0
  149.6578  137.8941  158.1139 C   0  0  0  0  0  0  0  0  0  0  0  0
  148.0535  137.2107  159.0552 Br  0  0  0  0  0  0  0  0  0  0  0  0
  151.1634  140.0017  154.4740 H   0  0  0  0  0  0  0  0  0  0  0  0
  149.1089  140.7612  152.7607 H   0  0  0  0  0  0  0  0  0  0  0  0
  146.5571  139.5454  154.0171 H   0  0  0  0  0  0  0  0  0  0  0  0
  146.5984  140.6304  152.6371 H   0  0  0  0  0  0  0  0  0  0  0  0
  148.0102  139.0187  151.6440 H   0  0  0  0  0  0  0  0  0  0  0  0
  147.5931  141.3040  155.3528 H   0  0  0  0  0  0  0  0  0  0  0  0
  148.7212  143.4168  154.5571 H   0  0  0  0  0  0  0  0  0  0  0  0
  150.4844  142.1418  154.9694 H   0  0  0  0  0  0  0  0  0  0  0  0
  149.3563  142.6160  156.8731 H   0  0  0  0  0  0  0  0  0  0  0  0
  148.4259  138.8346  156.7003 H   0  0  0  0  0  0  0  0  0  0  0  0
  1  2  2  0  0  0  0
  2 17  1  0  0  0  0
  2  3  1  0  0  0  0
  3  4  1  0  0  0  0
  4  5  2  0  0  0  0
  4  6  1  0  0  0  0
  6  7  1  0  0  0  0
  6 16  1  0  0  0  0
  7 14  1  0  0  0  0
  7  8  1  0  0  0  0
  7 19  1  0  0  0  0
  8  9  1  0  0  0  0
  9 10  1  0  0  0  0
  9 12  1  0  0  0  0
  9 20  1  0  0  0  0
 10 11  1  0  0  0  0
 10 21  1  0  0  0  0
 10 22  1  0  0  0  0
 11 23  1  0  0  0  0
 12 13  1  0  0  0  0
 12 14  1  0  0  0  0
 12 24  1  0  0  0  0
 13 25  1  0  0  0  0
 14 15  1  0  0  0  0
 14 26  1  0  0  0  0
 15 27  1  0  0  0  0
 16 17  2  0  0  0  0
 16 28  1  0  0  0  0
 17 18  1  0  0  0  0
M  CHG  1   3  -1
M  END
> <s_m_source_file>
AV-unprocessed.smi

> <i_m_source_file_index>
35

> <i_lp_mmshare_version>
43012

> <i_f3d_flags>
0

> <s_epik_input>
Tz1jMVtuSF1jKD1PKW4oW2NIXWMxQnIpW0NAQEhdMk9bQ0BASF0oW0NIMl1bT0hdKVtDQEBIXShbT0hdKVtDQEhdMltPSF0=

> <s_epik_cmdline>
J2VwaWtfcHl0aG9uJywgJy1waCcsICc3LjAnLCAnLXRuJywgJzgnLCAnLW1hJywgJzIwMCcsICctbWV0YWxfYmluZGluZycsICctaW1hZScsICc8aW5maWxlLm1hZT4nLCAnLW9tYWUnLCAnPG91dGZpbGUubWFlPic=

> <r_epik_Ionization_Penalty>
1.06112

> <r_epik_Ionization_Penalty_Charging>
2.1796e-09

> <r_epik_Ionization_Penalty_Neutral>
1.06112

> <r_epik_State_Penalty>
1.11484

> <r_epik_Charging_Adjusted_Penalty>
1.11484

> <i_epik_Tot_Q>
-1

> <i_epik_Tot_abs_Q>
1

> <r_epik_Metal_State_Penalty>
0.0032876

> <b_epik_Metal_Only>
0

> <s_epik_Chemistry_Notes>
This compound contains an acetal/aminal-like group ( X-CH(R)-Y where X, Y are N, S, or O) that may be acid/base labile, releasing an aldehyde.

> <s_lp_Force_Field>
OPLS_2005

> <r_lp_Energy>
42.419

> <b_lp_Chiralities_Consistent>
1

> <s_lp_Variant>
AV-unprocessed.smi:35-22

> <Gold.Version>
5.8.1

> <Gold.Id.Protein>
6NUR|6NUR_protein|mol2

> <Gold.PLP.Fitness>
37.3919

> <Gold.PLP.PLP>
-26.0740

> <Gold.PLP.part.hbond>
-7.0313

> <Gold.PLP.part.metal>
0.0000

> <Gold.PLP.part.buried>
-0.1221

> <Gold.PLP.part.nonpolar>
-18.7964

> <Gold.PLP.part.repulsive>
0.1533

> <Gold.PLP.ligand.clash>
0.0000

> <Gold.PLP.ligand.torsion>
0.4407

> <Gold.PLP.Chemscore.Hbond>
3.9688

> <Gold.PLP.Chemscore.CHOScore>
0.0000

> <Gold.PLP.Chemscore.Metal>
0.0000

> <Gold.Chemscore.Hbonds>
donor molecule, donor type, donor heavy atom, donor atom, acceptor molecule, acceptor atom, score
      L1  H    11    23       P1  7957  1.00
      L1  H    13    25       P1  8028  1.00
      P1  H  6896  6907       L1     1  1.00
      P1  H  7997  8010       L1     5  1.00

> <Gold.PLP.Chemscore.Internal.Correction>
0.2927

> <Gold.Rescore>
     Score         DG    S(hbond)    S(metal)    S(lipo)     H(rot)  DE(clash)    DE(int)     intcor
     12.45     -13.41       3.87        0.00      36.61       3.63       0.47       0.50       ----

> <Gold.Chemscore.Fitness>
12.4463

> <Gold.Chemscore.DG>
-13.4106

> <Gold.Chemscore.ZeroCoef>
-5.4800

> <Gold.Chemscore.Hbond>
3.8714

> <Gold.Chemscore.Metal>
0.0000

> <Gold.Chemscore.Lipo>
36.6070

> <Gold.Chemscore.Internal_Hbond>
0.0000

> <Gold.Chemscore.DEClash>
0.4660

> <Gold.Chemscore.DEInternal>
0.4982

> <Gold.Chemscore.Rot>
3.6261

> <Gold.Chemscore.Internal.Correction>
   9.000000E+99

> <Gold.Chemscore.Hbonds>
donor molecule, donor type, donor heavy atom, donor atom, acceptor molecule, acceptor atom, score
      L1  H    11    23       P1  7957  0.88
      L1  H    13    25       P1  8028  0.98
      L1  H    15    27       P1  8028  0.03
      P1  H  6896  6907       L1     1  1.00
      P1  H  7997  8010       L1     5  0.96

> <Gold.Chemscore.Hbond.Weighted>
-12.9303

> <Gold.Chemscore.Metal.Weighted>
-0.0000

> <Gold.Chemscore.Lipo.Weighted>
-4.2830

> <Gold.Chemscore.Internal_Hbond.Weighted>
0.0000

> <Gold.Chemscore.DEClash.Weighted>
0.4660

> <Gold.Chemscore.DEInternal.Weighted>
0.4982

> <Gold.Chemscore.Rot.Weighted>
9.2828

> <Gold.Chemscore.Internal.Correction.Weighted>
   9.000000E+99

> <Gold.Protein.RotatedTorsions>
[ 6907 6896 6895 6894 ] final   -6.52 input  -60.11 | X-H torsion
[ 7974 7965 7964 7962 ] final  175.96 input  175.53 | X-H torsion
[ 8008 7997 7996 7995 ] final   60.66 input   59.86 | X-H torsion
[ 10167 10162 10161 10158 ] final -167.84 input  -65.29 | X-H torsion
[ 10718 10713 10712 10709 ] final   56.62 input   66.30 | X-H torsion
[ 10763 10752 10751 10750 ] final  -92.81 input  -60.55 | X-H torsion
[ 11005 11000 10999 10996 ] final  -84.14 input  -57.11 | X-H torsion

> <Gold.Protein.ActiveResidues>
 VAL166  LYS551  ARG553  GLY616  TRP617  ASP618  TYR619  PRO620  LYS621  CYS622 
 ASP623  PHE694  ASN695  SER759  ASP760  ASP761  ALA762  ILE779  LEU786  VAL792 
 PHE793  MET794  SER795  GLU796  ALA797  LYS798  CYS799  TRP800  GLU811  SER814 

> <Gold.Protein.RotatedAtoms>
  151.4642  135.1041  159.9733 H   0  0  0  0  0  0  0  0  0  0  0  0  # atno 6907 bound_to 6896
  152.4841  133.8324  159.7121 H   0  0  0  0  0  0  0  0  0  0  0  0  # atno 6908 bound_to 6896
  150.8936  133.7150  159.2925 H   0  0  0  0  0  0  0  0  0  0  0  0  # atno 6909 bound_to 6896
  144.7192  140.0025  143.6440 H   0  0  0  0  0  0  0  0  0  0  0  0  # atno 7974 bound_to 7965
  155.5860  140.3492  155.4553 H   0  0  0  0  0  0  0  0  0  0  0  0  # atno 8008 bound_to 7997
  156.0338  140.1280  157.0255 H   0  0  0  0  0  0  0  0  0  0  0  0  # atno 8009 bound_to 7997
  154.4363  140.1038  156.6123 H   0  0  0  0  0  0  0  0  0  0  0  0  # atno 8010 bound_to 7997
  139.6024  144.0984  152.1756 H   0  0  0  0  0  0  0  0  0  0  0  0  # atno 10167 bound_to 10162
  157.5446  130.8722  149.8873 H   0  0  0  0  0  0  0  0  0  0  0  0  # atno 10718 bound_to 10713
  154.6898  135.5217  153.8376 H   0  0  0  0  0  0  0  0  0  0  0  0  # atno 10763 bound_to 10752
  153.0624  135.6573  154.0442 H   0  0  0  0  0  0  0  0  0  0  0  0  # atno 10764 bound_to 10752
  154.0318  135.2984  155.3347 H   0  0  0  0  0  0  0  0  0  0  0  0  # atno 10765 bound_to 10752
  141.1653  133.7331  156.8825 H   0  0  0  0  0  0  0  0  0  0  0  0  # atno 11005 bound_to 11000
  146.0324  139.3347  143.0747 LP  0  0  0  0  0  0  0  0  0  0  0  0  # atno 17320 bound_to 7965
  145.8436  140.9567  143.0786 LP  0  0  0  0  0  0  0  0  0  0  0  0  # atno 17321 bound_to 7965
  140.0583  144.5877  150.7282 LP  0  0  0  0  0  0  0  0  0  0  0  0  # atno 17342 bound_to 10162
  140.7259  143.2636  151.4121 LP  0  0  0  0  0  0  0  0  0  0  0  0  # atno 17343 bound_to 10162
  156.0525  130.3715  150.1167 LP  0  0  0  0  0  0  0  0  0  0  0  0  # atno 17370 bound_to 10713
  156.9345  130.9724  151.3527 LP  0  0  0  0  0  0  0  0  0  0  0  0  # atno 17371 bound_to 10713
  140.1705  134.9103  157.2827 LP  0  0  0  0  0  0  0  0  0  0  0  0  # atno 17394 bound_to 11000
  140.2507  134.3686  155.7443 LP  0  0  0  0  0  0  0  0  0  0  0  0  # atno 17395 bound_to 11000

$$$$
