AV-unprocessed.smi:763|AV-procd|sdf|3638|dock5
  -GOLD-   22720 1 33D 1   1.00000     0.00000
 Structure written by MMmdl.
 43 44  0  0  0  0  0  0  0  0  2 V2000
  144.9380  142.8732  161.0016 C   0  0  0  0  0  0  0  0  0  0  0  0
  146.3435  142.9673  160.8530 O   0  0  0  0  0  0  0  0  0  0  0  0
  146.8576  144.2064  161.3126 C   0  0  0  0  0  0  0  0  0  0  0  0
  147.8847  144.7310  160.2970 C   0  0  0  0  0  0  0  0  0  0  0  0
  148.7582  143.6921  159.8537 O   0  0  0  0  0  0  0  0  0  0  0  0
  150.0314  143.9973  159.4021 C   0  0  0  0  0  0  0  0  0  0  0  0
  150.5425  145.2177  159.7061 N   0  0  0  0  0  0  0  0  0  0  0  0
  151.7827  145.5230  159.2794 C   0  0  0  0  0  0  0  0  0  0  0  0
  152.5753  144.6346  158.5350 C   0  0  0  0  0  0  0  0  0  0  0  0
  152.0436  143.3704  158.2238 C   0  0  0  0  0  0  0  0  0  0  0  0
  150.7405  143.0206  158.6567 C   0  0  0  0  0  0  0  0  0  0  0  0
  150.1763  141.8300  158.3905 N   0  5  0  0  0  0  0  0  0  0  0  0
  150.9540  140.4366  158.1191 S   0  0  0  0  0  0  0  0  0  0  0  0
  152.2101  140.6544  157.3855 O   0  0  0  0  0  0  0  0  0  0  0  0
  151.0301  139.6105  159.3344 O   0  0  0  0  0  0  0  0  0  0  0  0
  149.7674  139.5840  156.9653 C   0  0  2  0  0  0  0  0  0  0  0  0
  149.2225  138.3069  157.6443 C   0  0  0  0  0  0  0  0  0  0  0  0
  148.2643  137.5304  156.7311 C   0  0  0  0  0  0  0  0  0  0  0  0
  148.9554  137.1579  155.4137 C   0  0  0  0  0  0  0  0  0  0  0  0
  149.4800  138.4132  154.7046 C   0  0  0  0  0  0  0  0  0  0  0  0
  150.4260  139.2323  155.6055 C   0  0  1  0  0  0  0  0  0  0  0  0
  150.7702  140.3948  154.8790 O   0  0  0  0  0  0  0  0  0  0  0  0
  144.5960  141.9035  160.6402 H   0  0  0  0  0  0  0  0  0  0  0  0
  144.4283  143.6461  160.4250 H   0  0  0  0  0  0  0  0  0  0  0  0
  144.6442  142.9652  162.0481 H   0  0  0  0  0  0  0  0  0  0  0  0
  146.0533  144.9254  161.4727 H   0  0  0  0  0  0  0  0  0  0  0  0
  147.3495  144.0518  162.2741 H   0  0  0  0  0  0  0  0  0  0  0  0
  147.3899  145.2184  159.4559 H   0  0  0  0  0  0  0  0  0  0  0  0
  148.4901  145.5081  160.7640 H   0  0  0  0  0  0  0  0  0  0  0  0
  152.1534  146.5032  159.5398 H   0  0  0  0  0  0  0  0  0  0  0  0
  153.5664  144.9134  158.2099 H   0  0  0  0  0  0  0  0  0  0  0  0
  152.6483  142.6826  157.6516 H   0  0  0  0  0  0  0  0  0  0  0  0
  148.9421  140.2748  156.7893 H   0  0  0  0  0  0  0  0  0  0  0  0
  150.0491  137.6533  157.9251 H   0  0  0  0  0  0  0  0  0  0  0  0
  148.7084  138.5644  158.5705 H   0  0  0  0  0  0  0  0  0  0  0  0
  147.9166  136.6296  157.2374 H   0  0  0  0  0  0  0  0  0  0  0  0
  147.3791  138.1346  156.5273 H   0  0  0  0  0  0  0  0  0  0  0  0
  149.7819  136.4741  155.6111 H   0  0  0  0  0  0  0  0  0  0  0  0
  148.2593  136.6263  154.7644 H   0  0  0  0  0  0  0  0  0  0  0  0
  149.9935  138.1264  153.7859 H   0  0  0  0  0  0  0  0  0  0  0  0
  148.6320  139.0302  154.4029 H   0  0  0  0  0  0  0  0  0  0  0  0
  151.3374  138.6602  155.7843 H   0  0  0  0  0  0  0  0  0  0  0  0
  150.8062  141.1244  155.4779 H   0  0  0  0  0  0  0  0  0  0  0  0
  1  2  1  0  0  0  0
  1 23  1  0  0  0  0
  1 24  1  0  0  0  0
  1 25  1  0  0  0  0
  2  3  1  0  0  0  0
  3  4  1  0  0  0  0
  3 26  1  0  0  0  0
  3 27  1  0  0  0  0
  4  5  1  0  0  0  0
  4 28  1  0  0  0  0
  4 29  1  0  0  0  0
  5  6  1  0  0  0  0
  6 11  1  0  0  0  0
  6  7  2  0  0  0  0
  7  8  1  0  0  0  0
  8  9  2  0  0  0  0
  8 30  1  0  0  0  0
  9 10  1  0  0  0  0
  9 31  1  0  0  0  0
 10 11  2  0  0  0  0
 10 32  1  0  0  0  0
 11 12  1  0  0  0  0
 12 13  1  0  0  0  0
 13 14  2  0  0  0  0
 13 15  2  0  0  0  0
 13 16  1  0  0  0  0
 16 21  1  0  0  0  0
 16 17  1  0  0  0  0
 16 33  1  0  0  0  0
 17 18  1  0  0  0  0
 17 34  1  0  0  0  0
 17 35  1  0  0  0  0
 18 19  1  0  0  0  0
 18 36  1  0  0  0  0
 18 37  1  0  0  0  0
 19 20  1  0  0  0  0
 19 38  1  0  0  0  0
 19 39  1  0  0  0  0
 20 21  1  0  0  0  0
 20 40  1  0  0  0  0
 20 41  1  0  0  0  0
 21 22  1  0  0  0  0
 21 42  1  0  0  0  0
 22 43  1  0  0  0  0
M  CHG  1  12  -1
M  END
> <s_m_source_file>
AV-unprocessed.smi

> <i_m_source_file_index>
763

> <i_lp_mmshare_version>
43012

> <i_f3d_flags>
0

> <s_epik_input>
W0NIM11PW0NIMl1bQ0gyXU9jMW5bY0hdW2NIXVtjSF1jMVtOSF1TKD1PKSg9TylbQ0BASF0yW0NIMl1bQ0gyXVtDSDJdW0NIMl1bQ0BIXTJbT0hd

> <s_epik_cmdline>
J2VwaWtfcHl0aG9uJywgJy1waCcsICc3LjAnLCAnLXRuJywgJzgnLCAnLW1hJywgJzIwMCcsICctbWV0YWxfYmluZGluZycsICctaW1hZScsICc8aW5maWxlLm1hZT4nLCAnLW9tYWUnLCAnPG91dGZpbGUubWFlPic=

> <r_epik_Ionization_Penalty>
0.985866

> <r_epik_Ionization_Penalty_Charging>
0.984689

> <r_epik_Ionization_Penalty_Neutral>
0.00117669

> <r_epik_State_Penalty>
1.03185

> <r_epik_Charging_Adjusted_Penalty>
2.01654

> <i_epik_Tot_Q>
-1

> <i_epik_Tot_abs_Q>
1

> <r_epik_Metal_State_Penalty>
0.379327

> <b_epik_Metal_Only>
0

> <s_lp_Force_Field>
OPLS_2005

> <r_lp_Energy>
11.4471

> <b_lp_Chiralities_Consistent>
1

> <s_lp_Variant>
AV-unprocessed.smi:763-5

> <Gold.Version>
5.8.1

> <Gold.Id.Protein>
6NUR|6NUR_protein|mol2

> <Gold.PLP.Fitness>
41.6670

> <Gold.PLP.PLP>
-35.5954

> <Gold.PLP.part.hbond>
-4.8823

> <Gold.PLP.part.metal>
0.0000

> <Gold.PLP.part.buried>
-4.6191

> <Gold.PLP.part.nonpolar>
-26.9196

> <Gold.PLP.part.repulsive>
0.3687

> <Gold.PLP.ligand.clash>
0.0000

> <Gold.PLP.ligand.torsion>
1.5287

> <Gold.PLP.Chemscore.Hbond>
2.6104

> <Gold.PLP.Chemscore.CHOScore>
0.0000

> <Gold.PLP.Chemscore.Metal>
0.0000

> <Gold.Chemscore.Hbonds>
donor molecule, donor type, donor heavy atom, donor atom, acceptor molecule, acceptor atom, score
      P1  H  6933  6944       L1     5  0.57
      P1  H  6934  6946       L1     2  0.63
      P1  H  7989  7998       L1    22  1.00
      P1  H  7997  8010       L1    14  0.16

> <Gold.PLP.Chemscore.Internal.Correction>
1.2977

> <Gold.Rescore>
     Score         DG    S(hbond)    S(metal)    S(lipo)     H(rot)  DE(clash)    DE(int)     intcor
     13.86     -17.03       2.40        0.00      81.69       2.35       0.34       2.82       ----

> <Gold.Chemscore.Fitness>
13.8603

> <Gold.Chemscore.DG>
-17.0251

> <Gold.Chemscore.ZeroCoef>
-5.4800

> <Gold.Chemscore.Hbond>
2.3971

> <Gold.Chemscore.Metal>
0.0000

> <Gold.Chemscore.Lipo>
81.6852

> <Gold.Chemscore.Internal_Hbond>
0.0000

> <Gold.Chemscore.DEClash>
0.3415

> <Gold.Chemscore.DEInternal>
2.8233

> <Gold.Chemscore.Rot>
2.3509

> <Gold.Chemscore.Internal.Correction>
   9.000000E+99

> <Gold.Chemscore.Hbonds>
donor molecule, donor type, donor heavy atom, donor atom, acceptor molecule, acceptor atom, score
      P1  H  6933  6944       L1     5  0.14
      P1  H  6934  6946       L1     2  0.20
      P1  H  7989  7998       L1    22  0.54
      P1  H  7997  8010       L1    14  0.17

> <Gold.Chemscore.Hbond.Weighted>
-8.0062

> <Gold.Chemscore.Metal.Weighted>
-0.0000

> <Gold.Chemscore.Lipo.Weighted>
-9.5572

> <Gold.Chemscore.Internal_Hbond.Weighted>
0.0000

> <Gold.Chemscore.DEClash.Weighted>
0.3415

> <Gold.Chemscore.DEInternal.Weighted>
2.8233

> <Gold.Chemscore.Rot.Weighted>
6.0182

> <Gold.Chemscore.Internal.Correction.Weighted>
   9.000000E+99

> <Gold.Protein.RotatedTorsions>
[ 6907 6896 6895 6894 ] final   38.59 input  -60.11 | X-H torsion
[ 7974 7965 7964 7962 ] final    3.67 input  175.53 | X-H torsion
[ 8008 7997 7996 7995 ] final   62.82 input   59.86 | X-H torsion
[ 10167 10162 10161 10158 ] final   45.97 input  -65.29 | X-H torsion
[ 10718 10713 10712 10709 ] final -119.49 input   66.30 | X-H torsion
[ 10763 10752 10751 10750 ] final  100.98 input  -60.55 | X-H torsion
[ 11005 11000 10999 10996 ] final  171.79 input  -57.11 | X-H torsion

> <Gold.Protein.ActiveResidues>
 VAL166  LYS551  ARG553  GLY616  TRP617  ASP618  TYR619  PRO620  LYS621  CYS622 
 ASP623  PHE694  ASN695  SER759  ASP760  ASP761  ALA762  ILE779  LEU786  VAL792 
 PHE793  MET794  SER795  GLU796  ALA797  LYS798  CYS799  TRP800  GLU811  SER814 

> <Gold.Protein.RotatedAtoms>
  152.1584  134.8932  160.0543 H   0  0  0  0  0  0  0  0  0  0  0  0  # atno 6907 bound_to 6896
  151.9937  133.3795  159.4162 H   0  0  0  0  0  0  0  0  0  0  0  0  # atno 6908 bound_to 6896
  150.6884  134.3831  159.5087 H   0  0  0  0  0  0  0  0  0  0  0  0  # atno 6909 bound_to 6896
  146.2445  140.0651  142.8366 H   0  0  0  0  0  0  0  0  0  0  0  0  # atno 7974 bound_to 7965
  155.6204  140.3495  155.4650 H   0  0  0  0  0  0  0  0  0  0  0  0  # atno 8008 bound_to 7997
  156.0084  140.1228  157.0502 H   0  0  0  0  0  0  0  0  0  0  0  0  # atno 8009 bound_to 7997
  154.4272  140.1086  156.5780 H   0  0  0  0  0  0  0  0  0  0  0  0  # atno 8010 bound_to 7997
  140.3187  144.2732  150.6186 H   0  0  0  0  0  0  0  0  0  0  0  0  # atno 10167 bound_to 10162
  156.1185  130.6304  150.9422 H   0  0  0  0  0  0  0  0  0  0  0  0  # atno 10718 bound_to 10713
  153.3208  135.4060  155.1415 H   0  0  0  0  0  0  0  0  0  0  0  0  # atno 10763 bound_to 10752
  154.8600  135.3587  154.5599 H   0  0  0  0  0  0  0  0  0  0  0  0  # atno 10764 bound_to 10752
  153.6032  135.7070  153.5435 H   0  0  0  0  0  0  0  0  0  0  0  0  # atno 10765 bound_to 10752
  140.3227  134.7423  157.4076 H   0  0  0  0  0  0  0  0  0  0  0  0  # atno 11005 bound_to 11000
  145.0866  140.9256  143.4794 LP  0  0  0  0  0  0  0  0  0  0  0  0  # atno 17320 bound_to 7965
  145.0815  139.2956  143.5781 LP  0  0  0  0  0  0  0  0  0  0  0  0  # atno 17321 bound_to 7965
  140.5503  143.2207  151.7937 LP  0  0  0  0  0  0  0  0  0  0  0  0  # atno 17342 bound_to 10162
  139.4879  144.4485  151.9682 LP  0  0  0  0  0  0  0  0  0  0  0  0  # atno 17343 bound_to 10162
  157.6368  131.0915  150.8332 LP  0  0  0  0  0  0  0  0  0  0  0  0  # atno 17370 bound_to 10713
  156.8432  130.5055  149.5319 LP  0  0  0  0  0  0  0  0  0  0  0  0  # atno 17371 bound_to 10713
  140.0928  134.5578  155.8428 LP  0  0  0  0  0  0  0  0  0  0  0  0  # atno 17394 bound_to 11000
  141.2082  133.6672  156.6359 LP  0  0  0  0  0  0  0  0  0  0  0  0  # atno 17395 bound_to 11000

$$$$
