#       Name:                AV-unprocessed.smi:2124
#       Creating user name   scv26
#       Creation time:       Fri Mar 27 11:40:38 2020


#       File generated by GOLD software.
#

@<TRIPOS>MOLECULE
AV-unprocessed.smi:2124
    52    54     1
SMALL
NO_CHARGES


@<TRIPOS>ATOM
      1 ****        -4.3321   5.6501  -0.0924 C.3            1 S1                 0.0000
      2 ****        -3.7570   4.2573   0.0577 C.2            1 S1                 0.0000
      3 ****        -3.2829   3.7880   1.1648 N.2            1 S1                 0.0000
      4 ****        -2.7742   2.4818   1.1798 C.2            1 S1                 0.0000
      5 ****        -2.2300   2.0045   2.5155 C.3            1 S1                 0.0000
      6 ****        -2.7708   1.7018   0.0591 C.2            1 S1                 0.0000
      7 ****        -2.2158   0.2782   0.0445 C.3            1 S1                 0.0000
      8 ****        -0.6915   0.1656  -0.0367 C.2            1 S1                 0.0000
      9 ****        -0.0487   0.9630  -0.7198 O.2            1 S1                 0.0000
     10 ****        -0.1305  -0.8260   0.6737 N.am           1 S1                 0.0000
     11 ****         1.3008  -1.1041   0.7872 C.3            1 S1                 0.0000
     12 ****         1.6685  -1.1709   2.2776 C.3            1 S1                 0.0000
     13 ****         1.6456  -2.4120   0.0334 C.3            1 S1                 0.0000
     14 ****         1.3848  -2.3779  -1.4908 C.3            1 S1                 0.0000
     15 ****         2.7020  -2.9129  -2.0818 C.3            1 S1                 0.0000
     16 ****         3.7848  -1.8255  -1.9571 C.3            1 S1                 0.0000
     17 ****         4.0950  -1.8303  -0.4494 C.3            1 S1                 0.0000
     18 ****         3.1179  -2.8912   0.0984 C.3            1 S1                 0.0000
     19 ****         3.1427  -3.9208  -1.0270 C.3            1 S1                 0.0000
     20 ****        -3.3161   2.2474  -1.1991 C.2            1 S1                 0.0000
     21 ****        -3.3590   1.6358  -2.2653 O.2            1 S1                 0.0000
     22 ****        -3.7843   3.5131  -1.1205 N.am           1 S1                 0.0000
     23 ****        -4.1666   3.9322  -1.9555 H              1 S1                 0.0000
     24 ****        -3.5699   6.3967   0.1312 H              1 S1                 0.0000
     25 ****        -5.1628   5.7898   0.5996 H              1 S1                 0.0000
     26 ****        -4.6977   5.8283  -1.1045 H              1 S1                 0.0000
     27 ****        -2.7929   1.1421   2.8730 H              1 S1                 0.0000
     28 ****        -2.2995   2.7857   3.2736 H              1 S1                 0.0000
     29 ****        -1.1810   1.7221   2.4246 H              1 S1                 0.0000
     30 ****        -2.5633  -0.2342   0.9425 H              1 S1                 0.0000
     31 ****        -2.6409  -0.2928  -0.7813 H              1 S1                 0.0000
     32 ****        -0.7470  -1.4314   1.1962 H              1 S1                 0.0000
     33 ****         1.8612  -0.2785   0.3483 H              1 S1                 0.0000
     34 ****         2.7412  -1.3052   2.4169 H              1 S1                 0.0000
     35 ****         1.1616  -1.9978   2.7758 H              1 S1                 0.0000
     36 ****         1.3892  -0.2503   2.7914 H              1 S1                 0.0000
     37 ****         1.0299  -3.2069   0.4592 H              1 S1                 0.0000
     38 ****         0.5461  -3.0255  -1.7489 H              1 S1                 0.0000
     39 ****         1.1574  -1.3798  -1.8664 H              1 S1                 0.0000
     40 ****         2.5985  -3.3124  -3.0910 H              1 S1                 0.0000
     41 ****         4.6730  -2.0888  -2.5328 H              1 S1                 0.0000
     42 ****         3.4359  -0.8530  -2.3066 H              1 S1                 0.0000
     43 ****         5.1263  -2.1427  -0.2793 H              1 S1                 0.0000
     44 ****         3.9772  -0.8501   0.0103 H              1 S1                 0.0000
     45 ****         3.4058  -3.2870   1.0729 H              1 S1                 0.0000
     46 ****         2.4329  -4.7381  -0.8865 H              1 S1                 0.0000
     47 ****         4.1344  -4.3370  -1.2137 H              1 S1                 0.0000
     48 ****        -3.2790   4.3460   1.9946 LP             1 S1                 0.0000
     49 ****        -0.5224   1.6859  -1.2229 LP             1 S1                 0.0000
     50 ****         0.9472   0.8878  -0.7716 LP             1 S1                 0.0000
     51 ****        -3.0084   0.7008  -2.3199 LP             1 S1                 0.0000
     52 ****        -3.7444   2.0735  -3.0777 LP             1 S1                 0.0000
@<TRIPOS>BOND
    1    1    2 1     
    2    1   24 1     
    3    1   25 1     
    4    1   26 1     
    5    2   22 1     
    6    2    3 2     
    7    3    4 1     
    8    4    5 1     
    9    4    6 2     
   10    5   27 1     
   11    5   28 1     
   12    5   29 1     
   13    6    7 1     
   14    6   20 1     
   15    7    8 1     
   16    7   30 1     
   17    7   31 1     
   18    8    9 2     
   19    8   10 am    
   20   10   11 1     
   21   10   32 1     
   22   11   12 1     
   23   11   13 1     
   24   11   33 1     
   25   12   34 1     
   26   12   35 1     
   27   12   36 1     
   28   13   18 1     
   29   13   14 1     
   30   13   37 1     
   31   14   15 1     
   32   14   38 1     
   33   14   39 1     
   34   15   19 1     
   35   15   16 1     
   36   15   40 1     
   37   16   17 1     
   38   16   41 1     
   39   16   42 1     
   40   17   18 1     
   41   17   43 1     
   42   17   44 1     
   43   18   19 1     
   44   18   45 1     
   45   19   46 1     
   46   19   47 1     
   47   20   21 2     
   48   20   22 am    
   49   22   23 1     
   50    3   48 1     
   51    9   49 1     
   52    9   50 1     
   53   21   51 1     
   54   21   52 1     
@<TRIPOS>SUBSTRUCTURE
      1 S1             1
@<TRIPOS>SET
LONE_PAIRS      STATIC     ATOMS    <user>   **** ""
5 48 49 50 51 52
DONOR_HYDROGENS      STATIC     ATOMS    <user>   **** ""
2 32 23
ATOM$BLUE        STATIC     ATOMS    COLORGROUP SYSTEM
5 48 49 50 51 52
ATOM$RED        STATIC     ATOMS    COLORGROUP SYSTEM
2 32 23
