AV-unprocessed.smi:1200|AV-procd|sdf|5023|dock9
  -GOLD-   22720 4 43D 1   1.00000     0.00000
 Structure written by MMmdl.
 43 44  0  0  0  0  0  0  0  0  2 V2000
  143.6287  136.9046  152.5015 C   0  0  0  0  0  0  0  0  0  0  0  0
  144.6679  137.7492  151.9321 N   0  0  0  0  0  0  0  0  0  0  0  0
  145.9507  137.7302  152.3197 C   0  0  0  0  0  0  0  0  0  0  0  0
  146.3756  136.9929  153.2101 O   0  0  0  0  0  0  0  0  0  0  0  0
  146.8892  138.7061  151.6024 C   0  0  0  0  0  0  0  0  0  0  0  0
  147.5349  139.6747  152.5254 N   0  3  2  0  0  0  0  0  0  0  0  0
  148.1869  139.0099  153.6822 C   0  0  0  0  0  0  0  0  0  0  0  0
  148.9731  140.0221  154.5327 C   0  0  0  0  0  0  0  0  0  0  0  0
  148.0674  141.1684  155.0104 C   0  0  1  0  0  0  0  0  0  0  0  0
  148.8578  142.1572  155.7385 N   0  0  0  0  0  0  0  0  0  0  0  0
  149.6596  141.8898  156.7798 C   0  0  0  0  0  0  0  0  0  0  0  0
  149.8150  140.7587  157.2386 O   0  0  0  0  0  0  0  0  0  0  0  0
  150.2580  143.0069  157.2288 N   0  0  0  0  0  0  0  0  0  0  0  0
  151.2012  143.1602  158.2827 C   0  0  0  0  0  0  0  0  0  0  0  0
  151.5180  144.3892  158.9124 C   0  0  0  0  0  0  0  0  0  0  0  0
  152.4790  144.3978  159.9420 C   0  0  0  0  0  0  0  0  0  0  0  0
  153.0931  143.1827  160.3008 C   0  0  0  0  0  0  0  0  0  0  0  0
  152.8104  142.0067  159.7025 N   0  0  0  0  0  0  0  0  0  0  0  0
  151.8878  142.0060  158.7170 C   0  0  0  0  0  0  0  0  0  0  0  0
  147.3684  141.8132  153.7998 C   0  0  0  0  0  0  0  0  0  0  0  0
  146.6192  140.7615  152.9652 C   0  0  0  0  0  0  0  0  0  0  0  0
  142.6659  137.1435  152.0494 H   0  0  0  0  0  0  0  0  0  0  0  0
  143.5472  137.0581  153.5784 H   0  0  0  0  0  0  0  0  0  0  0  0
  143.8406  135.8508  152.3149 H   0  0  0  0  0  0  0  0  0  0  0  0
  144.3922  138.3880  151.2001 H   0  0  0  0  0  0  0  0  0  0  0  0
  147.6488  138.1627  151.0377 H   0  0  0  0  0  0  0  0  0  0  0  0
  146.2805  139.2422  150.8730 H   0  0  0  0  0  0  0  0  0  0  0  0
  147.4306  138.5109  154.2903 H   0  0  0  0  0  0  0  0  0  0  0  0
  148.8696  138.2370  153.3269 H   0  0  0  0  0  0  0  0  0  0  0  0
  149.4187  139.5150  155.3896 H   0  0  0  0  0  0  0  0  0  0  0  0
  149.8011  140.4219  153.9449 H   0  0  0  0  0  0  0  0  0  0  0  0
  147.3111  140.7482  155.6768 H   0  0  0  0  0  0  0  0  0  0  0  0
  148.7918  143.1149  155.4255 H   0  0  0  0  0  0  0  0  0  0  0  0
  150.0518  143.8519  156.7162 H   0  0  0  0  0  0  0  0  0  0  0  0
  151.0591  145.3227  158.6287 H   0  0  0  0  0  0  0  0  0  0  0  0
  152.7415  145.3172  160.4444 H   0  0  0  0  0  0  0  0  0  0  0  0
  153.8338  143.1556  161.0861 H   0  0  0  0  0  0  0  0  0  0  0  0
  151.6885  141.0469  158.2613 H   0  0  0  0  0  0  0  0  0  0  0  0
  146.6694  142.5811  154.1331 H   0  0  0  0  0  0  0  0  0  0  0  0
  148.1037  142.3170  153.1705 H   0  0  0  0  0  0  0  0  0  0  0  0
  146.1690  141.2476  152.0993 H   0  0  0  0  0  0  0  0  0  0  0  0
  145.8000  140.3364  153.5475 H   0  0  0  0  0  0  0  0  0  0  0  0
  148.2757  140.1112  151.9947 H   0  0  0  0  0  0  0  0  0  0  0  0
  1  2  1  0  0  0  0
  1 22  1  0  0  0  0
  1 23  1  0  0  0  0
  1 24  1  0  0  0  0
  2  3  1  0  0  0  0
  2 25  1  0  0  0  0
  3  4  2  0  0  0  0
  3  5  1  0  0  0  0
  5  6  1  0  0  0  0
  5 26  1  0  0  0  0
  5 27  1  0  0  0  0
  6 21  1  0  0  0  0
  6  7  1  0  0  0  0
  6 43  1  0  0  0  0
  7  8  1  0  0  0  0
  7 28  1  0  0  0  0
  7 29  1  0  0  0  0
  8  9  1  0  0  0  0
  8 30  1  0  0  0  0
  8 31  1  0  0  0  0
  9 10  1  0  0  0  0
  9 20  1  0  0  0  0
  9 32  1  0  0  0  0
 10 11  1  0  0  0  0
 10 33  1  0  0  0  0
 11 12  2  0  0  0  0
 11 13  1  0  0  0  0
 13 14  1  0  0  0  0
 13 34  1  0  0  0  0
 14 19  1  0  0  0  0
 14 15  2  0  0  0  0
 15 16  1  0  0  0  0
 15 35  1  0  0  0  0
 16 17  2  0  0  0  0
 16 36  1  0  0  0  0
 17 18  1  0  0  0  0
 17 37  1  0  0  0  0
 18 19  2  0  0  0  0
 19 38  1  0  0  0  0
 20 21  1  0  0  0  0
 20 39  1  0  0  0  0
 20 40  1  0  0  0  0
 21 41  1  0  0  0  0
 21 42  1  0  0  0  0
M  CHG  1   6   1
M  END
> <s_m_source_file>
AV-unprocessed.smi

> <i_m_source_file_index>
1200

> <i_lp_mmshare_version>
43012

> <i_f3d_flags>
0

> <s_epik_input>
W0NIM11bTkhdQyg9TylbQ0gyXU4xW0NIMl1bQ0gyXVtDSF0oW0NIMl1bQ0gyXTEpW05IXUMoPU8pW05IXWMyW2NIXVtjSF1bY0hdbltjSF0y

> <s_epik_cmdline>
J2VwaWtfcHl0aG9uJywgJy1waCcsICc3LjAnLCAnLXRuJywgJzgnLCAnLW1hJywgJzIwMCcsICctbWV0YWxfYmluZGluZycsICctaW1hZScsICc8aW5maWxlLm1hZT4nLCAnLW9tYWUnLCAnPG91dGZpbGUubWFlPic=

> <r_epik_Ionization_Penalty>
0.842849

> <r_epik_Ionization_Penalty_Charging>
0.838844

> <r_epik_Ionization_Penalty_Neutral>
0.00400543

> <r_epik_State_Penalty>
0.858736

> <r_epik_Charging_Adjusted_Penalty>
1.69758

> <i_epik_Tot_Q>
1

> <i_epik_Tot_abs_Q>
1

> <r_epik_Metal_State_Penalty>
0.860766

> <b_epik_Metal_Only>
0

> <s_lp_Force_Field>
OPLS_2005

> <r_lp_Energy>
18.0189

> <b_lp_Chiralities_Consistent>
1

> <s_lp_Variant>
AV-unprocessed.smi:1200-2

> <Gold.Version>
5.8.1

> <Gold.Id.Protein>
6NUR|6NUR_protein|mol2

> <Gold.PLP.Fitness>
51.9500

> <Gold.PLP.PLP>
-40.4932

> <Gold.PLP.part.hbond>
-4.7752

> <Gold.PLP.part.metal>
0.0000

> <Gold.PLP.part.buried>
-2.6567

> <Gold.PLP.part.nonpolar>
-33.3520

> <Gold.PLP.part.repulsive>
0.4030

> <Gold.PLP.ligand.clash>
0.0000

> <Gold.PLP.ligand.torsion>
0.1839

> <Gold.PLP.Chemscore.Hbond>
3.9360

> <Gold.PLP.Chemscore.CHOScore>
0.0000

> <Gold.PLP.Chemscore.Metal>
0.0000

> <Gold.Chemscore.Hbonds>
donor molecule, donor type, donor heavy atom, donor atom, acceptor molecule, acceptor atom, score
      L1  H     2    25       P1 10171  0.89
      L1  H     6    43       P1  7957  1.00
      L1  H    10    33       P1  8028  1.00
      L1  H    13    34       P1  8028  0.96

> <Gold.PLP.Chemscore.Internal.Correction>
0.0167

> <Gold.Rescore>
     Score         DG    S(hbond)    S(metal)    S(lipo)     H(rot)  DE(clash)    DE(int)     intcor
     20.64     -25.93       3.90        0.00     100.48       1.69       0.99       4.30       ----

> <Gold.Chemscore.Fitness>
20.6412

> <Gold.Chemscore.DG>
-25.9304

> <Gold.Chemscore.ZeroCoef>
-5.4800

> <Gold.Chemscore.Hbond>
3.8964

> <Gold.Chemscore.Metal>
0.0000

> <Gold.Chemscore.Lipo>
100.4773

> <Gold.Chemscore.Internal_Hbond>
0.0000

> <Gold.Chemscore.DEClash>
0.9856

> <Gold.Chemscore.DEInternal>
4.3036

> <Gold.Chemscore.Rot>
1.6873

> <Gold.Chemscore.Internal.Correction>
   9.000000E+99

> <Gold.Chemscore.Hbonds>
donor molecule, donor type, donor heavy atom, donor atom, acceptor molecule, acceptor atom, score
      L1  H     2    25       P1 10171  0.81
      L1  H     6    43       P1  7957  0.92
      L1  H    10    33       P1  8028  0.97
      L1  H    13    34       P1  8028  0.92

> <Gold.Chemscore.Hbond.Weighted>
-13.0139

> <Gold.Chemscore.Metal.Weighted>
-0.0000

> <Gold.Chemscore.Lipo.Weighted>
-11.7558

> <Gold.Chemscore.Internal_Hbond.Weighted>
0.0000

> <Gold.Chemscore.DEClash.Weighted>
0.9856

> <Gold.Chemscore.DEInternal.Weighted>
4.3036

> <Gold.Chemscore.Rot.Weighted>
4.3194

> <Gold.Chemscore.Internal.Correction.Weighted>
   9.000000E+99

> <Gold.Protein.RotatedTorsions>
[ 6907 6896 6895 6894 ] final  129.78 input  -60.11 | X-H torsion
[ 7974 7965 7964 7962 ] final   84.41 input  175.53 | X-H torsion
[ 8008 7997 7996 7995 ] final  129.18 input   59.86 | X-H torsion
[ 10167 10162 10161 10158 ] final   31.05 input  -65.29 | X-H torsion
[ 10718 10713 10712 10709 ] final   73.93 input   66.30 | X-H torsion
[ 10763 10752 10751 10750 ] final   31.15 input  -60.55 | X-H torsion
[ 11005 11000 10999 10996 ] final  -35.70 input  -57.11 | X-H torsion

> <Gold.Protein.ActiveResidues>
 VAL166  LYS551  ARG553  GLY616  TRP617  ASP618  TYR619  PRO620  LYS621  CYS622 
 ASP623  PHE694  ASN695  SER759  ASP760  ASP761  ALA762  ILE779  LEU786  VAL792 
 PHE793  MET794  SER795  GLU796  ALA797  LYS798  CYS799  TRP800  GLU811  SER814 

> <Gold.Protein.RotatedAtoms>
  152.3591  133.6274  159.6001 H   0  0  0  0  0  0  0  0  0  0  0  0  # atno 6907 bound_to 6896
  150.7589  133.9453  159.3477 H   0  0  0  0  0  0  0  0  0  0  0  0  # atno 6908 bound_to 6896
  151.7293  135.0879  160.0348 H   0  0  0  0  0  0  0  0  0  0  0  0  # atno 6909 bound_to 6896
  145.5991  139.2349  143.2256 H   0  0  0  0  0  0  0  0  0  0  0  0  # atno 7974 bound_to 7965
  156.2931  140.2627  156.2556 H   0  0  0  0  0  0  0  0  0  0  0  0  # atno 8008 bound_to 7997
  154.9839  140.0389  157.2308 H   0  0  0  0  0  0  0  0  0  0  0  0  # atno 8009 bound_to 7997
  154.7747  140.2784  155.6115 H   0  0  0  0  0  0  0  0  0  0  0  0  # atno 8010 bound_to 7997
  140.4623  144.0888  150.6216 H   0  0  0  0  0  0  0  0  0  0  0  0  # atno 10167 bound_to 10162
  157.6570  130.9652  150.1138 H   0  0  0  0  0  0  0  0  0  0  0  0  # atno 10718 bound_to 10713
  153.0332  135.6446  154.1154 H   0  0  0  0  0  0  0  0  0  0  0  0  # atno 10763 bound_to 10752
  154.0873  135.2869  155.3280 H   0  0  0  0  0  0  0  0  0  0  0  0  # atno 10764 bound_to 10752
  154.6489  135.5433  153.7941 H   0  0  0  0  0  0  0  0  0  0  0  0  # atno 10765 bound_to 10752
  140.9817  133.7053  156.1695 H   0  0  0  0  0  0  0  0  0  0  0  0  # atno 11005 bound_to 11000
  146.1590  140.6816  142.9286 LP  0  0  0  0  0  0  0  0  0  0  0  0  # atno 17320 bound_to 7965
  144.7318  140.4692  143.6932 LP  0  0  0  0  0  0  0  0  0  0  0  0  # atno 17321 bound_to 7965
  140.4078  143.2671  151.9869 LP  0  0  0  0  0  0  0  0  0  0  0  0  # atno 17342 bound_to 10162
  139.4808  144.5941  151.7720 LP  0  0  0  0  0  0  0  0  0  0  0  0  # atno 17343 bound_to 10162
  156.2028  130.3661  149.8767 LP  0  0  0  0  0  0  0  0  0  0  0  0  # atno 17370 bound_to 10713
  156.6666  130.8803  151.3556 LP  0  0  0  0  0  0  0  0  0  0  0  0  # atno 17371 bound_to 10713
  140.7176  134.4393  157.5577 LP  0  0  0  0  0  0  0  0  0  0  0  0  # atno 17394 bound_to 11000
  139.8953  134.8686  156.2138 LP  0  0  0  0  0  0  0  0  0  0  0  0  # atno 17395 bound_to 11000

$$$$
