AV-unprocessed.smi:1284|AV-procd|sdf|5364|dock4
  -GOLD-   22720 4503D 1   1.00000     0.00000
 Structure written by MMmdl.
 39 41  0  0  0  0  0  0  0  0  1 V2000
  151.0654  137.5403  157.6992 N   0  0  0  0  0  0  0  0  0  0  0  0
  151.7121  137.0965  156.6180 C   0  0  0  0  0  0  0  0  0  0  0  0
  151.9368  135.9021  156.4354 O   0  0  0  0  0  0  0  0  0  0  0  0
  152.1667  138.1432  155.5943 C   0  0  0  0  0  0  0  0  0  0  0  0
  150.9586  138.8806  155.0779 C   0  0  0  0  0  0  0  0  0  0  0  0
  150.0909  138.3026  154.2428 N   0  0  0  0  0  0  0  0  0  0  0  0
  149.1562  139.2956  154.0313 C   0  0  0  0  0  0  0  0  0  0  0  0
  147.9777  139.2952  153.2511 C   0  0  0  0  0  0  0  0  0  0  0  0
  147.1634  140.4447  153.1876 C   0  0  0  0  0  0  0  0  0  0  0  0
  147.5165  141.6088  153.8999 C   0  0  0  0  0  0  0  0  0  0  0  0
  148.6886  141.6309  154.6797 C   0  0  0  0  0  0  0  0  0  0  0  0
  149.4974  140.4796  154.7423 C   0  0  0  0  0  0  0  0  0  0  0  0
  150.6835  140.1719  155.4041 N   0  0  0  0  0  0  0  0  0  0  0  0
  151.4372  141.0795  156.2615 C   0  0  0  0  0  0  0  0  0  0  0  0
  150.7192  141.3756  157.5932 C   0  0  1  0  0  0  0  0  0  0  0  0
  150.6669  140.1784  158.3415 O   0  0  0  0  0  0  0  0  0  0  0  0
  151.3781  142.5114  158.3644 C   0  0  0  0  0  0  0  0  0  0  0  0
  151.9067  142.2729  159.6516 C   0  0  0  0  0  0  0  0  0  0  0  0
  152.4896  143.3234  160.3860 C   0  0  0  0  0  0  0  0  0  0  0  0
  152.5486  144.6187  159.8375 C   0  0  0  0  0  0  0  0  0  0  0  0
  152.0237  144.8632  158.5540 C   0  0  0  0  0  0  0  0  0  0  0  0
  151.4395  143.8132  157.8195 C   0  0  0  0  0  0  0  0  0  0  0  0
  150.7584  136.8848  158.4032 H   0  0  0  0  0  0  0  0  0  0  0  0
  150.8947  138.5285  157.8158 H   0  0  0  0  0  0  0  0  0  0  0  0
  152.8835  138.8142  156.0638 H   0  0  0  0  0  0  0  0  0  0  0  0
  152.6788  137.6664  154.7573 H   0  0  0  0  0  0  0  0  0  0  0  0
  147.6990  138.4081  152.7022 H   0  0  0  0  0  0  0  0  0  0  0  0
  146.2638  140.4330  152.5900 H   0  0  0  0  0  0  0  0  0  0  0  0
  146.8873  142.4851  153.8475 H   0  0  0  0  0  0  0  0  0  0  0  0
  148.9580  142.5212  155.2280 H   0  0  0  0  0  0  0  0  0  0  0  0
  152.4252  140.6547  156.4385 H   0  0  0  0  0  0  0  0  0  0  0  0
  151.6142  142.0080  155.7172 H   0  0  0  0  0  0  0  0  0  0  0  0
  149.6848  141.6491  157.3907 H   0  0  0  0  0  0  0  0  0  0  0  0
  149.7748  140.0415  158.6220 H   0  0  0  0  0  0  0  0  0  0  0  0
  151.8567  141.2851  160.0855 H   0  0  0  0  0  0  0  0  0  0  0  0
  152.8882  143.1356  161.3721 H   0  0  0  0  0  0  0  0  0  0  0  0
  152.9944  145.4244  160.4018 H   0  0  0  0  0  0  0  0  0  0  0  0
  152.0653  145.8573  158.1340 H   0  0  0  0  0  0  0  0  0  0  0  0
  151.0296  144.0129  156.8404 H   0  0  0  0  0  0  0  0  0  0  0  0
  1  2  1  0  0  0  0
  1 23  1  0  0  0  0
  1 24  1  0  0  0  0
  2  3  2  0  0  0  0
  2  4  1  0  0  0  0
  4  5  1  0  0  0  0
  4 25  1  0  0  0  0
  4 26  1  0  0  0  0
  5 13  1  0  0  0  0
  5  6  2  0  0  0  0
  6  7  1  0  0  0  0
  7 12  2  0  0  0  0
  7  8  1  0  0  0  0
  8  9  2  0  0  0  0
  8 27  1  0  0  0  0
  9 10  1  0  0  0  0
  9 28  1  0  0  0  0
 10 11  2  0  0  0  0
 10 29  1  0  0  0  0
 11 12  1  0  0  0  0
 11 30  1  0  0  0  0
 12 13  1  0  0  0  0
 13 14  1  0  0  0  0
 14 15  1  0  0  0  0
 14 31  1  0  0  0  0
 14 32  1  0  0  0  0
 15 16  1  0  0  0  0
 15 17  1  0  0  0  0
 15 33  1  0  0  0  0
 16 34  1  0  0  0  0
 17 22  1  0  0  0  0
 17 18  2  0  0  0  0
 18 19  1  0  0  0  0
 18 35  1  0  0  0  0
 19 20  2  0  0  0  0
 19 36  1  0  0  0  0
 20 21  1  0  0  0  0
 20 37  1  0  0  0  0
 21 22  2  0  0  0  0
 21 38  1  0  0  0  0
 22 39  1  0  0  0  0
M  END
> <s_m_source_file>
AV-unprocessed.smi

> <i_m_source_file_index>
1284

> <i_lp_mmshare_version>
43012

> <i_f3d_flags>
0

> <s_epik_input>
W2NIXTFbY0hdW2NIXVtjSF1jKGMxMiluKGMobjIpW0NIMl1DKD1PKVtOSDJdKVtDSDJdW0NASF0oW09IXSljM1tjSF1bY0hdW2NIXVtjSF1bY0hdMw==

> <s_epik_cmdline>
J2VwaWtfcHl0aG9uJywgJy1waCcsICc3LjAnLCAnLXRuJywgJzgnLCAnLW1hJywgJzIwMCcsICctbWV0YWxfYmluZGluZycsICctaW1hZScsICc8aW5maWxlLm1hZT4nLCAnLW9tYWUnLCAnPG91dGZpbGUubWFlPic=

> <r_epik_Ionization_Penalty>
0.0366899

> <r_epik_Ionization_Penalty_Charging>
0

> <r_epik_Ionization_Penalty_Neutral>
0.0366899

> <r_epik_State_Penalty>
0.0306642

> <r_epik_Charging_Adjusted_Penalty>
0.0306642

> <i_epik_Tot_Q>
0

> <i_epik_Tot_abs_Q>
0

> <r_epik_Metal_State_Penalty>
0.028853

> <b_epik_Metal_Only>
0

> <s_lp_Force_Field>
OPLS_2005

> <r_lp_Energy>
12.7879

> <b_lp_Chiralities_Consistent>
1

> <s_lp_Variant>
AV-unprocessed.smi:1284-2

> <Gold.Version>
5.8.1

> <Gold.Id.Protein>
6NUR|6NUR_protein|mol2

> <Gold.PLP.Fitness>
48.3107

> <Gold.PLP.PLP>
-45.8487

> <Gold.PLP.part.hbond>
-1.0000

> <Gold.PLP.part.metal>
0.0000

> <Gold.PLP.part.buried>
0.3612

> <Gold.PLP.part.nonpolar>
-44.4646

> <Gold.PLP.part.repulsive>
0.3016

> <Gold.PLP.ligand.clash>
0.0000

> <Gold.PLP.ligand.torsion>
0.2817

> <Gold.PLP.Chemscore.Hbond>
1.0000

> <Gold.PLP.Chemscore.CHOScore>
0.0000

> <Gold.PLP.Chemscore.Metal>
0.0000

> <Gold.Chemscore.Hbonds>
donor molecule, donor type, donor heavy atom, donor atom, acceptor molecule, acceptor atom, score
      P1  H 10752 10765       L1     3  1.00

> <Gold.PLP.Chemscore.Internal.Correction>
0.0256

> <Gold.Rescore>
     Score         DG    S(hbond)    S(metal)    S(lipo)     H(rot)  DE(clash)    DE(int)     intcor
     14.57     -16.82       0.96        0.00     132.00       2.86       0.52       1.73       ----

> <Gold.Chemscore.Fitness>
14.5660

> <Gold.Chemscore.DG>
-16.8210

> <Gold.Chemscore.ZeroCoef>
-5.4800

> <Gold.Chemscore.Hbond>
0.9640

> <Gold.Chemscore.Metal>
0.0000

> <Gold.Chemscore.Lipo>
132.0041

> <Gold.Chemscore.Internal_Hbond>
0.0000

> <Gold.Chemscore.DEClash>
0.5202

> <Gold.Chemscore.DEInternal>
1.7348

> <Gold.Chemscore.Rot>
2.8606

> <Gold.Chemscore.Internal.Correction>
   9.000000E+99

> <Gold.Chemscore.Hbonds>
donor molecule, donor type, donor heavy atom, donor atom, acceptor molecule, acceptor atom, score
      P1  H 10752 10765       L1     3  0.89

> <Gold.Chemscore.Hbond.Weighted>
-3.2197

> <Gold.Chemscore.Metal.Weighted>
-0.0000

> <Gold.Chemscore.Lipo.Weighted>
-15.4445

> <Gold.Chemscore.Internal_Hbond.Weighted>
0.0000

> <Gold.Chemscore.DEClash.Weighted>
0.5202

> <Gold.Chemscore.DEInternal.Weighted>
1.7348

> <Gold.Chemscore.Rot.Weighted>
7.3231

> <Gold.Chemscore.Internal.Correction.Weighted>
   9.000000E+99

> <Gold.Protein.RotatedTorsions>
[ 6907 6896 6895 6894 ] final   73.12 input  -60.11 | X-H torsion
[ 7974 7965 7964 7962 ] final    0.62 input  175.53 | X-H torsion
[ 8008 7997 7996 7995 ] final  142.72 input   59.86 | X-H torsion
[ 10167 10162 10161 10158 ] final -131.85 input  -65.29 | X-H torsion
[ 10718 10713 10712 10709 ] final  100.65 input   66.30 | X-H torsion
[ 10763 10752 10751 10750 ] final -163.00 input  -60.55 | X-H torsion
[ 11005 11000 10999 10996 ] final  -96.55 input  -57.11 | X-H torsion

> <Gold.Protein.ActiveResidues>
 VAL166  LYS551  ARG553  GLY616  TRP617  ASP618  TYR619  PRO620  LYS621  CYS622 
 ASP623  PHE694  ASN695  SER759  ASP760  ASP761  ALA762  ILE779  LEU786  VAL792 
 PHE793  MET794  SER795  GLU796  ALA797  LYS798  CYS799  TRP800  GLU811  SER814 

> <Gold.Protein.RotatedAtoms>
  152.4906  134.4469  159.9561 H   0  0  0  0  0  0  0  0  0  0  0  0  # atno 6907 bound_to 6896
  151.4457  133.3625  159.2796 H   0  0  0  0  0  0  0  0  0  0  0  0  # atno 6908 bound_to 6896
  150.9056  134.8495  159.7450 H   0  0  0  0  0  0  0  0  0  0  0  0  # atno 6909 bound_to 6896
  146.2435  140.1110  142.8344 H   0  0  0  0  0  0  0  0  0  0  0  0  # atno 7974 bound_to 7965
  156.2944  140.2281  156.4774 H   0  0  0  0  0  0  0  0  0  0  0  0  # atno 8008 bound_to 7997
  154.7883  140.0456  157.1202 H   0  0  0  0  0  0  0  0  0  0  0  0  # atno 8009 bound_to 7997
  154.9676  140.3062  155.5006 H   0  0  0  0  0  0  0  0  0  0  0  0  # atno 8010 bound_to 7997
  139.9146  143.6453  152.2567 H   0  0  0  0  0  0  0  0  0  0  0  0  # atno 10167 bound_to 10162
  157.6849  131.0704  150.5133 H   0  0  0  0  0  0  0  0  0  0  0  0  # atno 10718 bound_to 10713
  154.7163  135.3016  154.9119 H   0  0  0  0  0  0  0  0  0  0  0  0  # atno 10763 bound_to 10752
  154.0005  135.6707  153.4763 H   0  0  0  0  0  0  0  0  0  0  0  0  # atno 10764 bound_to 10752
  153.0796  135.5016  154.8391 H   0  0  0  0  0  0  0  0  0  0  0  0  # atno 10765 bound_to 10752
  141.1408  133.8106  157.0586 H   0  0  0  0  0  0  0  0  0  0  0  0  # atno 11005 bound_to 11000
  145.0487  140.9001  143.5008 LP  0  0  0  0  0  0  0  0  0  0  0  0  # atno 17320 bound_to 7965
  145.1204  139.2697  143.5591 LP  0  0  0  0  0  0  0  0  0  0  0  0  # atno 17321 bound_to 7965
  139.6913  144.7646  151.1434 LP  0  0  0  0  0  0  0  0  0  0  0  0  # atno 17342 bound_to 10162
  140.7677  143.5585  150.9125 LP  0  0  0  0  0  0  0  0  0  0  0  0  # atno 17343 bound_to 10162
  156.5449  130.4217  149.6136 LP  0  0  0  0  0  0  0  0  0  0  0  0  # atno 17370 bound_to 10713
  156.2953  130.7147  151.2005 LP  0  0  0  0  0  0  0  0  0  0  0  0  # atno 17371 bound_to 10713
  140.0585  134.9767  157.1264 LP  0  0  0  0  0  0  0  0  0  0  0  0  # atno 17394 bound_to 11000
  140.3883  134.2212  155.7167 LP  0  0  0  0  0  0  0  0  0  0  0  0  # atno 17395 bound_to 11000

$$$$
