AV-unprocessed.smi:644|AV-procd|sdf|3158|dock7
  -GOLD-   22720 0 83D 1   1.00000     0.00000
 Structure written by MMmdl.
 38 40  0  0  0  0  0  0  0  0  2 V2000
  152.9718  142.8835  161.6862 C   0  0  0  0  0  0  0  0  0  0  0  0
  152.4617  142.5448  160.2958 C   0  0  0  0  0  0  0  0  0  0  0  0
  152.5599  141.2078  159.8482 C   0  0  0  0  0  0  0  0  0  0  0  0
  152.0865  140.9298  158.5713 C   0  0  0  0  0  0  0  0  0  0  0  0
  152.0431  139.7345  157.8498 N   0  3  0  0  0  0  0  0  0  0  0  0
  151.4867  139.9614  156.6274 C   0  0  0  0  0  0  0  0  0  0  0  0
  151.1736  141.2837  156.5595 N   0  0  0  0  0  0  0  0  0  0  0  0
  150.5633  142.0558  155.4695 C   0  0  0  0  0  0  0  0  0  0  0  0
  149.3528  141.3410  154.8387 C   0  0  1  0  0  0  0  0  0  0  0  0
  149.8094  140.3050  153.9899 O   0  0  0  0  0  0  0  0  0  0  0  0
  148.4140  140.7517  155.9030 C   0  0  0  0  0  0  0  0  0  0  0  0
  146.8896  140.0825  155.1688 S   0  0  0  0  0  0  0  0  0  0  0  0
  145.9520  141.5663  154.9888 C   0  0  0  0  0  0  0  0  0  0  0  0
  144.7921  141.8288  155.6085 N   0  0  0  0  0  0  0  0  0  0  0  0
  144.2844  143.0769  155.2734 N   0  0  0  0  0  0  0  0  0  0  0  0
  145.0812  143.7127  154.4112 C   0  0  0  0  0  0  0  0  0  0  0  0
  146.5272  142.8465  153.9272 S   0  0  0  0  0  0  0  0  0  0  0  0
  151.5292  141.9276  157.7486 C   0  0  0  0  0  0  0  0  0  0  0  0
  151.4238  143.2494  158.1735 C   0  0  0  0  0  0  0  0  0  0  0  0
  151.9007  143.5527  159.4688 C   0  0  0  0  0  0  0  0  0  0  0  0
  151.8006  144.9871  159.9597 C   0  0  0  0  0  0  0  0  0  0  0  0
  153.3742  142.0037  162.1891 H   0  0  0  0  0  0  0  0  0  0  0  0
  152.1657  143.2805  162.3038 H   0  0  0  0  0  0  0  0  0  0  0  0
  153.7663  143.6281  161.6320 H   0  0  0  0  0  0  0  0  0  0  0  0
  152.9866  140.4356  160.4717 H   0  0  0  0  0  0  0  0  0  0  0  0
  151.3277  139.2274  155.8505 H   0  0  0  0  0  0  0  0  0  0  0  0
  150.2627  143.0212  155.8795 H   0  0  0  0  0  0  0  0  0  0  0  0
  151.3306  142.2619  154.7223 H   0  0  0  0  0  0  0  0  0  0  0  0
  148.7936  142.0518  154.2295 H   0  0  0  0  0  0  0  0  0  0  0  0
  149.3775  140.3922  153.1534 H   0  0  0  0  0  0  0  0  0  0  0  0
  148.9234  139.9677  156.4652 H   0  0  0  0  0  0  0  0  0  0  0  0
  148.1367  141.5305  156.6143 H   0  0  0  0  0  0  0  0  0  0  0  0
  144.8157  144.6980  154.0579 H   0  0  0  0  0  0  0  0  0  0  0  0
  150.9980  144.0154  157.5423 H   0  0  0  0  0  0  0  0  0  0  0  0
  151.3582  145.6374  159.2047 H   0  0  0  0  0  0  0  0  0  0  0  0
  152.7889  145.3802  160.1990 H   0  0  0  0  0  0  0  0  0  0  0  0
  151.1788  145.0435  160.8536 H   0  0  0  0  0  0  0  0  0  0  0  0
  152.3708  138.8300  158.1640 H   0  0  0  0  0  0  0  0  0  0  0  0
  1  2  1  0  0  0  0
  1 22  1  0  0  0  0
  1 23  1  0  0  0  0
  1 24  1  0  0  0  0
  2 20  1  0  0  0  0
  2  3  2  0  0  0  0
  3  4  1  0  0  0  0
  3 25  1  0  0  0  0
  4 18  2  0  0  0  0
  4  5  1  0  0  0  0
  5  6  2  0  0  0  0
  5 38  1  0  0  0  0
  6  7  1  0  0  0  0
  6 26  1  0  0  0  0
  7  8  1  0  0  0  0
  7 18  1  0  0  0  0
  8  9  1  0  0  0  0
  8 27  1  0  0  0  0
  8 28  1  0  0  0  0
  9 10  1  0  0  0  0
  9 11  1  0  0  0  0
  9 29  1  0  0  0  0
 10 30  1  0  0  0  0
 11 12  1  0  0  0  0
 11 31  1  0  0  0  0
 11 32  1  0  0  0  0
 12 13  1  0  0  0  0
 13 17  1  0  0  0  0
 13 14  2  0  0  0  0
 14 15  1  0  0  0  0
 15 16  2  0  0  0  0
 16 17  1  0  0  0  0
 16 33  1  0  0  0  0
 18 19  1  0  0  0  0
 19 20  2  0  0  0  0
 19 34  1  0  0  0  0
 20 21  1  0  0  0  0
 21 35  1  0  0  0  0
 21 36  1  0  0  0  0
 21 37  1  0  0  0  0
M  CHG  1   5   1
M  END
> <s_m_source_file>
AV-unprocessed.smi

> <i_m_source_file_index>
644

> <i_lp_mmshare_version>
43012

> <i_f3d_flags>
0

> <s_epik_input>
W0NIM11jKFtjSF0xKWMoW0NIM10pW2NIXWMoYzEyKW4oW2NIXW4yKVtDSDJdW0NASF0oW09IXSlbQ0gyXVNjM25uW2NIXXMz

> <s_epik_cmdline>
J2VwaWtfcHl0aG9uJywgJy1waCcsICc3LjAnLCAnLXRuJywgJzgnLCAnLW1hJywgJzIwMCcsICctbWV0YWxfYmluZGluZycsICctaW1hZScsICc8aW5maWxlLm1hZT4nLCAnLW9tYWUnLCAnPG91dGZpbGUubWFlPic=

> <r_lp_tautomer_probability>
1

> <r_epik_Ionization_Penalty>
1.07492

> <r_epik_Ionization_Penalty_Charging>
1.07491

> <r_epik_Ionization_Penalty_Neutral>
3.80549e-06

> <r_epik_State_Penalty>
1.12982

> <r_epik_Charging_Adjusted_Penalty>
2.20473

> <i_epik_Tot_Q>
1

> <i_epik_Tot_abs_Q>
1

> <r_epik_Metal_State_Penalty>
1.2206

> <b_epik_Metal_Only>
0

> <s_lp_Force_Field>
OPLS_2005

> <r_lp_Energy>
12.6095

> <b_lp_Chiralities_Consistent>
1

> <s_lp_Variant>
AV-unprocessed.smi:644-4

> <Gold.Version>
5.8.1

> <Gold.Id.Protein>
6NUR|6NUR_protein|mol2

> <Gold.PLP.Fitness>
47.1054

> <Gold.PLP.PLP>
-43.1174

> <Gold.PLP.part.hbond>
-2.0000

> <Gold.PLP.part.metal>
0.0000

> <Gold.PLP.part.buried>
-5.3659

> <Gold.PLP.part.nonpolar>
-35.7117

> <Gold.PLP.part.repulsive>
0.3454

> <Gold.PLP.ligand.clash>
0.0000

> <Gold.PLP.ligand.torsion>
0.4501

> <Gold.PLP.Chemscore.Hbond>
1.6096

> <Gold.PLP.Chemscore.CHOScore>
0.0000

> <Gold.PLP.Chemscore.Metal>
0.0000

> <Gold.Chemscore.Hbonds>
donor molecule, donor type, donor heavy atom, donor atom, acceptor molecule, acceptor atom, score
      L1  H    10    30       P1  7957  0.86
      P1  H  7989  7998       L1    10  0.71

> <Gold.PLP.Chemscore.Internal.Correction>
0.0594

> <Gold.Rescore>
     Score         DG    S(hbond)    S(metal)    S(lipo)     H(rot)  DE(clash)    DE(int)     intcor
     14.43     -16.29       0.96        0.00     120.40       2.53       1.35       0.51       ----

> <Gold.Chemscore.Fitness>
14.4319

> <Gold.Chemscore.DG>
-16.2946

> <Gold.Chemscore.ZeroCoef>
-5.4800

> <Gold.Chemscore.Hbond>
0.9606

> <Gold.Chemscore.Metal>
0.0000

> <Gold.Chemscore.Lipo>
120.3996

> <Gold.Chemscore.Internal_Hbond>
0.0000

> <Gold.Chemscore.DEClash>
1.3548

> <Gold.Chemscore.DEInternal>
0.5078

> <Gold.Chemscore.Rot>
2.5315

> <Gold.Chemscore.Internal.Correction>
   9.000000E+99

> <Gold.Chemscore.Hbonds>
donor molecule, donor type, donor heavy atom, donor atom, acceptor molecule, acceptor atom, score
      L1  H    10    30       P1  7957  0.78
      P1  H  7989  7998       L1    10  0.07

> <Gold.Chemscore.Hbond.Weighted>
-3.2084

> <Gold.Chemscore.Metal.Weighted>
-0.0000

> <Gold.Chemscore.Lipo.Weighted>
-14.0868

> <Gold.Chemscore.Internal_Hbond.Weighted>
0.0000

> <Gold.Chemscore.DEClash.Weighted>
1.3548

> <Gold.Chemscore.DEInternal.Weighted>
0.5078

> <Gold.Chemscore.Rot.Weighted>
6.4805

> <Gold.Chemscore.Internal.Correction.Weighted>
   9.000000E+99

> <Gold.Protein.RotatedTorsions>
[ 6907 6896 6895 6894 ] final   18.01 input  -60.11 | X-H torsion
[ 7974 7965 7964 7962 ] final  -24.85 input  175.53 | X-H torsion
[ 8008 7997 7996 7995 ] final   18.96 input   59.86 | X-H torsion
[ 10167 10162 10161 10158 ] final  -43.99 input  -65.29 | X-H torsion
[ 10718 10713 10712 10709 ] final   55.81 input   66.30 | X-H torsion
[ 10763 10752 10751 10750 ] final  166.21 input  -60.55 | X-H torsion
[ 11005 11000 10999 10996 ] final   57.06 input  -57.11 | X-H torsion

> <Gold.Protein.ActiveResidues>
 VAL166  LYS551  ARG553  GLY616  TRP617  ASP618  TYR619  PRO620  LYS621  CYS622 
 ASP623  PHE694  ASN695  SER759  ASP760  ASP761  ALA762  ILE779  LEU786  VAL792 
 PHE793  MET794  SER795  GLU796  ALA797  LYS798  CYS799  TRP800  GLU811  SER814 

> <Gold.Protein.RotatedAtoms>
  151.8586  135.0532  160.0466 H   0  0  0  0  0  0  0  0  0  0  0  0  # atno 6907 bound_to 6896
  152.2680  133.5352  159.5430 H   0  0  0  0  0  0  0  0  0  0  0  0  # atno 6908 bound_to 6896
  150.7141  134.0653  159.3888 H   0  0  0  0  0  0  0  0  0  0  0  0  # atno 6909 bound_to 6896
  146.1528  140.4807  142.8604 H   0  0  0  0  0  0  0  0  0  0  0  0  # atno 7974 bound_to 7965
  154.9137  140.3017  155.5252 H   0  0  0  0  0  0  0  0  0  0  0  0  # atno 8008 bound_to 7997
  156.3013  140.2384  156.4115 H   0  0  0  0  0  0  0  0  0  0  0  0  # atno 8009 bound_to 7997
  154.8400  140.0414  157.1523 H   0  0  0  0  0  0  0  0  0  0  0  0  # atno 8010 bound_to 7997
  140.6914  143.2954  151.3431 H   0  0  0  0  0  0  0  0  0  0  0  0  # atno 10167 bound_to 10162
  157.5377  130.8675  149.8777 H   0  0  0  0  0  0  0  0  0  0  0  0  # atno 10718 bound_to 10713
  154.3356  135.2754  155.2449 H   0  0  0  0  0  0  0  0  0  0  0  0  # atno 10763 bound_to 10752
  154.4742  135.5875  153.6347 H   0  0  0  0  0  0  0  0  0  0  0  0  # atno 10764 bound_to 10752
  152.9862  135.6095  154.3552 H   0  0  0  0  0  0  0  0  0  0  0  0  # atno 10765 bound_to 10752
  140.0481  134.5776  155.9297 H   0  0  0  0  0  0  0  0  0  0  0  0  # atno 11005 bound_to 11000
  144.7926  140.6061  143.6531 LP  0  0  0  0  0  0  0  0  0  0  0  0  # atno 17320 bound_to 7965
  145.4780  139.1497  143.3777 LP  0  0  0  0  0  0  0  0  0  0  0  0  # atno 17321 bound_to 7965
  139.6320  144.0702  152.2484 LP  0  0  0  0  0  0  0  0  0  0  0  0  # atno 17342 bound_to 10162
  140.0180  144.6174  150.7591 LP  0  0  0  0  0  0  0  0  0  0  0  0  # atno 17343 bound_to 10162
  156.0471  130.3725  150.1290 LP  0  0  0  0  0  0  0  0  0  0  0  0  # atno 17370 bound_to 10713
  156.9471  130.9763  151.3505 LP  0  0  0  0  0  0  0  0  0  0  0  0  # atno 17371 bound_to 10713
  141.1917  133.6572  156.5468 LP  0  0  0  0  0  0  0  0  0  0  0  0  # atno 17394 bound_to 11000
  140.3961  134.7397  157.4751 LP  0  0  0  0  0  0  0  0  0  0  0  0  # atno 17395 bound_to 11000

$$$$
