#       Name:                AV-unprocessed.smi:58
#       Creating user name   scv26
#       Creation time:       Thu Mar 26 16:48:22 2020


#       File generated by GOLD software.
#

@<TRIPOS>MOLECULE
AV-unprocessed.smi:58
    37    38     1
SMALL
NO_CHARGES


@<TRIPOS>ATOM
      1 ****        -4.2904   1.3661  -1.0252 C.3            1 S1                 0.0000
      2 ****        -3.1986   0.4170  -1.0486 N.pl3          1 S1                 0.0000
      3 ****        -3.2538  -0.9562  -1.1423 C.2            1 S1                 0.0000
      4 ****        -1.9683  -1.4181  -1.1329 C.2            1 S1                 0.0000
      5 ****        -1.5813  -2.7716  -1.2226 N.pl3          1 S1                 0.0000
      6 ****        -1.1804  -0.2313  -1.0052 C.2            1 S1                 0.0000
      7 ****         0.3223  -0.2896  -1.0008 C.2            1 S1                 0.0000
      8 ****         0.9035  -0.9146  -1.8888 O.2            1 S1                 0.0000
      9 ****         0.9760   0.3132   0.0204 N.am           1 S1                 0.0000
     10 ****         0.3552   1.0933   1.0943 C.3            1 S1                 0.0000
     11 ****         1.4802   1.4548   2.0615 C.3            1 S1                 0.0000
     12 ****         2.7310   1.4112   1.1972 C.3            1 S1                 0.0000
     13 ****         2.4385   0.3169   0.1617 C.3            1 S1                 0.0000
     14 ****         2.9610  -1.0685   0.6043 C.3            1 S1                 0.0000
     15 ****         4.3710  -1.1046   0.5403 O.3            1 S1                 0.0000
     16 ****        -1.9287   0.8642  -0.9800 N.2            1 S1                 0.0000
     17 ****        -5.2442   0.8399  -1.0709 H              1 S1                 0.0000
     18 ****        -4.2145   2.0371  -1.8813 H              1 S1                 0.0000
     19 ****        -4.2519   1.9510  -0.1057 H              1 S1                 0.0000
     20 ****        -4.1933  -1.4848  -1.2133 H              1 S1                 0.0000
     21 ****        -2.2636  -3.5123  -1.3027 H              1 S1                 0.0000
     22 ****        -0.6288  -3.0639  -1.0576 H              1 S1                 0.0000
     23 ****        -0.0751   2.0034   0.6743 H              1 S1                 0.0000
     24 ****        -0.4374   0.5398   1.5999 H              1 S1                 0.0000
     25 ****         1.3309   2.4222   2.5417 H              1 S1                 0.0000
     26 ****         1.5486   0.6994   2.8453 H              1 S1                 0.0000
     27 ****         2.8506   2.3687   0.6884 H              1 S1                 0.0000
     28 ****         3.6378   1.2346   1.7766 H              1 S1                 0.0000
     29 ****         2.8952   0.5877  -0.7924 H              1 S1                 0.0000
     30 ****         2.6359  -1.3067   1.6176 H              1 S1                 0.0000
     31 ****         2.5846  -1.8591  -0.0446 H              1 S1                 0.0000
     32 ****         4.6614  -1.9663   0.7981 H              1 S1                 0.0000
     33 ****         0.3764  -1.3763  -2.6023 LP             1 S1                 0.0000
     34 ****         1.9024  -0.9604  -1.8963 LP             1 S1                 0.0000
     35 ****         4.7543  -0.4201   1.1603 LP             1 S1                 0.0000
     36 ****         4.6711  -0.9132  -0.3942 LP             1 S1                 0.0000
     37 ****        -1.6187   1.8132  -0.9227 LP             1 S1                 0.0000
@<TRIPOS>BOND
    1    1    2 1     
    2    1   17 1     
    3    1   18 1     
    4    1   19 1     
    5    2   16 1     
    6    2    3 1     
    7    3    4 2     
    8    3   20 1     
    9    4    5 1     
   10    4    6 1     
   11    5   21 1     
   12    5   22 1     
   13    6    7 1     
   14    6   16 2     
   15    7    8 2     
   16    7    9 am    
   17    9   13 1     
   18    9   10 1     
   19   10   11 1     
   20   10   23 1     
   21   10   24 1     
   22   11   12 1     
   23   11   25 1     
   24   11   26 1     
   25   12   13 1     
   26   12   27 1     
   27   12   28 1     
   28   13   14 1     
   29   13   29 1     
   30   14   15 1     
   31   14   30 1     
   32   14   31 1     
   33   15   32 1     
   34    8   33 1     
   35    8   34 1     
   36   15   35 1     
   37   15   36 1     
   38   16   37 1     
@<TRIPOS>SUBSTRUCTURE
      1 S1             1
@<TRIPOS>SET
LONE_PAIRS      STATIC     ATOMS    <user>   **** ""
5 33 34 35 36 37
DONOR_HYDROGENS      STATIC     ATOMS    <user>   **** ""
3 21 22 32
ATOM$BLUE        STATIC     ATOMS    COLORGROUP SYSTEM
5 33 34 35 36 37
ATOM$RED        STATIC     ATOMS    COLORGROUP SYSTEM
3 21 22 32
