AV-unprocessed.smi:1041|AV-procd|sdf|4533|dock8
  -GOLD-   22720 2553D 1   1.00000     0.00000
 Structure written by MMmdl.
 52 53  0  0  0  0  0  0  0  0  3 V2000
  143.9789  132.7656  149.1853 C   0  0  0  0  0  0  0  0  0  0  0  0
  144.0025  133.9181  150.0094 O   0  0  0  0  0  0  0  0  0  0  0  0
  144.4178  133.6318  151.3347 C   0  0  0  0  0  0  0  0  0  0  0  0
  145.9441  133.7824  151.4211 C   0  0  0  0  0  0  0  0  0  0  0  0
  146.3558  135.1328  151.8823 N   0  3  2  0  0  0  0  0  0  0  0  0
  146.0561  135.3500  153.3203 C   0  0  0  0  0  0  0  0  0  0  0  0
  146.6203  136.6931  153.8071 C   0  0  0  0  0  0  0  0  0  0  0  0
  146.0777  137.8691  152.9682 C   0  0  1  0  0  0  0  0  0  0  0  0
  146.6308  139.2391  153.4132 C   0  0  0  0  0  0  0  0  0  0  0  0
  148.0869  139.2117  153.4552 N   0  0  0  0  0  0  0  0  0  0  0  0
  148.8408  139.2909  154.5617 C   0  0  0  0  0  0  0  0  0  0  0  0
  148.3999  139.1673  155.7040 O   0  0  0  0  0  0  0  0  0  0  0  0
  150.3117  139.6350  154.3327 C   0  0  0  0  0  0  0  0  0  0  0  0
  151.0614  140.0010  155.6142 C   0  0  0  0  0  0  0  0  0  0  0  0
  152.2081  139.3804  156.0144 C   0  0  0  0  0  0  0  0  0  0  0  0
  152.8799  138.2829  155.2081 C   0  0  0  0  0  0  0  0  0  0  0  0
  152.8312  139.7170  157.2280 N   0  0  0  0  0  0  0  0  0  0  0  0
  152.3068  140.6080  157.9795 C   0  0  0  0  0  0  0  0  0  0  0  0
  152.9823  140.9640  159.2866 C   0  0  0  0  0  0  0  0  0  0  0  0
  151.1467  141.2839  157.6753 N   0  5  0  0  0  0  0  0  0  0  0  0
  150.4934  141.0283  156.5067 C   0  0  0  0  0  0  0  0  0  0  0  0
  149.4545  141.6115  156.1988 O   0  0  0  0  0  0  0  0  0  0  0  0
  146.3735  137.5973  151.4840 C   0  0  0  0  0  0  0  0  0  0  0  0
  145.8150  136.2343  151.0418 C   0  0  0  0  0  0  0  0  0  0  0  0
  143.6584  133.0406  148.1806 H   0  0  0  0  0  0  0  0  0  0  0  0
  143.2804  132.0207  149.5691 H   0  0  0  0  0  0  0  0  0  0  0  0
  144.9683  132.3127  149.1103 H   0  0  0  0  0  0  0  0  0  0  0  0
  143.9089  134.2804  152.0478 H   0  0  0  0  0  0  0  0  0  0  0  0
  144.1425  132.6063  151.5858 H   0  0  0  0  0  0  0  0  0  0  0  0
  146.3662  133.0253  152.0837 H   0  0  0  0  0  0  0  0  0  0  0  0
  146.3580  133.5872  150.4307 H   0  0  0  0  0  0  0  0  0  0  0  0
  144.9774  135.3134  153.4809 H   0  0  0  0  0  0  0  0  0  0  0  0
  146.4924  134.5464  153.9151 H   0  0  0  0  0  0  0  0  0  0  0  0
  146.3600  136.8155  154.8581 H   0  0  0  0  0  0  0  0  0  0  0  0
  147.7100  136.6748  153.7605 H   0  0  0  0  0  0  0  0  0  0  0  0
  144.9937  137.8954  153.0931 H   0  0  0  0  0  0  0  0  0  0  0  0
  146.2629  140.0279  152.7553 H   0  0  0  0  0  0  0  0  0  0  0  0
  146.2708  139.4787  154.4140 H   0  0  0  0  0  0  0  0  0  0  0  0
  148.5621  139.3059  152.5684 H   0  0  0  0  0  0  0  0  0  0  0  0
  150.7991  138.7833  153.8580 H   0  0  0  0  0  0  0  0  0  0  0  0
  150.3831  140.4399  153.6001 H   0  0  0  0  0  0  0  0  0  0  0  0
  153.1849  138.6575  154.2308 H   0  0  0  0  0  0  0  0  0  0  0  0
  152.2005  137.4429  155.0637 H   0  0  0  0  0  0  0  0  0  0  0  0
  153.7701  137.9085  155.7151 H   0  0  0  0  0  0  0  0  0  0  0  0
  153.4745  141.9333  159.2029 H   0  0  0  0  0  0  0  0  0  0  0  0
  153.7326  140.2193  159.5559 H   0  0  0  0  0  0  0  0  0  0  0  0
  152.2508  141.0155  160.0938 H   0  0  0  0  0  0  0  0  0  0  0  0
  145.9414  138.3863  150.8673 H   0  0  0  0  0  0  0  0  0  0  0  0
  147.4502  137.6243  151.3095 H   0  0  0  0  0  0  0  0  0  0  0  0
  146.0698  136.0748  149.9950 H   0  0  0  0  0  0  0  0  0  0  0  0
  144.7255  136.2390  151.1035 H   0  0  0  0  0  0  0  0  0  0  0  0
  147.3624  135.1640  151.8010 H   0  0  0  0  0  0  0  0  0  0  0  0
  1  2  1  0  0  0  0
  1 25  1  0  0  0  0
  1 26  1  0  0  0  0
  1 27  1  0  0  0  0
  2  3  1  0  0  0  0
  3  4  1  0  0  0  0
  3 28  1  0  0  0  0
  3 29  1  0  0  0  0
  4  5  1  0  0  0  0
  4 30  1  0  0  0  0
  4 31  1  0  0  0  0
  5 24  1  0  0  0  0
  5  6  1  0  0  0  0
  5 52  1  0  0  0  0
  6  7  1  0  0  0  0
  6 32  1  0  0  0  0
  6 33  1  0  0  0  0
  7  8  1  0  0  0  0
  7 34  1  0  0  0  0
  7 35  1  0  0  0  0
  8  9  1  0  0  0  0
  8 23  1  0  0  0  0
  8 36  1  0  0  0  0
  9 10  1  0  0  0  0
  9 37  1  0  0  0  0
  9 38  1  0  0  0  0
 10 11  1  0  0  0  0
 10 39  1  0  0  0  0
 11 12  2  0  0  0  0
 11 13  1  0  0  0  0
 13 14  1  0  0  0  0
 13 40  1  0  0  0  0
 13 41  1  0  0  0  0
 14 21  1  0  0  0  0
 14 15  2  0  0  0  0
 15 16  1  0  0  0  0
 15 17  1  0  0  0  0
 16 42  1  0  0  0  0
 16 43  1  0  0  0  0
 16 44  1  0  0  0  0
 17 18  2  0  0  0  0
 18 19  1  0  0  0  0
 18 20  1  0  0  0  0
 19 45  1  0  0  0  0
 19 46  1  0  0  0  0
 19 47  1  0  0  0  0
 20 21  1  0  0  0  0
 21 22  2  0  0  0  0
 23 24  1  0  0  0  0
 23 48  1  0  0  0  0
 23 49  1  0  0  0  0
 24 50  1  0  0  0  0
 24 51  1  0  0  0  0
M  CHG  1   5   1
M  CHG  1  20  -1
M  END
> <s_m_source_file>
AV-unprocessed.smi

> <i_m_source_file_index>
1041

> <i_lp_mmshare_version>
43012

> <i_f3d_flags>
0

> <s_epik_input>
W0NIM11PW0NIMl1bQ0gyXU4xW0NIMl1bQ0gyXVtDSF0oW0NIMl1bQ0gyXTEpW0NIMl1bTkhdQyg9TylbQ0gyXWMyYyhbQ0gzXSluYyhbQ0gzXSlbbkhdYzI9Tw==

> <s_epik_cmdline>
J2VwaWtfcHl0aG9uJywgJy1waCcsICc3LjAnLCAnLXRuJywgJzgnLCAnLW1hJywgJzIwMCcsICctbWV0YWxfYmluZGluZycsICctaW1hZScsICc8aW5maWxlLm1hZT4nLCAnLW9tYWUnLCAnPG91dGZpbGUubWFlPic=

> <r_lp_tautomer_probability>
0.839158

> <r_epik_Ionization_Penalty>
6.54961

> <r_epik_Ionization_Penalty_Charging>
0.00968647

> <r_epik_Ionization_Penalty_Neutral>
6.53992

> <r_epik_State_Penalty>
4.43892

> <r_epik_Charging_Adjusted_Penalty>
4.44861

> <i_epik_Tot_Q>
0

> <i_epik_Tot_abs_Q>
2

> <r_epik_Metal_State_Penalty>
0.818645

> <b_epik_Metal_Only>
1

> <s_lp_Force_Field>
OPLS_2005

> <r_lp_Energy>
18.5529

> <b_lp_Chiralities_Consistent>
1

> <s_lp_Variant>
AV-unprocessed.smi:1041-6

> <Gold.Version>
5.8.1

> <Gold.Id.Protein>
6NUR|6NUR_protein|mol2

> <Gold.PLP.Fitness>
47.0817

> <Gold.PLP.PLP>
-36.3080

> <Gold.PLP.part.hbond>
-3.0000

> <Gold.PLP.part.metal>
0.0000

> <Gold.PLP.part.buried>
2.5356

> <Gold.PLP.part.nonpolar>
-35.6570

> <Gold.PLP.part.repulsive>
0.6085

> <Gold.PLP.ligand.clash>
0.0000

> <Gold.PLP.ligand.torsion>
0.6744

> <Gold.PLP.Chemscore.Hbond>
3.9840

> <Gold.PLP.Chemscore.CHOScore>
0.0000

> <Gold.PLP.Chemscore.Metal>
0.0000

> <Gold.Chemscore.Hbonds>
donor molecule, donor type, donor heavy atom, donor atom, acceptor molecule, acceptor atom, score
      L1  H     5    52       P1  7948  1.95
      L1  H    10    39       P1  7957  1.00
      P1  H  7997  8008       L1    17  1.00

> <Gold.PLP.Chemscore.Internal.Correction>
0.1704

> <Gold.Rescore>
     Score         DG    S(hbond)    S(metal)    S(lipo)     H(rot)  DE(clash)    DE(int)     intcor
     12.76     -18.57       2.55        0.00      90.64       2.35       1.13       4.67       ----

> <Gold.Chemscore.Fitness>
12.7614

> <Gold.Chemscore.DG>
-18.5658

> <Gold.Chemscore.ZeroCoef>
-5.4800

> <Gold.Chemscore.Hbond>
2.5457

> <Gold.Chemscore.Metal>
0.0000

> <Gold.Chemscore.Lipo>
90.6361

> <Gold.Chemscore.Internal_Hbond>
0.0000

> <Gold.Chemscore.DEClash>
1.1320

> <Gold.Chemscore.DEInternal>
4.6725

> <Gold.Chemscore.Rot>
2.3520

> <Gold.Chemscore.Internal.Correction>
   9.000000E+99

> <Gold.Chemscore.Hbonds>
donor molecule, donor type, donor heavy atom, donor atom, acceptor molecule, acceptor atom, score
      L1  H     5    52       P1  7948  0.88
      L1  H    10    39       P1  7957  1.00
      P1  H  7997  8008       L1    17  0.31

> <Gold.Chemscore.Hbond.Weighted>
-8.5025

> <Gold.Chemscore.Metal.Weighted>
-0.0000

> <Gold.Chemscore.Lipo.Weighted>
-10.6044

> <Gold.Chemscore.Internal_Hbond.Weighted>
0.0000

> <Gold.Chemscore.DEClash.Weighted>
1.1320

> <Gold.Chemscore.DEInternal.Weighted>
4.6725

> <Gold.Chemscore.Rot.Weighted>
6.0211

> <Gold.Chemscore.Internal.Correction.Weighted>
   9.000000E+99

> <Gold.Protein.RotatedTorsions>
[ 6907 6896 6895 6894 ] final -118.60 input  -60.11 | X-H torsion
[ 7974 7965 7964 7962 ] final -150.52 input  175.53 | X-H torsion
[ 8008 7997 7996 7995 ] final  -64.84 input   59.86 | X-H torsion
[ 10167 10162 10161 10158 ] final   33.65 input  -65.29 | X-H torsion
[ 10718 10713 10712 10709 ] final   -9.74 input   66.30 | X-H torsion
[ 10763 10752 10751 10750 ] final  158.90 input  -60.55 | X-H torsion
[ 11005 11000 10999 10996 ] final  -89.95 input  -57.11 | X-H torsion

> <Gold.Protein.ActiveResidues>
 VAL166  LYS551  ARG553  GLY616  TRP617  ASP618  TYR619  PRO620  LYS621  CYS622 
 ASP623  PHE694  ASN695  SER759  ASP760  ASP761  ALA762  ILE779  LEU786  VAL792 
 PHE793  MET794  SER795  GLU796  ALA797  LYS798  CYS799  TRP800  GLU811  SER814 

> <Gold.Protein.RotatedAtoms>
  150.8234  133.8214  159.3129 H   0  0  0  0  0  0  0  0  0  0  0  0  # atno 6907 bound_to 6896
  151.5966  135.1048  160.0060 H   0  0  0  0  0  0  0  0  0  0  0  0  # atno 6908 bound_to 6896
  152.4321  133.7254  159.6614 H   0  0  0  0  0  0  0  0  0  0  0  0  # atno 6909 bound_to 6896
  144.7903  140.4920  143.5777 H   0  0  0  0  0  0  0  0  0  0  0  0  # atno 7974 bound_to 7965
  154.4636  140.0945  156.6959 H   0  0  0  0  0  0  0  0  0  0  0  0  # atno 8008 bound_to 7997
  155.4923  140.3471  155.4338 H   0  0  0  0  0  0  0  0  0  0  0  0  # atno 8009 bound_to 7997
  156.0915  140.1398  156.9574 H   0  0  0  0  0  0  0  0  0  0  0  0  # atno 8010 bound_to 7997
  140.4388  144.1218  150.6170 H   0  0  0  0  0  0  0  0  0  0  0  0  # atno 10167 bound_to 10162
  156.6836  130.5044  149.5964 H   0  0  0  0  0  0  0  0  0  0  0  0  # atno 10718 bound_to 10713
  154.2234  135.2781  155.2916 H   0  0  0  0  0  0  0  0  0  0  0  0  # atno 10763 bound_to 10752
  154.5683  135.5626  153.7074 H   0  0  0  0  0  0  0  0  0  0  0  0  # atno 10764 bound_to 10752
  153.0036  135.6315  154.2374 H   0  0  0  0  0  0  0  0  0  0  0  0  # atno 10765 bound_to 10752
  141.1575  133.7662  156.9668 H   0  0  0  0  0  0  0  0  0  0  0  0  # atno 11005 bound_to 11000
  145.5813  139.1489  143.3234 LP  0  0  0  0  0  0  0  0  0  0  0  0  # atno 17320 bound_to 7965
  146.2152  140.5943  142.9042 LP  0  0  0  0  0  0  0  0  0  0  0  0  # atno 17321 bound_to 7965
  140.4342  143.2554  151.9556 LP  0  0  0  0  0  0  0  0  0  0  0  0  # atno 17342 bound_to 10162
  139.4788  144.5715  151.8080 LP  0  0  0  0  0  0  0  0  0  0  0  0  # atno 17343 bound_to 10162
  156.1849  130.6523  151.0995 LP  0  0  0  0  0  0  0  0  0  0  0  0  # atno 17370 bound_to 10713
  157.7034  131.0766  150.6745 LP  0  0  0  0  0  0  0  0  0  0  0  0  # atno 17371 bound_to 10713
  140.1156  134.9449  157.2129 LP  0  0  0  0  0  0  0  0  0  0  0  0  # atno 17394 bound_to 11000
  140.3138  134.2994  155.7261 LP  0  0  0  0  0  0  0  0  0  0  0  0  # atno 17395 bound_to 11000

$$$$
