AV-unprocessed.smi:2445|AV-procd|sdf|9638|dock1
  -GOLD-   2272013273D 1   1.00000     0.00000
 Structure written by MMmdl.
 40 41  0  0  0  0  0  0  0  0  1 V2000
  145.1408  132.6886  148.8661 C   0  0  0  0  0  0  0  0  0  0  0  0
  145.5959  133.1723  150.2010 C   0  0  0  0  0  0  0  0  0  0  0  0
  146.1759  134.3790  150.5045 C   0  0  0  0  0  0  0  0  0  0  0  0
  146.4873  134.5314  151.8570 N   0  0  0  0  0  0  0  0  0  0  0  0
  146.1536  133.4613  152.5837 C   0  0  0  0  0  0  0  0  0  0  0  0
  146.4021  133.3551  154.0588 C   0  0  1  0  0  0  0  0  0  0  0  0
  145.8142  132.0649  154.6478 C   0  0  0  0  0  0  0  0  0  0  0  0
  147.8897  133.5439  154.4305 C   0  0  0  0  0  0  0  0  0  0  0  0
  148.3788  134.8897  154.1434 N   0  0  0  0  0  0  0  0  0  0  0  0
  148.5847  135.8427  155.0619 C   0  0  0  0  0  0  0  0  0  0  0  0
  148.4256  135.6803  156.2718 O   0  0  0  0  0  0  0  0  0  0  0  0
  148.9758  136.9951  154.5008 N   0  0  0  0  0  0  0  0  0  0  0  0
  149.2378  138.2410  155.2216 C   0  0  2  0  0  0  0  0  0  0  0  0
  148.5339  139.4126  154.5392 C   0  0  0  0  0  0  0  0  0  0  0  0
  149.6128  140.4848  154.4369 C   0  0  0  0  0  0  0  0  0  0  0  0
  150.8043  139.7309  154.3010 O   0  0  0  0  0  0  0  0  0  0  0  0
  150.7278  138.6575  155.2280 C   0  0  2  0  0  0  0  0  0  0  0  0
  151.7695  137.5831  154.8775 C   0  0  0  0  0  0  0  0  0  0  0  0
  145.4244  132.1771  151.6229 S   0  0  0  0  0  0  0  0  0  0  0  0
  145.2948  133.4478  148.0991 H   0  0  0  0  0  0  0  0  0  0  0  0
  144.0793  132.4416  148.8861 H   0  0  0  0  0  0  0  0  0  0  0  0
  145.6905  131.7950  148.5700 H   0  0  0  0  0  0  0  0  0  0  0  0
  146.4026  135.1852  149.8224 H   0  0  0  0  0  0  0  0  0  0  0  0
  145.8540  134.1757  154.5250 H   0  0  0  0  0  0  0  0  0  0  0  0
  144.7452  131.9928  154.4452 H   0  0  0  0  0  0  0  0  0  0  0  0
  145.9471  132.0325  155.7295 H   0  0  0  0  0  0  0  0  0  0  0  0
  146.2935  131.1800  154.2284 H   0  0  0  0  0  0  0  0  0  0  0  0
  148.0564  133.3014  155.4812 H   0  0  0  0  0  0  0  0  0  0  0  0
  148.5019  132.8492  153.8548 H   0  0  0  0  0  0  0  0  0  0  0  0
  148.5401  135.1193  153.1736 H   0  0  0  0  0  0  0  0  0  0  0  0
  149.0828  137.0223  153.4975 H   0  0  0  0  0  0  0  0  0  0  0  0
  148.8859  138.1605  156.2519 H   0  0  0  0  0  0  0  0  0  0  0  0
  148.2054  139.1398  153.5349 H   0  0  0  0  0  0  0  0  0  0  0  0
  147.6583  139.7576  155.0900 H   0  0  0  0  0  0  0  0  0  0  0  0
  149.4608  141.1580  153.5932 H   0  0  0  0  0  0  0  0  0  0  0  0
  149.6586  141.0809  155.3498 H   0  0  0  0  0  0  0  0  0  0  0  0
  150.9666  139.0630  156.2129 H   0  0  0  0  0  0  0  0  0  0  0  0
  151.7233  136.7488  155.5776 H   0  0  0  0  0  0  0  0  0  0  0  0
  152.7775  137.9954  154.9231 H   0  0  0  0  0  0  0  0  0  0  0  0
  151.6219  137.1907  153.8710 H   0  0  0  0  0  0  0  0  0  0  0  0
  1  2  1  0  0  0  0
  1 20  1  0  0  0  0
  1 21  1  0  0  0  0
  1 22  1  0  0  0  0
  2 19  1  0  0  0  0
  2  3  2  0  0  0  0
  3  4  1  0  0  0  0
  3 23  1  0  0  0  0
  4  5  2  0  0  0  0
  5  6  1  0  0  0  0
  5 19  1  0  0  0  0
  6  7  1  0  0  0  0
  6  8  1  0  0  0  0
  6 24  1  0  0  0  0
  7 25  1  0  0  0  0
  7 26  1  0  0  0  0
  7 27  1  0  0  0  0
  8  9  1  0  0  0  0
  8 28  1  0  0  0  0
  8 29  1  0  0  0  0
  9 10  1  0  0  0  0
  9 30  1  0  0  0  0
 10 11  2  0  0  0  0
 10 12  1  0  0  0  0
 12 13  1  0  0  0  0
 12 31  1  0  0  0  0
 13 17  1  0  0  0  0
 13 14  1  0  0  0  0
 13 32  1  0  0  0  0
 14 15  1  0  0  0  0
 14 33  1  0  0  0  0
 14 34  1  0  0  0  0
 15 16  1  0  0  0  0
 15 35  1  0  0  0  0
 15 36  1  0  0  0  0
 16 17  1  0  0  0  0
 17 18  1  0  0  0  0
 17 37  1  0  0  0  0
 18 38  1  0  0  0  0
 18 39  1  0  0  0  0
 18 40  1  0  0  0  0
M  END
> <s_m_source_file>
AV-unprocessed.smi

> <i_m_source_file_index>
2445

> <i_lp_mmshare_version>
43012

> <i_f3d_flags>
0

> <s_epik_input>
W0NIM11jMVtjSF1uYyhzMSlbQ0BIXShbQ0gzXSlbQ0gyXVtOSF1DKD1PKVtOSF1bQ0BASF0yW0NIMl1bQ0gyXU9bQ0BIXTJbQ0gzXQ==

> <s_epik_cmdline>
J2VwaWtfcHl0aG9uJywgJy1waCcsICc3LjAnLCAnLXRuJywgJzgnLCAnLW1hJywgJzIwMCcsICctbWV0YWxfYmluZGluZycsICctaW1hZScsICc8aW5maWxlLm1hZT4nLCAnLW9tYWUnLCAnPG91dGZpbGUubWFlPic=

> <r_epik_Ionization_Penalty>
0.000649483

> <r_epik_Ionization_Penalty_Charging>
0

> <r_epik_Ionization_Penalty_Neutral>
0.000649483

> <r_epik_State_Penalty>
0.000379895

> <r_epik_Charging_Adjusted_Penalty>
0.000379895

> <i_epik_Tot_Q>
0

> <i_epik_Tot_abs_Q>
0

> <r_epik_Metal_State_Penalty>
-0

> <b_epik_Metal_Only>
0

> <s_lp_Force_Field>
OPLS_2005

> <r_lp_Energy>
6.13351

> <b_lp_Chiralities_Consistent>
1

> <s_lp_Variant>
AV-unprocessed.smi:2445-6

> <Gold.Version>
5.8.1

> <Gold.Id.Protein>
6NUR|6NUR_protein|mol2

> <Gold.PLP.Fitness>
42.1637

> <Gold.PLP.PLP>
-30.6664

> <Gold.PLP.part.hbond>
-3.0000

> <Gold.PLP.part.metal>
0.0000

> <Gold.PLP.part.buried>
-4.4456

> <Gold.PLP.part.nonpolar>
-23.3910

> <Gold.PLP.part.repulsive>
1.7347

> <Gold.PLP.ligand.clash>
0.0000

> <Gold.PLP.ligand.torsion>
0.2863

> <Gold.PLP.Chemscore.Hbond>
3.0000

> <Gold.PLP.Chemscore.CHOScore>
0.9902

> <Gold.PLP.Chemscore.Metal>
0.0000

> <Gold.Chemscore.Hbonds>
donor molecule, donor type, donor heavy atom, donor atom, acceptor molecule, acceptor atom, score
      L1  H     9    30       P1  7948  1.00
      L1  H    12    31       P1  7948  1.00
      P1  H  7989  7998       L1    16  0.80
      L1  C     3    23       P1  7921  0.77

> <Gold.PLP.Chemscore.Internal.Correction>
0.0991

> <Gold.Rescore>
     Score         DG    S(hbond)    S(metal)    S(lipo)     H(rot)  DE(clash)    DE(int)     intcor
     17.94     -18.82       2.36        0.00      80.21       1.53       0.23       0.65       ----

> <Gold.Chemscore.Fitness>
17.9429

> <Gold.Chemscore.DG>
-18.8195

> <Gold.Chemscore.ZeroCoef>
-5.4800

> <Gold.Chemscore.Hbond>
2.3589

> <Gold.Chemscore.Metal>
0.0000

> <Gold.Chemscore.Lipo>
80.2076

> <Gold.Chemscore.Internal_Hbond>
0.0000

> <Gold.Chemscore.DEClash>
0.2302

> <Gold.Chemscore.DEInternal>
0.6465

> <Gold.Chemscore.Rot>
1.5325

> <Gold.Chemscore.Internal.Correction>
   9.000000E+99

> <Gold.Chemscore.Hbonds>
donor molecule, donor type, donor heavy atom, donor atom, acceptor molecule, acceptor atom, score
      L1  H     9    30       P1  7948  0.77
      L1  H    12    31       P1  7948  0.96
      P1  H  7989  7998       L1    16  0.12

> <Gold.Chemscore.Hbond.Weighted>
-7.8786

> <Gold.Chemscore.Metal.Weighted>
-0.0000

> <Gold.Chemscore.Lipo.Weighted>
-9.3843

> <Gold.Chemscore.Internal_Hbond.Weighted>
0.0000

> <Gold.Chemscore.DEClash.Weighted>
0.2302

> <Gold.Chemscore.DEInternal.Weighted>
0.6465

> <Gold.Chemscore.Rot.Weighted>
3.9233

> <Gold.Chemscore.Internal.Correction.Weighted>
   9.000000E+99

> <Gold.Protein.RotatedTorsions>
[ 6907 6896 6895 6894 ] final -109.09 input  -60.11 | X-H torsion
[ 7974 7965 7964 7962 ] final -153.62 input  175.53 | X-H torsion
[ 8008 7997 7996 7995 ] final   25.87 input   59.86 | X-H torsion
[ 10167 10162 10161 10158 ] final  146.91 input  -65.29 | X-H torsion
[ 10718 10713 10712 10709 ] final -108.07 input   66.30 | X-H torsion
[ 10763 10752 10751 10750 ] final  154.75 input  -60.55 | X-H torsion
[ 11005 11000 10999 10996 ] final  -26.40 input  -57.11 | X-H torsion

> <Gold.Protein.ActiveResidues>
 VAL166  LYS551  ARG553  GLY616  TRP617  ASP618  TYR619  PRO620  LYS621  CYS622 
 ASP623  PHE694  ASN695  SER759  ASP760  ASP761  ALA762  ILE779  LEU786  VAL792 
 PHE793  MET794  SER795  GLU796  ALA797  LYS798  CYS799  TRP800  GLU811  SER814 

> <Gold.Protein.RotatedAtoms>
  150.7540  133.9581  159.3506 H   0  0  0  0  0  0  0  0  0  0  0  0  # atno 6907 bound_to 6896
  151.7505  135.0832  160.0339 H   0  0  0  0  0  0  0  0  0  0  0  0  # atno 6908 bound_to 6896
  152.3470  133.6096  159.5953 H   0  0  0  0  0  0  0  0  0  0  0  0  # atno 6909 bound_to 6896
  144.7731  140.4500  143.5893 H   0  0  0  0  0  0  0  0  0  0  0  0  # atno 7974 bound_to 7965
  155.0185  140.3145  155.4802 H   0  0  0  0  0  0  0  0  0  0  0  0  # atno 8008 bound_to 7997
  156.2896  140.2202  156.5244 H   0  0  0  0  0  0  0  0  0  0  0  0  # atno 8009 bound_to 7997
  154.7473  140.0469  157.0851 H   0  0  0  0  0  0  0  0  0  0  0  0  # atno 8010 bound_to 7997
  139.4899  144.5795  151.6900 H   0  0  0  0  0  0  0  0  0  0  0  0  # atno 10167 bound_to 10162
  156.0467  130.5694  150.7909 H   0  0  0  0  0  0  0  0  0  0  0  0  # atno 10718 bound_to 10713
  154.1573  135.2811  155.3119 H   0  0  0  0  0  0  0  0  0  0  0  0  # atno 10763 bound_to 10752
  154.6173  135.5479  153.7540 H   0  0  0  0  0  0  0  0  0  0  0  0  # atno 10764 bound_to 10752
  153.0203  135.6430  154.1715 H   0  0  0  0  0  0  0  0  0  0  0  0  # atno 10765 bound_to 10752
  140.9025  133.7514  156.0563 H   0  0  0  0  0  0  0  0  0  0  0  0  # atno 11005 bound_to 11000
  145.6265  139.1530  143.2993 LP  0  0  0  0  0  0  0  0  0  0  0  0  # atno 17320 bound_to 7965
  146.1892  140.6371  142.9153 LP  0  0  0  0  0  0  0  0  0  0  0  0  # atno 17321 bound_to 7965
  140.5398  144.0597  150.6084 LP  0  0  0  0  0  0  0  0  0  0  0  0  # atno 17342 bound_to 10162
  140.3616  143.2905  152.0378 LP  0  0  0  0  0  0  0  0  0  0  0  0  # atno 17343 bound_to 10162
  157.5350  131.0938  150.9904 LP  0  0  0  0  0  0  0  0  0  0  0  0  # atno 17370 bound_to 10713
  157.0201  130.5670  149.5330 LP  0  0  0  0  0  0  0  0  0  0  0  0  # atno 17371 bound_to 10713
  140.8212  134.3287  157.5381 LP  0  0  0  0  0  0  0  0  0  0  0  0  # atno 17394 bound_to 11000
  139.8744  134.9310  156.3516 LP  0  0  0  0  0  0  0  0  0  0  0  0  # atno 17395 bound_to 11000

$$$$
