#       Name:                AV-unprocessed.smi:500
#       Creating user name   scv26
#       Creation time:       Thu Mar 26 23:19:07 2020


#       File generated by GOLD software.
#

@<TRIPOS>MOLECULE
AV-unprocessed.smi:500
    52    54     1
SMALL
NO_CHARGES


@<TRIPOS>ATOM
      1 ****        -2.8370   3.3438  -3.3557 C.3            1 S1                 0.0000
      2 ****        -3.0907   2.7512  -1.9679 C.3            1 S1                 0.0000
      3 ****        -2.3225   1.5687  -1.8322 O.3            1 S1                 0.0000
      4 ****        -2.4985   0.9361  -0.5753 C.3            1 S1                 0.0000
      5 ****        -1.6071  -0.3109  -0.4969 C.3            1 S1                 0.0000
      6 ****        -0.1814   0.0121  -0.6625 N.pl3          1 S1                 0.0000
      7 ****         0.7511   0.3886   0.2610 C.2            1 S1                 0.0000
      8 ****         0.5428   0.5467   1.7380 C.3            1 S1                 0.0000
      9 ****         1.3508   1.7253   2.3027 C.3            1 S1                 0.0000
     10 ****         0.9040  -0.6778   2.4462 N.am           1 S1                 0.0000
     11 ****         0.0471  -1.5461   3.0072 C.2            1 S1                 0.0000
     12 ****        -1.1742  -1.3955   3.0085 O.2            1 S1                 0.0000
     13 ****         0.6592  -2.7224   3.6533 C.2            1 S1                 0.0000
     14 ****         1.9605  -3.1474   3.7188 C.2            1 S1                 0.0000
     15 ****         1.9570  -4.3554   4.4699 C.2            1 S1                 0.0000
     16 ****         0.6540  -4.5845   4.8063 C.2            1 S1                 0.0000
     17 ****        -0.1483  -3.6015   4.3149 O.3            1 S1                 0.0000
     18 ****         1.9298   0.5532  -0.4066 N.pl3          1 S1                 1.0000
     19 ****         1.7435   0.3129  -1.7677 C.ar           1 S1                 0.0000
     20 ****         2.6364   0.3725  -2.8333 C.ar           1 S1                 0.0000
     21 ****         2.1185   0.0722  -4.1102 C.ar           1 S1                 0.0000
     22 ****         0.7630  -0.2718  -4.2898 C.ar           1 S1                 0.0000
     23 ****        -0.1312  -0.3321  -3.2008 C.ar           1 S1                 0.0000
     24 ****         0.3884  -0.0335  -1.9409 C.ar           1 S1                 0.0000
     25 ****        -3.4076   4.2619  -3.4976 H              1 S1                 0.0000
     26 ****        -3.1285   2.6440  -4.1392 H              1 S1                 0.0000
     27 ****        -1.7816   3.5805  -3.4930 H              1 S1                 0.0000
     28 ****        -2.8110   3.4721  -1.1982 H              1 S1                 0.0000
     29 ****        -4.1517   2.5286  -1.8451 H              1 S1                 0.0000
     30 ****        -2.2426   1.6268   0.2297 H              1 S1                 0.0000
     31 ****        -3.5434   0.6526  -0.4421 H              1 S1                 0.0000
     32 ****        -1.7299  -0.7978   0.4693 H              1 S1                 0.0000
     33 ****        -1.8996  -1.0486  -1.2441 H              1 S1                 0.0000
     34 ****        -0.5101   0.7790   1.9033 H              1 S1                 0.0000
     35 ****         1.0861   2.6567   1.8011 H              1 S1                 0.0000
     36 ****         2.4245   1.5747   2.1845 H              1 S1                 0.0000
     37 ****         1.1524   1.8589   3.3667 H              1 S1                 0.0000
     38 ****         1.8890  -0.8906   2.5081 H              1 S1                 0.0000
     39 ****         2.8141  -2.6516   3.2805 H              1 S1                 0.0000
     40 ****         2.8000  -4.9783   4.7302 H              1 S1                 0.0000
     41 ****         0.1469  -5.3594   5.3622 H              1 S1                 0.0000
     42 ****         3.6747   0.6377  -2.6982 H              1 S1                 0.0000
     43 ****         2.7728   0.1081  -4.9692 H              1 S1                 0.0000
     44 ****         0.4006  -0.4929  -5.2833 H              1 S1                 0.0000
     45 ****        -1.1687  -0.5905  -3.3520 H              1 S1                 0.0000
     46 ****         2.7968   0.8223   0.0403 H              1 S1                 0.0000
     47 ****        -1.3560   1.8023  -1.9391 LP             1 S1                 0.0000
     48 ****        -2.5923   0.9289  -2.5518 LP             1 S1                 0.0000
     49 ****        -1.5792  -0.5906   2.5748 LP             1 S1                 0.0000
     50 ****        -1.7617  -2.0780   3.4433 LP             1 S1                 0.0000
     51 ****        -0.8216  -3.9899   3.6858 LP             1 S1                 0.0000
     52 ****        -0.6209  -3.1371   5.0639 LP             1 S1                 0.0000
@<TRIPOS>BOND
    1    1    2 1     
    2    1   25 1     
    3    1   26 1     
    4    1   27 1     
    5    2    3 1     
    6    2   28 1     
    7    2   29 1     
    8    3    4 1     
    9    4    5 1     
   10    4   30 1     
   11    4   31 1     
   12    5    6 1     
   13    5   32 1     
   14    5   33 1     
   15    6   24 1     
   16    6    7 1     
   17    7    8 1     
   18    7   18 2     
   19    8    9 1     
   20    8   10 1     
   21    8   34 1     
   22    9   35 1     
   23    9   36 1     
   24    9   37 1     
   25   10   11 am    
   26   10   38 1     
   27   11   12 2     
   28   11   13 1     
   29   13   17 1     
   30   13   14 2     
   31   14   15 1     
   32   14   39 1     
   33   15   16 2     
   34   15   40 1     
   35   16   17 1     
   36   16   41 1     
   37   18   19 1     
   38   18   46 1     
   39   19   24 ar    
   40   19   20 ar    
   41   20   21 ar    
   42   20   42 1     
   43   21   22 ar    
   44   21   43 1     
   45   22   23 ar    
   46   22   44 1     
   47   23   24 ar    
   48   23   45 1     
   49    3   47 1     
   50    3   48 1     
   51   12   49 1     
   52   12   50 1     
   53   17   51 1     
   54   17   52 1     
@<TRIPOS>SUBSTRUCTURE
      1 S1             1
@<TRIPOS>SET
LONE_PAIRS      STATIC     ATOMS    <user>   **** ""
6 47 48 49 50 51 52
DONOR_HYDROGENS      STATIC     ATOMS    <user>   **** ""
2 38 46
ATOM$BLUE        STATIC     ATOMS    COLORGROUP SYSTEM
6 47 48 49 50 51 52
ATOM$RED        STATIC     ATOMS    COLORGROUP SYSTEM
2 38 46
