#       Name:                AV-unprocessed.smi:820
#       Creating user name   scv26
#       Creation time:       Fri Mar 27 01:28:02 2020


#       File generated by GOLD software.
#

@<TRIPOS>MOLECULE
AV-unprocessed.smi:820
    39    40     1
SMALL
NO_CHARGES


@<TRIPOS>ATOM
      1 ****        -6.9411   1.2756   0.3038 C.3            1 S1                 0.0000
      2 ****        -5.4377   1.0759   0.5144 C.3            1 S1                 0.0000
      3 ****        -4.6493   0.3680  -0.9589 S.3            1 S1                 0.0000
      4 ****        -2.9190   0.2075  -0.6303 C.ar           1 S1                 0.0000
      5 ****        -2.3485   0.5411   0.6160 C.ar           1 S1                 0.0000
      6 ****        -0.9588   0.3785   0.7766 C.ar           1 S1                 0.0000
      7 ****        -0.1958  -0.1176  -0.3085 C.ar           1 S1                 0.0000
      8 ****         1.2127  -0.3060  -0.2798 N.am           1 S1                 0.0000
      9 ****         2.0272  -0.4565   0.7825 C.2            1 S1                 0.0000
     10 ****         1.6377  -0.4767   1.9507 O.2            1 S1                 0.0000
     11 ****         3.4164  -0.6151   0.3687 C.2            1 S1                 0.0000
     12 ****         4.3793  -0.7563   1.3090 C.2            1 S1                 0.0000
     13 ****         5.7064  -0.9508   1.0183 O.3            1 S1                 0.0000
     14 ****         5.9763  -1.2532  -0.3453 C.3            1 S1                 0.0000
     15 ****         5.1110  -0.3816  -1.2668 C.3            1 S1                 0.0000
     16 ****         3.7313  -0.5729  -0.9723 O.3            1 S1                 0.0000
     17 ****        -0.8736  -0.4053  -1.5123 C.ar           1 S1                 0.0000
     18 ****        -2.2048  -0.2542  -1.6773 N.ar           1 S1                 0.0000
     19 ****        -7.4049   1.7045   1.1924 H              1 S1                 0.0000
     20 ****        -7.4372   0.3280   0.0928 H              1 S1                 0.0000
     21 ****        -7.1350   1.9489  -0.5317 H              1 S1                 0.0000
     22 ****        -4.9654   2.0312   0.7451 H              1 S1                 0.0000
     23 ****        -5.2677   0.4133   1.3634 H              1 S1                 0.0000
     24 ****        -2.9422   0.9167   1.4348 H              1 S1                 0.0000
     25 ****        -0.5095   0.6503   1.7187 H              1 S1                 0.0000
     26 ****         1.6567  -0.3903  -1.1831 H              1 S1                 0.0000
     27 ****         4.2021  -0.7720   2.3751 H              1 S1                 0.0000
     28 ****         7.0349  -1.0873  -0.5456 H              1 S1                 0.0000
     29 ****         5.7770  -2.3106  -0.5248 H              1 S1                 0.0000
     30 ****         5.3627   0.6728  -1.1433 H              1 S1                 0.0000
     31 ****         5.2910  -0.6347  -2.3116 H              1 S1                 0.0000
     32 ****        -0.3317  -0.7726  -2.3717 H              1 S1                 0.0000
     33 ****         0.6637  -0.3778   2.1548 LP             1 S1                 0.0000
     34 ****         2.2954  -0.5919   2.6952 LP             1 S1                 0.0000
     35 ****         6.0403  -1.7093   1.5779 LP             1 S1                 0.0000
     36 ****         6.2034  -0.1165   1.2570 LP             1 S1                 0.0000
     37 ****         3.2196   0.1799  -1.3864 LP             1 S1                 0.0000
     38 ****         3.4442  -1.4375  -1.3845 LP             1 S1                 0.0000
     39 ****        -2.6466  -0.4770  -2.5463 LP             1 S1                 0.0000
@<TRIPOS>BOND
    1    1    2 1     
    2    1   19 1     
    3    1   20 1     
    4    1   21 1     
    5    2    3 1     
    6    2   22 1     
    7    2   23 1     
    8    3    4 1     
    9    4   18 ar    
   10    4    5 ar    
   11    5    6 ar    
   12    5   24 1     
   13    6    7 ar    
   14    6   25 1     
   15    7    8 1     
   16    7   17 ar    
   17    8    9 am    
   18    8   26 1     
   19    9   10 2     
   20    9   11 1     
   21   11   16 1     
   22   11   12 2     
   23   12   13 1     
   24   12   27 1     
   25   13   14 1     
   26   14   15 1     
   27   14   28 1     
   28   14   29 1     
   29   15   16 1     
   30   15   30 1     
   31   15   31 1     
   32   17   18 ar    
   33   17   32 1     
   34   10   33 1     
   35   10   34 1     
   36   13   35 1     
   37   13   36 1     
   38   16   37 1     
   39   16   38 1     
   40   18   39 1     
@<TRIPOS>SUBSTRUCTURE
      1 S1             1
@<TRIPOS>SET
LONE_PAIRS      STATIC     ATOMS    <user>   **** ""
7 33 34 35 36 37 38 39
DONOR_HYDROGENS      STATIC     ATOMS    <user>   **** ""
1 26
ATOM$BLUE        STATIC     ATOMS    COLORGROUP SYSTEM
7 33 34 35 36 37 38 39
ATOM$RED        STATIC     ATOMS    COLORGROUP SYSTEM
1 26
