#       Name:                AV-unprocessed.smi:2124
#       Creating user name   scv26
#       Creation time:       Fri Mar 27 11:42:02 2020


#       File generated by GOLD software.
#

@<TRIPOS>MOLECULE
AV-unprocessed.smi:2124
    52    54     1
SMALL
NO_CHARGES


@<TRIPOS>ATOM
      1 ****        -4.5352   5.2861  -0.9327 C.3            1 S1                 0.0000
      2 ****        -3.9406   3.8942  -0.9354 C.2            1 S1                 0.0000
      3 ****        -3.5180   3.3941   0.1626 N.2            1 S1                 0.0000
      4 ****        -2.9673   2.1013   0.1667 C.2            1 S1                 0.0000
      5 ****        -2.4937   1.5864   1.5148 C.3            1 S1                 0.0000
      6 ****        -2.8749   1.3699  -0.9807 C.2            1 S1                 0.0000
      7 ****        -2.2886  -0.0411  -1.0295 C.3            1 S1                 0.0000
      8 ****        -0.7627  -0.1435  -1.1012 C.2            1 S1                 0.0000
      9 ****        -0.0668   0.8700  -1.1667 O.2            1 S1                 0.0000
     10 ****        -0.2629  -1.3906  -1.0779 N.am           1 S1                 0.0000
     11 ****         1.1478  -1.7889  -1.1046 C.3            1 S1                 0.0000
     12 ****         1.7983  -1.3894  -2.4440 C.3            1 S1                 0.0000
     13 ****         1.9278  -1.2733   0.1363 C.3            1 S1                 0.0000
     14 ****         1.2570  -1.6144   1.4913 C.3            1 S1                 0.0000
     15 ****         2.3822  -2.3046   2.2816 C.3            1 S1                 0.0000
     16 ****         3.4690  -1.2755   2.6417 C.3            1 S1                 0.0000
     17 ****         4.1511  -1.0160   1.2857 C.3            1 S1                 0.0000
     18 ****         3.3349  -1.8970   0.3203 C.3            1 S1                 0.0000
     19 ****         3.0612  -3.1201   1.1902 C.3            1 S1                 0.0000
     20 ****        -3.3675   1.9851  -2.2258 C.2            1 S1                 0.0000
     21 ****        -3.2937   1.3744  -3.2915 O.2            1 S1                 0.0000
     22 ****        -3.8958   3.2398  -2.1459 N.pl3          1 S1                -1.0000
     23 ****        -4.3067   5.8080  -0.0023 H              1 S1                 0.0000
     24 ****        -5.6187   5.2313  -1.0393 H              1 S1                 0.0000
     25 ****        -4.1350   5.8750  -1.7587 H              1 S1                 0.0000
     26 ****        -3.0932   0.7318   1.8280 H              1 S1                 0.0000
     27 ****        -2.5796   2.3556   2.2830 H              1 S1                 0.0000
     28 ****        -1.4489   1.2798   1.4659 H              1 S1                 0.0000
     29 ****        -2.6152  -0.5792  -0.1395 H              1 S1                 0.0000
     30 ****        -2.7137  -0.6022  -1.8624 H              1 S1                 0.0000
     31 ****        -0.9309  -2.1458  -1.0264 H              1 S1                 0.0000
     32 ****         1.1327  -2.8783  -1.0664 H              1 S1                 0.0000
     33 ****         2.7766  -1.8514  -2.5695 H              1 S1                 0.0000
     34 ****         1.9331  -0.3104  -2.5222 H              1 S1                 0.0000
     35 ****         1.1850  -1.7086  -3.2872 H              1 S1                 0.0000
     36 ****         2.0304  -0.1909   0.0484 H              1 S1                 0.0000
     37 ****         0.8739  -0.7277   1.9976 H              1 S1                 0.0000
     38 ****         0.4230  -2.3055   1.3644 H              1 S1                 0.0000
     39 ****         2.0257  -2.8823   3.1349 H              1 S1                 0.0000
     40 ****         3.0490  -0.3681   3.0770 H              1 S1                 0.0000
     41 ****         4.1806  -1.6922   3.3554 H              1 S1                 0.0000
     42 ****         4.1384   0.0380   1.0057 H              1 S1                 0.0000
     43 ****         5.1928  -1.3384   1.3147 H              1 S1                 0.0000
     44 ****         3.8664  -2.1087  -0.6065 H              1 S1                 0.0000
     45 ****         3.9690  -3.6233   1.5280 H              1 S1                 0.0000
     46 ****         2.4017  -3.8522   0.7217 H              1 S1                 0.0000
     47 ****        -3.5788   3.9187   1.0118 LP             1 S1                 0.0000
     48 ****        -0.4973   1.7725  -1.1735 LP             1 S1                 0.0000
     49 ****         0.9290   0.7906  -1.2131 LP             1 S1                 0.0000
     50 ****        -2.8980   0.4563  -3.3153 LP             1 S1                 0.0000
     51 ****        -3.6293   1.7962  -4.1338 LP             1 S1                 0.0000
     52 ****        -4.2511   3.6852  -2.9677 LP             1 S1                 0.0000
@<TRIPOS>BOND
    1    1    2 1     
    2    1   23 1     
    3    1   24 1     
    4    1   25 1     
    5    2   22 1     
    6    2    3 2     
    7    3    4 1     
    8    4    5 1     
    9    4    6 2     
   10    5   26 1     
   11    5   27 1     
   12    5   28 1     
   13    6    7 1     
   14    6   20 1     
   15    7    8 1     
   16    7   29 1     
   17    7   30 1     
   18    8    9 2     
   19    8   10 am    
   20   10   11 1     
   21   10   31 1     
   22   11   12 1     
   23   11   13 1     
   24   11   32 1     
   25   12   33 1     
   26   12   34 1     
   27   12   35 1     
   28   13   18 1     
   29   13   14 1     
   30   13   36 1     
   31   14   15 1     
   32   14   37 1     
   33   14   38 1     
   34   15   19 1     
   35   15   16 1     
   36   15   39 1     
   37   16   17 1     
   38   16   40 1     
   39   16   41 1     
   40   17   18 1     
   41   17   42 1     
   42   17   43 1     
   43   18   19 1     
   44   18   44 1     
   45   19   45 1     
   46   19   46 1     
   47   20   21 2     
   48   20   22 1     
   49    3   47 1     
   50    9   48 1     
   51    9   49 1     
   52   21   50 1     
   53   21   51 1     
   54   22   52 1     
@<TRIPOS>SUBSTRUCTURE
      1 S1             1
@<TRIPOS>SET
LONE_PAIRS      STATIC     ATOMS    <user>   **** ""
6 47 48 49 50 51 52
DONOR_HYDROGENS      STATIC     ATOMS    <user>   **** ""
1 31
ATOM$BLUE        STATIC     ATOMS    COLORGROUP SYSTEM
6 47 48 49 50 51 52
ATOM$RED        STATIC     ATOMS    COLORGROUP SYSTEM
1 31
