AV-unprocessed.smi:500|AV-procd|sdf|2738|dock5
  -GOLD-   2262023193D 1   1.00000     0.00000
 Structure written by MMmdl.
 44 46  0  0  0  0  0  0  0  0  2 V2000
  149.4266  139.7119  154.7173 C   0  0  0  0  0  0  0  0  0  0  0  0
  150.6103  138.7910  154.4130 C   0  0  0  0  0  0  0  0  0  0  0  0
  151.8152  139.4875  154.6961 O   0  0  0  0  0  0  0  0  0  0  0  0
  152.2124  139.4168  156.0578 C   0  0  0  0  0  0  0  0  0  0  0  0
  151.3598  140.3449  156.9405 C   0  0  0  0  0  0  0  0  0  0  0  0
  152.0561  140.7044  158.1771 N   0  0  0  0  0  0  0  0  0  0  0  0
  152.8635  139.9560  158.9919 C   0  0  0  0  0  0  0  0  0  0  0  0
  153.2163  138.4970  158.7445 C   0  0  2  0  0  0  0  0  0  0  0  0
  151.9550  137.6226  158.7152 C   0  0  0  0  0  0  0  0  0  0  0  0
  154.1461  137.9593  159.7415 N   0  5  0  0  0  0  0  0  0  0  0  0
  154.1336  136.6709  160.1868 C   0  0  0  0  0  0  0  0  0  0  0  0
  154.0629  135.6165  159.5463 O   0  0  0  0  0  0  0  0  0  0  0  0
  154.2247  136.5837  161.6635 C   0  0  0  0  0  0  0  0  0  0  0  0
  153.9924  137.5395  162.6170 C   0  0  0  0  0  0  0  0  0  0  0  0
  154.2230  136.9266  163.8797 C   0  0  0  0  0  0  0  0  0  0  0  0
  154.5820  135.6375  163.6108 C   0  0  0  0  0  0  0  0  0  0  0  0
  154.5884  135.4114  162.2695 O   0  0  0  0  0  0  0  0  0  0  0  0
  153.3307  140.6003  160.0673 N   0  0  0  0  0  0  0  0  0  0  0  0
  152.8098  141.8692  159.9312 C   0  0  0  0  0  0  0  0  0  0  0  0
  152.9541  143.0121  160.7498 C   0  0  0  0  0  0  0  0  0  0  0  0
  152.3178  144.2221  160.4048 C   0  0  0  0  0  0  0  0  0  0  0  0
  151.5295  144.3050  159.2390 C   0  0  0  0  0  0  0  0  0  0  0  0
  151.3725  143.1766  158.4112 C   0  0  0  0  0  0  0  0  0  0  0  0
  152.0099  141.9697  158.7601 C   0  0  0  0  0  0  0  0  0  0  0  0
  148.4803  139.2123  154.5087 H   0  0  0  0  0  0  0  0  0  0  0  0
  149.4688  140.6165  154.1103 H   0  0  0  0  0  0  0  0  0  0  0  0
  149.4237  140.0108  155.7659 H   0  0  0  0  0  0  0  0  0  0  0  0
  150.5323  137.8842  155.0129 H   0  0  0  0  0  0  0  0  0  0  0  0
  150.5869  138.4930  153.3638 H   0  0  0  0  0  0  0  0  0  0  0  0
  152.1860  138.3869  156.4142 H   0  0  0  0  0  0  0  0  0  0  0  0
  153.2542  139.7332  156.1141 H   0  0  0  0  0  0  0  0  0  0  0  0
  151.1309  141.2586  156.3918 H   0  0  0  0  0  0  0  0  0  0  0  0
  150.3922  139.9058  157.1797 H   0  0  0  0  0  0  0  0  0  0  0  0
  153.6620  138.4278  157.7519 H   0  0  0  0  0  0  0  0  0  0  0  0
  151.2611  137.9683  157.9486 H   0  0  0  0  0  0  0  0  0  0  0  0
  151.4306  137.6460  159.6714 H   0  0  0  0  0  0  0  0  0  0  0  0
  152.1984  136.5831  158.4930 H   0  0  0  0  0  0  0  0  0  0  0  0
  153.6910  138.5589  162.4263 H   0  0  0  0  0  0  0  0  0  0  0  0
  154.1367  137.3724  164.8595 H   0  0  0  0  0  0  0  0  0  0  0  0
  154.8526  134.7895  164.2222 H   0  0  0  0  0  0  0  0  0  0  0  0
  153.5575  142.9559  161.6434 H   0  0  0  0  0  0  0  0  0  0  0  0
  152.4364  145.0898  161.0367 H   0  0  0  0  0  0  0  0  0  0  0  0
  151.0460  145.2355  158.9800 H   0  0  0  0  0  0  0  0  0  0  0  0
  150.7698  143.2394  157.5176 H   0  0  0  0  0  0  0  0  0  0  0  0
  1  2  1  0  0  0  0
  1 25  1  0  0  0  0
  1 26  1  0  0  0  0
  1 27  1  0  0  0  0
  2  3  1  0  0  0  0
  2 28  1  0  0  0  0
  2 29  1  0  0  0  0
  3  4  1  0  0  0  0
  4  5  1  0  0  0  0
  4 30  1  0  0  0  0
  4 31  1  0  0  0  0
  5  6  1  0  0  0  0
  5 32  1  0  0  0  0
  5 33  1  0  0  0  0
  6 24  1  0  0  0  0
  6  7  1  0  0  0  0
  7  8  1  0  0  0  0
  7 18  2  0  0  0  0
  8  9  1  0  0  0  0
  8 10  1  0  0  0  0
  8 34  1  0  0  0  0
  9 35  1  0  0  0  0
  9 36  1  0  0  0  0
  9 37  1  0  0  0  0
 10 11  1  0  0  0  0
 11 12  2  0  0  0  0
 11 13  1  0  0  0  0
 13 17  1  0  0  0  0
 13 14  2  0  0  0  0
 14 15  1  0  0  0  0
 14 38  1  0  0  0  0
 15 16  2  0  0  0  0
 15 39  1  0  0  0  0
 16 17  1  0  0  0  0
 16 40  1  0  0  0  0
 18 19  1  0  0  0  0
 19 24  2  0  0  0  0
 19 20  1  0  0  0  0
 20 21  2  0  0  0  0
 20 41  1  0  0  0  0
 21 22  1  0  0  0  0
 21 42  1  0  0  0  0
 22 23  2  0  0  0  0
 22 43  1  0  0  0  0
 23 24  1  0  0  0  0
 23 44  1  0  0  0  0
M  CHG  1  10  -1
M  END
> <s_m_source_file>
AV-unprocessed.smi

> <i_m_source_file_index>
500

> <i_lp_mmshare_version>
43012

> <i_f3d_flags>
0

> <s_epik_input>
W0NIM11bQ0gyXU9bQ0gyXVtDSDJdbihjKGMxMilbY0hdW2NIXVtjSF1bY0hdMiljKG4xKVtDQEhdKFtDSDNdKVtOSF1DKD1PKWMzW2NIXVtjSF1bY0hdbzM=

> <s_epik_cmdline>
J2VwaWtfcHl0aG9uJywgJy1waCcsICc3LjAnLCAnLXRuJywgJzgnLCAnLW1hJywgJzIwMCcsICctbWV0YWxfYmluZGluZycsICctaW1hZScsICc8aW5maWxlLm1hZT4nLCAnLW9tYWUnLCAnPG91dGZpbGUubWFlPic=

> <r_epik_Ionization_Penalty>
7.31223

> <r_epik_Ionization_Penalty_Charging>
6.43826

> <r_epik_Ionization_Penalty_Neutral>
0.873973

> <r_epik_State_Penalty>
6.5378

> <r_epik_Charging_Adjusted_Penalty>
12.9761

> <i_epik_Tot_Q>
-1

> <i_epik_Tot_abs_Q>
1

> <r_epik_Metal_State_Penalty>
2.55818

> <b_epik_Metal_Only>
1

> <s_lp_Force_Field>
OPLS_2005

> <r_lp_Energy>
15.486

> <b_lp_Chiralities_Consistent>
1

> <s_lp_Variant>
AV-unprocessed.smi:500-5

> <Gold.Version>
5.8.1

> <Gold.Id.Protein>
6NUR|6NUR_protein|mol2

> <Gold.PLP.Fitness>
54.0162

> <Gold.PLP.PLP>
-50.7687

> <Gold.PLP.part.hbond>
-2.0000

> <Gold.PLP.part.metal>
0.0000

> <Gold.PLP.part.buried>
-6.8436

> <Gold.PLP.part.nonpolar>
-42.0257

> <Gold.PLP.part.repulsive>
0.0649

> <Gold.PLP.ligand.clash>
0.0000

> <Gold.PLP.ligand.torsion>
1.5102

> <Gold.PLP.Chemscore.Hbond>
2.0000

> <Gold.PLP.Chemscore.CHOScore>
0.0000

> <Gold.PLP.Chemscore.Metal>
0.0000

> <Gold.Chemscore.Hbonds>
donor molecule, donor type, donor heavy atom, donor atom, acceptor molecule, acceptor atom, score
      P1  H  6896  6907       L1    12  1.00
      P1  H  7989  7998       L1     3  1.00

> <Gold.PLP.Chemscore.Internal.Correction>
0.2680

> <Gold.Rescore>
     Score         DG    S(hbond)    S(metal)    S(lipo)     H(rot)  DE(clash)    DE(int)     intcor
     20.29     -22.73       1.97        0.00     131.48       1.84       0.01       2.43       ----

> <Gold.Chemscore.Fitness>
20.2869

> <Gold.Chemscore.DG>
-22.7259

> <Gold.Chemscore.ZeroCoef>
-5.4800

> <Gold.Chemscore.Hbond>
1.9665

> <Gold.Chemscore.Metal>
0.0000

> <Gold.Chemscore.Lipo>
131.4844

> <Gold.Chemscore.Internal_Hbond>
0.0000

> <Gold.Chemscore.DEClash>
0.0098

> <Gold.Chemscore.DEInternal>
2.4292

> <Gold.Chemscore.Rot>
1.8382

> <Gold.Chemscore.Internal.Correction>
   9.000000E+99

> <Gold.Chemscore.Hbonds>
donor molecule, donor type, donor heavy atom, donor atom, acceptor molecule, acceptor atom, score
      P1  H  6896  6907       L1    12  0.47
      P1  H  7989  7998       L1     3  0.24

> <Gold.Chemscore.Hbond.Weighted>
-6.5681

> <Gold.Chemscore.Metal.Weighted>
-0.0000

> <Gold.Chemscore.Lipo.Weighted>
-15.3837

> <Gold.Chemscore.Internal_Hbond.Weighted>
0.0000

> <Gold.Chemscore.DEClash.Weighted>
0.0098

> <Gold.Chemscore.DEInternal.Weighted>
2.4292

> <Gold.Chemscore.Rot.Weighted>
4.7059

> <Gold.Chemscore.Internal.Correction.Weighted>
   9.000000E+99

> <Gold.Protein.RotatedTorsions>
[ 6907 6896 6895 6894 ] final   45.41 input  -60.11 | X-H torsion
[ 7974 7965 7964 7962 ] final -130.73 input  175.53 | X-H torsion
[ 8008 7997 7996 7995 ] final   10.57 input   59.86 | X-H torsion
[ 10167 10162 10161 10158 ] final  -15.43 input  -65.29 | X-H torsion
[ 10718 10713 10712 10709 ] final  -57.23 input   66.30 | X-H torsion
[ 10763 10752 10751 10750 ] final -119.38 input  -60.55 | X-H torsion
[ 11005 11000 10999 10996 ] final  -29.59 input  -57.11 | X-H torsion

> <Gold.Protein.ActiveResidues>
 VAL166  LYS551  ARG553  GLY616  TRP617  ASP618  TYR619  PRO620  LYS621  CYS622 
 ASP623  PHE694  ASN695  SER759  ASP760  ASP761  ALA762  ILE779  LEU786  VAL792 
 PHE793  MET794  SER795  GLU796  ALA797  LYS798  CYS799  TRP800  GLU811  SER814 

> <Gold.Protein.RotatedAtoms>
  152.2442  134.8198  160.0455 H   0  0  0  0  0  0  0  0  0  0  0  0  # atno 6907 bound_to 6896
  151.8901  133.3509  159.3803 H   0  0  0  0  0  0  0  0  0  0  0  0  # atno 6908 bound_to 6896
  150.7063  134.4858  159.5536 H   0  0  0  0  0  0  0  0  0  0  0  0  # atno 6909 bound_to 6896
  144.9446  140.7277  143.4825 H   0  0  0  0  0  0  0  0  0  0  0  0  # atno 7974 bound_to 7965
  154.7952  140.2842  155.5962 H   0  0  0  0  0  0  0  0  0  0  0  0  # atno 8008 bound_to 7997
  156.2970  140.2597  156.2737 H   0  0  0  0  0  0  0  0  0  0  0  0  # atno 8009 bound_to 7997
  154.9623  140.0377  157.2185 H   0  0  0  0  0  0  0  0  0  0  0  0  # atno 8010 bound_to 7997
  140.7218  143.5219  150.9623 H   0  0  0  0  0  0  0  0  0  0  0  0  # atno 10167 bound_to 10162
  156.1227  130.4165  150.0412 H   0  0  0  0  0  0  0  0  0  0  0  0  # atno 10718 bound_to 10713
  154.8615  135.4240  154.2290 H   0  0  0  0  0  0  0  0  0  0  0  0  # atno 10763 bound_to 10752
  153.3279  135.6986  153.6979 H   0  0  0  0  0  0  0  0  0  0  0  0  # atno 10764 bound_to 10752
  153.6008  135.3537  155.2918 H   0  0  0  0  0  0  0  0  0  0  0  0  # atno 10765 bound_to 10752
  140.9309  133.7339  156.0935 H   0  0  0  0  0  0  0  0  0  0  0  0  # atno 11005 bound_to 11000
  145.2937  139.1874  143.4726 LP  0  0  0  0  0  0  0  0  0  0  0  0  # atno 17320 bound_to 7965
  146.3299  140.2918  142.8615 LP  0  0  0  0  0  0  0  0  0  0  0  0  # atno 17321 bound_to 7965
  139.8936  143.6922  152.3142 LP  0  0  0  0  0  0  0  0  0  0  0  0  # atno 17342 bound_to 10162
  139.7247  144.7595  151.0898 LP  0  0  0  0  0  0  0  0  0  0  0  0  # atno 17343 bound_to 10162
  156.8346  130.9404  151.3635 LP  0  0  0  0  0  0  0  0  0  0  0  0  # atno 17370 bound_to 10713
  157.6410  130.8805  149.9448 LP  0  0  0  0  0  0  0  0  0  0  0  0  # atno 17371 bound_to 10713
  140.7863  134.3668  157.5475 LP  0  0  0  0  0  0  0  0  0  0  0  0  # atno 17394 bound_to 11000
  139.8796  134.9113  156.3034 LP  0  0  0  0  0  0  0  0  0  0  0  0  # atno 17395 bound_to 11000

$$$$
