#       Name:                AV-unprocessed.smi:2662
#       Creating user name   scv26
#       Creation time:       Fri Mar 27 14:33:41 2020


#       File generated by GOLD software.
#

@<TRIPOS>MOLECULE
AV-unprocessed.smi:2662
    41    43     1
SMALL
NO_CHARGES


@<TRIPOS>ATOM
      1 ****        -0.9282   3.3943   0.5556 O.3            1 S1                 0.0000
      2 ****        -1.4936   2.9878  -0.6716 C.3            1 S1                 0.0000
      3 ****        -2.0395   1.5922  -0.6334 C.2            1 S1                 0.0000
      4 ****        -3.3524   1.3561  -0.6358 N.2            1 S1                 0.0000
      5 ****        -3.4150  -0.0230  -0.6222 C.ar           1 S1                 0.0000
      6 ****        -4.5297  -0.8919  -0.6230 C.ar           1 S1                 0.0000
      7 ****        -4.3453  -2.2901  -0.6179 C.ar           1 S1                 0.0000
      8 ****        -3.0463  -2.8383  -0.6126 C.ar           1 S1                 0.0000
      9 ****        -1.9222  -1.9905  -0.6089 C.ar           1 S1                 0.0000
     10 ****        -2.1117  -0.5952  -0.6114 C.ar           1 S1                 0.0000
     11 ****        -1.2428   0.4920  -0.6055 N.pl3          1 S1                 0.0000
     12 ****         0.2133   0.4175  -0.5926 C.3            1 S1                 0.0000
     13 ****         0.7770  -0.0751   0.7564 C.3            1 S1                 0.0000
     14 ****         0.3559   0.7813   1.8005 O.3            1 S1                 0.0000
     15 ****         2.2915  -0.2191   0.6970 C.ar           1 S1                 0.0000
     16 ****         3.1238   0.9071   0.8857 C.ar           1 S1                 0.0000
     17 ****         4.5244   0.7771   0.8184 C.ar           1 S1                 0.0000
     18 ****         5.3142   1.8615   1.0009 F              1 S1                 0.0000
     19 ****         5.1032  -0.4798   0.5599 C.ar           1 S1                 0.0000
     20 ****         4.2801  -1.6052   0.3654 C.ar           1 S1                 0.0000
     21 ****         2.8788  -1.4770   0.4304 C.ar           1 S1                 0.0000
     22 ****         2.1020  -2.5692   0.2310 F              1 S1                 0.0000
     23 ****        -0.6211   4.2830   0.4646 H              1 S1                 0.0000
     24 ****        -2.2965   3.6809  -0.9253 H              1 S1                 0.0000
     25 ****        -0.7514   3.0720  -1.4653 H              1 S1                 0.0000
     26 ****        -5.5286  -0.4817  -0.6303 H              1 S1                 0.0000
     27 ****        -5.2043  -2.9449  -0.6203 H              1 S1                 0.0000
     28 ****        -2.9135  -3.9102  -0.6111 H              1 S1                 0.0000
     29 ****        -0.9266  -2.4086  -0.6049 H              1 S1                 0.0000
     30 ****         0.5160  -0.2627  -1.3897 H              1 S1                 0.0000
     31 ****         0.6389   1.3877  -0.8459 H              1 S1                 0.0000
     32 ****         0.3500  -1.0513   0.9855 H              1 S1                 0.0000
     33 ****         0.6064   0.3948   2.6255 H              1 S1                 0.0000
     34 ****         2.6903   1.8775   1.0794 H              1 S1                 0.0000
     35 ****         6.1773  -0.5802   0.5080 H              1 S1                 0.0000
     36 ****         4.7245  -2.5687   0.1635 H              1 S1                 0.0000
     37 ****        -0.1624   2.7951   0.7891 LP             1 S1                 0.0000
     38 ****        -1.6192   3.3485   1.2770 LP             1 S1                 0.0000
     39 ****        -4.1047   2.0148  -0.6451 LP             1 S1                 0.0000
     40 ****        -0.6375   0.8904   1.7671 LP             1 S1                 0.0000
     41 ****         0.7930   1.6751   1.7004 LP             1 S1                 0.0000
@<TRIPOS>BOND
    1    1    2 1     
    2    1   23 1     
    3    2    3 1     
    4    2   24 1     
    5    2   25 1     
    6    3   11 1     
    7    3    4 2     
    8    4    5 1     
    9    5   10 ar    
   10    5    6 ar    
   11    6    7 ar    
   12    6   26 1     
   13    7    8 ar    
   14    7   27 1     
   15    8    9 ar    
   16    8   28 1     
   17    9   10 ar    
   18    9   29 1     
   19   10   11 1     
   20   11   12 1     
   21   12   13 1     
   22   12   30 1     
   23   12   31 1     
   24   13   14 1     
   25   13   15 1     
   26   13   32 1     
   27   14   33 1     
   28   15   21 ar    
   29   15   16 ar    
   30   16   17 ar    
   31   16   34 1     
   32   17   18 1     
   33   17   19 ar    
   34   19   20 ar    
   35   19   35 1     
   36   20   21 ar    
   37   20   36 1     
   38   21   22 1     
   39    1   37 1     
   40    1   38 1     
   41    4   39 1     
   42   14   40 1     
   43   14   41 1     
@<TRIPOS>SUBSTRUCTURE
      1 S1             1
@<TRIPOS>SET
LONE_PAIRS      STATIC     ATOMS    <user>   **** ""
5 37 38 39 40 41
DONOR_HYDROGENS      STATIC     ATOMS    <user>   **** ""
2 23 33
ATOM$BLUE        STATIC     ATOMS    COLORGROUP SYSTEM
5 37 38 39 40 41
ATOM$RED        STATIC     ATOMS    COLORGROUP SYSTEM
2 23 33
