#       Name:                AV-unprocessed.smi:654
#       Creating user name   scv26
#       Creation time:       Fri Mar 27 00:15:13 2020


#       File generated by GOLD software.
#

@<TRIPOS>MOLECULE
AV-unprocessed.smi:654
    50    52     1
SMALL
NO_CHARGES


@<TRIPOS>ATOM
      1 ****         1.3807   1.0860  -0.7586 O.2            1 S1                 0.0000
      2 ****         0.8558   0.0579  -0.3295 C.2            1 S1                 0.0000
      3 ****         1.4161  -1.1514  -0.5011 N.am           1 S1                 0.0000
      4 ****         2.6821  -1.4102  -1.1808 C.3            1 S1                 0.0000
      5 ****         3.9101  -0.9778  -0.3546 C.3            1 S1                 0.0000
      6 ****         3.8902  -1.4865   1.0767 C.ar           1 S1                 0.0000
      7 ****         4.2013  -2.8334   1.3655 C.ar           1 S1                 0.0000
      8 ****         4.1658  -3.2799   2.7031 C.ar           1 S1                 0.0000
      9 ****         3.8209  -2.3684   3.7221 C.ar           1 S1                 0.0000
     10 ****         3.5305  -1.0869   3.4078 N.pl3          1 S1                 1.0000
     11 ****         3.5535  -0.6206   2.1402 C.ar           1 S1                 0.0000
     12 ****        -0.3245   0.0487   0.3419 N.am           1 S1                 0.0000
     13 ****        -1.0077  -1.1380   0.8801 C.3            1 S1                 0.0000
     14 ****        -2.1873  -1.4903  -0.0347 C.3            1 S1                 0.0000
     15 ****        -3.4110  -0.1446  -0.0573 S.3            1 S1                 0.0000
     16 ****        -2.3532   1.3123  -0.4061 C.3            1 S1                 0.0000
     17 ****        -1.9211   1.3296  -1.8977 C.3            1 S1                 0.0000
     18 ****        -3.0878   1.5805  -2.8702 C.3            1 S1                 0.0000
     19 ****        -3.8342   2.8756  -2.5257 C.3            1 S1                 0.0000
     20 ****        -4.3177   2.8555  -1.0701 C.3            1 S1                 0.0000
     21 ****        -3.1503   2.6049  -0.0983 C.3            1 S1                 0.0000
     22 ****        -1.1213   1.2687   0.5394 C.3            1 S1                 0.0000
     23 ****         0.9245  -1.9531  -0.1338 H              1 S1                 0.0000
     24 ****         2.7322  -2.4828  -1.3692 H              1 S1                 0.0000
     25 ****         2.6908  -0.9262  -2.1587 H              1 S1                 0.0000
     26 ****         4.8212  -1.3274  -0.8416 H              1 S1                 0.0000
     27 ****         3.9789   0.1106  -0.3408 H              1 S1                 0.0000
     28 ****         4.4611  -3.5183   0.5714 H              1 S1                 0.0000
     29 ****         4.3996  -4.3069   2.9436 H              1 S1                 0.0000
     30 ****         3.7690  -2.6235   4.7706 H              1 S1                 0.0000
     31 ****         3.2980   0.4220   2.0155 H              1 S1                 0.0000
     32 ****        -0.3533  -2.0027   0.9916 H              1 S1                 0.0000
     33 ****        -1.3690  -0.9317   1.8886 H              1 S1                 0.0000
     34 ****        -1.8419  -1.6852  -1.0504 H              1 S1                 0.0000
     35 ****        -2.6785  -2.3990   0.3130 H              1 S1                 0.0000
     36 ****        -1.1747   2.1116  -2.0440 H              1 S1                 0.0000
     37 ****        -1.4305   0.3962  -2.1718 H              1 S1                 0.0000
     38 ****        -2.7100   1.6347  -3.8915 H              1 S1                 0.0000
     39 ****        -3.7812   0.7394  -2.8468 H              1 S1                 0.0000
     40 ****        -3.1756   3.7311  -2.6817 H              1 S1                 0.0000
     41 ****        -4.6814   3.0090  -3.1990 H              1 S1                 0.0000
     42 ****        -4.7994   3.8035  -0.8293 H              1 S1                 0.0000
     43 ****        -5.0815   2.0872  -0.9469 H              1 S1                 0.0000
     44 ****        -3.5296   2.5759   0.9238 H              1 S1                 0.0000
     45 ****        -2.4782   3.4631  -0.1431 H              1 S1                 0.0000
     46 ****        -1.4498   1.3156   1.5789 H              1 S1                 0.0000
     47 ****        -0.5171   2.1670   0.4016 H              1 S1                 0.0000
     48 ****         3.2835  -0.4431   4.1600 H              1 S1                 0.0000
     49 ****         2.2495   1.0358  -1.2513 LP             1 S1                 0.0000
     50 ****         0.9382   1.9711  -0.6144 LP             1 S1                 0.0000
@<TRIPOS>BOND
    1    1    2 2     
    2    2    3 am    
    3    2   12 am    
    4    3    4 1     
    5    3   23 1     
    6    4    5 1     
    7    4   24 1     
    8    4   25 1     
    9    5    6 1     
   10    5   26 1     
   11    5   27 1     
   12    6   11 ar    
   13    6    7 ar    
   14    7    8 ar    
   15    7   28 1     
   16    8    9 ar    
   17    8   29 1     
   18    9   10 ar    
   19    9   30 1     
   20   10   11 ar    
   21   10   48 1     
   22   11   31 1     
   23   12   22 1     
   24   12   13 1     
   25   13   14 1     
   26   13   32 1     
   27   13   33 1     
   28   14   15 1     
   29   14   34 1     
   30   14   35 1     
   31   15   16 1     
   32   16   21 1     
   33   16   17 1     
   34   16   22 1     
   35   17   18 1     
   36   17   36 1     
   37   17   37 1     
   38   18   19 1     
   39   18   38 1     
   40   18   39 1     
   41   19   20 1     
   42   19   40 1     
   43   19   41 1     
   44   20   21 1     
   45   20   42 1     
   46   20   43 1     
   47   21   44 1     
   48   21   45 1     
   49   22   46 1     
   50   22   47 1     
   51    1   49 1     
   52    1   50 1     
@<TRIPOS>SUBSTRUCTURE
      1 S1             1
@<TRIPOS>SET
LONE_PAIRS      STATIC     ATOMS    <user>   **** ""
2 49 50
DONOR_HYDROGENS      STATIC     ATOMS    <user>   **** ""
2 23 48
ATOM$BLUE        STATIC     ATOMS    COLORGROUP SYSTEM
2 49 50
ATOM$RED        STATIC     ATOMS    COLORGROUP SYSTEM
2 23 48
