AV-unprocessed.smi:583|AV-procd|sdf|2998|dock1
  -GOLD-   2262023503D 1   1.00000     0.00000
 Structure written by MMmdl.
 35 36  0  0  0  0  0  0  0  0  1 V2000
  153.9286  138.6179  157.8523 O   0  0  0  0  0  0  0  0  0  0  0  0
  152.8609  138.7014  158.4610 C   0  0  0  0  0  0  0  0  0  0  0  0
  151.5564  139.0414  157.7255 C   0  0  0  0  0  0  0  0  0  0  0  0
  151.3987  140.4786  157.4446 N   0  0  0  0  0  0  0  0  0  0  0  0
  151.5474  141.3649  158.5297 C   0  0  0  0  0  0  0  0  0  0  0  0
  151.4430  142.7019  158.4039 C   0  0  0  0  0  0  0  0  0  0  0  0
  151.5557  143.6299  159.6035 C   0  0  0  0  0  0  0  0  0  0  0  0
  150.3524  144.0272  160.0178 F   0  0  0  0  0  0  0  0  0  0  0  0
  152.1719  143.0279  160.6219 F   0  0  0  0  0  0  0  0  0  0  0  0
  152.2597  144.7121  159.2741 F   0  0  0  0  0  0  0  0  0  0  0  0
  151.1309  143.2028  157.0798 C   0  0  0  0  0  0  0  0  0  0  0  0
  150.9794  142.3688  156.0325 C   0  0  0  0  0  0  0  0  0  0  0  0
  151.1192  140.9185  156.1809 C   0  0  0  0  0  0  0  0  0  0  0  0
  150.9920  140.1467  155.2298 O   0  0  0  0  0  0  0  0  0  0  0  0
  152.7570  138.5241  159.7867 N   0  0  0  0  0  0  0  0  0  0  0  0
  153.8645  138.1946  160.6784 C   0  0  1  0  0  0  0  0  0  0  0  0
  154.1133  139.2939  161.7320 C   0  0  0  0  0  0  0  0  0  0  0  0
  155.0108  138.7230  162.8369 C   0  0  0  0  0  0  0  0  0  0  0  0
  154.6316  136.9319  162.9281 S   0  0  0  0  0  0  0  0  0  0  0  0
  155.8677  136.1710  162.6918 O   0  0  0  0  0  0  0  0  0  0  0  0
  153.7907  136.6643  164.1047 O   0  0  0  0  0  0  0  0  0  0  0  0
  153.5881  136.8812  161.4228 C   0  0  0  0  0  0  0  0  0  0  0  0
  151.5075  138.4709  156.7962 H   0  0  0  0  0  0  0  0  0  0  0  0
  150.7230  138.6756  158.3269 H   0  0  0  0  0  0  0  0  0  0  0  0
  151.7563  140.8868  159.4758 H   0  0  0  0  0  0  0  0  0  0  0  0
  151.0215  144.2659  156.9230 H   0  0  0  0  0  0  0  0  0  0  0  0
  150.7505  142.7774  155.0592 H   0  0  0  0  0  0  0  0  0  0  0  0
  151.8436  138.6174  160.2070 H   0  0  0  0  0  0  0  0  0  0  0  0
  154.7768  138.0634  160.0931 H   0  0  0  0  0  0  0  0  0  0  0  0
  154.5487  140.1911  161.2908 H   0  0  0  0  0  0  0  0  0  0  0  0
  153.1606  139.5879  162.1745 H   0  0  0  0  0  0  0  0  0  0  0  0
  156.0635  138.8296  162.5736 H   0  0  0  0  0  0  0  0  0  0  0  0
  154.8447  139.1947  163.8056 H   0  0  0  0  0  0  0  0  0  0  0  0
  152.5479  136.8183  161.7443 H   0  0  0  0  0  0  0  0  0  0  0  0
  153.8241  135.9966  160.8310 H   0  0  0  0  0  0  0  0  0  0  0  0
  1  2  2  0  0  0  0
  2  3  1  0  0  0  0
  2 15  1  0  0  0  0
  3  4  1  0  0  0  0
  3 23  1  0  0  0  0
  3 24  1  0  0  0  0
  4 13  1  0  0  0  0
  4  5  1  0  0  0  0
  5  6  2  0  0  0  0
  5 25  1  0  0  0  0
  6  7  1  0  0  0  0
  6 11  1  0  0  0  0
  7  8  1  0  0  0  0
  7  9  1  0  0  0  0
  7 10  1  0  0  0  0
 11 12  2  0  0  0  0
 11 26  1  0  0  0  0
 12 13  1  0  0  0  0
 12 27  1  0  0  0  0
 13 14  2  0  0  0  0
 15 16  1  0  0  0  0
 15 28  1  0  0  0  0
 16 22  1  0  0  0  0
 16 17  1  0  0  0  0
 16 29  1  0  0  0  0
 17 18  1  0  0  0  0
 17 30  1  0  0  0  0
 17 31  1  0  0  0  0
 18 19  1  0  0  0  0
 18 32  1  0  0  0  0
 18 33  1  0  0  0  0
 19 20  2  0  0  0  0
 19 21  2  0  0  0  0
 19 22  1  0  0  0  0
 22 34  1  0  0  0  0
 22 35  1  0  0  0  0
M  END
> <s_m_source_file>
AV-unprocessed.smi

> <i_m_source_file_index>
583

> <i_lp_mmshare_version>
43012

> <i_f3d_flags>
0

> <s_epik_input>
Tz1TMSg9TylbQ0gyXVtDSDJdW0NASF0oW0NIMl0xKVtOSF1DKD1PKVtDSDJdbjJbY0hdYyhDKEYpKEYpRilbY0hdW2NIXWMyPU8=

> <s_epik_cmdline>
J2VwaWtfcHl0aG9uJywgJy1waCcsICc3LjAnLCAnLXRuJywgJzgnLCAnLW1hJywgJzIwMCcsICctbWV0YWxfYmluZGluZycsICctaW1hZScsICc8aW5maWxlLm1hZT4nLCAnLW9tYWUnLCAnPG91dGZpbGUubWFlPic=

> <r_lp_tautomer_probability>
1

> <r_epik_Ionization_Penalty>
1.22016e-07

> <r_epik_Ionization_Penalty_Charging>
1.48237e-08

> <r_epik_Ionization_Penalty_Neutral>
1.07193e-07

> <r_epik_State_Penalty>
-0

> <r_epik_Charging_Adjusted_Penalty>
1.48237e-08

> <i_epik_Tot_Q>
0

> <i_epik_Tot_abs_Q>
0

> <r_epik_Metal_State_Penalty>
-0

> <b_epik_Metal_Only>
0

> <s_lp_Force_Field>
OPLS_2005

> <r_lp_Energy>
16.0517

> <b_lp_Chiralities_Consistent>
1

> <s_lp_Variant>
AV-unprocessed.smi:583-2

> <Gold.Version>
5.8.1

> <Gold.Id.Protein>
6NUR|6NUR_protein|mol2

> <Gold.PLP.Fitness>
42.5927

> <Gold.PLP.PLP>
-38.7910

> <Gold.PLP.part.hbond>
-2.0000

> <Gold.PLP.part.metal>
0.0000

> <Gold.PLP.part.buried>
-4.5781

> <Gold.PLP.part.nonpolar>
-31.5065

> <Gold.PLP.part.repulsive>
0.1902

> <Gold.PLP.ligand.clash>
0.1963

> <Gold.PLP.ligand.torsion>
1.0579

> <Gold.PLP.Chemscore.Hbond>
2.0000

> <Gold.PLP.Chemscore.CHOScore>
0.0000

> <Gold.PLP.Chemscore.Metal>
0.0000

> <Gold.Chemscore.Hbonds>
donor molecule, donor type, donor heavy atom, donor atom, acceptor molecule, acceptor atom, score
      P1  H  7989  7998       L1    14  1.00
      P1  H  7997  8010       L1     1  1.00

> <Gold.PLP.Chemscore.Internal.Correction>
0.1139

> <Gold.Rescore>
     Score         DG    S(hbond)    S(metal)    S(lipo)     H(rot)  DE(clash)    DE(int)     intcor
     15.91     -16.56       1.93        0.00      77.53       1.73       0.20       0.45       ----

> <Gold.Chemscore.Fitness>
15.9123

> <Gold.Chemscore.DG>
-16.5566

> <Gold.Chemscore.ZeroCoef>
-5.4800

> <Gold.Chemscore.Hbond>
1.9277

> <Gold.Chemscore.Metal>
0.0000

> <Gold.Chemscore.Lipo>
77.5262

> <Gold.Chemscore.Internal_Hbond>
0.0000

> <Gold.Chemscore.DEClash>
0.1972

> <Gold.Chemscore.DEInternal>
0.4472

> <Gold.Chemscore.Rot>
1.7314

> <Gold.Chemscore.Internal.Correction>
   9.000000E+99

> <Gold.Chemscore.Hbonds>
donor molecule, donor type, donor heavy atom, donor atom, acceptor molecule, acceptor atom, score
      P1  H  7989  7998       L1    14  0.85
      P1  H  7997  8010       L1     1  0.97

> <Gold.Chemscore.Hbond.Weighted>
-6.4385

> <Gold.Chemscore.Metal.Weighted>
-0.0000

> <Gold.Chemscore.Lipo.Weighted>
-9.0706

> <Gold.Chemscore.Internal_Hbond.Weighted>
0.0000

> <Gold.Chemscore.DEClash.Weighted>
0.1972

> <Gold.Chemscore.DEInternal.Weighted>
0.4472

> <Gold.Chemscore.Rot.Weighted>
4.4324

> <Gold.Chemscore.Internal.Correction.Weighted>
   9.000000E+99

> <Gold.Protein.RotatedTorsions>
[ 6907 6896 6895 6894 ] final -159.97 input  -60.11 | X-H torsion
[ 7974 7965 7964 7962 ] final  167.32 input  175.53 | X-H torsion
[ 8008 7997 7996 7995 ] final   30.07 input   59.86 | X-H torsion
[ 10167 10162 10161 10158 ] final    6.17 input  -65.29 | X-H torsion
[ 10718 10713 10712 10709 ] final  -94.74 input   66.30 | X-H torsion
[ 10763 10752 10751 10750 ] final  -73.61 input  -60.55 | X-H torsion
[ 11005 11000 10999 10996 ] final -176.19 input  -57.11 | X-H torsion

> <Gold.Protein.ActiveResidues>
 VAL166  LYS551  ARG553  GLY616  TRP617  ASP618  TYR619  PRO620  LYS621  CYS622 
 ASP623  PHE694  ASN695  SER759  ASP760  ASP761  ALA762  ILE779  LEU786  VAL792 
 PHE793  MET794  SER795  GLU796  ALA797  LYS798  CYS799  TRP800  GLU811  SER814 

> <Gold.Protein.RotatedAtoms>
  151.3418  133.3959  159.2671 H   0  0  0  0  0  0  0  0  0  0  0  0  # atno 6907 bound_to 6896
  150.9872  134.9215  159.7889 H   0  0  0  0  0  0  0  0  0  0  0  0  # atno 6908 bound_to 6896
  152.5236  134.3382  159.9260 H   0  0  0  0  0  0  0  0  0  0  0  0  # atno 6909 bound_to 6896
  144.7429  139.8743  143.6391 H   0  0  0  0  0  0  0  0  0  0  0  0  # atno 7974 bound_to 7965
  155.0846  140.3213  155.4591 H   0  0  0  0  0  0  0  0  0  0  0  0  # atno 8008 bound_to 7997
  156.2758  140.2089  156.5919 H   0  0  0  0  0  0  0  0  0  0  0  0  # atno 8009 bound_to 7997
  154.6952  140.0512  157.0390 H   0  0  0  0  0  0  0  0  0  0  0  0  # atno 8010 bound_to 7997
  140.6442  143.7702  150.7474 H   0  0  0  0  0  0  0  0  0  0  0  0  # atno 10167 bound_to 10162
  156.0032  130.5080  150.5971 H   0  0  0  0  0  0  0  0  0  0  0  0  # atno 10718 bound_to 10713
  154.4618  135.5892  153.6261 H   0  0  0  0  0  0  0  0  0  0  0  0  # atno 10763 bound_to 10752
  152.9824  135.6045  154.3477 H   0  0  0  0  0  0  0  0  0  0  0  0  # atno 10764 bound_to 10752
  154.3349  135.2842  155.2431 H   0  0  0  0  0  0  0  0  0  0  0  0  # atno 10765 bound_to 10752
  140.4548  134.6309  157.4817 H   0  0  0  0  0  0  0  0  0  0  0  0  # atno 11005 bound_to 11000
  146.1257  139.4283  143.0200 LP  0  0  0  0  0  0  0  0  0  0  0  0  # atno 17320 bound_to 7965
  145.7238  141.0066  143.1388 LP  0  0  0  0  0  0  0  0  0  0  0  0  # atno 17321 bound_to 7965
  140.1339  143.4501  152.2237 LP  0  0  0  0  0  0  0  0  0  0  0  0  # atno 17342 bound_to 10162
  139.5652  144.7430  151.4043 LP  0  0  0  0  0  0  0  0  0  0  0  0  # atno 17343 bound_to 10162
  157.3826  131.0783  151.1463 LP  0  0  0  0  0  0  0  0  0  0  0  0  # atno 17370 bound_to 10713
  157.2181  130.6468  149.5800 LP  0  0  0  0  0  0  0  0  0  0  0  0  # atno 17371 bound_to 10713
  139.9983  134.6876  155.9572 LP  0  0  0  0  0  0  0  0  0  0  0  0  # atno 17394 bound_to 11000
  141.1648  133.6537  156.4441 LP  0  0  0  0  0  0  0  0  0  0  0  0  # atno 17395 bound_to 11000

$$$$
