AV-unprocessed.smi:334|AV-procd|sdf|2365|dock3
  -GOLD-   2262022283D 1   1.00000     0.00000
 Structure written by MMmdl.
 44 46  0  0  0  0  0  0  0  0  3 V2000
  146.4961  134.9664  155.0883 C   0  0  0  0  0  0  0  0  0  0  0  0
  146.1352  135.3318  153.6385 C   0  0  1  0  0  0  0  0  0  0  0  0
  146.8053  136.5675  153.2505 N   0  0  0  0  0  0  0  0  0  0  0  0
  146.8036  137.7217  153.9385 C   0  0  0  0  0  0  0  0  0  0  0  0
  146.3136  137.8298  155.0618 O   0  0  0  0  0  0  0  0  0  0  0  0
  147.4067  138.9636  153.2591 C   0  0  0  0  0  0  0  0  0  0  0  0
  148.5127  139.5856  154.0102 N   0  0  0  0  0  0  0  0  0  0  0  0
  149.6858  138.8177  154.1518 C   0  0  0  0  0  0  0  0  0  0  0  0
  150.7455  139.2520  154.8606 C   0  0  0  0  0  0  0  0  0  0  0  0
  151.9215  138.4287  155.0336 N   0  3  0  0  0  0  0  0  0  0  0  0
  151.9093  137.2853  154.5896 O   0  0  0  0  0  0  0  0  0  0  0  0
  152.8965  138.8985  155.6124 O   0  5  0  0  0  0  0  0  0  0  0  0
  150.6562  140.5646  155.4697 C   0  0  0  0  0  0  0  0  0  0  0  0
  149.5355  141.3023  155.3419 C   0  0  0  0  0  0  0  0  0  0  0  0
  148.3729  140.8160  154.5916 C   0  0  0  0  0  0  0  0  0  0  0  0
  147.3351  141.4711  154.5012 O   0  0  0  0  0  0  0  0  0  0  0  0
  146.5202  134.2102  152.6444 C   0  0  1  0  0  0  0  0  0  0  0  0
  145.7859  132.8695  152.8687 C   0  0  0  0  0  0  0  0  0  0  0  0
  145.2522  132.5285  151.4643 C   0  0  1  0  0  0  0  0  0  0  0  0
  144.0709  133.4598  151.1323 C   0  0  0  0  0  0  0  0  0  0  0  0
  144.7649  134.8110  150.8816 C   0  0  0  0  0  0  0  0  0  0  0  0
  146.2490  134.4839  151.1419 C   0  0  2  0  0  0  0  0  0  0  0  0
  146.3492  133.0781  150.5599 C   0  0  0  0  0  0  0  0  0  0  0  0
  145.9962  134.0494  155.4007 H   0  0  0  0  0  0  0  0  0  0  0  0
  146.1947  135.7526  155.7809 H   0  0  0  0  0  0  0  0  0  0  0  0
  147.5698  134.8152  155.2045 H   0  0  0  0  0  0  0  0  0  0  0  0
  145.0566  135.4894  153.5863 H   0  0  0  0  0  0  0  0  0  0  0  0
  147.2432  136.5694  152.3410 H   0  0  0  0  0  0  0  0  0  0  0  0
  147.7663  138.6697  152.2718 H   0  0  0  0  0  0  0  0  0  0  0  0
  146.6029  139.6751  153.0646 H   0  0  0  0  0  0  0  0  0  0  0  0
  149.6451  137.8504  153.6712 H   0  0  0  0  0  0  0  0  0  0  0  0
  151.4868  140.9655  156.0319 H   0  0  0  0  0  0  0  0  0  0  0  0
  149.4901  142.2773  155.8044 H   0  0  0  0  0  0  0  0  0  0  0  0
  147.5924  134.0313  152.7459 H   0  0  0  0  0  0  0  0  0  0  0  0
  146.4831  132.1070  153.2186 H   0  0  0  0  0  0  0  0  0  0  0  0
  144.9797  132.9394  153.6001 H   0  0  0  0  0  0  0  0  0  0  0  0
  145.0263  131.4707  151.3274 H   0  0  0  0  0  0  0  0  0  0  0  0
  143.5494  133.1252  150.2347 H   0  0  0  0  0  0  0  0  0  0  0  0
  143.3435  133.5103  151.9435 H   0  0  0  0  0  0  0  0  0  0  0  0
  144.6216  135.1237  149.8465 H   0  0  0  0  0  0  0  0  0  0  0  0
  144.3793  135.6086  151.5158 H   0  0  0  0  0  0  0  0  0  0  0  0
  146.9374  135.2022  150.6961 H   0  0  0  0  0  0  0  0  0  0  0  0
  147.3209  132.6078  150.7214 H   0  0  0  0  0  0  0  0  0  0  0  0
  146.1002  133.0290  149.4982 H   0  0  0  0  0  0  0  0  0  0  0  0
  1  2  1  0  0  0  0
  1 24  1  0  0  0  0
  1 25  1  0  0  0  0
  1 26  1  0  0  0  0
  2  3  1  0  0  0  0
  2 17  1  0  0  0  0
  2 27  1  0  0  0  0
  3  4  1  0  0  0  0
  3 28  1  0  0  0  0
  4  5  2  0  0  0  0
  4  6  1  0  0  0  0
  6  7  1  0  0  0  0
  6 29  1  0  0  0  0
  6 30  1  0  0  0  0
  7 15  1  0  0  0  0
  7  8  1  0  0  0  0
  8  9  2  0  0  0  0
  8 31  1  0  0  0  0
  9 10  1  0  0  0  0
  9 13  1  0  0  0  0
 10 11  2  0  0  0  0
 10 12  1  0  0  0  0
 13 14  2  0  0  0  0
 13 32  1  0  0  0  0
 14 15  1  0  0  0  0
 14 33  1  0  0  0  0
 15 16  2  0  0  0  0
 17 22  1  0  0  0  0
 17 18  1  0  0  0  0
 17 34  1  0  0  0  0
 18 19  1  0  0  0  0
 18 35  1  0  0  0  0
 18 36  1  0  0  0  0
 19 23  1  0  0  0  0
 19 20  1  0  0  0  0
 19 37  1  0  0  0  0
 20 21  1  0  0  0  0
 20 38  1  0  0  0  0
 20 39  1  0  0  0  0
 21 22  1  0  0  0  0
 21 40  1  0  0  0  0
 21 41  1  0  0  0  0
 22 23  1  0  0  0  0
 22 42  1  0  0  0  0
 23 43  1  0  0  0  0
 23 44  1  0  0  0  0
M  CHG  1  10   1
M  CHG  1  12  -1
M  END
> <s_m_source_file>
AV-unprocessed.smi

> <i_m_source_file_index>
334

> <i_lp_mmshare_version>
43012

> <i_f3d_flags>
0

> <s_epik_input>
W0NIMl0xW0NIMl1bQ0BIXShbQ0gyXTIpW0NAQEhdKFtDSDJdW0NAQEhdMTIpW0NASF0oW0NIM10pW05IXUMoPU8pW0NIMl1uM1tjSF1jKFtOK10oPU8pW08tXSlbY0hdW2NIXWMzPU8=

> <s_epik_cmdline>
J2VwaWtfcHl0aG9uJywgJy1waCcsICc3LjAnLCAnLXRuJywgJzgnLCAnLW1hJywgJzIwMCcsICctbWV0YWxfYmluZGluZycsICctaW1hZScsICc8aW5maWxlLm1hZT4nLCAnLW9tYWUnLCAnPG91dGZpbGUubWFlPic=

> <r_lp_tautomer_probability>
1

> <r_epik_Ionization_Penalty>
2.17081e-08

> <r_epik_Ionization_Penalty_Charging>
8.1195e-11

> <r_epik_Ionization_Penalty_Neutral>
2.16269e-08

> <r_epik_State_Penalty>
-0

> <r_epik_Charging_Adjusted_Penalty>
8.1195e-11

> <i_epik_Tot_Q>
0

> <i_epik_Tot_abs_Q>
2

> <r_epik_Metal_State_Penalty>
-0

> <b_epik_Metal_Only>
0

> <s_lp_Force_Field>
OPLS_2005

> <r_lp_Energy>
61.6475

> <b_lp_Chiralities_Consistent>
1

> <s_lp_Variant>
AV-unprocessed.smi:334-4

> <Gold.Version>
5.8.1

> <Gold.Id.Protein>
6NUR|6NUR_protein|mol2

> <Gold.PLP.Fitness>
49.9237

> <Gold.PLP.PLP>
-39.4384

> <Gold.PLP.part.hbond>
-3.0000

> <Gold.PLP.part.metal>
0.0000

> <Gold.PLP.part.buried>
-2.3757

> <Gold.PLP.part.nonpolar>
-33.4050

> <Gold.PLP.part.repulsive>
0.3382

> <Gold.PLP.ligand.clash>
0.0000

> <Gold.PLP.ligand.torsion>
0.1402

> <Gold.PLP.Chemscore.Hbond>
2.5680

> <Gold.PLP.Chemscore.CHOScore>
1.0000

> <Gold.PLP.Chemscore.Metal>
0.0000

> <Gold.Chemscore.Hbonds>
donor molecule, donor type, donor heavy atom, donor atom, acceptor molecule, acceptor atom, score
      L1  H     3    28       P1  7948  0.64
      P1  H  7997  8008       L1    12  1.00
      P1  H 10752 10765       L1    11  0.96
      L1  C     8    31       P1  7948  1.00

> <Gold.PLP.Chemscore.Internal.Correction>
0.0617

> <Gold.Rescore>
     Score         DG    S(hbond)    S(metal)    S(lipo)     H(rot)  DE(clash)    DE(int)     intcor
     17.20     -18.55       2.55        0.00      77.27       1.75       0.00       1.36       ----

> <Gold.Chemscore.Fitness>
17.1980

> <Gold.Chemscore.DG>
-18.5532

> <Gold.Chemscore.ZeroCoef>
-5.4800

> <Gold.Chemscore.Hbond>
2.5467

> <Gold.Chemscore.Metal>
0.0000

> <Gold.Chemscore.Lipo>
77.2697

> <Gold.Chemscore.Internal_Hbond>
0.0000

> <Gold.Chemscore.DEClash>
0.0000

> <Gold.Chemscore.DEInternal>
1.3553

> <Gold.Chemscore.Rot>
1.7474

> <Gold.Chemscore.Internal.Correction>
   9.000000E+99

> <Gold.Chemscore.Hbonds>
donor molecule, donor type, donor heavy atom, donor atom, acceptor molecule, acceptor atom, score
      L1  H     3    28       P1  7948  0.64
      P1  H  7997  8008       L1    12  0.93
      P1  H 10752 10765       L1    11  0.91

> <Gold.Chemscore.Hbond.Weighted>
-8.5060

> <Gold.Chemscore.Metal.Weighted>
-0.0000

> <Gold.Chemscore.Lipo.Weighted>
-9.0406

> <Gold.Chemscore.Internal_Hbond.Weighted>
0.0000

> <Gold.Chemscore.DEClash.Weighted>
0.0000

> <Gold.Chemscore.DEInternal.Weighted>
1.3553

> <Gold.Chemscore.Rot.Weighted>
4.4733

> <Gold.Chemscore.Internal.Correction.Weighted>
   9.000000E+99

> <Gold.Protein.RotatedTorsions>
[ 6907 6896 6895 6894 ] final   18.67 input  -60.11 | X-H torsion
[ 7974 7965 7964 7962 ] final  159.55 input  175.53 | X-H torsion
[ 8008 7997 7996 7995 ] final  -20.68 input   59.86 | X-H torsion
[ 10167 10162 10161 10158 ] final -100.02 input  -65.29 | X-H torsion
[ 10718 10713 10712 10709 ] final -144.71 input   66.30 | X-H torsion
[ 10763 10752 10751 10750 ] final  162.44 input  -60.55 | X-H torsion
[ 11005 11000 10999 10996 ] final   -1.21 input  -57.11 | X-H torsion

> <Gold.Protein.ActiveResidues>
 VAL166  LYS551  ARG553  GLY616  TRP617  ASP618  TYR619  PRO620  LYS621  CYS622 
 ASP623  PHE694  ASN695  SER759  ASP760  ASP761  ALA762  ILE779  LEU786  VAL792 
 PHE793  MET794  SER795  GLU796  ALA797  LYS798  CYS799  TRP800  GLU811  SER814 

> <Gold.Protein.RotatedAtoms>
  151.8689  135.0496  160.0476 H   0  0  0  0  0  0  0  0  0  0  0  0  # atno 6907 bound_to 6896
  152.2604  133.5287  159.5386 H   0  0  0  0  0  0  0  0  0  0  0  0  # atno 6908 bound_to 6896
  150.7114  134.0754  159.3921 H   0  0  0  0  0  0  0  0  0  0  0  0  # atno 6909 bound_to 6896
  144.7784  139.7632  143.6269 H   0  0  0  0  0  0  0  0  0  0  0  0  # atno 7974 bound_to 7965
  154.4754  140.2055  155.9892 H   0  0  0  0  0  0  0  0  0  0  0  0  # atno 8008 bound_to 7997
  156.1080  140.3233  155.8003 H   0  0  0  0  0  0  0  0  0  0  0  0  # atno 8009 bound_to 7997
  155.4684  140.0529  157.2973 H   0  0  0  0  0  0  0  0  0  0  0  0  # atno 8010 bound_to 7997
  140.2563  143.3438  152.0668 H   0  0  0  0  0  0  0  0  0  0  0  0  # atno 10167 bound_to 10162
  156.3735  130.7800  151.1984 H   0  0  0  0  0  0  0  0  0  0  0  0  # atno 10718 bound_to 10713
  154.2784  135.2764  155.2708 H   0  0  0  0  0  0  0  0  0  0  0  0  # atno 10763 bound_to 10752
  154.5240  135.5748  153.6707 H   0  0  0  0  0  0  0  0  0  0  0  0  # atno 10764 bound_to 10752
  152.9933  135.6211  154.2942 H   0  0  0  0  0  0  0  0  0  0  0  0  # atno 10765 bound_to 10752
  140.6448  133.9457  155.8346 H   0  0  0  0  0  0  0  0  0  0  0  0  # atno 11005 bound_to 11000
  146.1978  139.5255  142.9763 LP  0  0  0  0  0  0  0  0  0  0  0  0  # atno 17320 bound_to 7965
  145.6119  141.0338  143.1962 LP  0  0  0  0  0  0  0  0  0  0  0  0  # atno 17321 bound_to 7965
  139.5030  144.6747  151.6156 LP  0  0  0  0  0  0  0  0  0  0  0  0  # atno 17342 bound_to 10162
  140.6001  143.9625  150.6381 LP  0  0  0  0  0  0  0  0  0  0  0  0  # atno 17343 bound_to 10162
  157.7486  131.0365  150.4413 LP  0  0  0  0  0  0  0  0  0  0  0  0  # atno 17370 bound_to 10713
  156.4644  130.4039  149.6556 LP  0  0  0  0  0  0  0  0  0  0  0  0  # atno 17371 bound_to 10713
  141.0580  134.0388  157.3697 LP  0  0  0  0  0  0  0  0  0  0  0  0  # atno 17394 bound_to 11000
  139.9067  135.0181  156.7515 LP  0  0  0  0  0  0  0  0  0  0  0  0  # atno 17395 bound_to 11000

$$$$
