AV-unprocessed.smi:2821|AV-procd|sdf|10857|dock9
  -GOLD-   2272015303D 1   1.00000     0.00000
 Structure written by MMmdl.
 36 37  0  0  0  0  0  0  0  0  1 V2000
  152.8744  138.4780  154.8995 C   0  0  0  0  0  0  0  0  0  0  0  0
  151.6500  137.6724  155.3396 C   0  0  0  0  0  0  0  0  0  0  0  0
  150.5765  137.9422  154.4428 O   0  0  0  0  0  0  0  0  0  0  0  0
  149.9878  139.1892  154.4870 C   0  0  0  0  0  0  0  0  0  0  0  0
  148.9064  139.4818  153.6288 C   0  0  0  0  0  0  0  0  0  0  0  0
  148.2856  140.6820  153.6446 N   0  0  0  0  0  0  0  0  0  0  0  0
  148.7501  141.5927  154.5286 C   0  0  0  0  0  0  0  0  0  0  0  0
  149.8326  141.3155  155.3925 C   0  0  0  0  0  0  0  0  0  0  0  0
  150.2664  142.3030  156.2902 N   0  0  0  0  0  0  0  0  0  0  0  0
  150.5913  142.0025  157.6824 C   0  0  1  0  0  0  0  0  0  0  0  0
  151.8321  141.0951  157.7147 C   0  0  0  0  0  0  0  0  0  0  0  0
  150.8089  143.2995  158.4969 C   0  0  2  0  0  0  0  0  0  0  0  0
  151.9506  144.1817  157.9853 C   0  0  0  0  0  0  0  0  0  0  0  0
  152.3289  144.9591  159.2241 C   0  0  0  0  0  0  0  0  0  0  0  0
  152.1885  143.8952  160.3054 C   0  0  0  0  0  0  0  0  0  0  0  0
  151.1703  143.0105  159.8478 O   0  0  0  0  0  0  0  0  0  0  0  0
  150.4560  140.1135  155.3623 N   0  0  0  0  0  0  0  0  0  0  0  0
  153.7188  138.2970  155.5647 H   0  0  0  0  0  0  0  0  0  0  0  0
  152.6634  139.5475  154.9095 H   0  0  0  0  0  0  0  0  0  0  0  0
  153.1799  138.2046  153.8893 H   0  0  0  0  0  0  0  0  0  0  0  0
  151.8928  136.6085  155.3350 H   0  0  0  0  0  0  0  0  0  0  0  0
  151.3740  137.9512  156.3577 H   0  0  0  0  0  0  0  0  0  0  0  0
  148.5343  138.7473  152.9301 H   0  0  0  0  0  0  0  0  0  0  0  0
  148.2511  142.5507  154.5457 H   0  0  0  0  0  0  0  0  0  0  0  0
  150.2365  143.2711  156.0051 H   0  0  0  0  0  0  0  0  0  0  0  0
  149.7721  141.4391  158.1302 H   0  0  0  0  0  0  0  0  0  0  0  0
  152.0718  140.7779  158.7296 H   0  0  0  0  0  0  0  0  0  0  0  0
  152.7077  141.6031  157.3089 H   0  0  0  0  0  0  0  0  0  0  0  0
  151.6705  140.1908  157.1271 H   0  0  0  0  0  0  0  0  0  0  0  0
  149.8907  143.8889  158.5204 H   0  0  0  0  0  0  0  0  0  0  0  0
  152.7931  143.5696  157.6598 H   0  0  0  0  0  0  0  0  0  0  0  0
  151.6538  144.8249  157.1563 H   0  0  0  0  0  0  0  0  0  0  0  0
  153.3296  145.3893  159.1750 H   0  0  0  0  0  0  0  0  0  0  0  0
  151.6143  145.7658  159.3931 H   0  0  0  0  0  0  0  0  0  0  0  0
  153.1158  143.3303  160.4085 H   0  0  0  0  0  0  0  0  0  0  0  0
  151.9401  144.3206  161.2779 H   0  0  0  0  0  0  0  0  0  0  0  0
  1  2  1  0  0  0  0
  1 18  1  0  0  0  0
  1 19  1  0  0  0  0
  1 20  1  0  0  0  0
  2  3  1  0  0  0  0
  2 21  1  0  0  0  0
  2 22  1  0  0  0  0
  3  4  1  0  0  0  0
  4 17  1  0  0  0  0
  4  5  2  0  0  0  0
  5  6  1  0  0  0  0
  5 23  1  0  0  0  0
  6  7  2  0  0  0  0
  7  8  1  0  0  0  0
  7 24  1  0  0  0  0
  8  9  1  0  0  0  0
  8 17  2  0  0  0  0
  9 10  1  0  0  0  0
  9 25  1  0  0  0  0
 10 11  1  0  0  0  0
 10 12  1  0  0  0  0
 10 26  1  0  0  0  0
 11 27  1  0  0  0  0
 11 28  1  0  0  0  0
 11 29  1  0  0  0  0
 12 16  1  0  0  0  0
 12 13  1  0  0  0  0
 12 30  1  0  0  0  0
 13 14  1  0  0  0  0
 13 31  1  0  0  0  0
 13 32  1  0  0  0  0
 14 15  1  0  0  0  0
 14 33  1  0  0  0  0
 14 34  1  0  0  0  0
 15 16  1  0  0  0  0
 15 35  1  0  0  0  0
 15 36  1  0  0  0  0
M  END
> <s_m_source_file>
AV-unprocessed.smi

> <i_m_source_file_index>
2821

> <i_lp_mmshare_version>
43012

> <i_f3d_flags>
0

> <s_epik_input>
W0NIM11bQ0gyXU9jMVtjSF1uW2NIXWMobjEpW05IXVtDQEhdKFtDSDNdKVtDQEBIXTJbQ0gyXVtDSDJdW0NIMl1PMg==

> <s_epik_cmdline>
J2VwaWtfcHl0aG9uJywgJy1waCcsICc3LjAnLCAnLXRuJywgJzgnLCAnLW1hJywgJzIwMCcsICctbWV0YWxfYmluZGluZycsICctaW1hZScsICc8aW5maWxlLm1hZT4nLCAnLW9tYWUnLCAnPG91dGZpbGUubWFlPic=

> <r_lp_tautomer_probability>
1

> <r_epik_Ionization_Penalty>
4.69533e-05

> <r_epik_Ionization_Penalty_Charging>
0

> <r_epik_Ionization_Penalty_Neutral>
4.69533e-05

> <r_epik_State_Penalty>
-0

> <r_epik_Charging_Adjusted_Penalty>
0

> <i_epik_Tot_Q>
0

> <i_epik_Tot_abs_Q>
0

> <r_epik_Metal_State_Penalty>
-0

> <b_epik_Metal_Only>
0

> <s_lp_Force_Field>
OPLS_2005

> <r_lp_Energy>
28.2268

> <b_lp_Chiralities_Consistent>
1

> <s_lp_Variant>
AV-unprocessed.smi:2821-2

> <Gold.Version>
5.8.1

> <Gold.Id.Protein>
6NUR|6NUR_protein|mol2

> <Gold.PLP.Fitness>
44.0764

> <Gold.PLP.PLP>
-37.3366

> <Gold.PLP.part.hbond>
-1.7975

> <Gold.PLP.part.metal>
0.0000

> <Gold.PLP.part.buried>
-3.8362

> <Gold.PLP.part.nonpolar>
-33.4029

> <Gold.PLP.part.repulsive>
1.6126

> <Gold.PLP.ligand.clash>
0.0000

> <Gold.PLP.ligand.torsion>
0.4527

> <Gold.PLP.Chemscore.Hbond>
1.0010

> <Gold.PLP.Chemscore.CHOScore>
1.5398

> <Gold.PLP.Chemscore.Metal>
0.0000

> <Gold.Chemscore.Hbonds>
donor molecule, donor type, donor heavy atom, donor atom, acceptor molecule, acceptor atom, score
      L1  H     9    25       P1  8028  0.80
      P1  H  7989  7998       L1    17  0.02
      L1  C     5    23       P1  7948  0.48
      L1  C     5    23       P1  7957  0.17
      L1  C     7    24       P1  8028  1.00

> <Gold.PLP.Chemscore.Internal.Correction>
0.0230

> <Gold.Rescore>
     Score         DG    S(hbond)    S(metal)    S(lipo)     H(rot)  DE(clash)    DE(int)     intcor
     13.64     -15.53       0.98        0.00      91.71       1.55       0.03       1.85       ----

> <Gold.Chemscore.Fitness>
13.6447

> <Gold.Chemscore.DG>
-15.5264

> <Gold.Chemscore.ZeroCoef>
-5.4800

> <Gold.Chemscore.Hbond>
0.9843

> <Gold.Chemscore.Metal>
0.0000

> <Gold.Chemscore.Lipo>
91.7119

> <Gold.Chemscore.Internal_Hbond>
0.0000

> <Gold.Chemscore.DEClash>
0.0285

> <Gold.Chemscore.DEInternal>
1.8533

> <Gold.Chemscore.Rot>
1.5514

> <Gold.Chemscore.Internal.Correction>
   9.000000E+99

> <Gold.Chemscore.Hbonds>
donor molecule, donor type, donor heavy atom, donor atom, acceptor molecule, acceptor atom, score
      L1  H     9    25       P1  8028  0.76

> <Gold.Chemscore.Hbond.Weighted>
-3.2876

> <Gold.Chemscore.Metal.Weighted>
-0.0000

> <Gold.Chemscore.Lipo.Weighted>
-10.7303

> <Gold.Chemscore.Internal_Hbond.Weighted>
0.0000

> <Gold.Chemscore.DEClash.Weighted>
0.0285

> <Gold.Chemscore.DEInternal.Weighted>
1.8533

> <Gold.Chemscore.Rot.Weighted>
3.9715

> <Gold.Chemscore.Internal.Correction.Weighted>
   9.000000E+99

> <Gold.Protein.RotatedTorsions>
[ 6907 6896 6895 6894 ] final   34.46 input  -60.11 | X-H torsion
[ 7974 7965 7964 7962 ] final   72.75 input  175.53 | X-H torsion
[ 8008 7997 7996 7995 ] final  163.30 input   59.86 | X-H torsion
[ 10167 10162 10161 10158 ] final  -60.78 input  -65.29 | X-H torsion
[ 10718 10713 10712 10709 ] final   34.25 input   66.30 | X-H torsion
[ 10763 10752 10751 10750 ] final  -35.40 input  -60.55 | X-H torsion
[ 11005 11000 10999 10996 ] final  -29.85 input  -57.11 | X-H torsion

> <Gold.Protein.ActiveResidues>
 VAL166  LYS551  ARG553  GLY616  TRP617  ASP618  TYR619  PRO620  LYS621  CYS622 
 ASP623  PHE694  ASN695  SER759  ASP760  ASP761  ALA762  ILE779  LEU786  VAL792 
 PHE793  MET794  SER795  GLU796  ALA797  LYS798  CYS799  TRP800  GLU811  SER814 

> <Gold.Protein.RotatedAtoms>
  152.1027  134.9330  160.0568 H   0  0  0  0  0  0  0  0  0  0  0  0  # atno 6907 bound_to 6896
  152.0539  133.4026  159.4397 H   0  0  0  0  0  0  0  0  0  0  0  0  # atno 6908 bound_to 6896
  150.6840  134.3197  159.4825 H   0  0  0  0  0  0  0  0  0  0  0  0  # atno 6909 bound_to 6896
  145.7494  139.2754  143.1440 H   0  0  0  0  0  0  0  0  0  0  0  0  # atno 7974 bound_to 7965
  156.1967  140.1727  156.7983 H   0  0  0  0  0  0  0  0  0  0  0  0  # atno 8008 bound_to 7997
  154.5539  140.0712  156.8743 H   0  0  0  0  0  0  0  0  0  0  0  0  # atno 8009 bound_to 7997
  155.2976  140.3359  155.4251 H   0  0  0  0  0  0  0  0  0  0  0  0  # atno 8010 bound_to 7997
  140.6049  143.2371  151.5844 H   0  0  0  0  0  0  0  0  0  0  0  0  # atno 10167 bound_to 10162
  157.3079  130.7384  149.6707 H   0  0  0  0  0  0  0  0  0  0  0  0  # atno 10718 bound_to 10713
  153.8626  135.6838  153.4781 H   0  0  0  0  0  0  0  0  0  0  0  0  # atno 10763 bound_to 10752
  153.1333  135.4688  154.9381 H   0  0  0  0  0  0  0  0  0  0  0  0  # atno 10764 bound_to 10752
  154.7752  135.3251  154.8057 H   0  0  0  0  0  0  0  0  0  0  0  0  # atno 10765 bound_to 10752
  140.9332  133.7325  156.0967 H   0  0  0  0  0  0  0  0  0  0  0  0  # atno 11005 bound_to 11000
  146.0371  140.8201  142.9847 LP  0  0  0  0  0  0  0  0  0  0  0  0  # atno 17320 bound_to 7965
  144.6853  140.2855  143.7286 LP  0  0  0  0  0  0  0  0  0  0  0  0  # atno 17321 bound_to 7965
  139.5318  144.2895  152.1163 LP  0  0  0  0  0  0  0  0  0  0  0  0  # atno 17342 bound_to 10162
  140.2083  144.4588  150.6398 LP  0  0  0  0  0  0  0  0  0  0  0  0  # atno 17343 bound_to 10162
  155.9676  130.4260  150.4679 LP  0  0  0  0  0  0  0  0  0  0  0  0  # atno 17370 bound_to 10713
  157.2672  131.0579  151.2283 LP  0  0  0  0  0  0  0  0  0  0  0  0  # atno 17371 bound_to 10713
  140.7834  134.3699  157.5482 LP  0  0  0  0  0  0  0  0  0  0  0  0  # atno 17394 bound_to 11000
  139.8801  134.9096  156.2994 LP  0  0  0  0  0  0  0  0  0  0  0  0  # atno 17395 bound_to 11000

$$$$
