#       Name:                AV-unprocessed.smi:712
#       Creating user name   scv26
#       Creation time:       Fri Mar 27 00:45:57 2020


#       File generated by GOLD software.
#

@<TRIPOS>MOLECULE
AV-unprocessed.smi:712
    57    58     1
SMALL
NO_CHARGES


@<TRIPOS>ATOM
      1 ****        -2.3230   3.9119   2.6999 C.3            1 S1                 0.0000
      2 ****        -2.5906   2.8251   1.6795 C.2            1 S1                 0.0000
      3 ****        -3.7624   1.9809   1.7885 C.2            1 S1                 0.0000
      4 ****        -3.9670   1.0239   0.8699 C.2            1 S1                 0.0000
      5 ****        -3.0748   0.8157  -0.1973 N.am           1 S1                 0.0000
      6 ****        -3.3847  -0.2746  -1.1368 C.3            1 S1                 0.0000
      7 ****        -2.5144  -1.5084  -0.8736 C.2            1 S1                 0.0000
      8 ****        -2.4974  -2.0285   0.2420 O.2            1 S1                 0.0000
      9 ****        -1.7805  -1.9488  -1.9061 N.am           1 S1                 0.0000
     10 ****        -0.7749  -3.0037  -1.8410 C.3            1 S1                 0.0000
     11 ****         0.6270  -2.4287  -1.5569 C.3            1 S1                 0.0000
     12 ****         0.7992  -1.9037  -0.1096 C.3            1 S1                 0.0000
     13 ****         2.1900  -1.4577   0.1578 N.4            1 S1                 1.0000
     14 ****         2.5212  -0.1108  -0.3812 C.3            1 S1                 0.0000
     15 ****         1.9677   1.0341   0.4954 C.3            1 S1                 0.0000
     16 ****         2.1412   2.3883  -0.2077 C.3            1 S1                 0.0000
     17 ****         2.6248   1.0615   1.8850 C.3            1 S1                 0.0000
     18 ****         3.1591  -2.5142  -0.2212 C.3            1 S1                 0.0000
     19 ****         2.9190  -3.0007  -1.6608 C.3            1 S1                 0.0000
     20 ****         1.5791  -3.4621  -1.7846 O.3            1 S1                 0.0000
     21 ****        -1.9493   1.5771  -0.3563 C.2            1 S1                 0.0000
     22 ****        -1.1583   1.3937  -1.2828 O.2            1 S1                 0.0000
     23 ****        -1.7363   2.6203   0.6529 C.2            1 S1                 0.0000
     24 ****        -3.2094   4.1097   3.3033 H              1 S1                 0.0000
     25 ****        -2.0358   4.8408   2.2059 H              1 S1                 0.0000
     26 ****        -1.5143   3.6121   3.3670 H              1 S1                 0.0000
     27 ****        -4.4635   2.1134   2.5995 H              1 S1                 0.0000
     28 ****        -4.8167   0.3573   0.8987 H              1 S1                 0.0000
     29 ****        -4.4313  -0.5725  -1.0616 H              1 S1                 0.0000
     30 ****        -3.2561   0.0716  -2.1643 H              1 S1                 0.0000
     31 ****        -1.8749  -1.4675  -2.7890 H              1 S1                 0.0000
     32 ****        -1.0417  -3.7643  -1.1052 H              1 S1                 0.0000
     33 ****        -0.7712  -3.5039  -2.8097 H              1 S1                 0.0000
     34 ****         0.8115  -1.6270  -2.2737 H              1 S1                 0.0000
     35 ****         0.1033  -1.0939   0.0994 H              1 S1                 0.0000
     36 ****         0.5580  -2.7011   0.5946 H              1 S1                 0.0000
     37 ****         3.6044   0.0032  -0.4437 H              1 S1                 0.0000
     38 ****         2.1535  -0.0188  -1.4032 H              1 S1                 0.0000
     39 ****         0.8979   0.8917   0.6403 H              1 S1                 0.0000
     40 ****         3.1934   2.6103  -0.3887 H              1 S1                 0.0000
     41 ****         1.7282   3.1993   0.3928 H              1 S1                 0.0000
     42 ****         1.6272   2.4008  -1.1693 H              1 S1                 0.0000
     43 ****         3.7029   1.2087   1.8123 H              1 S1                 0.0000
     44 ****         2.4508   0.1320   2.4274 H              1 S1                 0.0000
     45 ****         2.2200   1.8710   2.4933 H              1 S1                 0.0000
     46 ****         4.1840  -2.1645  -0.0928 H              1 S1                 0.0000
     47 ****         3.0354  -3.3527   0.4655 H              1 S1                 0.0000
     48 ****         3.1183  -2.2097  -2.3854 H              1 S1                 0.0000
     49 ****         3.5961  -3.8219  -1.8956 H              1 S1                 0.0000
     50 ****        -0.8588   3.2448   0.5677 H              1 S1                 0.0000
     51 ****         2.2731  -1.3607   1.1599 H              1 S1                 0.0000
     52 ****        -3.0527  -1.6460   0.9805 LP             1 S1                 0.0000
     53 ****        -1.9282  -2.8334   0.4098 LP             1 S1                 0.0000
     54 ****         1.4474  -3.8225  -2.7081 LP             1 S1                 0.0000
     55 ****         1.4275  -4.1914  -1.1174 LP             1 S1                 0.0000
     56 ****        -1.3291   0.6686  -1.9499 LP             1 S1                 0.0000
     57 ****        -0.3454   1.9700  -1.3678 LP             1 S1                 0.0000
@<TRIPOS>BOND
    1    1    2 1     
    2    1   24 1     
    3    1   25 1     
    4    1   26 1     
    5    2   23 2     
    6    2    3 1     
    7    3    4 2     
    8    3   27 1     
    9    4    5 1     
   10    4   28 1     
   11    5    6 1     
   12    5   21 am    
   13    6    7 1     
   14    6   29 1     
   15    6   30 1     
   16    7    8 2     
   17    7    9 am    
   18    9   10 1     
   19    9   31 1     
   20   10   11 1     
   21   10   32 1     
   22   10   33 1     
   23   11   20 1     
   24   11   12 1     
   25   11   34 1     
   26   12   13 1     
   27   12   35 1     
   28   12   36 1     
   29   13   14 1     
   30   13   18 1     
   31   13   51 1     
   32   14   15 1     
   33   14   37 1     
   34   14   38 1     
   35   15   16 1     
   36   15   17 1     
   37   15   39 1     
   38   16   40 1     
   39   16   41 1     
   40   16   42 1     
   41   17   43 1     
   42   17   44 1     
   43   17   45 1     
   44   18   19 1     
   45   18   46 1     
   46   18   47 1     
   47   19   20 1     
   48   19   48 1     
   49   19   49 1     
   50   21   22 2     
   51   21   23 1     
   52   23   50 1     
   53    8   52 1     
   54    8   53 1     
   55   20   54 1     
   56   20   55 1     
   57   22   56 1     
   58   22   57 1     
@<TRIPOS>SUBSTRUCTURE
      1 S1             1
@<TRIPOS>SET
LONE_PAIRS      STATIC     ATOMS    <user>   **** ""
6 52 53 54 55 56 57
DONOR_HYDROGENS      STATIC     ATOMS    <user>   **** ""
2 31 51
ATOM$BLUE        STATIC     ATOMS    COLORGROUP SYSTEM
6 52 53 54 55 56 57
ATOM$RED        STATIC     ATOMS    COLORGROUP SYSTEM
2 31 51
