AV-unprocessed.smi:1207|AV-procd|sdf|5058|dock10
  -GOLD-   22720 4 93D 1   1.00000     0.00000
 Structure written by MMmdl.
 53 55  0  0  0  0  0  0  0  0  3 V2000
  152.6357  141.9980  159.1278 C   0  0  0  0  0  0  0  0  0  0  0  0
  151.8159  141.4021  157.9959 C   0  0  0  0  0  0  0  0  0  0  0  0
  151.0042  142.2646  157.2249 C   0  0  0  0  0  0  0  0  0  0  0  0
  150.2638  141.6897  156.1988 C   0  0  0  0  0  0  0  0  0  0  0  0
  149.3826  142.2576  155.2763 N   0  3  0  0  0  0  0  0  0  0  0  0
  148.8919  141.2856  154.4581 C   0  0  0  0  0  0  0  0  0  0  0  0
  149.4457  140.1043  154.8467 N   0  0  0  0  0  0  0  0  0  0  0  0
  149.2590  138.7491  154.3109 C   0  0  0  0  0  0  0  0  0  0  0  0
  147.8066  138.4748  153.8741 C   0  0  1  0  0  0  0  0  0  0  0  0
  147.7448  138.4280  152.4617 O   0  0  0  0  0  0  0  0  0  0  0  0
  147.2681  137.1460  154.4410 C   0  0  0  0  0  0  0  0  0  0  0  0
  146.6534  136.3047  153.3829 N   0  3  1  0  0  0  0  0  0  0  0  0
  146.6853  134.8625  153.7191 C   0  0  0  0  0  0  0  0  0  0  0  0
  145.3004  136.7663  152.9791 C   0  0  0  0  0  0  0  0  0  0  0  0
  144.2461  136.1991  153.8915 C   0  0  0  0  0  0  0  0  0  0  0  0
  143.2897  135.1890  153.5852 C   0  0  0  0  0  0  0  0  0  0  0  0
  143.1024  134.4429  152.2950 C   0  0  0  0  0  0  0  0  0  0  0  0
  142.5084  134.9196  154.6164 N   0  0  0  0  0  0  0  0  0  0  0  0
  142.9301  135.7644  155.6474 O   0  0  0  0  0  0  0  0  0  0  0  0
  143.9642  136.5162  155.1925 C   0  0  0  0  0  0  0  0  0  0  0  0
  144.5519  137.4866  156.1605 C   0  0  0  0  0  0  0  0  0  0  0  0
  150.3115  140.3089  155.9264 C   0  0  0  0  0  0  0  0  0  0  0  0
  151.1089  139.4452  156.6736 C   0  0  0  0  0  0  0  0  0  0  0  0
  151.8676  140.0102  157.7235 C   0  0  0  0  0  0  0  0  0  0  0  0
  152.7438  139.0926  158.5593 C   0  0  0  0  0  0  0  0  0  0  0  0
  152.4906  143.0760  159.2015 H   0  0  0  0  0  0  0  0  0  0  0  0
  153.6988  141.8156  158.9689 H   0  0  0  0  0  0  0  0  0  0  0  0
  152.3467  141.5574  160.0822 H   0  0  0  0  0  0  0  0  0  0  0  0
  150.9610  143.3252  157.4259 H   0  0  0  0  0  0  0  0  0  0  0  0
  148.1881  141.4272  153.6505 H   0  0  0  0  0  0  0  0  0  0  0  0
  149.9400  138.6325  153.4665 H   0  0  0  0  0  0  0  0  0  0  0  0
  149.5808  138.0349  155.0702 H   0  0  0  0  0  0  0  0  0  0  0  0
  147.1808  139.3031  154.2035 H   0  0  0  0  0  0  0  0  0  0  0  0
  148.2027  137.6568  152.1626 H   0  0  0  0  0  0  0  0  0  0  0  0
  148.0910  136.6122  154.9195 H   0  0  0  0  0  0  0  0  0  0  0  0
  146.5310  137.3290  155.2248 H   0  0  0  0  0  0  0  0  0  0  0  0
  146.0768  134.6522  154.5994 H   0  0  0  0  0  0  0  0  0  0  0  0
  147.7055  134.5358  153.9227 H   0  0  0  0  0  0  0  0  0  0  0  0
  146.3120  134.2584  152.8921 H   0  0  0  0  0  0  0  0  0  0  0  0
  145.2776  137.8566  152.9600 H   0  0  0  0  0  0  0  0  0  0  0  0
  145.0910  136.4615  151.9542 H   0  0  0  0  0  0  0  0  0  0  0  0
  143.0710  135.1279  151.4475 H   0  0  0  0  0  0  0  0  0  0  0  0
  142.1735  133.8717  152.2894 H   0  0  0  0  0  0  0  0  0  0  0  0
  143.9222  133.7443  152.1274 H   0  0  0  0  0  0  0  0  0  0  0  0
  145.5043  137.8757  155.8014 H   0  0  0  0  0  0  0  0  0  0  0  0
  144.7263  137.0111  157.1259 H   0  0  0  0  0  0  0  0  0  0  0  0
  143.8792  138.3302  156.3163 H   0  0  0  0  0  0  0  0  0  0  0  0
  151.1497  138.3866  156.4654 H   0  0  0  0  0  0  0  0  0  0  0  0
  152.6662  138.0562  158.2293 H   0  0  0  0  0  0  0  0  0  0  0  0
  152.4482  139.1308  159.6080 H   0  0  0  0  0  0  0  0  0  0  0  0
  153.7905  139.3885  158.4833 H   0  0  0  0  0  0  0  0  0  0  0  0
  147.2495  136.4154  152.5745 H   0  0  0  0  0  0  0  0  0  0  0  0
  149.1332  143.2364  155.2072 H   0  0  0  0  0  0  0  0  0  0  0  0
  1  2  1  0  0  0  0
  1 26  1  0  0  0  0
  1 27  1  0  0  0  0
  1 28  1  0  0  0  0
  2 24  1  0  0  0  0
  2  3  2  0  0  0  0
  3  4  1  0  0  0  0
  3 29  1  0  0  0  0
  4 22  2  0  0  0  0
  4  5  1  0  0  0  0
  5  6  2  0  0  0  0
  5 53  1  0  0  0  0
  6  7  1  0  0  0  0
  6 30  1  0  0  0  0
  7  8  1  0  0  0  0
  7 22  1  0  0  0  0
  8  9  1  0  0  0  0
  8 31  1  0  0  0  0
  8 32  1  0  0  0  0
  9 10  1  0  0  0  0
  9 11  1  0  0  0  0
  9 33  1  0  0  0  0
 10 34  1  0  0  0  0
 11 12  1  0  0  0  0
 11 35  1  0  0  0  0
 11 36  1  0  0  0  0
 12 13  1  0  0  0  0
 12 14  1  0  0  0  0
 12 52  1  0  0  0  0
 13 37  1  0  0  0  0
 13 38  1  0  0  0  0
 13 39  1  0  0  0  0
 14 15  1  0  0  0  0
 14 40  1  0  0  0  0
 14 41  1  0  0  0  0
 15 20  2  0  0  0  0
 15 16  1  0  0  0  0
 16 17  1  0  0  0  0
 16 18  2  0  0  0  0
 17 42  1  0  0  0  0
 17 43  1  0  0  0  0
 17 44  1  0  0  0  0
 18 19  1  0  0  0  0
 19 20  1  0  0  0  0
 20 21  1  0  0  0  0
 21 45  1  0  0  0  0
 21 46  1  0  0  0  0
 21 47  1  0  0  0  0
 22 23  1  0  0  0  0
 23 24  2  0  0  0  0
 23 48  1  0  0  0  0
 24 25  1  0  0  0  0
 25 49  1  0  0  0  0
 25 50  1  0  0  0  0
 25 51  1  0  0  0  0
M  CHG  1   5   1
M  CHG  1  12   1
M  END
> <s_m_source_file>
AV-unprocessed.smi

> <i_m_source_file_index>
1207

> <i_lp_mmshare_version>
43012

> <i_f3d_flags>
0

> <s_epik_input>
W0NIM11jKFtjSF0xKWMoW0NIM10pW2NIXWMoYzEyKW4oW2NIXW4yKVtDSDJdW0NASF0oW09IXSlbQ0gyXU4oW0NIM10pW0NIMl1jM2MoW0NIM10pbm9jM1tDSDNd

> <s_epik_cmdline>
J2VwaWtfcHl0aG9uJywgJy1waCcsICc3LjAnLCAnLXRuJywgJzgnLCAnLW1hJywgJzIwMCcsICctbWV0YWxfYmluZGluZycsICctaW1hZScsICc8aW5maWxlLm1hZT4nLCAnLW9tYWUnLCAnPG91dGZpbGUubWFlPic=

> <r_epik_Ionization_Penalty>
1.77463

> <r_epik_Ionization_Penalty_Charging>
1.77463

> <r_epik_Ionization_Penalty_Neutral>
3.70885e-06

> <r_epik_State_Penalty>
1.85225

> <r_epik_Charging_Adjusted_Penalty>
3.62688

> <i_epik_Tot_Q>
2

> <i_epik_Tot_abs_Q>
2

> <r_epik_Metal_State_Penalty>
1.92674

> <b_epik_Metal_Only>
0

> <s_lp_Force_Field>
OPLS_2005

> <r_lp_Energy>
18.8212

> <b_lp_Chiralities_Consistent>
1

> <s_lp_Variant>
AV-unprocessed.smi:1207-10

> <Gold.Version>
5.8.1

> <Gold.Id.Protein>
6NUR|6NUR_protein|mol2

> <Gold.PLP.Fitness>
48.1731

> <Gold.PLP.PLP>
-37.5834

> <Gold.PLP.part.hbond>
-5.2494

> <Gold.PLP.part.metal>
0.0000

> <Gold.PLP.part.buried>
-6.1814

> <Gold.PLP.part.nonpolar>
-27.8760

> <Gold.PLP.part.repulsive>
0.3425

> <Gold.PLP.ligand.clash>
0.0000

> <Gold.PLP.ligand.torsion>
2.2605

> <Gold.PLP.Chemscore.Hbond>
5.0000

> <Gold.PLP.Chemscore.CHOScore>
0.0000

> <Gold.PLP.Chemscore.Metal>
0.0000

> <Gold.Chemscore.Hbonds>
donor molecule, donor type, donor heavy atom, donor atom, acceptor molecule, acceptor atom, score
      L1  H     5    53       P1  8028  2.00
      L1  H    10    34       P1  7948  1.00
      L1  H    12    52       P1  7948  1.92

> <Gold.PLP.Chemscore.Internal.Correction>
0.1107

> <Gold.Rescore>
     Score         DG    S(hbond)    S(metal)    S(lipo)     H(rot)  DE(clash)    DE(int)     intcor
     15.72     -19.18       2.95        0.00      88.32       2.54       0.04       3.43       ----

> <Gold.Chemscore.Fitness>
15.7173

> <Gold.Chemscore.DG>
-19.1840

> <Gold.Chemscore.ZeroCoef>
-5.4800

> <Gold.Chemscore.Hbond>
2.9522

> <Gold.Chemscore.Metal>
0.0000

> <Gold.Chemscore.Lipo>
88.3204

> <Gold.Chemscore.Internal_Hbond>
0.0000

> <Gold.Chemscore.DEClash>
0.0357

> <Gold.Chemscore.DEInternal>
3.4309

> <Gold.Chemscore.Rot>
2.5351

> <Gold.Chemscore.Internal.Correction>
   9.000000E+99

> <Gold.Chemscore.Hbonds>
donor molecule, donor type, donor heavy atom, donor atom, acceptor molecule, acceptor atom, score
      L1  H     5    53       P1  8028  0.96
      L1  H    10    34       P1  7948  0.99
      L1  H    12    52       P1  7948  0.92

> <Gold.Chemscore.Hbond.Weighted>
-9.8605

> <Gold.Chemscore.Metal.Weighted>
-0.0000

> <Gold.Chemscore.Lipo.Weighted>
-10.3335

> <Gold.Chemscore.Internal_Hbond.Weighted>
0.0000

> <Gold.Chemscore.DEClash.Weighted>
0.0357

> <Gold.Chemscore.DEInternal.Weighted>
3.4309

> <Gold.Chemscore.Rot.Weighted>
6.4900

> <Gold.Chemscore.Internal.Correction.Weighted>
   9.000000E+99

> <Gold.Protein.RotatedTorsions>
[ 6907 6896 6895 6894 ] final  176.62 input  -60.11 | X-H torsion
[ 7974 7965 7964 7962 ] final  -48.21 input  175.53 | X-H torsion
[ 8008 7997 7996 7995 ] final  -69.18 input   59.86 | X-H torsion
[ 10167 10162 10161 10158 ] final -165.04 input  -65.29 | X-H torsion
[ 10718 10713 10712 10709 ] final  122.99 input   66.30 | X-H torsion
[ 10763 10752 10751 10750 ] final  145.09 input  -60.55 | X-H torsion
[ 11005 11000 10999 10996 ] final   79.12 input  -57.11 | X-H torsion

> <Gold.Protein.ActiveResidues>
 VAL166  LYS551  ARG553  GLY616  TRP617  ASP618  TYR619  PRO620  LYS621  CYS622 
 ASP623  PHE694  ASN695  SER759  ASP760  ASP761  ALA762  ILE779  LEU786  VAL792 
 PHE793  MET794  SER795  GLU796  ALA797  LYS798  CYS799  TRP800  GLU811  SER814 

> <Gold.Protein.RotatedAtoms>
  151.7172  133.3313  159.3305 H   0  0  0  0  0  0  0  0  0  0  0  0  # atno 6907 bound_to 6896
  150.7668  134.6480  159.6282 H   0  0  0  0  0  0  0  0  0  0  0  0  # atno 6908 bound_to 6896
  152.3674  134.6786  160.0239 H   0  0  0  0  0  0  0  0  0  0  0  0  # atno 6909 bound_to 6896
  145.9536  140.7548  142.9492 H   0  0  0  0  0  0  0  0  0  0  0  0  # atno 7974 bound_to 7965
  154.4920  140.0858  156.7615 H   0  0  0  0  0  0  0  0  0  0  0  0  # atno 8008 bound_to 7997
  155.4208  140.3445  155.4253 H   0  0  0  0  0  0  0  0  0  0  0  0  # atno 8009 bound_to 7997
  156.1342  140.1510  156.9007 H   0  0  0  0  0  0  0  0  0  0  0  0  # atno 8010 bound_to 7997
  139.6209  144.0626  152.1932 H   0  0  0  0  0  0  0  0  0  0  0  0  # atno 10167 bound_to 10162
  157.5700  131.1084  150.8385 H   0  0  0  0  0  0  0  0  0  0  0  0  # atno 10718 bound_to 10713
  153.9997  135.2924  155.3404 H   0  0  0  0  0  0  0  0  0  0  0  0  # atno 10763 bound_to 10752
  154.7167  135.5127  153.8751 H   0  0  0  0  0  0  0  0  0  0  0  0  # atno 10764 bound_to 10752
  153.0772  135.6667  154.0240 H   0  0  0  0  0  0  0  0  0  0  0  0  # atno 10765 bound_to 10752
  139.9185  134.7817  156.1737 H   0  0  0  0  0  0  0  0  0  0  0  0  # atno 11005 bound_to 11000
  144.6800  140.2475  143.7336 LP  0  0  0  0  0  0  0  0  0  0  0  0  # atno 17320 bound_to 7965
  145.8138  139.2014  143.1978 LP  0  0  0  0  0  0  0  0  0  0  0  0  # atno 17321 bound_to 7965
  140.0268  144.6111  150.7521 LP  0  0  0  0  0  0  0  0  0  0  0  0  # atno 17342 bound_to 10162
  140.7381  143.2774  151.3700 LP  0  0  0  0  0  0  0  0  0  0  0  0  # atno 17343 bound_to 10162
  156.8859  130.5196  149.5288 LP  0  0  0  0  0  0  0  0  0  0  0  0  # atno 17370 bound_to 10713
  156.0746  130.5771  150.9448 LP  0  0  0  0  0  0  0  0  0  0  0  0  # atno 17371 bound_to 10713
  141.0684  133.6808  156.2092 LP  0  0  0  0  0  0  0  0  0  0  0  0  # atno 17394 bound_to 11000
  140.6546  134.5031  157.5580 LP  0  0  0  0  0  0  0  0  0  0  0  0  # atno 17395 bound_to 11000

$$$$
