AV-unprocessed.smi:673|AV-procd|sdf|3297|dock6
  -GOLD-   22720 0253D 1   1.00000     0.00000
 Structure written by MMmdl.
 45 46  0  0  0  0  0  0  0  0  1 V2000
  147.1984  136.4581  155.8661 C   0  0  0  0  0  0  0  0  0  0  0  0
  147.4564  137.3338  154.6294 C   0  0  2  0  0  0  0  0  0  0  0  0
  147.1374  138.8142  154.9125 C   0  0  0  0  0  0  0  0  0  0  0  0
  148.3165  139.6581  154.8310 N   0  0  0  0  0  0  0  0  0  0  0  0
  149.5667  139.3692  154.4671 C   0  0  0  0  0  0  0  0  0  0  0  0
  150.3880  140.4094  154.5024 N   0  0  0  0  0  0  0  0  0  0  0  0
  149.5175  141.3736  154.9261 C   0  0  0  0  0  0  0  0  0  0  0  0
  148.2632  140.9758  155.1385 N   0  0  0  0  0  0  0  0  0  0  0  0
  146.6578  136.8617  153.5016 N   0  0  0  0  0  0  0  0  0  0  0  0
  145.3405  137.0629  153.3273 C   0  0  0  0  0  0  0  0  0  0  0  0
  144.6690  137.7420  154.1055 O   0  0  0  0  0  0  0  0  0  0  0  0
  144.8296  136.4860  152.2102 N   0  0  0  0  0  0  0  0  0  0  0  0
  143.4141  136.1503  152.0033 C   0  0  0  0  0  0  0  0  0  0  0  0
  143.0589  134.7604  152.5682 C   0  0  0  0  0  0  0  0  0  0  0  0
  144.2101  133.7304  152.6864 C   0  0  0  0  0  0  0  0  0  0  0  0
  145.1342  133.5065  151.4540 C   0  0  0  0  0  0  0  0  0  0  0  0
  145.9017  132.1884  151.6911 C   0  0  0  0  0  0  0  0  0  0  0  0
  144.3207  133.3337  150.1534 C   0  0  0  0  0  0  0  0  0  0  0  0
  146.2051  134.6281  151.3127 C   0  0  0  0  0  0  0  0  0  0  0  0
  145.6901  136.0646  151.0996 C   0  0  0  0  0  0  0  0  0  0  0  0
  147.7886  136.7989  156.7168 H   0  0  0  0  0  0  0  0  0  0  0  0
  147.4666  135.4177  155.6793 H   0  0  0  0  0  0  0  0  0  0  0  0
  146.1480  136.4832  156.1582 H   0  0  0  0  0  0  0  0  0  0  0  0
  148.5143  137.2588  154.3705 H   0  0  0  0  0  0  0  0  0  0  0  0
  146.3839  139.1855  154.2155 H   0  0  0  0  0  0  0  0  0  0  0  0
  146.7161  138.9228  155.9128 H   0  0  0  0  0  0  0  0  0  0  0  0
  149.8806  138.3805  154.1656 H   0  0  0  0  0  0  0  0  0  0  0  0
  149.8168  142.3997  155.0825 H   0  0  0  0  0  0  0  0  0  0  0  0
  147.1399  136.3073  152.8086 H   0  0  0  0  0  0  0  0  0  0  0  0
  142.7557  136.9095  152.4290 H   0  0  0  0  0  0  0  0  0  0  0  0
  143.1756  136.1751  150.9402 H   0  0  0  0  0  0  0  0  0  0  0  0
  142.6364  134.8935  153.5649 H   0  0  0  0  0  0  0  0  0  0  0  0
  142.2508  134.3380  151.9703 H   0  0  0  0  0  0  0  0  0  0  0  0
  144.8298  133.9913  153.5457 H   0  0  0  0  0  0  0  0  0  0  0  0
  143.7469  132.7810  152.9584 H   0  0  0  0  0  0  0  0  0  0  0  0
  146.5920  131.9741  150.8743 H   0  0  0  0  0  0  0  0  0  0  0  0
  145.2237  131.3379  151.7718 H   0  0  0  0  0  0  0  0  0  0  0  0
  146.4862  132.2269  152.6113 H   0  0  0  0  0  0  0  0  0  0  0  0
  144.9712  133.0969  149.3109 H   0  0  0  0  0  0  0  0  0  0  0  0
  143.7653  134.2298  149.8839 H   0  0  0  0  0  0  0  0  0  0  0  0
  143.5983  132.5223  150.2461 H   0  0  0  0  0  0  0  0  0  0  0  0
  146.8433  134.6241  152.1976 H   0  0  0  0  0  0  0  0  0  0  0  0
  146.8681  134.3841  150.4816 H   0  0  0  0  0  0  0  0  0  0  0  0
  145.1714  136.1385  150.1438 H   0  0  0  0  0  0  0  0  0  0  0  0
  146.5402  136.7410  150.9966 H   0  0  0  0  0  0  0  0  0  0  0  0
  1  2  1  0  0  0  0
  1 21  1  0  0  0  0
  1 22  1  0  0  0  0
  1 23  1  0  0  0  0
  2  3  1  0  0  0  0
  2  9  1  0  0  0  0
  2 24  1  0  0  0  0
  3  4  1  0  0  0  0
  3 25  1  0  0  0  0
  3 26  1  0  0  0  0
  4  8  1  0  0  0  0
  4  5  1  0  0  0  0
  5  6  2  0  0  0  0
  5 27  1  0  0  0  0
  6  7  1  0  0  0  0
  7  8  2  0  0  0  0
  7 28  1  0  0  0  0
  9 10  1  0  0  0  0
  9 29  1  0  0  0  0
 10 11  2  0  0  0  0
 10 12  1  0  0  0  0
 12 20  1  0  0  0  0
 12 13  1  0  0  0  0
 13 14  1  0  0  0  0
 13 30  1  0  0  0  0
 13 31  1  0  0  0  0
 14 15  1  0  0  0  0
 14 32  1  0  0  0  0
 14 33  1  0  0  0  0
 15 16  1  0  0  0  0
 15 34  1  0  0  0  0
 15 35  1  0  0  0  0
 16 17  1  0  0  0  0
 16 18  1  0  0  0  0
 16 19  1  0  0  0  0
 17 36  1  0  0  0  0
 17 37  1  0  0  0  0
 17 38  1  0  0  0  0
 18 39  1  0  0  0  0
 18 40  1  0  0  0  0
 18 41  1  0  0  0  0
 19 20  1  0  0  0  0
 19 42  1  0  0  0  0
 19 43  1  0  0  0  0
 20 44  1  0  0  0  0
 20 45  1  0  0  0  0
M  END
> <s_m_source_file>
AV-unprocessed.smi

> <i_m_source_file_index>
673

> <i_lp_mmshare_version>
43012

> <i_f3d_flags>
0

> <s_epik_input>
bjFbY0hdbltjSF1uMVtDSDJdW0NAQEhdKFtDSDNdKVtOSF1DKD1PKU4oW0NIMl1bQ0gyXTIpW0NIMl1bQ0gyXVtDSDJdQzIoW0NIM10pW0NIM10=

> <s_epik_cmdline>
J2VwaWtfcHl0aG9uJywgJy1waCcsICc3LjAnLCAnLXRuJywgJzgnLCAnLW1hJywgJzIwMCcsICctbWV0YWxfYmluZGluZycsICctaW1hZScsICc8aW5maWxlLm1hZT4nLCAnLW9tYWUnLCAnPG91dGZpbGUubWFlPic=

> <r_lp_tautomer_probability>
1

> <r_epik_Ionization_Penalty>
0.000118908

> <r_epik_Ionization_Penalty_Charging>
0

> <r_epik_Ionization_Penalty_Neutral>
0.000118908

> <r_epik_State_Penalty>
-0

> <r_epik_Charging_Adjusted_Penalty>
0

> <i_epik_Tot_Q>
0

> <i_epik_Tot_abs_Q>
0

> <r_epik_Metal_State_Penalty>
-0

> <b_epik_Metal_Only>
0

> <s_lp_Force_Field>
OPLS_2005

> <r_lp_Energy>
35.7371

> <b_lp_Chiralities_Consistent>
1

> <s_lp_Variant>
AV-unprocessed.smi:673-1

> <Gold.Version>
5.8.1

> <Gold.Id.Protein>
6NUR|6NUR_protein|mol2

> <Gold.PLP.Fitness>
31.4855

> <Gold.PLP.PLP>
-26.8434

> <Gold.PLP.part.hbond>
-1.9759

> <Gold.PLP.part.metal>
0.0000

> <Gold.PLP.part.buried>
-3.6215

> <Gold.PLP.part.nonpolar>
-21.8612

> <Gold.PLP.part.repulsive>
0.3402

> <Gold.PLP.ligand.clash>
1.4601

> <Gold.PLP.ligand.torsion>
1.1478

> <Gold.PLP.Chemscore.Hbond>
1.7920

> <Gold.PLP.Chemscore.CHOScore>
1.0000

> <Gold.PLP.Chemscore.Metal>
0.0000

> <Gold.Chemscore.Hbonds>
donor molecule, donor type, donor heavy atom, donor atom, acceptor molecule, acceptor atom, score
      L1  H     9    29       P1  7948  0.78
      P1  H  7989  7998       L1     6  1.00
      L1  C     7    28       P1  8028  0.93

> <Gold.PLP.Chemscore.Internal.Correction>
0.0218

> <Gold.Rescore>
     Score         DG    S(hbond)    S(metal)    S(lipo)     H(rot)  DE(clash)    DE(int)     intcor
     10.29     -12.87       1.78        0.00      53.10       1.86       0.13       2.45       ----

> <Gold.Chemscore.Fitness>
10.2910

> <Gold.Chemscore.DG>
-12.8696

> <Gold.Chemscore.ZeroCoef>
-5.4800

> <Gold.Chemscore.Hbond>
1.7792

> <Gold.Chemscore.Metal>
0.0000

> <Gold.Chemscore.Lipo>
53.0969

> <Gold.Chemscore.Internal_Hbond>
0.0000

> <Gold.Chemscore.DEClash>
0.1319

> <Gold.Chemscore.DEInternal>
2.4467

> <Gold.Chemscore.Rot>
1.8614

> <Gold.Chemscore.Internal.Correction>
   9.000000E+99

> <Gold.Chemscore.Hbonds>
donor molecule, donor type, donor heavy atom, donor atom, acceptor molecule, acceptor atom, score
      L1  H     9    29       P1  7948  0.73
      P1  H  7989  7998       L1     6  0.90

> <Gold.Chemscore.Hbond.Weighted>
-5.9425

> <Gold.Chemscore.Metal.Weighted>
-0.0000

> <Gold.Chemscore.Lipo.Weighted>
-6.2123

> <Gold.Chemscore.Internal_Hbond.Weighted>
0.0000

> <Gold.Chemscore.DEClash.Weighted>
0.1319

> <Gold.Chemscore.DEInternal.Weighted>
2.4467

> <Gold.Chemscore.Rot.Weighted>
4.7653

> <Gold.Chemscore.Internal.Correction.Weighted>
   9.000000E+99

> <Gold.Protein.RotatedTorsions>
[ 6907 6896 6895 6894 ] final   39.06 input  -60.11 | X-H torsion
[ 7974 7965 7964 7962 ] final -155.62 input  175.53 | X-H torsion
[ 8008 7997 7996 7995 ] final   77.23 input   59.86 | X-H torsion
[ 10167 10162 10161 10158 ] final   22.40 input  -65.29 | X-H torsion
[ 10718 10713 10712 10709 ] final  -61.23 input   66.30 | X-H torsion
[ 10763 10752 10751 10750 ] final   67.63 input  -60.55 | X-H torsion
[ 11005 11000 10999 10996 ] final   31.50 input  -57.11 | X-H torsion

> <Gold.Protein.ActiveResidues>
 VAL166  LYS551  ARG553  GLY616  TRP617  ASP618  TYR619  PRO620  LYS621  CYS622 
 ASP623  PHE694  ASN695  SER759  ASP760  ASP761  ALA762  ILE779  LEU786  VAL792 
 PHE793  MET794  SER795  GLU796  ALA797  LYS798  CYS799  TRP800  GLU811  SER814 

> <Gold.Protein.RotatedAtoms>
  152.1647  134.8884  160.0538 H   0  0  0  0  0  0  0  0  0  0  0  0  # atno 6907 bound_to 6896
  151.9866  133.3771  159.4136 H   0  0  0  0  0  0  0  0  0  0  0  0  # atno 6908 bound_to 6896
  150.6893  134.3904  159.5117 H   0  0  0  0  0  0  0  0  0  0  0  0  # atno 6909 bound_to 6896
  144.7631  140.4224  143.5962 H   0  0  0  0  0  0  0  0  0  0  0  0  # atno 7974 bound_to 7965
  155.8387  140.3463  155.5618 H   0  0  0  0  0  0  0  0  0  0  0  0  # atno 8008 bound_to 7997
  155.8164  140.0906  157.1894 H   0  0  0  0  0  0  0  0  0  0  0  0  # atno 8009 bound_to 7997
  154.4004  140.1438  156.3435 H   0  0  0  0  0  0  0  0  0  0  0  0  # atno 8010 bound_to 7997
  140.5351  143.9774  150.6487 H   0  0  0  0  0  0  0  0  0  0  0  0  # atno 10167 bound_to 10162
  156.0936  130.4196  150.0965 H   0  0  0  0  0  0  0  0  0  0  0  0  # atno 10718 bound_to 10713
  153.0195  135.5277  154.7009 H   0  0  0  0  0  0  0  0  0  0  0  0  # atno 10763 bound_to 10752
  154.6118  135.2879  155.0426 H   0  0  0  0  0  0  0  0  0  0  0  0  # atno 10764 bound_to 10752
  154.1444  135.6573  153.5002 H   0  0  0  0  0  0  0  0  0  0  0  0  # atno 10765 bound_to 10752
  140.2832  134.2949  155.7795 H   0  0  0  0  0  0  0  0  0  0  0  0  # atno 11005 bound_to 11000
  145.6555  139.1572  143.2838 LP  0  0  0  0  0  0  0  0  0  0  0  0  # atno 17320 bound_to 7965
  146.1714  140.6640  142.9231 LP  0  0  0  0  0  0  0  0  0  0  0  0  # atno 17321 bound_to 7965
  140.3159  143.3168  152.0832 LP  0  0  0  0  0  0  0  0  0  0  0  0  # atno 17342 bound_to 10162
  139.4968  144.6606  151.6474 LP  0  0  0  0  0  0  0  0  0  0  0  0  # atno 17343 bound_to 10162
  156.8970  130.9607  151.3581 LP  0  0  0  0  0  0  0  0  0  0  0  0  # atno 17370 bound_to 10713
  157.6091  130.8569  149.8923 LP  0  0  0  0  0  0  0  0  0  0  0  0  # atno 17371 bound_to 10713
  141.2159  133.7538  156.9513 LP  0  0  0  0  0  0  0  0  0  0  0  0  # atno 17394 bound_to 11000
  140.1264  134.9384  157.2275 LP  0  0  0  0  0  0  0  0  0  0  0  0  # atno 17395 bound_to 11000

$$$$
