AV-unprocessed.smi:2910|AV-procd|sdf|11176|dock8
  -GOLD-   2272016 63D 1   1.00000     0.00000
 Structure written by MMmdl.
 47 48  0  0  0  0  0  0  0  0  1 V2000
  145.9317  129.9466  151.6793 C   0  0  0  0  0  0  0  0  0  0  0  0
  145.8857  131.4446  151.6145 C   0  0  0  0  0  0  0  0  0  0  0  0
  146.7062  132.3783  152.3116 C   0  0  0  0  0  0  0  0  0  0  0  0
  146.2247  133.5839  151.8795 C   0  0  0  0  0  0  0  0  0  0  0  0
  146.6265  134.8371  152.2207 N   0  0  0  0  0  0  0  0  0  0  0  0
  145.9238  135.8073  152.8306 C   0  0  0  0  0  0  0  0  0  0  0  0
  144.7619  135.7059  153.2244 O   0  0  0  0  0  0  0  0  0  0  0  0
  146.6585  136.9222  152.9639 N   0  0  0  0  0  0  0  0  0  0  0  0
  146.2134  138.1811  153.5682 C   0  0  1  0  0  0  0  0  0  0  0  0
  145.6752  137.8939  154.9905 C   0  0  0  0  0  0  0  0  0  0  0  0
  144.8967  139.0633  155.6187 C   0  0  0  0  0  0  0  0  0  0  0  0
  143.6853  139.2586  154.9218 O   0  0  0  0  0  0  0  0  0  0  0  0
  147.3683  139.2244  153.5363 C   0  0  0  0  0  0  0  0  0  0  0  0
  148.5822  138.7927  154.3963 C   0  0  0  0  0  0  0  0  0  0  0  0
  149.7136  139.8334  154.3810 C   0  0  0  0  0  0  0  0  0  0  0  0
  149.2139  141.2103  154.8344 C   0  0  0  0  0  0  0  0  0  0  0  0
  148.0336  141.6663  153.9688 C   0  0  0  0  0  0  0  0  0  0  0  0
  146.8975  140.6319  153.9870 C   0  0  0  0  0  0  0  0  0  0  0  0
  145.1951  133.3595  150.9929 N   0  0  0  0  0  0  0  0  0  0  0  0
  144.3761  134.3145  150.2721 C   0  0  0  0  0  0  0  0  0  0  0  0
  144.9900  132.0345  150.8308 N   0  0  0  0  0  0  0  0  0  0  0  0
  146.7242  129.6056  152.3457 H   0  0  0  0  0  0  0  0  0  0  0  0
  146.1172  129.5157  150.6951 H   0  0  0  0  0  0  0  0  0  0  0  0
  144.9900  129.5412  152.0500 H   0  0  0  0  0  0  0  0  0  0  0  0
  147.5053  132.1753  153.0084 H   0  0  0  0  0  0  0  0  0  0  0  0
  147.5774  135.0658  151.9719 H   0  0  0  0  0  0  0  0  0  0  0  0
  147.6035  136.9068  152.6089 H   0  0  0  0  0  0  0  0  0  0  0  0
  145.3869  138.5944  152.9873 H   0  0  0  0  0  0  0  0  0  0  0  0
  145.0419  137.0056  154.9700 H   0  0  0  0  0  0  0  0  0  0  0  0
  146.5050  137.6618  155.6566 H   0  0  0  0  0  0  0  0  0  0  0  0
  144.6749  138.8589  156.6666 H   0  0  0  0  0  0  0  0  0  0  0  0
  145.4700  139.9896  155.5798 H   0  0  0  0  0  0  0  0  0  0  0  0
  143.8828  139.6190  154.0706 H   0  0  0  0  0  0  0  0  0  0  0  0
  147.7097  139.3096  152.5034 H   0  0  0  0  0  0  0  0  0  0  0  0
  148.2613  138.6205  155.4246 H   0  0  0  0  0  0  0  0  0  0  0  0
  148.9949  137.8502  154.0399 H   0  0  0  0  0  0  0  0  0  0  0  0
  150.5284  139.5043  155.0264 H   0  0  0  0  0  0  0  0  0  0  0  0
  150.1277  139.9079  153.3746 H   0  0  0  0  0  0  0  0  0  0  0  0
  148.9078  141.1651  155.8804 H   0  0  0  0  0  0  0  0  0  0  0  0
  150.0227  141.9393  154.7782 H   0  0  0  0  0  0  0  0  0  0  0  0
  147.6641  142.6290  154.3229 H   0  0  0  0  0  0  0  0  0  0  0  0
  148.3699  141.8222  152.9428 H   0  0  0  0  0  0  0  0  0  0  0  0
  146.0980  140.9989  153.3436 H   0  0  0  0  0  0  0  0  0  0  0  0
  146.4773  140.5719  154.9920 H   0  0  0  0  0  0  0  0  0  0  0  0
  143.9177  135.0088  150.9769 H   0  0  0  0  0  0  0  0  0  0  0  0
  143.5876  133.8037  149.7171 H   0  0  0  0  0  0  0  0  0  0  0  0
  144.9975  134.8738  149.5722 H   0  0  0  0  0  0  0  0  0  0  0  0
  1  2  1  0  0  0  0
  1 22  1  0  0  0  0
  1 23  1  0  0  0  0
  1 24  1  0  0  0  0
  2 21  2  0  0  0  0
  2  3  1  0  0  0  0
  3  4  2  0  0  0  0
  3 25  1  0  0  0  0
  4  5  1  0  0  0  0
  4 19  1  0  0  0  0
  5  6  1  0  0  0  0
  5 26  1  0  0  0  0
  6  7  2  0  0  0  0
  6  8  1  0  0  0  0
  8  9  1  0  0  0  0
  8 27  1  0  0  0  0
  9 10  1  0  0  0  0
  9 13  1  0  0  0  0
  9 28  1  0  0  0  0
 10 11  1  0  0  0  0
 10 29  1  0  0  0  0
 10 30  1  0  0  0  0
 11 12  1  0  0  0  0
 11 31  1  0  0  0  0
 11 32  1  0  0  0  0
 12 33  1  0  0  0  0
 13 18  1  0  0  0  0
 13 14  1  0  0  0  0
 13 34  1  0  0  0  0
 14 15  1  0  0  0  0
 14 35  1  0  0  0  0
 14 36  1  0  0  0  0
 15 16  1  0  0  0  0
 15 37  1  0  0  0  0
 15 38  1  0  0  0  0
 16 17  1  0  0  0  0
 16 39  1  0  0  0  0
 16 40  1  0  0  0  0
 17 18  1  0  0  0  0
 17 41  1  0  0  0  0
 17 42  1  0  0  0  0
 18 43  1  0  0  0  0
 18 44  1  0  0  0  0
 19 20  1  0  0  0  0
 19 21  1  0  0  0  0
 20 45  1  0  0  0  0
 20 46  1  0  0  0  0
 20 47  1  0  0  0  0
M  END
> <s_m_source_file>
AV-unprocessed.smi

> <i_m_source_file_index>
2910

> <i_lp_mmshare_version>
43012

> <i_f3d_flags>
0

> <s_epik_input>
W0NIM11jMVtjSF1jKG4objEpW0NIM10pW05IXUMoPU8pW05IXVtDQEhdKFtDSDJdW0NIMl1bT0hdKVtDSF0yW0NIMl1bQ0gyXVtDSDJdW0NIMl1bQ0gyXTI=

> <s_epik_cmdline>
J2VwaWtfcHl0aG9uJywgJy1waCcsICc3LjAnLCAnLXRuJywgJzgnLCAnLW1hJywgJzIwMCcsICctbWV0YWxfYmluZGluZycsICctaW1hZScsICc8aW5maWxlLm1hZT4nLCAnLW9tYWUnLCAnPG91dGZpbGUubWFlPic=

> <r_lp_tautomer_probability>
1

> <r_epik_Ionization_Penalty>
0.000101449

> <r_epik_Ionization_Penalty_Charging>
0

> <r_epik_Ionization_Penalty_Neutral>
0.000101449

> <r_epik_State_Penalty>
-0

> <r_epik_Charging_Adjusted_Penalty>
0

> <i_epik_Tot_Q>
0

> <i_epik_Tot_abs_Q>
0

> <r_epik_Metal_State_Penalty>
-0

> <b_epik_Metal_Only>
0

> <s_lp_Force_Field>
OPLS_2005

> <r_lp_Energy>
16.2271

> <b_lp_Chiralities_Consistent>
1

> <s_lp_Variant>
AV-unprocessed.smi:2910-2

> <Gold.Version>
5.8.1

> <Gold.Id.Protein>
6NUR|6NUR_protein|mol2

> <Gold.PLP.Fitness>
41.4612

> <Gold.PLP.PLP>
-33.7780

> <Gold.PLP.part.hbond>
-3.0000

> <Gold.PLP.part.metal>
0.0000

> <Gold.PLP.part.buried>
-3.4159

> <Gold.PLP.part.nonpolar>
-26.6282

> <Gold.PLP.part.repulsive>
0.2230

> <Gold.PLP.ligand.clash>
0.0000

> <Gold.PLP.ligand.torsion>
0.7065

> <Gold.PLP.Chemscore.Hbond>
3.0000

> <Gold.PLP.Chemscore.CHOScore>
0.0000

> <Gold.PLP.Chemscore.Metal>
0.0000

> <Gold.Chemscore.Hbonds>
donor molecule, donor type, donor heavy atom, donor atom, acceptor molecule, acceptor atom, score
      L1  H     5    26       P1  7948  1.00
      L1  H     8    27       P1  7948  1.00
      L1  H    12    33       P1 10175  1.00

> <Gold.PLP.Chemscore.Internal.Correction>
0.0962

> <Gold.Rescore>
     Score         DG    S(hbond)    S(metal)    S(lipo)     H(rot)  DE(clash)    DE(int)     intcor
     16.17     -18.09       2.91        0.00      74.60       2.27       0.01       1.91       ----

> <Gold.Chemscore.Fitness>
16.1728

> <Gold.Chemscore.DG>
-18.0948

> <Gold.Chemscore.ZeroCoef>
-5.4800

> <Gold.Chemscore.Hbond>
2.9070

> <Gold.Chemscore.Metal>
0.0000

> <Gold.Chemscore.Lipo>
74.5969

> <Gold.Chemscore.Internal_Hbond>
0.0000

> <Gold.Chemscore.DEClash>
0.0089

> <Gold.Chemscore.DEInternal>
1.9132

> <Gold.Chemscore.Rot>
2.2743

> <Gold.Chemscore.Internal.Correction>
   9.000000E+99

> <Gold.Chemscore.Hbonds>
donor molecule, donor type, donor heavy atom, donor atom, acceptor molecule, acceptor atom, score
      L1  H     5    26       P1  7948  0.88
      L1  H     8    27       P1  7948  0.98
      L1  H    12    33       P1 10175  0.99

> <Gold.Chemscore.Hbond.Weighted>
-9.7093

> <Gold.Chemscore.Metal.Weighted>
-0.0000

> <Gold.Chemscore.Lipo.Weighted>
-8.7278

> <Gold.Chemscore.Internal_Hbond.Weighted>
0.0000

> <Gold.Chemscore.DEClash.Weighted>
0.0089

> <Gold.Chemscore.DEInternal.Weighted>
1.9132

> <Gold.Chemscore.Rot.Weighted>
5.8223

> <Gold.Chemscore.Internal.Correction.Weighted>
   9.000000E+99

> <Gold.Protein.RotatedTorsions>
[ 6907 6896 6895 6894 ] final  -52.15 input  -60.11 | X-H torsion
[ 7974 7965 7964 7962 ] final -168.95 input  175.53 | X-H torsion
[ 8008 7997 7996 7995 ] final  -78.07 input   59.86 | X-H torsion
[ 10167 10162 10161 10158 ] final  -51.78 input  -65.29 | X-H torsion
[ 10718 10713 10712 10709 ] final  -18.84 input   66.30 | X-H torsion
[ 10763 10752 10751 10750 ] final  124.32 input  -60.55 | X-H torsion
[ 11005 11000 10999 10996 ] final   12.47 input  -57.11 | X-H torsion

> <Gold.Protein.ActiveResidues>
 VAL166  LYS551  ARG553  GLY616  TRP617  ASP618  TYR619  PRO620  LYS621  CYS622 
 ASP623  PHE694  ASN695  SER759  ASP760  ASP761  ALA762  ILE779  LEU786  VAL792 
 PHE793  MET794  SER795  GLU796  ALA797  LYS798  CYS799  TRP800  GLU811  SER814 

> <Gold.Protein.RotatedAtoms>
  150.8545  134.7879  159.7034 H   0  0  0  0  0  0  0  0  0  0  0  0  # atno 6907 bound_to 6896
  152.4600  134.5202  159.9790 H   0  0  0  0  0  0  0  0  0  0  0  0  # atno 6908 bound_to 6896
  151.5316  133.3410  159.2955 H   0  0  0  0  0  0  0  0  0  0  0  0  # atno 6909 bound_to 6896
  144.7194  140.2293  143.6306 H   0  0  0  0  0  0  0  0  0  0  0  0  # atno 7974 bound_to 7965
  154.5655  140.0700  156.8885 H   0  0  0  0  0  0  0  0  0  0  0  0  # atno 8008 bound_to 7997
  155.2731  140.3366  155.4245 H   0  0  0  0  0  0  0  0  0  0  0  0  # atno 8009 bound_to 7997
  156.2077  140.1746  156.7749 H   0  0  0  0  0  0  0  0  0  0  0  0  # atno 8010 bound_to 7997
  140.6571  143.2607  151.4554 H   0  0  0  0  0  0  0  0  0  0  0  0  # atno 10167 bound_to 10162
  156.5539  130.4708  149.6439 H   0  0  0  0  0  0  0  0  0  0  0  0  # atno 10718 bound_to 10713
  153.6595  135.3349  155.3123 H   0  0  0  0  0  0  0  0  0  0  0  0  # atno 10763 bound_to 10752
  154.8518  135.4360  154.1819 H   0  0  0  0  0  0  0  0  0  0  0  0  # atno 10764 bound_to 10752
  153.2782  135.7006  153.7487 H   0  0  0  0  0  0  0  0  0  0  0  0  # atno 10765 bound_to 10752
  140.4916  134.0835  155.7772 H   0  0  0  0  0  0  0  0  0  0  0  0  # atno 11005 bound_to 11000
  145.8426  139.2137  143.1819 LP  0  0  0  0  0  0  0  0  0  0  0  0  # atno 17320 bound_to 7965
  146.0333  140.8237  142.9865 LP  0  0  0  0  0  0  0  0  0  0  0  0  # atno 17321 bound_to 7965
  139.5796  144.1741  152.1950 LP  0  0  0  0  0  0  0  0  0  0  0  0  # atno 17342 bound_to 10162
  140.1062  144.5497  150.6956 LP  0  0  0  0  0  0  0  0  0  0  0  0  # atno 17343 bound_to 10162
  156.2859  130.7097  151.1934 LP  0  0  0  0  0  0  0  0  0  0  0  0  # atno 17370 bound_to 10713
  157.7382  131.0543  150.5309 LP  0  0  0  0  0  0  0  0  0  0  0  0  # atno 17371 bound_to 10713
  141.1481  133.9018  157.2165 LP  0  0  0  0  0  0  0  0  0  0  0  0  # atno 17394 bound_to 11000
  139.9766  135.0112  156.9646 LP  0  0  0  0  0  0  0  0  0  0  0  0  # atno 17395 bound_to 11000

$$$$
