AV-unprocessed.smi:560|AV-procd|sdf|2935|dock2
  -GOLD-   2262023433D 1   1.00000     0.00000
 Structure written by MMmdl.
 41 42  0  0  0  0  0  0  0  0  3 V2000
  150.6659  140.1037  158.2815 C   0  0  0  0  0  0  0  0  0  0  0  0
  150.5000  141.3521  157.3907 C   0  0  1  0  0  0  0  0  0  0  0  0
  149.0292  141.7463  157.1769 C   0  0  0  0  0  0  0  0  0  0  0  0
  148.3314  142.1227  158.1193 O   0  0  0  0  0  0  0  0  0  0  0  0
  148.5673  141.6458  155.9200 N   0  0  0  0  0  0  0  0  0  0  0  0
  147.2129  141.9800  155.4831 C   0  0  2  0  0  0  0  0  0  0  0  0
  146.1871  140.9247  155.9404 C   0  0  0  0  0  0  0  0  0  0  0  0
  146.3594  139.5916  155.1912 C   0  0  0  0  0  0  0  0  0  0  0  0
  146.2877  139.7871  153.7210 N   0  3  2  0  0  0  0  0  0  0  0  0
  146.3153  138.4999  152.9824 C   0  0  0  0  0  0  0  0  0  0  0  0
  145.1994  137.5762  153.4816 C   0  0  0  0  0  0  0  0  0  0  0  0
  143.9742  138.1030  153.2959 N   0  5  0  0  0  0  0  0  0  0  0  0
  145.4883  136.4982  153.9971 O   0  0  0  0  0  0  0  0  0  0  0  0
  147.3109  140.7574  153.2452 C   0  0  0  0  0  0  0  0  0  0  0  0
  147.1636  142.1174  153.9523 C   0  0  0  0  0  0  0  0  0  0  0  0
  151.2666  142.4871  157.8927 N   0  0  0  0  0  0  0  0  0  0  0  0
  151.3994  143.7395  157.3274 C   0  0  0  0  0  0  0  0  0  0  0  0
  152.1837  144.4850  158.1600 C   0  0  0  0  0  0  0  0  0  0  0  0
  152.4803  143.5967  159.2308 C   0  0  0  0  0  0  0  0  0  0  0  0
  151.9241  142.4070  159.0730 N   0  0  0  0  0  0  0  0  0  0  0  0
  150.1331  139.2480  157.8655 H   0  0  0  0  0  0  0  0  0  0  0  0
  150.2878  140.2682  159.2912 H   0  0  0  0  0  0  0  0  0  0  0  0
  151.7163  139.8236  158.3648 H   0  0  0  0  0  0  0  0  0  0  0  0
  150.9050  141.1007  156.4089 H   0  0  0  0  0  0  0  0  0  0  0  0
  149.2113  141.3343  155.2075 H   0  0  0  0  0  0  0  0  0  0  0  0
  146.9465  142.9448  155.9185 H   0  0  0  0  0  0  0  0  0  0  0  0
  146.2566  140.7602  157.0162 H   0  0  0  0  0  0  0  0  0  0  0  0
  145.1808  141.3046  155.7600 H   0  0  0  0  0  0  0  0  0  0  0  0
  147.3117  139.1277  155.4530 H   0  0  0  0  0  0  0  0  0  0  0  0
  145.5755  138.9026  155.5087 H   0  0  0  0  0  0  0  0  0  0  0  0
  146.2689  138.6765  151.9053 H   0  0  0  0  0  0  0  0  0  0  0  0
  147.2575  137.9832  153.1697 H   0  0  0  0  0  0  0  0  0  0  0  0
  143.8855  139.1218  153.1973 H   0  0  0  0  0  0  0  0  0  0  0  0
  148.3077  140.3475  153.4149 H   0  0  0  0  0  0  0  0  0  0  0  0
  147.2162  140.9092  152.1696 H   0  0  0  0  0  0  0  0  0  0  0  0
  146.2119  142.5658  153.6638 H   0  0  0  0  0  0  0  0  0  0  0  0
  147.9377  142.8048  153.6085 H   0  0  0  0  0  0  0  0  0  0  0  0
  150.9302  143.9937  156.3883 H   0  0  0  0  0  0  0  0  0  0  0  0
  152.4964  145.5099  158.0259 H   0  0  0  0  0  0  0  0  0  0  0  0
  153.0760  143.7798  160.1130 H   0  0  0  0  0  0  0  0  0  0  0  0
  145.3831  140.1943  153.5299 H   0  0  0  0  0  0  0  0  0  0  0  0
  1  2  1  0  0  0  0
  1 21  1  0  0  0  0
  1 22  1  0  0  0  0
  1 23  1  0  0  0  0
  2  3  1  0  0  0  0
  2 16  1  0  0  0  0
  2 24  1  0  0  0  0
  3  4  2  0  0  0  0
  3  5  1  0  0  0  0
  5  6  1  0  0  0  0
  5 25  1  0  0  0  0
  6 15  1  0  0  0  0
  6  7  1  0  0  0  0
  6 26  1  0  0  0  0
  7  8  1  0  0  0  0
  7 27  1  0  0  0  0
  7 28  1  0  0  0  0
  8  9  1  0  0  0  0
  8 29  1  0  0  0  0
  8 30  1  0  0  0  0
  9 10  1  0  0  0  0
  9 14  1  0  0  0  0
  9 41  1  0  0  0  0
 10 11  1  0  0  0  0
 10 31  1  0  0  0  0
 10 32  1  0  0  0  0
 11 12  1  0  0  0  0
 11 13  2  0  0  0  0
 12 33  1  0  0  0  0
 14 15  1  0  0  0  0
 14 34  1  0  0  0  0
 14 35  1  0  0  0  0
 15 36  1  0  0  0  0
 15 37  1  0  0  0  0
 16 20  1  0  0  0  0
 16 17  1  0  0  0  0
 17 18  2  0  0  0  0
 17 38  1  0  0  0  0
 18 19  1  0  0  0  0
 18 39  1  0  0  0  0
 19 20  2  0  0  0  0
 19 40  1  0  0  0  0
M  CHG  1   9   1
M  CHG  1  12  -1
M  END
> <s_m_source_file>
AV-unprocessed.smi

> <i_m_source_file_index>
560

> <i_lp_mmshare_version>
43012

> <i_f3d_flags>
0

> <s_epik_input>
bjFbY0hdW2NIXVtjSF1uMVtDQEhdKFtDSDNdKUMoPU8pW05IXVtDSF0yW0NIMl1bQ0gyXU4oW0NIMl1bQ0gyXTIpW0NIMl1DKD1PKVtOSDJd

> <s_epik_cmdline>
J2VwaWtfcHl0aG9uJywgJy1waCcsICc3LjAnLCAnLXRuJywgJzgnLCAnLW1hJywgJzIwMCcsICctbWV0YWxfYmluZGluZycsICctaW1hZScsICc8aW5maWxlLm1hZT4nLCAnLW9tYWUnLCAnPG91dGZpbGUubWFlPic=

> <r_lp_tautomer_probability>
1

> <r_epik_Ionization_Penalty>
5.71084

> <r_epik_Ionization_Penalty_Charging>
5.71081

> <r_epik_Ionization_Penalty_Neutral>
3.04611e-05

> <r_epik_State_Penalty>
6.71277

> <r_epik_Charging_Adjusted_Penalty>
12.4236

> <i_epik_Tot_Q>
0

> <i_epik_Tot_abs_Q>
2

> <r_epik_Metal_State_Penalty>
2.67562

> <b_epik_Metal_Only>
1

> <s_lp_Force_Field>
OPLS_2005

> <r_lp_Energy>
9.86513

> <b_lp_Chiralities_Consistent>
1

> <s_lp_Variant>
AV-unprocessed.smi:560-10

> <Gold.Version>
5.8.1

> <Gold.Id.Protein>
6NUR|6NUR_protein|mol2

> <Gold.PLP.Fitness>
44.1736

> <Gold.PLP.PLP>
-32.5299

> <Gold.PLP.part.hbond>
-2.7509

> <Gold.PLP.part.metal>
0.0000

> <Gold.PLP.part.buried>
-3.6525

> <Gold.PLP.part.nonpolar>
-27.5500

> <Gold.PLP.part.repulsive>
0.2558

> <Gold.PLP.ligand.clash>
0.0000

> <Gold.PLP.ligand.torsion>
0.2472

> <Gold.PLP.Chemscore.Hbond>
3.0000

> <Gold.PLP.Chemscore.CHOScore>
1.0000

> <Gold.PLP.Chemscore.Metal>
0.0000

> <Gold.Chemscore.Hbonds>
donor molecule, donor type, donor heavy atom, donor atom, acceptor molecule, acceptor atom, score
      L1  H     9    41       P1 10175  2.00
      L1  H    12    33       P1 10175  0.99
      L1  C    17    38       P1  8028  1.00

> <Gold.PLP.Chemscore.Internal.Correction>
0.1381

> <Gold.Rescore>
     Score         DG    S(hbond)    S(metal)    S(lipo)     H(rot)  DE(clash)    DE(int)     intcor
     14.41     -14.71       1.97        0.00      76.83       2.47       0.07       0.24       ----

> <Gold.Chemscore.Fitness>
14.4057

> <Gold.Chemscore.DG>
-14.7103

> <Gold.Chemscore.ZeroCoef>
-5.4800

> <Gold.Chemscore.Hbond>
1.9679

> <Gold.Chemscore.Metal>
0.0000

> <Gold.Chemscore.Lipo>
76.8306

> <Gold.Chemscore.Internal_Hbond>
0.0000

> <Gold.Chemscore.DEClash>
0.0665

> <Gold.Chemscore.DEInternal>
0.2381

> <Gold.Chemscore.Rot>
2.4734

> <Gold.Chemscore.Internal.Correction>
   9.000000E+99

> <Gold.Chemscore.Hbonds>
donor molecule, donor type, donor heavy atom, donor atom, acceptor molecule, acceptor atom, score
      L1  H     9    41       P1 10175  0.93
      L1  H    12    33       P1 10175  0.91

> <Gold.Chemscore.Hbond.Weighted>
-6.5729

> <Gold.Chemscore.Metal.Weighted>
-0.0000

> <Gold.Chemscore.Lipo.Weighted>
-8.9892

> <Gold.Chemscore.Internal_Hbond.Weighted>
0.0000

> <Gold.Chemscore.DEClash.Weighted>
0.0665

> <Gold.Chemscore.DEInternal.Weighted>
0.2381

> <Gold.Chemscore.Rot.Weighted>
6.3318

> <Gold.Chemscore.Internal.Correction.Weighted>
   9.000000E+99

> <Gold.Protein.RotatedTorsions>
[ 6907 6896 6895 6894 ] final  -76.12 input  -60.11 | X-H torsion
[ 7974 7965 7964 7962 ] final  -99.73 input  175.53 | X-H torsion
[ 8008 7997 7996 7995 ] final  119.86 input   59.86 | X-H torsion
[ 10167 10162 10161 10158 ] final -170.88 input  -65.29 | X-H torsion
[ 10718 10713 10712 10709 ] final  -42.69 input   66.30 | X-H torsion
[ 10763 10752 10751 10750 ] final -125.88 input  -60.55 | X-H torsion
[ 11005 11000 10999 10996 ] final    6.42 input  -57.11 | X-H torsion

> <Gold.Protein.ActiveResidues>
 VAL166  LYS551  ARG553  GLY616  TRP617  ASP618  TYR619  PRO620  LYS621  CYS622 
 ASP623  PHE694  ASN695  SER759  ASP760  ASP761  ALA762  ILE779  LEU786  VAL792 
 PHE793  MET794  SER795  GLU796  ALA797  LYS798  CYS799  TRP800  GLU811  SER814 

> <Gold.Protein.RotatedAtoms>
  150.7037  134.4620  159.5384 H   0  0  0  0  0  0  0  0  0  0  0  0  # atno 6907 bound_to 6896
  152.2292  134.8335  160.0485 H   0  0  0  0  0  0  0  0  0  0  0  0  # atno 6908 bound_to 6896
  151.9157  133.3537  159.3916 H   0  0  0  0  0  0  0  0  0  0  0  0  # atno 6909 bound_to 6896
  145.3037  140.9384  143.2809 H   0  0  0  0  0  0  0  0  0  0  0  0  # atno 7974 bound_to 7965
  156.2615  140.2843  156.1058 H   0  0  0  0  0  0  0  0  0  0  0  0  # atno 8008 bound_to 7997
  155.1311  140.0394  157.2792 H   0  0  0  0  0  0  0  0  0  0  0  0  # atno 8009 bound_to 7997
  154.6599  140.2564  155.7127 H   0  0  0  0  0  0  0  0  0  0  0  0  # atno 8010 bound_to 7997
  139.5835  144.1370  152.1546 H   0  0  0  0  0  0  0  0  0  0  0  0  # atno 10167 bound_to 10162
  156.2569  130.4193  149.8586 H   0  0  0  0  0  0  0  0  0  0  0  0  # atno 10718 bound_to 10713
  154.8740  135.4014  154.3341 H   0  0  0  0  0  0  0  0  0  0  0  0  # atno 10763 bound_to 10752
  153.4150  135.7021  153.6338 H   0  0  0  0  0  0  0  0  0  0  0  0  # atno 10764 bound_to 10752
  153.5025  135.3724  155.2517 H   0  0  0  0  0  0  0  0  0  0  0  0  # atno 10765 bound_to 10752
  140.5597  134.0204  155.7967 H   0  0  0  0  0  0  0  0  0  0  0  0  # atno 11005 bound_to 11000
  144.9072  139.4574  143.6604 LP  0  0  0  0  0  0  0  0  0  0  0  0  # atno 17320 bound_to 7965
  146.3143  139.7860  142.8996 LP  0  0  0  0  0  0  0  0  0  0  0  0  # atno 17321 bound_to 7965
  140.0928  144.5606  150.7043 LP  0  0  0  0  0  0  0  0  0  0  0  0  # atno 17342 bound_to 10162
  140.7110  143.2505  151.4580 LP  0  0  0  0  0  0  0  0  0  0  0  0  # atno 17343 bound_to 10162
  156.6115  130.8589  151.3455 LP  0  0  0  0  0  0  0  0  0  0  0  0  # atno 17370 bound_to 10713
  157.7236  130.9591  150.1539 LP  0  0  0  0  0  0  0  0  0  0  0  0  # atno 17371 bound_to 10713
  141.1122  133.9598  157.2889 LP  0  0  0  0  0  0  0  0  0  0  0  0  # atno 17394 bound_to 11000
  139.9414  135.0190  156.8719 LP  0  0  0  0  0  0  0  0  0  0  0  0  # atno 17395 bound_to 11000

$$$$
