AV-unprocessed.smi:38|AV-procd|sdf|348|dock4
  -GOLD-   2262016183D 1   1.00000     0.00000
 Structure written by MMmdl.
 27 28  0  0  0  0  0  0  0  0  2 V2000
  150.3117  134.2704  155.9441 O   0  0  0  0  0  0  0  0  0  0  0  0
  150.1947  135.4326  155.5583 C   0  0  0  0  0  0  0  0  0  0  0  0
  151.2506  136.1712  155.1082 N   0  5  0  0  0  0  0  0  0  0  0  0
  151.1187  137.4602  154.6772 C   0  0  0  0  0  0  0  0  0  0  0  0
  152.0695  138.1414  154.2929 O   0  0  0  0  0  0  0  0  0  0  0  0
  149.8276  138.0539  154.6771 N   0  0  0  0  0  0  0  0  0  0  0  0
  149.6646  139.4820  154.2162 C   0  0  2  0  0  0  0  0  0  0  0  0
  150.3379  140.4520  155.1812 C   0  0  0  0  0  0  0  0  0  0  0  0
  149.4500  141.6878  155.0725 C   0  0  2  0  0  0  0  0  0  0  0  0
  149.1137  142.1578  156.3650 O   0  0  0  0  0  0  0  0  0  0  0  0
  148.2346  141.2362  154.2276 C   0  0  2  0  0  0  0  0  0  0  0  0
  146.8501  141.6846  154.7319 C   0  0  0  0  0  0  0  0  0  0  0  0
  146.7045  143.0804  154.5784 O   0  0  0  0  0  0  0  0  0  0  0  0
  148.3170  139.8169  154.2267 O   0  0  0  0  0  0  0  0  0  0  0  0
  148.7409  137.3364  155.1471 C   0  0  0  0  0  0  0  0  0  0  0  0
  148.8773  136.0661  155.5795 C   0  0  0  0  0  0  0  0  0  0  0  0
  147.8047  135.3939  156.0321 F   0  0  0  0  0  0  0  0  0  0  0  0
  150.0369  139.5453  153.1918 H   0  0  0  0  0  0  0  0  0  0  0  0
  149.9773  142.4878  154.5518 H   0  0  0  0  0  0  0  0  0  0  0  0
  148.3886  141.5855  153.2045 H   0  0  0  0  0  0  0  0  0  0  0  0
  150.3162  140.0324  156.1889 H   0  0  0  0  0  0  0  0  0  0  0  0
  151.3748  140.6271  154.8926 H   0  0  0  0  0  0  0  0  0  0  0  0
  148.9454  143.0861  156.3130 H   0  0  0  0  0  0  0  0  0  0  0  0
  146.0492  141.1591  154.2108 H   0  0  0  0  0  0  0  0  0  0  0  0
  146.7446  141.4719  155.7958 H   0  0  0  0  0  0  0  0  0  0  0  0
  147.4461  143.5057  154.9809 H   0  0  0  0  0  0  0  0  0  0  0  0
  147.7641  137.7959  155.1780 H   0  0  0  0  0  0  0  0  0  0  0  0
  1  2  2  0  0  0  0
  2 16  1  0  0  0  0
  2  3  1  0  0  0  0
  3  4  1  0  0  0  0
  4  5  2  0  0  0  0
  4  6  1  0  0  0  0
  6  7  1  0  0  0  0
  6 15  1  0  0  0  0
  7 18  1  0  0  0  0
  7 14  1  0  0  0  0
  7  8  1  0  0  0  0
  8  9  1  0  0  0  0
  8 21  1  0  0  0  0
  8 22  1  0  0  0  0
  9 19  1  0  0  0  0
  9 10  1  0  0  0  0
  9 11  1  0  0  0  0
 10 23  1  0  0  0  0
 11 20  1  0  0  0  0
 11 12  1  0  0  0  0
 11 14  1  0  0  0  0
 12 13  1  0  0  0  0
 12 24  1  0  0  0  0
 12 25  1  0  0  0  0
 13 26  1  0  0  0  0
 15 16  2  0  0  0  0
 15 27  1  0  0  0  0
 16 17  1  0  0  0  0
M  CHG  1   3  -1
M  END
> <s_m_source_file>
AV-unprocessed.smi

> <i_m_source_file_index>
38

> <i_lp_mmshare_version>
43012

> <i_f3d_flags>
0

> <s_epik_input>
Tz1jMVtuSF1jKD1PKW4oW2NIXWMxRilbQ0BIXTJbQ0gyXVtDQEhdKFtPSF0pW0NASF0oTzIpW0NIMl1bT0hd

> <s_epik_cmdline>
J2VwaWtfcHl0aG9uJywgJy1waCcsICc3LjAnLCAnLXRuJywgJzgnLCAnLW1hJywgJzIwMCcsICctbWV0YWxfYmluZGluZycsICctaW1hZScsICc8aW5maWxlLm1hZT4nLCAnLW9tYWUnLCAnPG91dGZpbGUubWFlPic=

> <r_epik_Ionization_Penalty>
1.68146

> <r_epik_Ionization_Penalty_Charging>
3.4211e-08

> <r_epik_Ionization_Penalty_Neutral>
1.68146

> <r_epik_State_Penalty>
1.78593

> <r_epik_Charging_Adjusted_Penalty>
1.78593

> <i_epik_Tot_Q>
-1

> <i_epik_Tot_abs_Q>
1

> <r_epik_Metal_State_Penalty>
0.0113696

> <b_epik_Metal_Only>
0

> <s_epik_Chemistry_Notes>
This compound contains an acetal/aminal-like group ( X-CH(R)-Y where X, Y are N, S, or O) that may be acid/base labile, releasing an aldehyde.

> <s_lp_Force_Field>
OPLS_2005

> <r_lp_Energy>
42.0277

> <b_lp_Chiralities_Consistent>
1

> <s_lp_Variant>
AV-unprocessed.smi:38-14

> <Gold.Version>
5.8.1

> <Gold.Id.Protein>
6NUR|6NUR_protein|mol2

> <Gold.PLP.Fitness>
38.8589

> <Gold.PLP.PLP>
-27.0931

> <Gold.PLP.part.hbond>
-4.1142

> <Gold.PLP.part.metal>
0.0000

> <Gold.PLP.part.buried>
-1.7910

> <Gold.PLP.part.nonpolar>
-20.9098

> <Gold.PLP.part.repulsive>
0.9646

> <Gold.PLP.ligand.clash>
0.0000

> <Gold.PLP.ligand.torsion>
0.1279

> <Gold.PLP.Chemscore.Hbond>
4.0000

> <Gold.PLP.Chemscore.CHOScore>
0.0000

> <Gold.PLP.Chemscore.Metal>
0.0000

> <Gold.Chemscore.Hbonds>
donor molecule, donor type, donor heavy atom, donor atom, acceptor molecule, acceptor atom, score
      L1  H    10    23       P1  8028  1.00
      L1  H    13    26       P1  8028  0.75
      P1  H 10752 10764       L1     3  2.00

> <Gold.PLP.Chemscore.Internal.Correction>
0.0216

> <Gold.Rescore>
     Score         DG    S(hbond)    S(metal)    S(lipo)     H(rot)  DE(clash)    DE(int)     intcor
      9.33     -10.22       2.38        0.00      35.69       2.88       0.59       0.31       ----

> <Gold.Chemscore.Fitness>
9.3321

> <Gold.Chemscore.DG>
-10.2248

> <Gold.Chemscore.ZeroCoef>
-5.4800

> <Gold.Chemscore.Hbond>
2.3791

> <Gold.Chemscore.Metal>
0.0000

> <Gold.Chemscore.Lipo>
35.6854

> <Gold.Chemscore.Internal_Hbond>
0.0000

> <Gold.Chemscore.DEClash>
0.5868

> <Gold.Chemscore.DEInternal>
0.3059

> <Gold.Chemscore.Rot>
2.8815

> <Gold.Chemscore.Internal.Correction>
   9.000000E+99

> <Gold.Chemscore.Hbonds>
donor molecule, donor type, donor heavy atom, donor atom, acceptor molecule, acceptor atom, score
      L1  H    10    23       P1  8028  0.99
      L1  H    13    26       P1  8028  0.09
      P1  H 10752 10764       L1     3  0.65

> <Gold.Chemscore.Hbond.Weighted>
-7.9461

> <Gold.Chemscore.Metal.Weighted>
-0.0000

> <Gold.Chemscore.Lipo.Weighted>
-4.1752

> <Gold.Chemscore.Internal_Hbond.Weighted>
0.0000

> <Gold.Chemscore.DEClash.Weighted>
0.5868

> <Gold.Chemscore.DEInternal.Weighted>
0.3059

> <Gold.Chemscore.Rot.Weighted>
7.3765

> <Gold.Chemscore.Internal.Correction.Weighted>
   9.000000E+99

> <Gold.Protein.RotatedTorsions>
[ 6907 6896 6895 6894 ] final -102.75 input  -60.11 | X-H torsion
[ 7974 7965 7964 7962 ] final   89.96 input  175.53 | X-H torsion
[ 8008 7997 7996 7995 ] final  -78.57 input   59.86 | X-H torsion
[ 10167 10162 10161 10158 ] final   36.32 input  -65.29 | X-H torsion
[ 10718 10713 10712 10709 ] final  -85.51 input   66.30 | X-H torsion
[ 10763 10752 10751 10750 ] final  -56.60 input  -60.55 | X-H torsion
[ 11005 11000 10999 10996 ] final -152.72 input  -57.11 | X-H torsion

> <Gold.Protein.ActiveResidues>
 VAL166  LYS551  ARG553  GLY616  TRP617  ASP618  TYR619  PRO620  LYS621  CYS622 
 ASP623  PHE694  ASN695  SER759  ASP760  ASP761  ALA762  ILE779  LEU786  VAL792 
 PHE793  MET794  SER795  GLU796  ALA797  LYS798  CYS799  TRP800  GLU811  SER814 

> <Gold.Protein.RotatedAtoms>
  150.7210  134.0533  159.3805 H   0  0  0  0  0  0  0  0  0  0  0  0  # atno 6907 bound_to 6896
  151.8511  135.0555  160.0468 H   0  0  0  0  0  0  0  0  0  0  0  0  # atno 6908 bound_to 6896
  152.2790  133.5416  159.5522 H   0  0  0  0  0  0  0  0  0  0  0  0  # atno 6909 bound_to 6896
  145.5254  139.2281  143.2648 H   0  0  0  0  0  0  0  0  0  0  0  0  # atno 7974 bound_to 7965
  154.5702  140.0692  156.8952 H   0  0  0  0  0  0  0  0  0  0  0  0  # atno 8008 bound_to 7997
  155.2649  140.3361  155.4252 H   0  0  0  0  0  0  0  0  0  0  0  0  # atno 8009 bound_to 7997
  156.2112  140.1760  156.7676 H   0  0  0  0  0  0  0  0  0  0  0  0  # atno 8010 bound_to 7997
  140.4139  144.1555  150.6141 H   0  0  0  0  0  0  0  0  0  0  0  0  # atno 10167 bound_to 10162
  155.9996  130.4733  150.4573 H   0  0  0  0  0  0  0  0  0  0  0  0  # atno 10718 bound_to 10713
  154.2092  135.6397  153.5110 H   0  0  0  0  0  0  0  0  0  0  0  0  # atno 10763 bound_to 10752
  152.9994  135.5470  154.6233 H   0  0  0  0  0  0  0  0  0  0  0  0  # atno 10764 bound_to 10752
  154.5665  135.2913  155.0842 H   0  0  0  0  0  0  0  0  0  0  0  0  # atno 10765 bound_to 10752
  140.7158  134.3782  157.5191 H   0  0  0  0  0  0  0  0  0  0  0  0  # atno 11005 bound_to 11000
  146.2079  140.6068  142.9073 LP  0  0  0  0  0  0  0  0  0  0  0  0  # atno 17320 bound_to 7965
  144.7654  140.5517  143.6707 LP  0  0  0  0  0  0  0  0  0  0  0  0  # atno 17321 bound_to 7965
  140.4608  143.2449  151.9222 LP  0  0  0  0  0  0  0  0  0  0  0  0  # atno 17342 bound_to 10162
  139.4782  144.5469  151.8444 LP  0  0  0  0  0  0  0  0  0  0  0  0  # atno 17343 bound_to 10162
  157.2601  131.0565  151.2326 LP  0  0  0  0  0  0  0  0  0  0  0  0  # atno 17370 bound_to 10713
  157.3444  130.7049  149.6401 LP  0  0  0  0  0  0  0  0  0  0  0  0  # atno 17371 bound_to 10713
  139.8860  134.8921  156.2610 LP  0  0  0  0  0  0  0  0  0  0  0  0  # atno 17394 bound_to 11000
  141.0045  133.7131  156.1013 LP  0  0  0  0  0  0  0  0  0  0  0  0  # atno 17395 bound_to 11000

$$$$
