AV-unprocessed.smi:283|AV-procd|sdf|2141|dock1
  -GOLD-   2262021473D 1   1.00000     0.00000
 Structure written by MMmdl.
 48 51  0  0  0  0  0  0  0  0  1 V2000
  152.1804  139.7419  156.6858 C   0  0  0  0  0  0  0  0  0  0  0  0
  151.1019  140.5368  157.4336 C   0  0  2  0  0  0  0  0  0  0  0  0
  149.9028  140.6505  156.6050 N   0  0  0  0  0  0  0  0  0  0  0  0
  149.3516  139.5616  156.0237 C   0  0  0  0  0  0  0  0  0  0  0  0
  149.8553  138.3179  156.2387 N   0  0  0  0  0  0  0  0  0  0  0  0
  149.2914  137.2576  155.6534 C   0  0  0  0  0  0  0  0  0  0  0  0
  148.2418  137.2200  154.8299 N   0  0  0  0  0  0  0  0  0  0  0  0
  147.7349  138.4679  154.6074 C   0  0  0  0  0  0  0  0  0  0  0  0
  148.2320  139.6801  155.1607 C   0  0  0  0  0  0  0  0  0  0  0  0
  147.4707  140.7507  154.7090 N   0  0  0  0  0  0  0  0  0  0  0  0
  146.5779  140.1980  153.9318 C   0  0  0  0  0  0  0  0  0  0  0  0
  146.6640  138.8287  153.8143 N   0  0  0  0  0  0  0  0  0  0  0  0
  145.7856  137.9204  153.0121 C   0  0  2  0  0  0  0  0  0  0  0  0
  145.8303  136.6558  153.5809 O   0  0  0  0  0  0  0  0  0  0  0  0
  145.4758  135.7125  152.5847 C   0  0  2  0  0  0  0  0  0  0  0  0
  146.0115  134.3204  152.9628 C   0  0  0  0  0  0  0  0  0  0  0  0
  147.4100  134.2284  152.7823 O   0  0  0  0  0  0  0  0  0  0  0  0
  145.9526  136.2968  151.2404 C   0  0  1  0  0  0  0  0  0  0  0  0
  144.9215  136.1741  150.2800 O   0  0  0  0  0  0  0  0  0  0  0  0
  146.2228  137.7735  151.5399 C   0  0  2  0  0  0  0  0  0  0  0  0
  147.5818  138.0957  151.3079 O   0  0  0  0  0  0  0  0  0  0  0  0
  151.6639  141.8751  157.9192 C   0  0  0  0  0  0  0  0  0  0  0  0
  151.2268  143.0791  157.3191 C   0  0  0  0  0  0  0  0  0  0  0  0
  151.7329  144.3204  157.7483 C   0  0  0  0  0  0  0  0  0  0  0  0
  152.6878  144.3709  158.7796 C   0  0  0  0  0  0  0  0  0  0  0  0
  153.1375  143.1789  159.3766 C   0  0  0  0  0  0  0  0  0  0  0  0
  152.6340  141.9331  158.9512 C   0  0  0  0  0  0  0  0  0  0  0  0
  153.2329  140.5011  159.7136 Cl  0  0  0  0  0  0  0  0  0  0  0  0
  144.7792  138.3297  153.1127 H   0  0  0  0  0  0  0  0  0  0  0  0
  144.3845  135.6753  152.5990 H   0  0  0  0  0  0  0  0  0  0  0  0
  146.8476  135.7998  150.8643 H   0  0  0  0  0  0  0  0  0  0  0  0
  145.6130  138.4426  150.9312 H   0  0  0  0  0  0  0  0  0  0  0  0
  153.0524  139.5744  157.3187 H   0  0  0  0  0  0  0  0  0  0  0  0
  152.5144  140.2689  155.7914 H   0  0  0  0  0  0  0  0  0  0  0  0
  151.8064  138.7650  156.3780 H   0  0  0  0  0  0  0  0  0  0  0  0
  150.8097  139.9429  158.2990 H   0  0  0  0  0  0  0  0  0  0  0  0
  149.4503  141.5532  156.6105 H   0  0  0  0  0  0  0  0  0  0  0  0
  149.7461  136.3035  155.8757 H   0  0  0  0  0  0  0  0  0  0  0  0
  145.8254  140.7790  153.4188 H   0  0  0  0  0  0  0  0  0  0  0  0
  145.7628  134.0827  153.9974 H   0  0  0  0  0  0  0  0  0  0  0  0
  145.5401  133.5613  152.3380 H   0  0  0  0  0  0  0  0  0  0  0  0
  147.7228  135.0497  152.4346 H   0  0  0  0  0  0  0  0  0  0  0  0
  144.4284  136.9805  150.2664 H   0  0  0  0  0  0  0  0  0  0  0  0
  148.1170  137.5104  151.8234 H   0  0  0  0  0  0  0  0  0  0  0  0
  150.4972  143.0577  156.5231 H   0  0  0  0  0  0  0  0  0  0  0  0
  151.3884  145.2334  157.2850 H   0  0  0  0  0  0  0  0  0  0  0  0
  153.0778  145.3221  159.1108 H   0  0  0  0  0  0  0  0  0  0  0  0
  153.8744  143.2211  160.1651 H   0  0  0  0  0  0  0  0  0  0  0  0
  1  2  1  0  0  0  0
  1 33  1  0  0  0  0
  1 34  1  0  0  0  0
  1 35  1  0  0  0  0
  2  3  1  0  0  0  0
  2 22  1  0  0  0  0
  2 36  1  0  0  0  0
  3  4  1  0  0  0  0
  3 37  1  0  0  0  0
  4  9  1  0  0  0  0
  4  5  2  0  0  0  0
  5  6  1  0  0  0  0
  6  7  2  0  0  0  0
  6 38  1  0  0  0  0
  7  8  1  0  0  0  0
  8 12  1  0  0  0  0
  8  9  2  0  0  0  0
  9 10  1  0  0  0  0
 10 11  2  0  0  0  0
 11 12  1  0  0  0  0
 11 39  1  0  0  0  0
 12 13  1  0  0  0  0
 13 29  1  0  0  0  0
 13 20  1  0  0  0  0
 13 14  1  0  0  0  0
 14 15  1  0  0  0  0
 15 30  1  0  0  0  0
 15 16  1  0  0  0  0
 15 18  1  0  0  0  0
 16 17  1  0  0  0  0
 16 40  1  0  0  0  0
 16 41  1  0  0  0  0
 17 42  1  0  0  0  0
 18 31  1  0  0  0  0
 18 19  1  0  0  0  0
 18 20  1  0  0  0  0
 19 43  1  0  0  0  0
 20 32  1  0  0  0  0
 20 21  1  0  0  0  0
 21 44  1  0  0  0  0
 22 27  1  0  0  0  0
 22 23  2  0  0  0  0
 23 24  1  0  0  0  0
 23 45  1  0  0  0  0
 24 25  2  0  0  0  0
 24 46  1  0  0  0  0
 25 26  1  0  0  0  0
 25 47  1  0  0  0  0
 26 27  2  0  0  0  0
 26 48  1  0  0  0  0
 27 28  1  0  0  0  0
M  END
> <s_m_source_file>
AV-unprocessed.smi

> <i_m_source_file_index>
283

> <i_lp_mmshare_version>
43012

> <i_f3d_flags>
0

> <s_epik_input>
Q2xjMVtjSF1bY0hdW2NIXVtjSF1jMVtDQEhdKFtDSDNdKVtOSF1jKG5bY0hdbjIpYyhjMjMpbltjSF1uM1tDQEBIXTRPW0NASF0oW0NIMl1bT0hdKVtDQEBIXShbT0hdKVtDQEhdNFtPSF0=

> <s_epik_cmdline>
J2VwaWtfcHl0aG9uJywgJy1waCcsICc3LjAnLCAnLXRuJywgJzgnLCAnLW1hJywgJzIwMCcsICctbWV0YWxfYmluZGluZycsICctaW1hZScsICc8aW5maWxlLm1hZT4nLCAnLW9tYWUnLCAnPG91dGZpbGUubWFlPic=

> <r_lp_tautomer_probability>
1

> <r_epik_Ionization_Penalty>
0.000266407

> <r_epik_Ionization_Penalty_Charging>
0

> <r_epik_Ionization_Penalty_Neutral>
0.000266407

> <r_epik_State_Penalty>
-0

> <r_epik_Charging_Adjusted_Penalty>
0

> <i_epik_Tot_Q>
0

> <i_epik_Tot_abs_Q>
0

> <r_epik_Metal_State_Penalty>
-0

> <b_epik_Metal_Only>
0

> <s_epik_Chemistry_Notes>
This compound contains an acetal/aminal-like group ( X-CH(R)-Y where X, Y are N, S, or O) that may be acid/base labile, releasing an aldehyde.

> <s_lp_Force_Field>
OPLS_2005

> <r_lp_Energy>
47.2056

> <b_lp_Chiralities_Consistent>
1

> <s_lp_Variant>
AV-unprocessed.smi:283-17

> <Gold.Version>
5.8.1

> <Gold.Id.Protein>
6NUR|6NUR_protein|mol2

> <Gold.PLP.Fitness>
53.4131

> <Gold.PLP.PLP>
-40.8760

> <Gold.PLP.part.hbond>
-4.8104

> <Gold.PLP.part.metal>
0.0000

> <Gold.PLP.part.buried>
-0.3882

> <Gold.PLP.part.nonpolar>
-36.8937

> <Gold.PLP.part.repulsive>
0.3649

> <Gold.PLP.ligand.clash>
0.0000

> <Gold.PLP.ligand.torsion>
1.1046

> <Gold.PLP.Chemscore.Hbond>
3.8460

> <Gold.PLP.Chemscore.CHOScore>
1.0000

> <Gold.PLP.Chemscore.Metal>
0.0000

> <Gold.Chemscore.Hbonds>
donor molecule, donor type, donor heavy atom, donor atom, acceptor molecule, acceptor atom, score
      L1  H    17    42       P1  7948  1.00
      L1  H    19    43       P1 10171  1.00
      L1  H    21    44       P1  7948  0.83
      P1  H  7954  7966       L1    21  1.00
      L1  C    11    39       P1 10175  1.00

> <Gold.PLP.Chemscore.Internal.Correction>
0.2082

> <Gold.Rescore>
     Score         DG    S(hbond)    S(metal)    S(lipo)     H(rot)  DE(clash)    DE(int)     intcor
     13.77     -17.95       2.90        0.00     113.54       4.10       0.18       4.01       ----

> <Gold.Chemscore.Fitness>
13.7654

> <Gold.Chemscore.DG>
-17.9487

> <Gold.Chemscore.ZeroCoef>
-5.4800

> <Gold.Chemscore.Hbond>
2.8959

> <Gold.Chemscore.Metal>
0.0000

> <Gold.Chemscore.Lipo>
113.5410

> <Gold.Chemscore.Internal_Hbond>
0.0000

> <Gold.Chemscore.DEClash>
0.1782

> <Gold.Chemscore.DEInternal>
4.0051

> <Gold.Chemscore.Rot>
4.0968

> <Gold.Chemscore.Internal.Correction>
   9.000000E+99

> <Gold.Chemscore.Hbonds>
donor molecule, donor type, donor heavy atom, donor atom, acceptor molecule, acceptor atom, score
      L1  H    17    42       P1  7948  0.95
      L1  H    19    43       P1 10171  1.00
      L1  H    21    44       P1  7948  0.78
      P1  H  7954  7966       L1    21  0.28

> <Gold.Chemscore.Hbond.Weighted>
-9.6724

> <Gold.Chemscore.Metal.Weighted>
-0.0000

> <Gold.Chemscore.Lipo.Weighted>
-13.2843

> <Gold.Chemscore.Internal_Hbond.Weighted>
0.0000

> <Gold.Chemscore.DEClash.Weighted>
0.1782

> <Gold.Chemscore.DEInternal.Weighted>
4.0051

> <Gold.Chemscore.Rot.Weighted>
10.4879

> <Gold.Chemscore.Internal.Correction.Weighted>
   9.000000E+99

> <Gold.Protein.RotatedTorsions>
[ 6907 6896 6895 6894 ] final -136.28 input  -60.11 | X-H torsion
[ 7974 7965 7964 7962 ] final -137.24 input  175.53 | X-H torsion
[ 8008 7997 7996 7995 ] final  -80.97 input   59.86 | X-H torsion
[ 10167 10162 10161 10158 ] final -167.37 input  -65.29 | X-H torsion
[ 10718 10713 10712 10709 ] final  -67.49 input   66.30 | X-H torsion
[ 10763 10752 10751 10750 ] final   50.05 input  -60.55 | X-H torsion
[ 11005 11000 10999 10996 ] final  131.80 input  -57.11 | X-H torsion

> <Gold.Protein.ActiveResidues>
 VAL166  LYS551  ARG553  GLY616  TRP617  ASP618  TYR619  PRO620  LYS621  CYS622 
 ASP623  PHE694  ASN695  SER759  ASP760  ASP761  ALA762  ILE779  LEU786  VAL792 
 PHE793  MET794  SER795  GLU796  ALA797  LYS798  CYS799  TRP800  GLU811  SER814 

> <Gold.Protein.RotatedAtoms>
  151.0082  133.5990  159.2685 H   0  0  0  0  0  0  0  0  0  0  0  0  # atno 6907 bound_to 6896
  151.3152  135.0803  159.9296 H   0  0  0  0  0  0  0  0  0  0  0  0  # atno 6908 bound_to 6896
  152.5292  133.9739  159.7829 H   0  0  0  0  0  0  0  0  0  0  0  0  # atno 6909 bound_to 6896
  144.8858  140.6573  143.5177 H   0  0  0  0  0  0  0  0  0  0  0  0  # atno 7974 bound_to 7965
  154.5936  140.0655  156.9272 H   0  0  0  0  0  0  0  0  0  0  0  0  # atno 8008 bound_to 7997
  155.2253  140.3333  155.4292 H   0  0  0  0  0  0  0  0  0  0  0  0  # atno 8009 bound_to 7997
  156.2272  140.1824  156.7317 H   0  0  0  0  0  0  0  0  0  0  0  0  # atno 8010 bound_to 7997
  139.6054  144.0924  152.1787 H   0  0  0  0  0  0  0  0  0  0  0  0  # atno 10167 bound_to 10162
  156.0555  130.4279  150.1862 H   0  0  0  0  0  0  0  0  0  0  0  0  # atno 10718 bound_to 10713
  152.9785  135.5891  154.4190 H   0  0  0  0  0  0  0  0  0  0  0  0  # atno 10763 bound_to 10752
  154.3816  135.2767  155.2210 H   0  0  0  0  0  0  0  0  0  0  0  0  # atno 10764 bound_to 10752
  154.4121  135.6079  153.6013 H   0  0  0  0  0  0  0  0  0  0  0  0  # atno 10765 bound_to 10752
  139.9752  134.9566  156.9490 H   0  0  0  0  0  0  0  0  0  0  0  0  # atno 11005 bound_to 11000
  145.3871  139.1624  143.4249 LP  0  0  0  0  0  0  0  0  0  0  0  0  # atno 17320 bound_to 7965
  146.3023  140.3957  142.8699 LP  0  0  0  0  0  0  0  0  0  0  0  0  # atno 17321 bound_to 7965
  140.0530  144.5917  150.7321 LP  0  0  0  0  0  0  0  0  0  0  0  0  # atno 17342 bound_to 10162
  140.7281  143.2658  151.4050 LP  0  0  0  0  0  0  0  0  0  0  0  0  # atno 17343 bound_to 10162
  156.9939  130.9902  151.3408 LP  0  0  0  0  0  0  0  0  0  0  0  0  # atno 17370 bound_to 10713
  157.5520  130.8189  149.8157 LP  0  0  0  0  0  0  0  0  0  0  0  0  # atno 17371 bound_to 10713
  140.5211  134.0907  155.7292 LP  0  0  0  0  0  0  0  0  0  0  0  0  # atno 17394 bound_to 11000
  141.1429  133.9106  157.2284 LP  0  0  0  0  0  0  0  0  0  0  0  0  # atno 17395 bound_to 11000

$$$$
