AV-unprocessed.smi:3189|AV-procd|sdf|12189|dock3
  -GOLD-   2272018 33D 1   1.00000     0.00000
 Structure written by MMmdl.
 30 31  0  0  0  0  0  0  0  0  1 V2000
  152.2317  144.3186  161.4381 C   0  0  0  0  0  0  0  0  0  0  0  0
  152.5805  142.9988  160.7757 C   0  0  0  0  0  0  0  0  0  0  0  0
  153.3993  142.1885  161.4815 N   0  0  0  0  0  0  0  0  0  0  0  0
  153.7356  140.9994  160.9410 C   0  0  0  0  0  0  0  0  0  0  0  0
  153.2828  140.5654  159.6805 C   0  0  0  0  0  0  0  0  0  0  0  0
  152.4379  141.4187  158.9316 C   0  0  0  0  0  0  0  0  0  0  0  0
  151.9060  141.0722  157.6592 N   0  0  0  0  0  0  0  0  0  0  0  0
  152.1818  140.0015  156.8890 C   0  0  0  0  0  0  0  0  0  0  0  0
  153.0090  139.1347  157.1641 O   0  0  0  0  0  0  0  0  0  0  0  0
  151.5189  139.9836  155.7194 N   0  0  0  0  0  0  0  0  0  0  0  0
  151.5945  138.9891  154.6911 C   0  0  2  0  0  0  0  0  0  0  0  0
  150.2859  138.4347  154.1723 C   0  0  0  0  0  0  0  0  0  0  0  0
  151.1891  137.5613  155.0039 C   0  0  2  0  0  0  0  0  0  0  0  0
  150.7825  137.1294  156.3991 C   0  0  0  0  0  0  0  0  0  0  0  0
  152.0685  142.6598  159.5012 C   0  0  0  0  0  0  0  0  0  0  0  0
  151.0180  143.7450  158.6529 Cl  0  0  0  0  0  0  0  0  0  0  0  0
  152.5631  145.1523  160.8185 H   0  0  0  0  0  0  0  0  0  0  0  0
  152.7065  144.4152  162.4155 H   0  0  0  0  0  0  0  0  0  0  0  0
  151.1533  144.3996  161.5780 H   0  0  0  0  0  0  0  0  0  0  0  0
  154.3809  140.3697  161.5353 H   0  0  0  0  0  0  0  0  0  0  0  0
  153.5791  139.5916  159.3226 H   0  0  0  0  0  0  0  0  0  0  0  0
  151.2882  141.7587  157.2512 H   0  0  0  0  0  0  0  0  0  0  0  0
  150.9786  140.8068  155.4948 H   0  0  0  0  0  0  0  0  0  0  0  0
  152.3642  139.1220  153.9320 H   0  0  0  0  0  0  0  0  0  0  0  0
  149.3648  138.7917  154.6300 H   0  0  0  0  0  0  0  0  0  0  0  0
  150.2194  138.2165  153.1083 H   0  0  0  0  0  0  0  0  0  0  0  0
  151.7414  136.7950  154.4634 H   0  0  0  0  0  0  0  0  0  0  0  0
  150.1558  137.8824  156.8781 H   0  0  0  0  0  0  0  0  0  0  0  0
  151.6688  136.9714  157.0138 H   0  0  0  0  0  0  0  0  0  0  0  0
  150.2213  136.1961  156.3516 H   0  0  0  0  0  0  0  0  0  0  0  0
  1  2  1  0  0  0  0
  1 17  1  0  0  0  0
  1 18  1  0  0  0  0
  1 19  1  0  0  0  0
  2 15  1  0  0  0  0
  2  3  2  0  0  0  0
  3  4  1  0  0  0  0
  4  5  2  0  0  0  0
  4 20  1  0  0  0  0
  5  6  1  0  0  0  0
  5 21  1  0  0  0  0
  6  7  1  0  0  0  0
  6 15  2  0  0  0  0
  7  8  1  0  0  0  0
  7 22  1  0  0  0  0
  8  9  2  0  0  0  0
  8 10  1  0  0  0  0
 10 11  1  0  0  0  0
 10 23  1  0  0  0  0
 11 13  1  0  0  0  0
 11 12  1  0  0  0  0
 11 24  1  0  0  0  0
 12 13  1  0  0  0  0
 12 25  1  0  0  0  0
 12 26  1  0  0  0  0
 13 14  1  0  0  0  0
 13 27  1  0  0  0  0
 14 28  1  0  0  0  0
 14 29  1  0  0  0  0
 14 30  1  0  0  0  0
 15 16  1  0  0  0  0
M  END
> <s_m_source_file>
AV-unprocessed.smi

> <i_m_source_file_index>
3189

> <i_lp_mmshare_version>
43012

> <i_f3d_flags>
0

> <s_epik_input>
W0NIM11jMW5bY0hdW2NIXWMoYzFDbClbTkhdQyg9TylbTkhdW0NAQEhdMltDSDJdW0NASF0yW0NIM10=

> <s_epik_cmdline>
J2VwaWtfcHl0aG9uJywgJy1waCcsICc3LjAnLCAnLXRuJywgJzgnLCAnLW1hJywgJzIwMCcsICctbWV0YWxfYmluZGluZycsICctaW1hZScsICc8aW5maWxlLm1hZT4nLCAnLW9tYWUnLCAnPG91dGZpbGUubWFlPic=

> <r_epik_Ionization_Penalty>
0.00994309

> <r_epik_Ionization_Penalty_Charging>
0

> <r_epik_Ionization_Penalty_Neutral>
0.00994309

> <r_epik_State_Penalty>
0.00754503

> <r_epik_Charging_Adjusted_Penalty>
0.00754503

> <i_epik_Tot_Q>
0

> <i_epik_Tot_abs_Q>
0

> <r_epik_Metal_State_Penalty>
0.00742071

> <b_epik_Metal_Only>
0

> <s_lp_Force_Field>
OPLS_2005

> <r_lp_Energy>
34.6575

> <b_lp_Chiralities_Consistent>
1

> <s_lp_Variant>
AV-unprocessed.smi:3189-3

> <Gold.Version>
5.8.1

> <Gold.Id.Protein>
6NUR|6NUR_protein|mol2

> <Gold.PLP.Fitness>
36.2852

> <Gold.PLP.PLP>
-33.3554

> <Gold.PLP.part.hbond>
-1.0000

> <Gold.PLP.part.metal>
0.0000

> <Gold.PLP.part.buried>
-3.9437

> <Gold.PLP.part.nonpolar>
-28.1726

> <Gold.PLP.part.repulsive>
0.2511

> <Gold.PLP.ligand.clash>
0.0000

> <Gold.PLP.ligand.torsion>
0.0545

> <Gold.PLP.Chemscore.Hbond>
1.0000

> <Gold.PLP.Chemscore.CHOScore>
0.0000

> <Gold.PLP.Chemscore.Metal>
0.0000

> <Gold.Chemscore.Hbonds>
donor molecule, donor type, donor heavy atom, donor atom, acceptor molecule, acceptor atom, score
      P1  H  7997  8010       L1     9  1.00

> <Gold.PLP.Chemscore.Internal.Correction>
0.0388

> <Gold.Rescore>
     Score         DG    S(hbond)    S(metal)    S(lipo)     H(rot)  DE(clash)    DE(int)     intcor
     15.84     -17.35       0.91        0.00      97.37       1.00       0.17       1.34       ----

> <Gold.Chemscore.Fitness>
15.8379

> <Gold.Chemscore.DG>
-17.3486

> <Gold.Chemscore.ZeroCoef>
-5.4800

> <Gold.Chemscore.Hbond>
0.9091

> <Gold.Chemscore.Metal>
0.0000

> <Gold.Chemscore.Lipo>
97.3708

> <Gold.Chemscore.Internal_Hbond>
0.0000

> <Gold.Chemscore.DEClash>
0.1682

> <Gold.Chemscore.DEInternal>
1.3426

> <Gold.Chemscore.Rot>
1.0000

> <Gold.Chemscore.Internal.Correction>
   9.000000E+99

> <Gold.Chemscore.Hbonds>
donor molecule, donor type, donor heavy atom, donor atom, acceptor molecule, acceptor atom, score
      P1  H  7997  8010       L1     9  0.30

> <Gold.Chemscore.Hbond.Weighted>
-3.0362

> <Gold.Chemscore.Metal.Weighted>
-0.0000

> <Gold.Chemscore.Lipo.Weighted>
-11.3924

> <Gold.Chemscore.Internal_Hbond.Weighted>
0.0000

> <Gold.Chemscore.DEClash.Weighted>
0.1682

> <Gold.Chemscore.DEInternal.Weighted>
1.3426

> <Gold.Chemscore.Rot.Weighted>
2.5600

> <Gold.Chemscore.Internal.Correction.Weighted>
   9.000000E+99

> <Gold.Protein.RotatedTorsions>
[ 6907 6896 6895 6894 ] final  115.91 input  -60.11 | X-H torsion
[ 7974 7965 7964 7962 ] final -179.47 input  175.53 | X-H torsion
[ 8008 7997 7996 7995 ] final   38.51 input   59.86 | X-H torsion
[ 10167 10162 10161 10158 ] final  -69.69 input  -65.29 | X-H torsion
[ 10718 10713 10712 10709 ] final -162.73 input   66.30 | X-H torsion
[ 10763 10752 10751 10750 ] final  -80.23 input  -60.55 | X-H torsion
[ 11005 11000 10999 10996 ] final   46.98 input  -57.11 | X-H torsion

> <Gold.Protein.ActiveResidues>
 VAL166  LYS551  ARG553  GLY616  TRP617  ASP618  TYR619  PRO620  LYS621  CYS622 
 ASP623  PHE694  ASN695  SER759  ASP760  ASP761  ALA762  ILE779  LEU786  VAL792 
 PHE793  MET794  SER795  GLU796  ALA797  LYS798  CYS799  TRP800  GLU811  SER814 

> <Gold.Protein.RotatedAtoms>
  152.4712  133.8033  159.6964 H   0  0  0  0  0  0  0  0  0  0  0  0  # atno 6907 bound_to 6896
  150.8702  133.7507  159.2970 H   0  0  0  0  0  0  0  0  0  0  0  0  # atno 6908 bound_to 6896
  151.5045  135.1066  159.9889 H   0  0  0  0  0  0  0  0  0  0  0  0  # atno 6909 bound_to 6896
  144.7137  140.0713  143.6429 H   0  0  0  0  0  0  0  0  0  0  0  0  # atno 7974 bound_to 7965
  155.2213  140.3331  155.4315 H   0  0  0  0  0  0  0  0  0  0  0  0  # atno 8008 bound_to 7997
  156.2332  140.1860  156.7235 H   0  0  0  0  0  0  0  0  0  0  0  0  # atno 8009 bound_to 7997
  154.6014  140.0622  156.9358 H   0  0  0  0  0  0  0  0  0  0  0  0  # atno 8010 bound_to 7997
  140.5411  143.2315  151.7087 H   0  0  0  0  0  0  0  0  0  0  0  0  # atno 10167 bound_to 10162
  156.6145  130.8864  151.2944 H   0  0  0  0  0  0  0  0  0  0  0  0  # atno 10718 bound_to 10713
  154.5485  135.5668  153.6901 H   0  0  0  0  0  0  0  0  0  0  0  0  # atno 10763 bound_to 10752
  152.9983  135.6245  154.2405 H   0  0  0  0  0  0  0  0  0  0  0  0  # atno 10764 bound_to 10752
  154.2339  135.2865  155.2859 H   0  0  0  0  0  0  0  0  0  0  0  0  # atno 10765 bound_to 10752
  140.1320  134.4694  155.8514 H   0  0  0  0  0  0  0  0  0  0  0  0  # atno 11005 bound_to 11000
  145.9781  139.2920  143.1058 LP  0  0  0  0  0  0  0  0  0  0  0  0  # atno 17320 bound_to 7965
  145.9041  140.9223  143.0488 LP  0  0  0  0  0  0  0  0  0  0  0  0  # atno 17321 bound_to 7965
  139.4989  144.3967  152.0224 LP  0  0  0  0  0  0  0  0  0  0  0  0  # atno 17342 bound_to 10162
  140.3076  144.3575  150.6043 LP  0  0  0  0  0  0  0  0  0  0  0  0  # atno 17343 bound_to 10162
  157.7245  130.9603  150.1575 LP  0  0  0  0  0  0  0  0  0  0  0  0  # atno 17370 bound_to 10713
  156.2362  130.3686  149.8389 LP  0  0  0  0  0  0  0  0  0  0  0  0  # atno 17371 bound_to 10713
  141.2172  133.6799  156.7086 LP  0  0  0  0  0  0  0  0  0  0  0  0  # atno 17394 bound_to 11000
  140.2830  134.8301  157.3950 LP  0  0  0  0  0  0  0  0  0  0  0  0  # atno 17395 bound_to 11000

$$$$
