AV-unprocessed.smi:2706|AV-procd|sdf|10444|dock7
  -GOLD-   2272014483D 1   1.00000     0.00000
 Structure written by MMmdl.
 43 46  0  0  0  0  0  0  0  0  1 V2000
  153.4527  142.7311  162.7379 C   0  0  0  0  0  0  0  0  0  0  0  0
  153.1853  142.4753  161.3281 N   0  0  0  0  0  0  0  0  0  0  0  0
  153.6559  141.2401  160.7090 C   0  0  0  0  0  0  0  0  0  0  0  0
  152.4262  143.3952  160.5696 C   0  0  0  0  0  0  0  0  0  0  0  0
  152.4316  144.7805  160.8615 C   0  0  0  0  0  0  0  0  0  0  0  0
  151.6536  145.6454  160.0713 C   0  0  0  0  0  0  0  0  0  0  0  0
  150.8945  145.1083  159.0165 C   0  0  0  0  0  0  0  0  0  0  0  0
  150.9344  143.7187  158.7779 C   0  0  0  0  0  0  0  0  0  0  0  0
  150.1357  143.2676  157.6936 N   0  0  0  0  0  0  0  0  0  0  0  0
  149.7441  142.0112  157.4160 C   0  0  0  0  0  0  0  0  0  0  0  0
  150.0362  141.0124  158.0750 O   0  0  0  0  0  0  0  0  0  0  0  0
  148.9842  141.9759  156.3126 N   0  0  0  0  0  0  0  0  0  0  0  0
  148.4134  140.8026  155.7348 C   0  0  2  0  0  0  0  0  0  0  0  0
  148.7329  140.5306  154.2790 C   0  0  1  0  0  0  0  0  0  0  0  0
  148.4483  139.2497  153.4983 C   0  0  1  0  0  0  0  0  0  0  0  0
  147.9688  138.1190  154.4319 C   0  0  0  0  0  0  0  0  0  0  0  0
  146.5585  138.6000  154.8403 C   0  0  0  0  0  0  0  0  0  0  0  0
  146.4306  139.9379  154.0825 C   0  0  2  0  0  0  0  0  0  0  0  0
  147.1487  139.5993  152.7800 C   0  0  0  0  0  0  0  0  0  0  0  0
  147.3459  141.0042  154.6795 C   0  0  1  0  0  0  0  0  0  0  0  0
  151.6887  142.8972  159.5475 N   0  0  0  0  0  0  0  0  0  0  0  0
  154.0253  143.6510  162.8584 H   0  0  0  0  0  0  0  0  0  0  0  0
  154.0281  141.9209  163.1860 H   0  0  0  0  0  0  0  0  0  0  0  0
  152.5195  142.8233  163.2946 H   0  0  0  0  0  0  0  0  0  0  0  0
  154.2949  141.4593  159.8531 H   0  0  0  0  0  0  0  0  0  0  0  0
  152.8134  140.6387  160.3658 H   0  0  0  0  0  0  0  0  0  0  0  0
  154.2333  140.6371  161.4099 H   0  0  0  0  0  0  0  0  0  0  0  0
  153.0138  145.1951  161.6705 H   0  0  0  0  0  0  0  0  0  0  0  0
  151.6391  146.7064  160.2721 H   0  0  0  0  0  0  0  0  0  0  0  0
  150.2912  145.7596  158.4009 H   0  0  0  0  0  0  0  0  0  0  0  0
  149.8254  143.9854  157.0559 H   0  0  0  0  0  0  0  0  0  0  0  0
  148.7976  142.8475  155.8389 H   0  0  0  0  0  0  0  0  0  0  0  0
  148.3138  139.9452  156.3960 H   0  0  0  0  0  0  0  0  0  0  0  0
  149.3434  141.2600  153.7491 H   0  0  0  0  0  0  0  0  0  0  0  0
  149.2755  138.9713  152.8448 H   0  0  0  0  0  0  0  0  0  0  0  0
  147.9064  137.1736  153.8914 H   0  0  0  0  0  0  0  0  0  0  0  0
  148.6336  137.9669  155.2824 H   0  0  0  0  0  0  0  0  0  0  0  0
  145.8023  137.8909  154.5011 H   0  0  0  0  0  0  0  0  0  0  0  0
  146.4398  138.7149  155.9180 H   0  0  0  0  0  0  0  0  0  0  0  0
  145.4059  140.2915  153.9653 H   0  0  0  0  0  0  0  0  0  0  0  0
  147.2449  140.4530  152.1066 H   0  0  0  0  0  0  0  0  0  0  0  0
  146.7059  138.7618  152.2374 H   0  0  0  0  0  0  0  0  0  0  0  0
  147.0979  142.0266  154.3990 H   0  0  0  0  0  0  0  0  0  0  0  0
  1  2  1  0  0  0  0
  1 22  1  0  0  0  0
  1 23  1  0  0  0  0
  1 24  1  0  0  0  0
  2  3  1  0  0  0  0
  2  4  1  0  0  0  0
  3 25  1  0  0  0  0
  3 26  1  0  0  0  0
  3 27  1  0  0  0  0
  4 21  1  0  0  0  0
  4  5  2  0  0  0  0
  5  6  1  0  0  0  0
  5 28  1  0  0  0  0
  6  7  2  0  0  0  0
  6 29  1  0  0  0  0
  7  8  1  0  0  0  0
  7 30  1  0  0  0  0
  8  9  1  0  0  0  0
  8 21  2  0  0  0  0
  9 10  1  0  0  0  0
  9 31  1  0  0  0  0
 10 11  2  0  0  0  0
 10 12  1  0  0  0  0
 12 13  1  0  0  0  0
 12 32  1  0  0  0  0
 13 20  1  0  0  0  0
 13 14  1  0  0  0  0
 13 33  1  0  0  0  0
 14 20  1  0  0  0  0
 14 15  1  0  0  0  0
 14 34  1  0  0  0  0
 15 19  1  0  0  0  0
 15 16  1  0  0  0  0
 15 35  1  0  0  0  0
 16 17  1  0  0  0  0
 16 36  1  0  0  0  0
 16 37  1  0  0  0  0
 17 18  1  0  0  0  0
 17 38  1  0  0  0  0
 17 39  1  0  0  0  0
 18 19  1  0  0  0  0
 18 20  1  0  0  0  0
 18 40  1  0  0  0  0
 19 41  1  0  0  0  0
 19 42  1  0  0  0  0
 20 43  1  0  0  0  0
M  END
> <s_m_source_file>
AV-unprocessed.smi

> <i_m_source_file_index>
2706

> <i_lp_mmshare_version>
43012

> <i_f3d_flags>
0

> <s_epik_input>
W0NIM11OKFtDSDNdKWMxW2NIXVtjSF1bY0hdYyhuMSlbTkhdQyg9TylbTkhdW0NASF0yW0NAQEhdM1tDQEBIXShbQ0gyXTQpW0NIMl1bQ0gyXVtDQEBIXTRbQ0BIXTIz

> <s_epik_cmdline>
J2VwaWtfcHl0aG9uJywgJy1waCcsICc3LjAnLCAnLXRuJywgJzgnLCAnLW1hJywgJzIwMCcsICctbWV0YWxfYmluZGluZycsICctaW1hZScsICc8aW5maWxlLm1hZT4nLCAnLW9tYWUnLCAnPG91dGZpbGUubWFlPic=

> <r_lp_tautomer_probability>
1

> <r_epik_Ionization_Penalty>
0.0296788

> <r_epik_Ionization_Penalty_Charging>
0

> <r_epik_Ionization_Penalty_Neutral>
0.0296788

> <r_epik_State_Penalty>
0.0248512

> <r_epik_Charging_Adjusted_Penalty>
0.0248512

> <i_epik_Tot_Q>
0

> <i_epik_Tot_abs_Q>
0

> <r_epik_Metal_State_Penalty>
0.0237882

> <b_epik_Metal_Only>
0

> <s_lp_Force_Field>
OPLS_2005

> <r_lp_Energy>
79.5337

> <b_lp_Chiralities_Consistent>
1

> <s_lp_Variant>
AV-unprocessed.smi:2706-1

> <Gold.Version>
5.8.1

> <Gold.Id.Protein>
6NUR|6NUR_protein|mol2

> <Gold.PLP.Fitness>
45.2869

> <Gold.PLP.PLP>
-40.2474

> <Gold.PLP.part.hbond>
-2.0000

> <Gold.PLP.part.metal>
0.0000

> <Gold.PLP.part.buried>
-1.8326

> <Gold.PLP.part.nonpolar>
-36.6595

> <Gold.PLP.part.repulsive>
0.0831

> <Gold.PLP.ligand.clash>
0.0000

> <Gold.PLP.ligand.torsion>
0.5005

> <Gold.PLP.Chemscore.Hbond>
2.0000

> <Gold.PLP.Chemscore.CHOScore>
0.0000

> <Gold.PLP.Chemscore.Metal>
0.0000

> <Gold.Chemscore.Hbonds>
donor molecule, donor type, donor heavy atom, donor atom, acceptor molecule, acceptor atom, score
      L1  H     9    31       P1  8028  1.00
      L1  H    12    32       P1  8028  1.00

> <Gold.PLP.Chemscore.Internal.Correction>
0.0406

> <Gold.Rescore>
     Score         DG    S(hbond)    S(metal)    S(lipo)     H(rot)  DE(clash)    DE(int)     intcor
     16.56     -20.65       1.91        0.00      96.91       1.00       2.48       1.61       ----

> <Gold.Chemscore.Fitness>
16.5600

> <Gold.Chemscore.DG>
-20.6519

> <Gold.Chemscore.ZeroCoef>
-5.4800

> <Gold.Chemscore.Hbond>
1.9143

> <Gold.Chemscore.Metal>
0.0000

> <Gold.Chemscore.Lipo>
96.9070

> <Gold.Chemscore.Internal_Hbond>
0.0000

> <Gold.Chemscore.DEClash>
2.4813

> <Gold.Chemscore.DEInternal>
1.6105

> <Gold.Chemscore.Rot>
1.0000

> <Gold.Chemscore.Internal.Correction>
   9.000000E+99

> <Gold.Chemscore.Hbonds>
donor molecule, donor type, donor heavy atom, donor atom, acceptor molecule, acceptor atom, score
      L1  H     9    31       P1  8028  0.85
      L1  H    12    32       P1  8028  0.98

> <Gold.Chemscore.Hbond.Weighted>
-6.3938

> <Gold.Chemscore.Metal.Weighted>
-0.0000

> <Gold.Chemscore.Lipo.Weighted>
-11.3381

> <Gold.Chemscore.Internal_Hbond.Weighted>
0.0000

> <Gold.Chemscore.DEClash.Weighted>
2.4813

> <Gold.Chemscore.DEInternal.Weighted>
1.6105

> <Gold.Chemscore.Rot.Weighted>
2.5600

> <Gold.Chemscore.Internal.Correction.Weighted>
   9.000000E+99

> <Gold.Protein.RotatedTorsions>
[ 6907 6896 6895 6894 ] final  -16.81 input  -60.11 | X-H torsion
[ 7974 7965 7964 7962 ] final  -86.65 input  175.53 | X-H torsion
[ 8008 7997 7996 7995 ] final  -67.17 input   59.86 | X-H torsion
[ 10167 10162 10161 10158 ] final  113.14 input  -65.29 | X-H torsion
[ 10718 10713 10712 10709 ] final -154.37 input   66.30 | X-H torsion
[ 10763 10752 10751 10750 ] final -148.00 input  -60.55 | X-H torsion
[ 11005 11000 10999 10996 ] final   30.05 input  -57.11 | X-H torsion

> <Gold.Protein.ActiveResidues>
 VAL166  LYS551  ARG553  GLY616  TRP617  ASP618  TYR619  PRO620  LYS621  CYS622 
 ASP623  PHE694  ASN695  SER759  ASP760  ASP761  ALA762  ILE779  LEU786  VAL792 
 PHE793  MET794  SER795  GLU796  ALA797  LYS798  CYS799  TRP800  GLU811  SER814 

> <Gold.Protein.RotatedAtoms>
  151.3029  135.0773  159.9244 H   0  0  0  0  0  0  0  0  0  0  0  0  # atno 6907 bound_to 6896
  152.5294  133.9815  159.7819 H   0  0  0  0  0  0  0  0  0  0  0  0  # atno 6908 bound_to 6896
  151.0104  133.5919  159.2714 H   0  0  0  0  0  0  0  0  0  0  0  0  # atno 6909 bound_to 6896
  145.4771  140.9558  143.1885 H   0  0  0  0  0  0  0  0  0  0  0  0  # atno 7974 bound_to 7965
  154.4782  140.0898  156.7314 H   0  0  0  0  0  0  0  0  0  0  0  0  # atno 8008 bound_to 7997
  155.4539  140.3458  155.4286 H   0  0  0  0  0  0  0  0  0  0  0  0  # atno 8009 bound_to 7997
  156.1150  140.1458  156.9273 H   0  0  0  0  0  0  0  0  0  0  0  0  # atno 8010 bound_to 7997
  139.6483  144.7127  151.2098 H   0  0  0  0  0  0  0  0  0  0  0  0  # atno 10167 bound_to 10162
  156.4983  130.8379  151.2599 H   0  0  0  0  0  0  0  0  0  0  0  0  # atno 10718 bound_to 10713
  154.8256  135.3346  154.6905 H   0  0  0  0  0  0  0  0  0  0  0  0  # atno 10763 bound_to 10752
  153.7532  135.6938  153.4946 H   0  0  0  0  0  0  0  0  0  0  0  0  # atno 10764 bound_to 10752
  153.2162  135.4465  155.0387 H   0  0  0  0  0  0  0  0  0  0  0  0  # atno 10765 bound_to 10752
  140.2985  134.2783  155.7759 H   0  0  0  0  0  0  0  0  0  0  0  0  # atno 11005 bound_to 11000
  144.7911  139.6327  143.7113 LP  0  0  0  0  0  0  0  0  0  0  0  0  # atno 17320 bound_to 7965
  146.2363  139.5911  142.9521 LP  0  0  0  0  0  0  0  0  0  0  0  0  # atno 17321 bound_to 7965
  140.7525  143.6193  150.8529 LP  0  0  0  0  0  0  0  0  0  0  0  0  # atno 17342 bound_to 10162
  139.9838  143.5922  152.2934 LP  0  0  0  0  0  0  0  0  0  0  0  0  # atno 17343 bound_to 10162
  157.7466  130.9990  150.2873 LP  0  0  0  0  0  0  0  0  0  0  0  0  # atno 17370 bound_to 10713
  156.3358  130.3807  149.7452 LP  0  0  0  0  0  0  0  0  0  0  0  0  # atno 17371 bound_to 10713
  141.2132  133.7631  156.9732 LP  0  0  0  0  0  0  0  0  0  0  0  0  # atno 17394 bound_to 11000
  140.1130  134.9465  157.2094 LP  0  0  0  0  0  0  0  0  0  0  0  0  # atno 17395 bound_to 11000

$$$$
