AV-unprocessed.smi:1840|AV-procd|sdf|7495|dock7
  -GOLD-   22720 9193D 1   1.00000     0.00000
 Structure written by MMmdl.
 43 44  0  0  0  0  0  0  0  0  1 V2000
  148.0159  138.7348  154.0964 C   0  0  0  0  0  0  0  0  0  0  0  0
  148.5924  140.1561  154.0470 C   0  0  1  0  0  0  0  0  0  0  0  0
  147.5667  141.1607  153.4790 C   0  0  0  0  0  0  0  0  0  0  0  0
  146.5929  141.5874  154.4695 N   0  0  0  0  0  0  0  0  0  0  0  0
  146.3590  142.8595  154.9476 C   0  0  0  0  0  0  0  0  0  0  0  0
  145.3683  142.7664  155.8825 C   0  0  0  0  0  0  0  0  0  0  0  0
  145.0538  141.3787  155.9049 C   0  0  0  0  0  0  0  0  0  0  0  0
  145.7844  140.6763  155.0544 N   0  0  0  0  0  0  0  0  0  0  0  0
  149.0144  140.5479  155.3916 N   0  0  0  0  0  0  0  0  0  0  0  0
  150.2623  140.8896  155.7454 C   0  0  0  0  0  0  0  0  0  0  0  0
  151.2302  140.8576  154.9847 O   0  0  0  0  0  0  0  0  0  0  0  0
  150.3229  141.3010  157.0191 N   0  0  0  0  0  0  0  0  0  0  0  0
  151.5237  141.8044  157.6825 C   0  0  1  0  0  0  0  0  0  0  0  0
  151.2941  143.2621  158.1376 C   0  0  0  0  0  0  0  0  0  0  0  0
  152.5100  143.8180  158.8921 C   0  0  0  0  0  0  0  0  0  0  0  0
  152.8714  142.9242  160.0859 C   0  0  0  0  0  0  0  0  0  0  0  0
  153.1165  141.4762  159.6358 C   0  0  0  0  0  0  0  0  0  0  0  0
  151.9048  140.8958  158.8779 C   0  0  2  0  0  0  0  0  0  0  0  0
  152.1816  139.4435  158.4489 C   0  0  0  0  0  0  0  0  0  0  0  0
  147.7198  138.3981  153.1026 H   0  0  0  0  0  0  0  0  0  0  0  0
  147.1370  138.6835  154.7402 H   0  0  0  0  0  0  0  0  0  0  0  0
  148.7511  138.0254  154.4781 H   0  0  0  0  0  0  0  0  0  0  0  0
  149.4570  140.1288  153.3811 H   0  0  0  0  0  0  0  0  0  0  0  0
  148.0801  142.0512  153.1139 H   0  0  0  0  0  0  0  0  0  0  0  0
  147.0433  140.7317  152.6226 H   0  0  0  0  0  0  0  0  0  0  0  0
  146.9172  143.7134  154.5927 H   0  0  0  0  0  0  0  0  0  0  0  0
  144.9364  143.5668  156.4647 H   0  0  0  0  0  0  0  0  0  0  0  0
  144.3211  140.8647  156.5093 H   0  0  0  0  0  0  0  0  0  0  0  0
  148.2904  140.6121  156.0922 H   0  0  0  0  0  0  0  0  0  0  0  0
  149.4722  141.2956  157.5623 H   0  0  0  0  0  0  0  0  0  0  0  0
  152.3523  141.7899  156.9713 H   0  0  0  0  0  0  0  0  0  0  0  0
  151.0814  143.8977  157.2770 H   0  0  0  0  0  0  0  0  0  0  0  0
  150.4147  143.3138  158.7811 H   0  0  0  0  0  0  0  0  0  0  0  0
  153.3616  143.8866  158.2141 H   0  0  0  0  0  0  0  0  0  0  0  0
  152.3037  144.8324  159.2347 H   0  0  0  0  0  0  0  0  0  0  0  0
  153.7586  143.3131  160.5863 H   0  0  0  0  0  0  0  0  0  0  0  0
  152.0655  142.9491  160.8205 H   0  0  0  0  0  0  0  0  0  0  0  0
  154.0009  141.4403  158.9980 H   0  0  0  0  0  0  0  0  0  0  0  0
  153.3415  140.8603  160.5072 H   0  0  0  0  0  0  0  0  0  0  0  0
  151.0622  140.8770  159.5712 H   0  0  0  0  0  0  0  0  0  0  0  0
  152.9913  139.3950  157.7202 H   0  0  0  0  0  0  0  0  0  0  0  0
  151.3026  138.9804  158.0004 H   0  0  0  0  0  0  0  0  0  0  0  0
  152.4680  138.8304  159.3037 H   0  0  0  0  0  0  0  0  0  0  0  0
  1  2  1  0  0  0  0
  1 20  1  0  0  0  0
  1 21  1  0  0  0  0
  1 22  1  0  0  0  0
  2  3  1  0  0  0  0
  2  9  1  0  0  0  0
  2 23  1  0  0  0  0
  3  4  1  0  0  0  0
  3 24  1  0  0  0  0
  3 25  1  0  0  0  0
  4  8  1  0  0  0  0
  4  5  1  0  0  0  0
  5  6  2  0  0  0  0
  5 26  1  0  0  0  0
  6  7  1  0  0  0  0
  6 27  1  0  0  0  0
  7  8  2  0  0  0  0
  7 28  1  0  0  0  0
  9 10  1  0  0  0  0
  9 29  1  0  0  0  0
 10 11  2  0  0  0  0
 10 12  1  0  0  0  0
 12 13  1  0  0  0  0
 12 30  1  0  0  0  0
 13 18  1  0  0  0  0
 13 14  1  0  0  0  0
 13 31  1  0  0  0  0
 14 15  1  0  0  0  0
 14 32  1  0  0  0  0
 14 33  1  0  0  0  0
 15 16  1  0  0  0  0
 15 34  1  0  0  0  0
 15 35  1  0  0  0  0
 16 17  1  0  0  0  0
 16 36  1  0  0  0  0
 16 37  1  0  0  0  0
 17 18  1  0  0  0  0
 17 38  1  0  0  0  0
 17 39  1  0  0  0  0
 18 19  1  0  0  0  0
 18 40  1  0  0  0  0
 19 41  1  0  0  0  0
 19 42  1  0  0  0  0
 19 43  1  0  0  0  0
M  END
> <s_m_source_file>
AV-unprocessed.smi

> <i_m_source_file_index>
1840

> <i_lp_mmshare_version>
43012

> <i_f3d_flags>
0

> <s_epik_input>
bjFbY0hdW2NIXVtjSF1uMVtDSDJdW0NAQEhdKFtDSDNdKVtOSF1DKD1PKVtOSF1bQ0BASF0yW0NIMl1bQ0gyXVtDSDJdW0NIMl1bQ0BIXTJbQ0gzXQ==

> <s_epik_cmdline>
J2VwaWtfcHl0aG9uJywgJy1waCcsICc3LjAnLCAnLXRuJywgJzgnLCAnLW1hJywgJzIwMCcsICctbWV0YWxfYmluZGluZycsICctaW1hZScsICc8aW5maWxlLm1hZT4nLCAnLW9tYWUnLCAnPG91dGZpbGUubWFlPic=

> <r_lp_tautomer_probability>
1

> <r_epik_Ionization_Penalty>
7.38659e-05

> <r_epik_Ionization_Penalty_Charging>
0

> <r_epik_Ionization_Penalty_Neutral>
7.38659e-05

> <r_epik_State_Penalty>
-0

> <r_epik_Charging_Adjusted_Penalty>
0

> <i_epik_Tot_Q>
0

> <i_epik_Tot_abs_Q>
0

> <r_epik_Metal_State_Penalty>
-0

> <b_epik_Metal_Only>
0

> <s_lp_Force_Field>
OPLS_2005

> <r_lp_Energy>
7.84096

> <b_lp_Chiralities_Consistent>
1

> <s_lp_Variant>
AV-unprocessed.smi:1840-8

> <Gold.Version>
5.8.1

> <Gold.Id.Protein>
6NUR|6NUR_protein|mol2

> <Gold.PLP.Fitness>
41.5173

> <Gold.PLP.PLP>
-36.9456

> <Gold.PLP.part.hbond>
-1.0000

> <Gold.PLP.part.metal>
0.0000

> <Gold.PLP.part.buried>
-1.8445

> <Gold.PLP.part.nonpolar>
-34.7973

> <Gold.PLP.part.repulsive>
0.2449

> <Gold.PLP.ligand.clash>
0.0000

> <Gold.PLP.ligand.torsion>
0.1900

> <Gold.PLP.Chemscore.Hbond>
0.9760

> <Gold.PLP.Chemscore.CHOScore>
0.6697

> <Gold.PLP.Chemscore.Metal>
0.0000

> <Gold.Chemscore.Hbonds>
donor molecule, donor type, donor heavy atom, donor atom, acceptor molecule, acceptor atom, score
      P1  H  7989  7998       L1    11  0.75
      L1  C     5    26       P1  8028  0.28

> <Gold.PLP.Chemscore.Internal.Correction>
0.0145

> <Gold.Rescore>
     Score         DG    S(hbond)    S(metal)    S(lipo)     H(rot)  DE(clash)    DE(int)     intcor
     15.76     -16.14       0.93        0.00      98.51       1.56       0.06       0.31       ----

> <Gold.Chemscore.Fitness>
15.7578

> <Gold.Chemscore.DG>
-16.1354

> <Gold.Chemscore.ZeroCoef>
-5.4800

> <Gold.Chemscore.Hbond>
0.9332

> <Gold.Chemscore.Metal>
0.0000

> <Gold.Chemscore.Lipo>
98.5137

> <Gold.Chemscore.Internal_Hbond>
0.0000

> <Gold.Chemscore.DEClash>
0.0630

> <Gold.Chemscore.DEInternal>
0.3145

> <Gold.Chemscore.Rot>
1.5576

> <Gold.Chemscore.Internal.Correction>
   9.000000E+99

> <Gold.Chemscore.Hbonds>
donor molecule, donor type, donor heavy atom, donor atom, acceptor molecule, acceptor atom, score
      P1  H  7989  7998       L1    11  0.70

> <Gold.Chemscore.Hbond.Weighted>
-3.1168

> <Gold.Chemscore.Metal.Weighted>
-0.0000

> <Gold.Chemscore.Lipo.Weighted>
-11.5261

> <Gold.Chemscore.Internal_Hbond.Weighted>
0.0000

> <Gold.Chemscore.DEClash.Weighted>
0.0630

> <Gold.Chemscore.DEInternal.Weighted>
0.3145

> <Gold.Chemscore.Rot.Weighted>
3.9875

> <Gold.Chemscore.Internal.Correction.Weighted>
   9.000000E+99

> <Gold.Protein.RotatedTorsions>
[ 6907 6896 6895 6894 ] final   13.60 input  -60.11 | X-H torsion
[ 7974 7965 7964 7962 ] final  164.73 input  175.53 | X-H torsion
[ 8008 7997 7996 7995 ] final  -29.75 input   59.86 | X-H torsion
[ 10167 10162 10161 10158 ] final   95.62 input  -65.29 | X-H torsion
[ 10718 10713 10712 10709 ] final  -94.82 input   66.30 | X-H torsion
[ 10763 10752 10751 10750 ] final -140.67 input  -60.55 | X-H torsion
[ 11005 11000 10999 10996 ] final  -85.77 input  -57.11 | X-H torsion

> <Gold.Protein.ActiveResidues>
 VAL166  LYS551  ARG553  GLY616  TRP617  ASP618  TYR619  PRO620  LYS621  CYS622 
 ASP623  PHE694  ASN695  SER759  ASP760  ASP761  ALA762  ILE779  LEU786  VAL792 
 PHE793  MET794  SER795  GLU796  ALA797  LYS798  CYS799  TRP800  GLU811  SER814 

> <Gold.Protein.RotatedAtoms>
  151.7890  135.0741  160.0384 H   0  0  0  0  0  0  0  0  0  0  0  0  # atno 6907 bound_to 6896
  152.3170  133.5808  159.5727 H   0  0  0  0  0  0  0  0  0  0  0  0  # atno 6908 bound_to 6896
  150.7349  133.9984  159.3672 H   0  0  0  0  0  0  0  0  0  0  0  0  # atno 6909 bound_to 6896
  144.7533  139.8367  143.6359 H   0  0  0  0  0  0  0  0  0  0  0  0  # atno 7974 bound_to 7965
  154.4277  140.1810  156.1297 H   0  0  0  0  0  0  0  0  0  0  0  0  # atno 8008 bound_to 7997
  156.0077  140.3353  155.6884 H   0  0  0  0  0  0  0  0  0  0  0  0  # atno 8009 bound_to 7997
  155.6154  140.0654  157.2684 H   0  0  0  0  0  0  0  0  0  0  0  0  # atno 8010 bound_to 7997
  139.7971  144.6829  150.9814 H   0  0  0  0  0  0  0  0  0  0  0  0  # atno 10167 bound_to 10162
  156.0033  130.5083  150.5984 H   0  0  0  0  0  0  0  0  0  0  0  0  # atno 10718 bound_to 10713
  154.8571  135.3546  154.5744 H   0  0  0  0  0  0  0  0  0  0  0  0  # atno 10763 bound_to 10752
  153.6356  135.7000  153.5264 H   0  0  0  0  0  0  0  0  0  0  0  0  # atno 10764 bound_to 10752
  153.3013  135.4205  155.1214 H   0  0  0  0  0  0  0  0  0  0  0  0  # atno 10765 bound_to 10752
  141.1637  133.7418  156.9064 H   0  0  0  0  0  0  0  0  0  0  0  0  # atno 11005 bound_to 11000
  146.1511  139.4594  143.0048 LP  0  0  0  0  0  0  0  0  0  0  0  0  # atno 17320 bound_to 7965
  145.6868  141.0175  143.1576 LP  0  0  0  0  0  0  0  0  0  0  0  0  # atno 17321 bound_to 7965
  140.7820  143.4320  151.0681 LP  0  0  0  0  0  0  0  0  0  0  0  0  # atno 17342 bound_to 10162
  139.7993  143.8106  152.3161 LP  0  0  0  0  0  0  0  0  0  0  0  0  # atno 17343 bound_to 10162
  157.3837  131.0785  151.1454 LP  0  0  0  0  0  0  0  0  0  0  0  0  # atno 17370 bound_to 10713
  157.2168  130.6463  149.5795 LP  0  0  0  0  0  0  0  0  0  0  0  0  # atno 17371 bound_to 10713
  140.1547  134.9206  157.2638 LP  0  0  0  0  0  0  0  0  0  0  0  0  # atno 17394 bound_to 11000
  140.2681  134.3492  155.7383 LP  0  0  0  0  0  0  0  0  0  0  0  0  # atno 17395 bound_to 11000

$$$$
