AV-unprocessed.smi:3259|AV-procd|sdf|12472|dock5
  -GOLD-   2272018373D 1   1.00000     0.00000
 Structure written by MMmdl.
 39 40  0  0  0  0  0  0  0  0  1 V2000
  148.6996  140.6511  154.2694 C   0  0  0  0  0  0  0  0  0  0  0  0
  150.0852  140.7221  154.5798 O   0  0  0  0  0  0  0  0  0  0  0  0
  150.5661  139.7897  155.5496 C   0  0  1  0  0  0  0  0  0  0  0  0
  150.4658  138.3589  154.9980 C   0  0  0  0  0  0  0  0  0  0  0  0
  151.9052  140.2307  156.1679 C   0  0  0  0  0  0  0  0  0  0  0  0
  151.3178  139.8198  157.5164 C   0  0  1  0  0  0  0  0  0  0  0  0
  151.7259  140.7086  158.5969 N   0  0  0  0  0  0  0  0  0  0  0  0
  152.9115  140.6533  159.2220 C   0  0  0  0  0  0  0  0  0  0  0  0
  153.8149  139.8844  158.8948 O   0  0  0  0  0  0  0  0  0  0  0  0
  153.1019  141.6030  160.4058 C   0  0  0  0  0  0  0  0  0  0  0  0
  152.6854  142.9537  160.0686 N   0  0  0  0  0  0  0  0  0  0  0  0
  151.9896  143.8559  160.8468 C   0  0  0  0  0  0  0  0  0  0  0  0
  151.8441  144.9985  160.1139 C   0  0  0  0  0  0  0  0  0  0  0  0
  152.4909  144.6952  158.8835 C   0  0  0  0  0  0  0  0  0  0  0  0
  152.9937  143.4714  158.8591 N   0  0  0  0  0  0  0  0  0  0  0  0
  149.9122  140.1158  156.9319 C   0  0  0  0  0  0  0  0  0  0  0  0
  149.3744  141.5515  157.1085 C   0  0  0  0  0  0  0  0  0  0  0  0
  148.7867  139.1875  157.3989 C   0  0  0  0  0  0  0  0  0  0  0  0
  148.4830  141.3388  153.4522 H   0  0  0  0  0  0  0  0  0  0  0  0
  148.0778  140.9470  155.1138 H   0  0  0  0  0  0  0  0  0  0  0  0
  148.4032  139.6527  153.9471 H   0  0  0  0  0  0  0  0  0  0  0  0
  150.6990  137.6133  155.7579 H   0  0  0  0  0  0  0  0  0  0  0  0
  151.1640  138.1886  154.1791 H   0  0  0  0  0  0  0  0  0  0  0  0
  149.4626  138.1456  154.6287 H   0  0  0  0  0  0  0  0  0  0  0  0
  152.7693  139.6445  155.8540 H   0  0  0  0  0  0  0  0  0  0  0  0
  152.0971  141.3018  156.0815 H   0  0  0  0  0  0  0  0  0  0  0  0
  151.4819  138.7606  157.7270 H   0  0  0  0  0  0  0  0  0  0  0  0
  151.0420  141.3743  158.9264 H   0  0  0  0  0  0  0  0  0  0  0  0
  152.5302  141.2542  161.2673 H   0  0  0  0  0  0  0  0  0  0  0  0
  154.1518  141.6181  160.7008 H   0  0  0  0  0  0  0  0  0  0  0  0
  151.6634  143.6132  161.8475 H   0  0  0  0  0  0  0  0  0  0  0  0
  151.3512  145.9119  160.4120 H   0  0  0  0  0  0  0  0  0  0  0  0
  152.6101  145.3241  158.0134 H   0  0  0  0  0  0  0  0  0  0  0  0
  149.1129  141.7602  158.1466 H   0  0  0  0  0  0  0  0  0  0  0  0
  148.4765  141.7171  156.5123 H   0  0  0  0  0  0  0  0  0  0  0  0
  150.1005  142.3066  156.8069 H   0  0  0  0  0  0  0  0  0  0  0  0
  148.4431  139.4466  158.4007 H   0  0  0  0  0  0  0  0  0  0  0  0
  149.1060  138.1463  157.4394 H   0  0  0  0  0  0  0  0  0  0  0  0
  147.9255  139.2384  156.7323 H   0  0  0  0  0  0  0  0  0  0  0  0
  1  2  1  0  0  0  0
  1 19  1  0  0  0  0
  1 20  1  0  0  0  0
  1 21  1  0  0  0  0
  2  3  1  0  0  0  0
  3 16  1  0  0  0  0
  3  4  1  0  0  0  0
  3  5  1  0  0  0  0
  4 22  1  0  0  0  0
  4 23  1  0  0  0  0
  4 24  1  0  0  0  0
  5  6  1  0  0  0  0
  5 25  1  0  0  0  0
  5 26  1  0  0  0  0
  6  7  1  0  0  0  0
  6 16  1  0  0  0  0
  6 27  1  0  0  0  0
  7  8  1  0  0  0  0
  7 28  1  0  0  0  0
  8  9  2  0  0  0  0
  8 10  1  0  0  0  0
 10 11  1  0  0  0  0
 10 29  1  0  0  0  0
 10 30  1  0  0  0  0
 11 15  1  0  0  0  0
 11 12  1  0  0  0  0
 12 13  2  0  0  0  0
 12 31  1  0  0  0  0
 13 14  1  0  0  0  0
 13 32  1  0  0  0  0
 14 15  2  0  0  0  0
 14 33  1  0  0  0  0
 16 17  1  0  0  0  0
 16 18  1  0  0  0  0
 17 34  1  0  0  0  0
 17 35  1  0  0  0  0
 17 36  1  0  0  0  0
 18 37  1  0  0  0  0
 18 38  1  0  0  0  0
 18 39  1  0  0  0  0
M  END
> <s_m_source_file>
AV-unprocessed.smi

> <i_m_source_file_index>
3259

> <i_lp_mmshare_version>
43012

> <i_f3d_flags>
0

> <s_epik_input>
W0NIM11PW0NAQF0xKFtDSDNdKVtDSDJdW0NASF0oQzEoW0NIM10pW0NIM10pW05IXUMoPU8pW0NIMl1uMltjSF1bY0hdW2NIXW4y

> <s_epik_cmdline>
J2VwaWtfcHl0aG9uJywgJy1waCcsICc3LjAnLCAnLXRuJywgJzgnLCAnLW1hJywgJzIwMCcsICctbWV0YWxfYmluZGluZycsICctaW1hZScsICc8aW5maWxlLm1hZT4nLCAnLW9tYWUnLCAnPG91dGZpbGUubWFlPic=

> <r_lp_tautomer_probability>
1

> <r_epik_Ionization_Penalty>
1.78399e-05

> <r_epik_Ionization_Penalty_Charging>
0

> <r_epik_Ionization_Penalty_Neutral>
1.78399e-05

> <r_epik_State_Penalty>
-0

> <r_epik_Charging_Adjusted_Penalty>
0

> <i_epik_Tot_Q>
0

> <i_epik_Tot_abs_Q>
0

> <r_epik_Metal_State_Penalty>
-0

> <b_epik_Metal_Only>
0

> <s_lp_Force_Field>
OPLS_2005

> <r_lp_Energy>
22.2184

> <b_lp_Chiralities_Consistent>
1

> <s_lp_Variant>
AV-unprocessed.smi:3259-1

> <Gold.Version>
5.8.1

> <Gold.Id.Protein>
6NUR|6NUR_protein|mol2

> <Gold.PLP.Fitness>
44.1689

> <Gold.PLP.PLP>
-39.6925

> <Gold.PLP.part.hbond>
-2.0000

> <Gold.PLP.part.metal>
0.0000

> <Gold.PLP.part.buried>
-6.2169

> <Gold.PLP.part.nonpolar>
-32.5971

> <Gold.PLP.part.repulsive>
0.2411

> <Gold.PLP.ligand.clash>
0.0000

> <Gold.PLP.ligand.torsion>
0.6506

> <Gold.PLP.Chemscore.Hbond>
1.8000

> <Gold.PLP.Chemscore.CHOScore>
0.0000

> <Gold.PLP.Chemscore.Metal>
0.0000

> <Gold.Chemscore.Hbonds>
donor molecule, donor type, donor heavy atom, donor atom, acceptor molecule, acceptor atom, score
      P1  H  7989  7998       L1     2  0.78
      P1  H  7997  8010       L1     9  1.00

> <Gold.PLP.Chemscore.Internal.Correction>
0.3776

> <Gold.Rescore>
     Score         DG    S(hbond)    S(metal)    S(lipo)     H(rot)  DE(clash)    DE(int)     intcor
     17.32     -17.97       1.80        0.00      90.16       1.60       0.34       0.31       ----

> <Gold.Chemscore.Fitness>
17.3157

> <Gold.Chemscore.DG>
-17.9707

> <Gold.Chemscore.ZeroCoef>
-5.4800

> <Gold.Chemscore.Hbond>
1.8049

> <Gold.Chemscore.Metal>
0.0000

> <Gold.Chemscore.Lipo>
90.1591

> <Gold.Chemscore.Internal_Hbond>
0.0000

> <Gold.Chemscore.DEClash>
0.3414

> <Gold.Chemscore.DEInternal>
0.3136

> <Gold.Chemscore.Rot>
1.5962

> <Gold.Chemscore.Internal.Correction>
   9.000000E+99

> <Gold.Chemscore.Hbonds>
donor molecule, donor type, donor heavy atom, donor atom, acceptor molecule, acceptor atom, score
      P1  H  7989  7998       L1     2  0.23
      P1  H  7997  8010       L1     9  0.93

> <Gold.Chemscore.Hbond.Weighted>
-6.0283

> <Gold.Chemscore.Metal.Weighted>
-0.0000

> <Gold.Chemscore.Lipo.Weighted>
-10.5486

> <Gold.Chemscore.Internal_Hbond.Weighted>
0.0000

> <Gold.Chemscore.DEClash.Weighted>
0.3414

> <Gold.Chemscore.DEInternal.Weighted>
0.3136

> <Gold.Chemscore.Rot.Weighted>
4.0862

> <Gold.Chemscore.Internal.Correction.Weighted>
   9.000000E+99

> <Gold.Protein.RotatedTorsions>
[ 6907 6896 6895 6894 ] final   48.97 input  -60.11 | X-H torsion
[ 7974 7965 7964 7962 ] final  121.54 input  175.53 | X-H torsion
[ 8008 7997 7996 7995 ] final    6.19 input   59.86 | X-H torsion
[ 10167 10162 10161 10158 ] final  -72.58 input  -65.29 | X-H torsion
[ 10718 10713 10712 10709 ] final  -54.96 input   66.30 | X-H torsion
[ 10763 10752 10751 10750 ] final   32.98 input  -60.55 | X-H torsion
[ 11005 11000 10999 10996 ] final  -28.59 input  -57.11 | X-H torsion

> <Gold.Protein.ActiveResidues>
 VAL166  LYS551  ARG553  GLY616  TRP617  ASP618  TYR619  PRO620  LYS621  CYS622 
 ASP623  PHE694  ASN695  SER759  ASP760  ASP761  ALA762  ILE779  LEU786  VAL792 
 PHE793  MET794  SER795  GLU796  ALA797  LYS798  CYS799  TRP800  GLU811  SER814 

> <Gold.Protein.RotatedAtoms>
  152.2855  134.7781  160.0388 H   0  0  0  0  0  0  0  0  0  0  0  0  # atno 6907 bound_to 6896
  151.8345  133.3408  159.3632 H   0  0  0  0  0  0  0  0  0  0  0  0  # atno 6908 bound_to 6896
  150.7207  134.5379  159.5777 H   0  0  0  0  0  0  0  0  0  0  0  0  # atno 6909 bound_to 6896
  145.1181  139.3407  143.4728 H   0  0  0  0  0  0  0  0  0  0  0  0  # atno 7974 bound_to 7965
  154.7378  140.2743  155.6399 H   0  0  0  0  0  0  0  0  0  0  0  0  # atno 8008 bound_to 7997
  156.2866  140.2703  156.2023 H   0  0  0  0  0  0  0  0  0  0  0  0  # atno 8009 bound_to 7997
  155.0297  140.0371  157.2459 H   0  0  0  0  0  0  0  0  0  0  0  0  # atno 8010 bound_to 7997
  140.5180  143.2335  151.7479 H   0  0  0  0  0  0  0  0  0  0  0  0  # atno 10167 bound_to 10162
  156.1407  130.4154  150.0108 H   0  0  0  0  0  0  0  0  0  0  0  0  # atno 10718 bound_to 10713
  153.0235  135.6399  154.1440 H   0  0  0  0  0  0  0  0  0  0  0  0  # atno 10763 bound_to 10752
  154.1171  135.2849  155.3218 H   0  0  0  0  0  0  0  0  0  0  0  0  # atno 10764 bound_to 10752
  154.6290  135.5499  153.7721 H   0  0  0  0  0  0  0  0  0  0  0  0  # atno 10765 bound_to 10752
  140.9222  133.7391  156.0817 H   0  0  0  0  0  0  0  0  0  0  0  0  # atno 11005 bound_to 11000
  146.3522  140.1129  142.8603 LP  0  0  0  0  0  0  0  0  0  0  0  0  # atno 17320 bound_to 7965
  145.0771  140.9195  143.4847 LP  0  0  0  0  0  0  0  0  0  0  0  0  # atno 17321 bound_to 7965
  139.4915  144.4295  151.9888 LP  0  0  0  0  0  0  0  0  0  0  0  0  # atno 17342 bound_to 10162
  140.3391  144.3225  150.5971 LP  0  0  0  0  0  0  0  0  0  0  0  0  # atno 17343 bound_to 10162
  156.7994  130.9285  151.3646 LP  0  0  0  0  0  0  0  0  0  0  0  0  # atno 17370 bound_to 10713
  157.6573  130.8935  149.9756 LP  0  0  0  0  0  0  0  0  0  0  0  0  # atno 17371 bound_to 10713
  140.7973  134.3549  157.5449 LP  0  0  0  0  0  0  0  0  0  0  0  0  # atno 17394 bound_to 11000
  139.8778  134.9176  156.3183 LP  0  0  0  0  0  0  0  0  0  0  0  0  # atno 17395 bound_to 11000

$$$$
