AV-unprocessed.smi:1801|AV-procd|sdf|7269|dock4
  -GOLD-   22720 8523D 1   1.00000     0.00000
 Structure written by MMmdl.
 37 38  0  0  0  0  0  0  0  0  3 V2000
  153.2182  139.3360  158.0103 C   0  0  0  0  0  0  0  0  0  0  0  0
  151.7574  139.5367  158.4463 C   0  0  2  0  0  0  0  0  0  0  0  0
  150.9062  138.3129  158.0389 C   0  0  0  0  0  0  0  0  0  0  0  0
  149.7734  138.0892  158.9335 N   0  0  0  0  0  0  0  0  0  0  0  0
  149.2362  136.9012  159.2455 C   0  0  0  0  0  0  0  0  0  0  0  0
  149.6736  135.8718  158.7266 O   0  0  0  0  0  0  0  0  0  0  0  0
  148.2357  136.9799  160.1509 N   0  5  0  0  0  0  0  0  0  0  0  0
  147.8024  135.8695  160.7705 C   0  0  0  0  0  0  0  0  0  0  0  0
  147.6855  134.6923  160.1356 N   0  0  0  0  0  0  0  0  0  0  0  0
  147.2167  133.6744  160.9551 N   0  0  0  0  0  0  0  0  0  0  0  0
  146.9828  134.1146  162.1911 C   0  0  0  0  0  0  0  0  0  0  0  0
  147.3115  135.8125  162.4659 S   0  0  0  0  0  0  0  0  0  0  0  0
  151.1818  140.8602  157.8891 C   0  0  0  0  0  0  0  0  0  0  0  0
  152.0602  142.0199  158.1704 N   0  3  0  0  0  0  0  0  0  0  0  0
  151.5294  143.3098  157.6848 C   0  0  0  0  0  0  0  0  0  0  0  0
  152.2017  144.3675  158.5538 C   0  0  0  0  0  0  0  0  0  0  0  0
  152.2673  143.6891  159.9178 C   0  0  0  0  0  0  0  0  0  0  0  0
  152.4288  142.1975  159.5973 C   0  0  0  0  0  0  0  0  0  0  0  0
  153.3035  139.2732  156.9252 H   0  0  0  0  0  0  0  0  0  0  0  0
  153.6280  138.4161  158.4285 H   0  0  0  0  0  0  0  0  0  0  0  0
  153.8524  140.1559  158.3479 H   0  0  0  0  0  0  0  0  0  0  0  0
  151.7529  139.5858  159.5352 H   0  0  0  0  0  0  0  0  0  0  0  0
  150.5147  138.4503  157.0306 H   0  0  0  0  0  0  0  0  0  0  0  0
  151.5219  137.4124  158.0092 H   0  0  0  0  0  0  0  0  0  0  0  0
  149.3705  138.9051  159.3711 H   0  0  0  0  0  0  0  0  0  0  0  0
  146.6115  133.4364  162.9448 H   0  0  0  0  0  0  0  0  0  0  0  0
  151.0431  140.7646  156.8112 H   0  0  0  0  0  0  0  0  0  0  0  0
  150.1964  141.0755  158.3041 H   0  0  0  0  0  0  0  0  0  0  0  0
  151.7267  143.4511  156.6218 H   0  0  0  0  0  0  0  0  0  0  0  0
  150.4491  143.3457  157.8366 H   0  0  0  0  0  0  0  0  0  0  0  0
  153.2098  144.5660  158.1869 H   0  0  0  0  0  0  0  0  0  0  0  0
  151.6561  145.3114  158.5737 H   0  0  0  0  0  0  0  0  0  0  0  0
  153.0730  144.0760  160.5424 H   0  0  0  0  0  0  0  0  0  0  0  0
  151.3283  143.8486  160.4501 H   0  0  0  0  0  0  0  0  0  0  0  0
  151.8100  141.5946  160.2644 H   0  0  0  0  0  0  0  0  0  0  0  0
  153.4628  141.8786  159.7313 H   0  0  0  0  0  0  0  0  0  0  0  0
  152.9246  141.8688  157.6704 H   0  0  0  0  0  0  0  0  0  0  0  0
  1  2  1  0  0  0  0
  1 19  1  0  0  0  0
  1 20  1  0  0  0  0
  1 21  1  0  0  0  0
  2  3  1  0  0  0  0
  2 13  1  0  0  0  0
  2 22  1  0  0  0  0
  3  4  1  0  0  0  0
  3 23  1  0  0  0  0
  3 24  1  0  0  0  0
  4  5  1  0  0  0  0
  4 25  1  0  0  0  0
  5  6  2  0  0  0  0
  5  7  1  0  0  0  0
  7  8  1  0  0  0  0
  8 12  1  0  0  0  0
  8  9  2  0  0  0  0
  9 10  1  0  0  0  0
 10 11  2  0  0  0  0
 11 12  1  0  0  0  0
 11 26  1  0  0  0  0
 13 14  1  0  0  0  0
 13 27  1  0  0  0  0
 13 28  1  0  0  0  0
 14 18  1  0  0  0  0
 14 15  1  0  0  0  0
 14 37  1  0  0  0  0
 15 16  1  0  0  0  0
 15 29  1  0  0  0  0
 15 30  1  0  0  0  0
 16 17  1  0  0  0  0
 16 31  1  0  0  0  0
 16 32  1  0  0  0  0
 17 18  1  0  0  0  0
 17 33  1  0  0  0  0
 17 34  1  0  0  0  0
 18 35  1  0  0  0  0
 18 36  1  0  0  0  0
M  CHG  1   7  -1
M  CHG  1  14   1
M  END
> <s_m_source_file>
AV-unprocessed.smi

> <i_m_source_file_index>
1801

> <i_lp_mmshare_version>
43012

> <i_f3d_flags>
0

> <s_epik_input>
W0NIMl0xW0NIMl1bQ0gyXVtDSDJdTjFbQ0gyXVtDQEhdKFtDSDNdKVtDSDJdW05IXUMoPU8pW05IXWMybm5bY0hdczI=

> <s_epik_cmdline>
J2VwaWtfcHl0aG9uJywgJy1waCcsICc3LjAnLCAnLXRuJywgJzgnLCAnLW1hJywgJzIwMCcsICctbWV0YWxfYmluZGluZycsICctaW1hZScsICc8aW5maWxlLm1hZT4nLCAnLW9tYWUnLCAnPG91dGZpbGUubWFlPic=

> <r_lp_tautomer_probability>
1

> <r_epik_Ionization_Penalty>
3.29721

> <r_epik_Ionization_Penalty_Charging>
3.25987

> <r_epik_Ionization_Penalty_Neutral>
0.0373399

> <r_epik_State_Penalty>
3.2571

> <r_epik_Charging_Adjusted_Penalty>
6.51697

> <i_epik_Tot_Q>
0

> <i_epik_Tot_abs_Q>
2

> <r_epik_Metal_State_Penalty>
0.477553

> <b_epik_Metal_Only>
1

> <s_lp_Force_Field>
OPLS_2005

> <r_lp_Energy>
22.4794

> <b_lp_Chiralities_Consistent>
1

> <s_lp_Variant>
AV-unprocessed.smi:1801-3

> <Gold.Version>
5.8.1

> <Gold.Id.Protein>
6NUR|6NUR_protein|mol2

> <Gold.PLP.Fitness>
44.1614

> <Gold.PLP.PLP>
-34.8263

> <Gold.PLP.part.hbond>
-3.0000

> <Gold.PLP.part.metal>
0.0000

> <Gold.PLP.part.buried>
-2.1674

> <Gold.PLP.part.nonpolar>
-31.5553

> <Gold.PLP.part.repulsive>
1.0994

> <Gold.PLP.ligand.clash>
0.0000

> <Gold.PLP.ligand.torsion>
0.8695

> <Gold.PLP.Chemscore.Hbond>
3.6389

> <Gold.PLP.Chemscore.CHOScore>
0.0000

> <Gold.PLP.Chemscore.Metal>
0.0000

> <Gold.Chemscore.Hbonds>
donor molecule, donor type, donor heavy atom, donor atom, acceptor molecule, acceptor atom, score
      P1  H  6896  6908       L1     6  1.00
      P1  H  6931  6943       L1     7  0.47
      P1  H  6934  6947       L1     7  0.04

> <Gold.PLP.Chemscore.Internal.Correction>
0.1575

> <Gold.Rescore>
     Score         DG    S(hbond)    S(metal)    S(lipo)     H(rot)  DE(clash)    DE(int)     intcor
     13.13     -16.54       1.78        0.00      85.91       1.93       1.03       2.37       ----

> <Gold.Chemscore.Fitness>
13.1341

> <Gold.Chemscore.DG>
-16.5368

> <Gold.Chemscore.ZeroCoef>
-5.4800

> <Gold.Chemscore.Hbond>
1.7776

> <Gold.Chemscore.Metal>
0.0000

> <Gold.Chemscore.Lipo>
85.9115

> <Gold.Chemscore.Internal_Hbond>
0.0000

> <Gold.Chemscore.DEClash>
1.0317

> <Gold.Chemscore.DEInternal>
2.3710

> <Gold.Chemscore.Rot>
1.9266

> <Gold.Chemscore.Internal.Correction>
   9.000000E+99

> <Gold.Chemscore.Hbonds>
donor molecule, donor type, donor heavy atom, donor atom, acceptor molecule, acceptor atom, score
      P1  H  6896  6908       L1     6  0.98
      P1  H  6931  6943       L1     7  0.05
      P1  H  6934  6947       L1     7  0.05

> <Gold.Chemscore.Hbond.Weighted>
-5.9372

> <Gold.Chemscore.Metal.Weighted>
-0.0000

> <Gold.Chemscore.Lipo.Weighted>
-10.0516

> <Gold.Chemscore.Internal_Hbond.Weighted>
0.0000

> <Gold.Chemscore.DEClash.Weighted>
1.0317

> <Gold.Chemscore.DEInternal.Weighted>
2.3710

> <Gold.Chemscore.Rot.Weighted>
4.9321

> <Gold.Chemscore.Internal.Correction.Weighted>
   9.000000E+99

> <Gold.Protein.RotatedTorsions>
[ 6907 6896 6895 6894 ] final  165.26 input  -60.11 | X-H torsion
[ 7974 7965 7964 7962 ] final -139.93 input  175.53 | X-H torsion
[ 8008 7997 7996 7995 ] final -156.33 input   59.86 | X-H torsion
[ 10167 10162 10161 10158 ] final   37.76 input  -65.29 | X-H torsion
[ 10718 10713 10712 10709 ] final  116.74 input   66.30 | X-H torsion
[ 10763 10752 10751 10750 ] final   58.72 input  -60.55 | X-H torsion
[ 11005 11000 10999 10996 ] final  170.57 input  -57.11 | X-H torsion

> <Gold.Protein.ActiveResidues>
 VAL166  LYS551  ARG553  GLY616  TRP617  ASP618  TYR619  PRO620  LYS621  CYS622 
 ASP623  PHE694  ASN695  SER759  ASP760  ASP761  ALA762  ILE779  LEU786  VAL792 
 PHE793  MET794  SER795  GLU796  ALA797  LYS798  CYS799  TRP800  GLU811  SER814 

> <Gold.Protein.RotatedAtoms>
  151.8971  133.3529  159.3817 H   0  0  0  0  0  0  0  0  0  0  0  0  # atno 6907 bound_to 6896
  150.7089  134.4865  159.5505 H   0  0  0  0  0  0  0  0  0  0  0  0  # atno 6908 bound_to 6896
  152.2447  134.8194  160.0506 H   0  0  0  0  0  0  0  0  0  0  0  0  # atno 6909 bound_to 6896
  144.8638  140.6261  143.5311 H   0  0  0  0  0  0  0  0  0  0  0  0  # atno 7974 bound_to 7965
  155.7155  140.0783  157.2353 H   0  0  0  0  0  0  0  0  0  0  0  0  # atno 8008 bound_to 7997
  154.4052  140.1622  156.2398 H   0  0  0  0  0  0  0  0  0  0  0  0  # atno 8009 bound_to 7997
  155.9244  140.3395  155.6201 H   0  0  0  0  0  0  0  0  0  0  0  0  # atno 8010 bound_to 7997
  140.4001  144.1735  150.6133 H   0  0  0  0  0  0  0  0  0  0  0  0  # atno 10167 bound_to 10162
  157.6141  131.1029  150.7516 H   0  0  0  0  0  0  0  0  0  0  0  0  # atno 10718 bound_to 10713
  152.9877  135.5597  154.5597 H   0  0  0  0  0  0  0  0  0  0  0  0  # atno 10763 bound_to 10752
  154.5018  135.2798  155.1416 H   0  0  0  0  0  0  0  0  0  0  0  0  # atno 10764 bound_to 10752
  154.2843  135.6338  153.5412 H   0  0  0  0  0  0  0  0  0  0  0  0  # atno 10765 bound_to 10752
  140.3098  134.7526  157.3982 H   0  0  0  0  0  0  0  0  0  0  0  0  # atno 11005 bound_to 11000
  145.4261  139.1556  143.4047 LP  0  0  0  0  0  0  0  0  0  0  0  0  # atno 17320 bound_to 7965
  146.2880  140.4375  142.8750 LP  0  0  0  0  0  0  0  0  0  0  0  0  # atno 17321 bound_to 7965
  140.4749  143.2400  151.9038 LP  0  0  0  0  0  0  0  0  0  0  0  0  # atno 17342 bound_to 10162
  139.4785  144.5331  151.8637 LP  0  0  0  0  0  0  0  0  0  0  0  0  # atno 17343 bound_to 10162
  156.7887  130.4883  149.5388 LP  0  0  0  0  0  0  0  0  0  0  0  0  # atno 17370 bound_to 10713
  156.1256  130.6141  151.0258 LP  0  0  0  0  0  0  0  0  0  0  0  0  # atno 17371 bound_to 10713
  140.1035  134.5441  155.8331 LP  0  0  0  0  0  0  0  0  0  0  0  0  # atno 17394 bound_to 11000
  141.2110  133.6702  156.6555 LP  0  0  0  0  0  0  0  0  0  0  0  0  # atno 17395 bound_to 11000

$$$$
