AV-unprocessed.smi:236|AV-procd|sdf|1812|dock3
  -GOLD-   2262020393D 1   1.00000     0.00000
 Structure written by MMmdl.
 58 62  0  0  0  0  0  0  0  0  1 V2000
  143.9568  135.2486  162.3699 C   0  0  0  0  0  0  0  0  0  0  0  0
  145.4343  135.3769  162.7689 C   0  0  1  0  0  0  0  0  0  0  0  0
  146.0231  134.0918  162.9497 O   0  0  0  0  0  0  0  0  0  0  0  0
  147.3969  134.1238  162.5726 C   0  0  0  0  0  0  0  0  0  0  0  0
  147.7059  135.5844  162.2564 C   0  0  0  0  0  0  0  0  0  0  0  0
  146.3582  136.1156  161.7824 C   0  0  2  0  0  0  0  0  0  0  0  0
  146.3105  137.5109  162.0133 O   0  0  0  0  0  0  0  0  0  0  0  0
  146.0532  135.8197  160.2876 C   0  0  0  0  0  0  0  0  0  0  0  0
  146.8201  136.6309  159.3552 N   0  0  0  0  0  0  0  0  0  0  0  0
  148.1825  136.5962  159.1597 C   0  0  0  0  0  0  0  0  0  0  0  0
  148.6384  137.4310  158.2663 N   0  0  0  0  0  0  0  0  0  0  0  0
  147.5017  138.0766  157.7944 C   0  0  0  0  0  0  0  0  0  0  0  0
  147.2613  139.0929  156.8264 C   0  0  0  0  0  0  0  0  0  0  0  0
  148.2158  139.7126  156.1012 N   0  0  0  0  0  0  0  0  0  0  0  0
  147.6722  140.6394  155.1182 C   0  0  0  0  0  0  0  0  0  0  0  0
  148.8021  141.1725  154.2230 C   0  0  0  0  0  0  0  0  0  0  0  0
  149.8168  141.7533  155.0367 O   0  0  0  0  0  0  0  0  0  0  0  0
  150.4072  140.8097  155.9296 C   0  0  1  0  0  0  0  0  0  0  0  0
  151.5300  141.5179  156.6977 C   0  0  0  0  0  0  0  0  0  0  0  0
  150.9568  142.4532  157.5961 O   0  0  0  0  0  0  0  0  0  0  0  0
  151.8729  143.4565  157.9984 C   0  0  0  0  0  0  0  0  0  0  0  0
  151.1780  144.4097  158.9469 C   0  0  0  0  0  0  0  0  0  0  0  0
  151.9113  145.5942  159.5352 C   0  0  0  0  0  0  0  0  0  0  0  0
  151.5472  144.4244  160.4130 C   0  0  0  0  0  0  0  0  0  0  0  0
  149.3100  140.2848  156.8761 C   0  0  0  0  0  0  0  0  0  0  0  0
  145.9821  139.4947  156.6293 N   0  0  0  0  0  0  0  0  0  0  0  0
  144.9905  138.9336  157.3281 C   0  0  0  0  0  0  0  0  0  0  0  0
  145.0603  137.9794  158.2592 N   0  0  0  0  0  0  0  0  0  0  0  0
  146.3486  137.5807  158.4658 C   0  0  0  0  0  0  0  0  0  0  0  0
  143.5103  136.2287  162.2007 H   0  0  0  0  0  0  0  0  0  0  0  0
  143.3876  134.7574  163.1591 H   0  0  0  0  0  0  0  0  0  0  0  0
  143.8321  134.6571  161.4630 H   0  0  0  0  0  0  0  0  0  0  0  0
  145.4877  135.8736  163.7398 H   0  0  0  0  0  0  0  0  0  0  0  0
  148.0352  133.7285  163.3631 H   0  0  0  0  0  0  0  0  0  0  0  0
  147.5310  133.5017  161.6871 H   0  0  0  0  0  0  0  0  0  0  0  0
  148.0054  136.0866  163.1782 H   0  0  0  0  0  0  0  0  0  0  0  0
  148.5232  135.7067  161.5471 H   0  0  0  0  0  0  0  0  0  0  0  0
  145.8784  137.6636  162.8401 H   0  0  0  0  0  0  0  0  0  0  0  0
  146.2508  134.7717  160.0609 H   0  0  0  0  0  0  0  0  0  0  0  0
  144.9956  135.9807  160.0757 H   0  0  0  0  0  0  0  0  0  0  0  0
  148.8336  135.9355  159.7136 H   0  0  0  0  0  0  0  0  0  0  0  0
  146.9179  140.1396  154.5092 H   0  0  0  0  0  0  0  0  0  0  0  0
  147.1796  141.4682  155.6287 H   0  0  0  0  0  0  0  0  0  0  0  0
  149.2239  140.3739  153.6107 H   0  0  0  0  0  0  0  0  0  0  0  0
  148.4158  141.9289  153.5400 H   0  0  0  0  0  0  0  0  0  0  0  0
  150.8293  139.9772  155.3635 H   0  0  0  0  0  0  0  0  0  0  0  0
  152.1438  140.7899  157.2305 H   0  0  0  0  0  0  0  0  0  0  0  0
  152.1801  142.0484  156.0001 H   0  0  0  0  0  0  0  0  0  0  0  0
  152.7230  143.0066  158.5128 H   0  0  0  0  0  0  0  0  0  0  0  0
  152.2532  144.0027  157.1337 H   0  0  0  0  0  0  0  0  0  0  0  0
  150.1209  144.5530  158.7296 H   0  0  0  0  0  0  0  0  0  0  0  0
  152.9608  145.7211  159.2771 H   0  0  0  0  0  0  0  0  0  0  0  0
  151.3497  146.5167  159.6672 H   0  0  0  0  0  0  0  0  0  0  0  0
  150.7423  144.5651  161.1314 H   0  0  0  0  0  0  0  0  0  0  0  0
  152.3552  143.7727  160.7398 H   0  0  0  0  0  0  0  0  0  0  0  0
  148.9433  141.1029  157.4963 H   0  0  0  0  0  0  0  0  0  0  0  0
  149.7203  139.5285  157.5468 H   0  0  0  0  0  0  0  0  0  0  0  0
  143.9996  139.3048  157.1121 H   0  0  0  0  0  0  0  0  0  0  0  0
  1  2  1  0  0  0  0
  1 30  1  0  0  0  0
  1 31  1  0  0  0  0
  1 32  1  0  0  0  0
  2  6  1  0  0  0  0
  2  3  1  0  0  0  0
  2 33  1  0  0  0  0
  3  4  1  0  0  0  0
  4  5  1  0  0  0  0
  4 34  1  0  0  0  0
  4 35  1  0  0  0  0
  5  6  1  0  0  0  0
  5 36  1  0  0  0  0
  5 37  1  0  0  0  0
  6  7  1  0  0  0  0
  6  8  1  0  0  0  0
  7 38  1  0  0  0  0
  8  9  1  0  0  0  0
  8 39  1  0  0  0  0
  8 40  1  0  0  0  0
  9 29  1  0  0  0  0
  9 10  1  0  0  0  0
 10 11  2  0  0  0  0
 10 41  1  0  0  0  0
 11 12  1  0  0  0  0
 12 29  2  0  0  0  0
 12 13  1  0  0  0  0
 13 14  1  0  0  0  0
 13 26  2  0  0  0  0
 14 25  1  0  0  0  0
 14 15  1  0  0  0  0
 15 16  1  0  0  0  0
 15 42  1  0  0  0  0
 15 43  1  0  0  0  0
 16 17  1  0  0  0  0
 16 44  1  0  0  0  0
 16 45  1  0  0  0  0
 17 18  1  0  0  0  0
 18 19  1  0  0  0  0
 18 25  1  0  0  0  0
 18 46  1  0  0  0  0
 19 20  1  0  0  0  0
 19 47  1  0  0  0  0
 19 48  1  0  0  0  0
 20 21  1  0  0  0  0
 21 22  1  0  0  0  0
 21 49  1  0  0  0  0
 21 50  1  0  0  0  0
 22 24  1  0  0  0  0
 22 23  1  0  0  0  0
 22 51  1  0  0  0  0
 23 24  1  0  0  0  0
 23 52  1  0  0  0  0
 23 53  1  0  0  0  0
 24 54  1  0  0  0  0
 24 55  1  0  0  0  0
 25 56  1  0  0  0  0
 25 57  1  0  0  0  0
 26 27  1  0  0  0  0
 27 28  2  0  0  0  0
 27 58  1  0  0  0  0
 28 29  1  0  0  0  0
M  END
> <s_m_source_file>
AV-unprocessed.smi

> <i_m_source_file_index>
236

> <i_lp_mmshare_version>
43012

> <i_f3d_flags>
0

> <s_epik_input>
W0NIMl0xW0NIMl1PW0NAQEhdKFtDSDNdKVtDQEBdMShbT0hdKVtDSDJdbihbY0hdbjIpYyhjMjMpbltjSF1uYzNONFtDSDJdW0NIMl1PW0NASF0oW0NIMl00KVtDSDJdT1tDSDJdW0NIXTVbQ0gyXVtDSDJdNQ==

> <s_epik_cmdline>
J2VwaWtfcHl0aG9uJywgJy1waCcsICc3LjAnLCAnLXRuJywgJzgnLCAnLW1hJywgJzIwMCcsICctbWV0YWxfYmluZGluZycsICctaW1hZScsICc8aW5maWxlLm1hZT4nLCAnLW9tYWUnLCAnPG91dGZpbGUubWFlPic=

> <r_lp_tautomer_probability>
1

> <r_epik_Ionization_Penalty>
7.21838e-05

> <r_epik_Ionization_Penalty_Charging>
0

> <r_epik_Ionization_Penalty_Neutral>
7.21838e-05

> <r_epik_State_Penalty>
-0

> <r_epik_Charging_Adjusted_Penalty>
0

> <i_epik_Tot_Q>
0

> <i_epik_Tot_abs_Q>
0

> <r_epik_Metal_State_Penalty>
-0

> <b_epik_Metal_Only>
0

> <s_lp_Force_Field>
OPLS_2005

> <r_lp_Energy>
49.6686

> <b_lp_Chiralities_Consistent>
1

> <s_lp_Variant>
AV-unprocessed.smi:236-4

> <Gold.Version>
5.8.1

> <Gold.Id.Protein>
6NUR|6NUR_protein|mol2

> <Gold.PLP.Fitness>
44.7326

> <Gold.PLP.PLP>
-42.8974

> <Gold.PLP.part.hbond>
-2.7424

> <Gold.PLP.part.metal>
0.0000

> <Gold.PLP.part.buried>
-7.3991

> <Gold.PLP.part.nonpolar>
-32.8668

> <Gold.PLP.part.repulsive>
0.2764

> <Gold.PLP.ligand.clash>
0.0000

> <Gold.PLP.ligand.torsion>
0.6889

> <Gold.PLP.Chemscore.Hbond>
0.8000

> <Gold.PLP.Chemscore.CHOScore>
0.0000

> <Gold.PLP.Chemscore.Metal>
0.0000

> <Gold.Chemscore.Hbonds>
donor molecule, donor type, donor heavy atom, donor atom, acceptor molecule, acceptor atom, score
      P1  H  6934  6947       L1     7  0.79

> <Gold.PLP.Chemscore.Internal.Correction>
0.8129

> <Gold.Rescore>
     Score         DG    S(hbond)    S(metal)    S(lipo)     H(rot)  DE(clash)    DE(int)     intcor
     12.68     -13.77       0.64        0.00     115.20       2.87       0.36       0.73       ----

> <Gold.Chemscore.Fitness>
12.6765

> <Gold.Chemscore.DG>
-13.7706

> <Gold.Chemscore.ZeroCoef>
-5.4800

> <Gold.Chemscore.Hbond>
0.6432

> <Gold.Chemscore.Metal>
0.0000

> <Gold.Chemscore.Lipo>
115.1983

> <Gold.Chemscore.Internal_Hbond>
0.0000

> <Gold.Chemscore.DEClash>
0.3642

> <Gold.Chemscore.DEInternal>
0.7299

> <Gold.Chemscore.Rot>
2.8655

> <Gold.Chemscore.Internal.Correction>
   9.000000E+99

> <Gold.Chemscore.Hbonds>
donor molecule, donor type, donor heavy atom, donor atom, acceptor molecule, acceptor atom, score
      P1  H  6934  6947       L1     7  0.72

> <Gold.Chemscore.Hbond.Weighted>
-2.1482

> <Gold.Chemscore.Metal.Weighted>
-0.0000

> <Gold.Chemscore.Lipo.Weighted>
-13.4782

> <Gold.Chemscore.Internal_Hbond.Weighted>
0.0000

> <Gold.Chemscore.DEClash.Weighted>
0.3642

> <Gold.Chemscore.DEInternal.Weighted>
0.7299

> <Gold.Chemscore.Rot.Weighted>
7.3358

> <Gold.Chemscore.Internal.Correction.Weighted>
   9.000000E+99

> <Gold.Protein.RotatedTorsions>
[ 6907 6896 6895 6894 ] final   57.74 input  -60.11 | X-H torsion
[ 7974 7965 7964 7962 ] final  -95.96 input  175.53 | X-H torsion
[ 8008 7997 7996 7995 ] final  163.12 input   59.86 | X-H torsion
[ 10167 10162 10161 10158 ] final -151.89 input  -65.29 | X-H torsion
[ 10718 10713 10712 10709 ] final   64.05 input   66.30 | X-H torsion
[ 10763 10752 10751 10750 ] final   32.79 input  -60.55 | X-H torsion
[ 11005 11000 10999 10996 ] final  -95.98 input  -57.11 | X-H torsion

> <Gold.Protein.ActiveResidues>
 VAL166  LYS551  ARG553  GLY616  TRP617  ASP618  TYR619  PRO620  LYS621  CYS622 
 ASP623  PHE694  ASN695  SER759  ASP760  ASP761  ALA762  ILE779  LEU786  VAL792 
 PHE793  MET794  SER795  GLU796  ALA797  LYS798  CYS799  TRP800  GLU811  SER814 

> <Gold.Protein.RotatedAtoms>
  152.3759  134.6664  160.0159 H   0  0  0  0  0  0  0  0  0  0  0  0  # atno 6907 bound_to 6896
  151.6942  133.3305  159.3258 H   0  0  0  0  0  0  0  0  0  0  0  0  # atno 6908 bound_to 6896
  150.7709  134.6608  159.6383 H   0  0  0  0  0  0  0  0  0  0  0  0  # atno 6909 bound_to 6896
  145.3532  140.9480  143.2542 H   0  0  0  0  0  0  0  0  0  0  0  0  # atno 7974 bound_to 7965
  156.1981  140.1732  156.7957 H   0  0  0  0  0  0  0  0  0  0  0  0  # atno 8008 bound_to 7997
  154.5555  140.0709  156.8768 H   0  0  0  0  0  0  0  0  0  0  0  0  # atno 8009 bound_to 7997
  155.2946  140.3357  155.4253 H   0  0  0  0  0  0  0  0  0  0  0  0  # atno 8010 bound_to 7997
  139.7229  143.8929  152.2509 H   0  0  0  0  0  0  0  0  0  0  0  0  # atno 10167 bound_to 10162
  157.6013  130.9139  149.9795 H   0  0  0  0  0  0  0  0  0  0  0  0  # atno 10718 bound_to 10713
  153.0244  135.6404  154.1410 H   0  0  0  0  0  0  0  0  0  0  0  0  # atno 10763 bound_to 10752
  154.1141  135.2851  155.3225 H   0  0  0  0  0  0  0  0  0  0  0  0  # atno 10764 bound_to 10752
  154.6311  135.5492  153.7744 H   0  0  0  0  0  0  0  0  0  0  0  0  # atno 10765 bound_to 10752
  141.1425  133.8065  157.0509 H   0  0  0  0  0  0  0  0  0  0  0  0  # atno 11005 bound_to 11000
  144.8702  139.5049  143.6771 LP  0  0  0  0  0  0  0  0  0  0  0  0  # atno 17320 bound_to 7965
  146.2959  139.7277  142.9127 LP  0  0  0  0  0  0  0  0  0  0  0  0  # atno 17321 bound_to 7965
  139.8830  144.7007  150.8856 LP  0  0  0  0  0  0  0  0  0  0  0  0  # atno 17342 bound_to 10162
  140.7757  143.3646  151.1763 LP  0  0  0  0  0  0  0  0  0  0  0  0  # atno 17343 bound_to 10162
  156.1087  130.3651  150.0087 LP  0  0  0  0  0  0  0  0  0  0  0  0  # atno 17370 bound_to 10713
  156.8189  130.9351  151.3642 LP  0  0  0  0  0  0  0  0  0  0  0  0  # atno 17371 bound_to 10713
  140.0632  134.9743  157.1341 LP  0  0  0  0  0  0  0  0  0  0  0  0  # atno 17394 bound_to 11000
  140.3817  134.2279  155.7170 LP  0  0  0  0  0  0  0  0  0  0  0  0  # atno 17395 bound_to 11000

$$$$
