AV-unprocessed.smi:1383|AV-procd|sdf|5623|dock2
  -GOLD-   22720 5233D 1   1.00000     0.00000
 Structure written by MMmdl.
 31 31  0  0  0  0  0  0  0  0  1 V2000
  152.3043  144.2235  161.3761 C   0  0  0  0  0  0  0  0  0  0  0  0
  152.4938  143.0934  160.3518 C   0  0  0  0  0  0  0  0  0  0  0  0
  151.7388  143.3090  159.0214 C   0  0  1  0  0  0  0  0  0  0  0  0
  152.3970  144.4247  158.1911 C   0  0  0  0  0  0  0  0  0  0  0  0
  151.6524  142.0144  158.1979 C   0  0  0  0  0  0  0  0  0  0  0  0
  152.2041  140.9928  158.6090 O   0  0  0  0  0  0  0  0  0  0  0  0
  150.9517  142.0947  157.0509 N   0  0  0  0  0  0  0  0  0  0  0  0
  150.6868  141.0683  156.1073 C   0  0  0  0  0  0  0  0  0  0  0  0
  151.4792  140.0109  155.8999 N   0  0  0  0  0  0  0  0  0  0  0  0
  150.9711  139.1505  154.9203 C   0  0  0  0  0  0  0  0  0  0  0  0
  151.7230  137.9035  154.5518 C   0  0  0  0  0  0  0  0  0  0  0  0
  151.1587  136.6880  155.2929 C   0  0  0  0  0  0  0  0  0  0  0  0
  150.0057  136.1785  154.8494 N   0  0  0  0  0  0  0  0  0  0  0  0
  151.7625  136.2061  156.2488 O   0  0  0  0  0  0  0  0  0  0  0  0
  149.7840  139.5861  154.3818 C   0  0  0  0  0  0  0  0  0  0  0  0
  149.2538  141.0873  155.0920 S   0  0  0  0  0  0  0  0  0  0  0  0
  152.9094  144.0430  162.2647 H   0  0  0  0  0  0  0  0  0  0  0  0
  151.2664  144.3055  161.6998 H   0  0  0  0  0  0  0  0  0  0  0  0
  152.6042  145.1858  160.9605 H   0  0  0  0  0  0  0  0  0  0  0  0
  153.5598  142.9997  160.1414 H   0  0  0  0  0  0  0  0  0  0  0  0
  152.1957  142.1454  160.8021 H   0  0  0  0  0  0  0  0  0  0  0  0
  150.7251  143.6362  159.2588 H   0  0  0  0  0  0  0  0  0  0  0  0
  151.8710  144.5822  157.2487 H   0  0  0  0  0  0  0  0  0  0  0  0
  153.4369  144.1920  157.9578 H   0  0  0  0  0  0  0  0  0  0  0  0
  152.3854  145.3714  158.7319 H   0  0  0  0  0  0  0  0  0  0  0  0
  150.5482  142.9949  156.8373 H   0  0  0  0  0  0  0  0  0  0  0  0
  151.6679  137.7214  153.4779 H   0  0  0  0  0  0  0  0  0  0  0  0
  152.7821  138.0121  154.7900 H   0  0  0  0  0  0  0  0  0  0  0  0
  149.6032  135.3702  155.3008 H   0  0  0  0  0  0  0  0  0  0  0  0
  149.5467  136.5992  154.0544 H   0  0  0  0  0  0  0  0  0  0  0  0
  149.1900  139.1149  153.6130 H   0  0  0  0  0  0  0  0  0  0  0  0
  1  2  1  0  0  0  0
  1 17  1  0  0  0  0
  1 18  1  0  0  0  0
  1 19  1  0  0  0  0
  2  3  1  0  0  0  0
  2 20  1  0  0  0  0
  2 21  1  0  0  0  0
  3  4  1  0  0  0  0
  3  5  1  0  0  0  0
  3 22  1  0  0  0  0
  4 23  1  0  0  0  0
  4 24  1  0  0  0  0
  4 25  1  0  0  0  0
  5  6  2  0  0  0  0
  5  7  1  0  0  0  0
  7  8  1  0  0  0  0
  7 26  1  0  0  0  0
  8 16  1  0  0  0  0
  8  9  2  0  0  0  0
  9 10  1  0  0  0  0
 10 11  1  0  0  0  0
 10 15  2  0  0  0  0
 11 12  1  0  0  0  0
 11 27  1  0  0  0  0
 11 28  1  0  0  0  0
 12 13  1  0  0  0  0
 12 14  2  0  0  0  0
 13 29  1  0  0  0  0
 13 30  1  0  0  0  0
 15 16  1  0  0  0  0
 15 31  1  0  0  0  0
M  END
> <s_m_source_file>
AV-unprocessed.smi

> <i_m_source_file_index>
1383

> <i_lp_mmshare_version>
43012

> <i_f3d_flags>
0

> <s_epik_input>
W0NIM11bQ0gyXVtDQEhdKFtDSDNdKUMoPU8pW05IXWMxbmMoW2NIXXMxKVtDSDJdQyg9TylbTkgyXQ==

> <s_epik_cmdline>
J2VwaWtfcHl0aG9uJywgJy1waCcsICc3LjAnLCAnLXRuJywgJzgnLCAnLW1hJywgJzIwMCcsICctbWV0YWxfYmluZGluZycsICctaW1hZScsICc8aW5maWxlLm1hZT4nLCAnLW9tYWUnLCAnPG91dGZpbGUubWFlPic=

> <r_lp_tautomer_probability>
1

> <r_epik_Ionization_Penalty>
0.00017492

> <r_epik_Ionization_Penalty_Charging>
0

> <r_epik_Ionization_Penalty_Neutral>
0.00017492

> <r_epik_State_Penalty>
-0

> <r_epik_Charging_Adjusted_Penalty>
0

> <i_epik_Tot_Q>
0

> <i_epik_Tot_abs_Q>
0

> <r_epik_Metal_State_Penalty>
0.109333

> <b_epik_Metal_Only>
0

> <s_lp_Force_Field>
OPLS_2005

> <r_lp_Energy>
2.80551

> <b_lp_Chiralities_Consistent>
1

> <s_lp_Variant>
AV-unprocessed.smi:1383-2

> <Gold.Version>
5.8.1

> <Gold.Id.Protein>
6NUR|6NUR_protein|mol2

> <Gold.PLP.Fitness>
43.0440

> <Gold.PLP.PLP>
-37.1784

> <Gold.PLP.part.hbond>
-2.0821

> <Gold.PLP.part.metal>
0.0000

> <Gold.PLP.part.buried>
-2.7206

> <Gold.PLP.part.nonpolar>
-32.6187

> <Gold.PLP.part.repulsive>
0.1186

> <Gold.PLP.ligand.clash>
0.0000

> <Gold.PLP.ligand.torsion>
0.7928

> <Gold.PLP.Chemscore.Hbond>
1.6720

> <Gold.PLP.Chemscore.CHOScore>
0.7851

> <Gold.PLP.Chemscore.Metal>
0.0000

> <Gold.Chemscore.Hbonds>
donor molecule, donor type, donor heavy atom, donor atom, acceptor molecule, acceptor atom, score
      L1  H    13    30       P1  7948  0.33
      P1  H 10752 10763       L1    14  0.65
      L1  C    15    31       P1  7957  0.49

> <Gold.PLP.Chemscore.Internal.Correction>
0.0798

> <Gold.Rescore>
     Score         DG    S(hbond)    S(metal)    S(lipo)     H(rot)  DE(clash)    DE(int)     intcor
     11.71     -13.53       1.31        0.00      79.44       2.19       0.13       1.68       ----

> <Gold.Chemscore.Fitness>
11.7115

> <Gold.Chemscore.DG>
-13.5271

> <Gold.Chemscore.ZeroCoef>
-5.4800

> <Gold.Chemscore.Hbond>
1.3089

> <Gold.Chemscore.Metal>
0.0000

> <Gold.Chemscore.Lipo>
79.4368

> <Gold.Chemscore.Internal_Hbond>
0.0000

> <Gold.Chemscore.DEClash>
0.1307

> <Gold.Chemscore.DEInternal>
1.6850

> <Gold.Chemscore.Rot>
2.1948

> <Gold.Chemscore.Internal.Correction>
   9.000000E+99

> <Gold.Chemscore.Hbonds>
donor molecule, donor type, donor heavy atom, donor atom, acceptor molecule, acceptor atom, score
      L1  H    13    30       P1  7948  0.27
      P1  H 10752 10763       L1    14  0.06

> <Gold.Chemscore.Hbond.Weighted>
-4.3717

> <Gold.Chemscore.Metal.Weighted>
-0.0000

> <Gold.Chemscore.Lipo.Weighted>
-9.2941

> <Gold.Chemscore.Internal_Hbond.Weighted>
0.0000

> <Gold.Chemscore.DEClash.Weighted>
0.1307

> <Gold.Chemscore.DEInternal.Weighted>
1.6850

> <Gold.Chemscore.Rot.Weighted>
5.6186

> <Gold.Chemscore.Internal.Correction.Weighted>
   9.000000E+99

> <Gold.Protein.RotatedTorsions>
[ 6907 6896 6895 6894 ] final  116.05 input  -60.11 | X-H torsion
[ 7974 7965 7964 7962 ] final -135.45 input  175.53 | X-H torsion
[ 8008 7997 7996 7995 ] final  178.61 input   59.86 | X-H torsion
[ 10167 10162 10161 10158 ] final  -39.86 input  -65.29 | X-H torsion
[ 10718 10713 10712 10709 ] final  125.01 input   66.30 | X-H torsion
[ 10763 10752 10751 10750 ] final   93.38 input  -60.55 | X-H torsion
[ 11005 11000 10999 10996 ] final   99.62 input  -57.11 | X-H torsion

> <Gold.Protein.ActiveResidues>
 VAL166  LYS551  ARG553  GLY616  TRP617  ASP618  TYR619  PRO620  LYS621  CYS622 
 ASP623  PHE694  ASN695  SER759  ASP760  ASP761  ALA762  ILE779  LEU786  VAL792 
 PHE793  MET794  SER795  GLU796  ALA797  LYS798  CYS799  TRP800  GLU811  SER814 

> <Gold.Protein.RotatedAtoms>
  152.4703  133.8015  159.6954 H   0  0  0  0  0  0  0  0  0  0  0  0  # atno 6907 bound_to 6896
  150.8689  133.7525  159.2974 H   0  0  0  0  0  0  0  0  0  0  0  0  # atno 6908 bound_to 6896
  151.5067  135.1067  159.9895 H   0  0  0  0  0  0  0  0  0  0  0  0  # atno 6909 bound_to 6896
  144.9013  140.6775  143.5083 H   0  0  0  0  0  0  0  0  0  0  0  0  # atno 7974 bound_to 7965
  156.0527  140.1329  157.0032 H   0  0  0  0  0  0  0  0  0  0  0  0  # atno 8008 bound_to 7997
  154.4442  140.1007  156.6470 H   0  0  0  0  0  0  0  0  0  0  0  0  # atno 8009 bound_to 7997
  155.5499  140.3462  155.4468 H   0  0  0  0  0  0  0  0  0  0  0  0  # atno 8010 bound_to 7997
  140.7052  143.3188  151.2842 H   0  0  0  0  0  0  0  0  0  0  0  0  # atno 10167 bound_to 10162
  157.5538  131.1093  150.8656 H   0  0  0  0  0  0  0  0  0  0  0  0  # atno 10718 bound_to 10713
  153.2297  135.4327  155.0581 H   0  0  0  0  0  0  0  0  0  0  0  0  # atno 10763 bound_to 10752
  154.8291  135.3376  154.6805 H   0  0  0  0  0  0  0  0  0  0  0  0  # atno 10764 bound_to 10752
  153.7233  135.7015  153.5063 H   0  0  0  0  0  0  0  0  0  0  0  0  # atno 10765 bound_to 10752
  139.8770  134.9104  156.4634 H   0  0  0  0  0  0  0  0  0  0  0  0  # atno 11005 bound_to 11000
  145.3611  139.1681  143.4382 LP  0  0  0  0  0  0  0  0  0  0  0  0  # atno 17320 bound_to 7965
  146.3110  140.3674  142.8671 LP  0  0  0  0  0  0  0  0  0  0  0  0  # atno 17321 bound_to 7965
  139.6636  144.0145  152.2708 LP  0  0  0  0  0  0  0  0  0  0  0  0  # atno 17342 bound_to 10162
  139.9721  144.6487  150.7980 LP  0  0  0  0  0  0  0  0  0  0  0  0  # atno 17343 bound_to 10162
  156.9173  130.5302  149.5279 LP  0  0  0  0  0  0  0  0  0  0  0  0  # atno 17370 bound_to 10713
  156.0600  130.5655  150.9173 LP  0  0  0  0  0  0  0  0  0  0  0  0  # atno 17371 bound_to 10713
  140.8848  133.7891  155.9506 LP  0  0  0  0  0  0  0  0  0  0  0  0  # atno 17394 bound_to 11000
  140.8816  134.2604  157.5141 LP  0  0  0  0  0  0  0  0  0  0  0  0  # atno 17395 bound_to 11000

$$$$
