AV-unprocessed.smi:103|AV-procd|sdf|986|dock5
  -GOLD-   2262017553D 1   1.00000     0.00000
 Structure written by MMmdl.
 53 55  0  0  0  0  0  0  0  0  1 V2000
  143.3444  141.3756  159.7840 C   0  0  0  0  0  0  0  0  0  0  0  0
  144.7122  141.9296  159.4085 C   0  0  0  0  0  0  0  0  0  0  0  0
  145.5399  142.2280  160.2696 O   0  0  0  0  0  0  0  0  0  0  0  0
  144.8731  142.0309  158.0777 O   0  0  0  0  0  0  0  0  0  0  0  0
  146.0651  142.5787  157.5326 C   0  0  0  0  0  0  0  0  0  0  0  0
  147.2798  141.8869  158.1649 C   0  0  1  0  0  0  0  0  0  0  0  0
  146.9451  140.5179  158.3850 O   0  0  0  0  0  0  0  0  0  0  0  0
  147.9340  139.6912  157.8677 C   0  0  1  0  0  0  0  0  0  0  0  0
  147.3173  138.4073  157.4005 N   0  0  0  0  0  0  0  0  0  0  0  0
  147.6262  137.1114  157.7594 C   0  0  0  0  0  0  0  0  0  0  0  0
  148.8362  136.6103  158.9769 S   0  0  0  0  0  0  0  0  0  0  0  0
  150.3112  137.5802  158.4634 C   0  0  0  0  0  0  0  0  0  0  0  0
  148.3603  137.0970  160.2813 O   0  0  0  0  0  0  0  0  0  0  0  0
  149.1008  135.1792  158.7634 O   0  0  0  0  0  0  0  0  0  0  0  0
  146.8969  136.1662  157.2317 N   0  0  0  0  0  0  0  0  0  0  0  0
  146.0573  136.8614  156.3726 C   0  0  0  0  0  0  0  0  0  0  0  0
  145.0424  136.4755  155.4612 C   0  0  0  0  0  0  0  0  0  0  0  0
  144.6871  135.1991  155.2604 N   0  0  0  0  0  0  0  0  0  0  0  0
  144.4038  137.4392  154.7572 N   0  0  0  0  0  0  0  0  0  0  0  0
  144.7418  138.7198  154.9373 C   0  0  0  0  0  0  0  0  0  0  0  0
  145.6662  139.2317  155.7533 N   0  0  0  0  0  0  0  0  0  0  0  0
  146.3106  138.2601  156.4646 C   0  0  0  0  0  0  0  0  0  0  0  0
  148.6077  140.4617  156.7322 C   0  0  1  0  0  0  0  0  0  0  0  0
  147.9182  140.2881  155.4989 O   0  0  0  0  0  0  0  0  0  0  0  0
  148.4461  140.7364  154.3505 C   0  0  0  0  0  0  0  0  0  0  0  0
  147.4246  140.7735  153.2217 C   0  0  0  0  0  0  0  0  0  0  0  0
  149.6129  141.0852  154.1746 O   0  0  0  0  0  0  0  0  0  0  0  0
  148.4965  141.8964  157.2244 C   0  0  2  0  0  0  0  0  0  0  0  0
  149.6701  142.2608  157.9420 O   0  0  0  0  0  0  0  0  0  0  0  0
  150.8863  142.0730  157.3980 C   0  0  0  0  0  0  0  0  0  0  0  0
  152.0114  142.5487  158.3072 C   0  0  0  0  0  0  0  0  0  0  0  0
  151.1192  141.5739  156.2973 O   0  0  0  0  0  0  0  0  0  0  0  0
  142.5618  141.8672  159.2058 H   0  0  0  0  0  0  0  0  0  0  0  0
  143.1440  141.5381  160.8432 H   0  0  0  0  0  0  0  0  0  0  0  0
  143.3031  140.3048  159.5842 H   0  0  0  0  0  0  0  0  0  0  0  0
  146.1137  142.4907  156.4464 H   0  0  0  0  0  0  0  0  0  0  0  0
  146.0808  143.6436  157.7654 H   0  0  0  0  0  0  0  0  0  0  0  0
  147.5264  142.3624  159.1154 H   0  0  0  0  0  0  0  0  0  0  0  0
  148.6182  139.4237  158.6721 H   0  0  0  0  0  0  0  0  0  0  0  0
  151.1399  137.3636  159.1370 H   0  0  0  0  0  0  0  0  0  0  0  0
  150.0775  138.6439  158.5057 H   0  0  0  0  0  0  0  0  0  0  0  0
  150.5899  137.3109  157.4452 H   0  0  0  0  0  0  0  0  0  0  0  0
  145.1505  134.4613  155.7712 H   0  0  0  0  0  0  0  0  0  0  0  0
  143.9597  134.9770  154.5964 H   0  0  0  0  0  0  0  0  0  0  0  0
  144.1928  139.4377  154.3457 H   0  0  0  0  0  0  0  0  0  0  0  0
  149.6418  140.1255  156.6431 H   0  0  0  0  0  0  0  0  0  0  0  0
  146.4238  140.9572  153.6139 H   0  0  0  0  0  0  0  0  0  0  0  0
  147.4181  139.8221  152.6898 H   0  0  0  0  0  0  0  0  0  0  0  0
  147.6680  141.5655  152.5132 H   0  0  0  0  0  0  0  0  0  0  0  0
  148.3400  142.5916  156.3976 H   0  0  0  0  0  0  0  0  0  0  0  0
  151.6947  143.4120  158.8928 H   0  0  0  0  0  0  0  0  0  0  0  0
  152.8822  142.8344  157.7167 H   0  0  0  0  0  0  0  0  0  0  0  0
  152.3039  141.7522  158.9917 H   0  0  0  0  0  0  0  0  0  0  0  0
  1  2  1  0  0  0  0
  1 33  1  0  0  0  0
  1 34  1  0  0  0  0
  1 35  1  0  0  0  0
  2  3  2  0  0  0  0
  2  4  1  0  0  0  0
  4  5  1  0  0  0  0
  5  6  1  0  0  0  0
  5 36  1  0  0  0  0
  5 37  1  0  0  0  0
  6 28  1  0  0  0  0
  6  7  1  0  0  0  0
  6 38  1  0  0  0  0
  7  8  1  0  0  0  0
  8  9  1  0  0  0  0
  8 23  1  0  0  0  0
  8 39  1  0  0  0  0
  9 22  1  0  0  0  0
  9 10  1  0  0  0  0
 10 11  1  0  0  0  0
 10 15  2  0  0  0  0
 11 12  1  0  0  0  0
 11 13  2  0  0  0  0
 11 14  2  0  0  0  0
 12 40  1  0  0  0  0
 12 41  1  0  0  0  0
 12 42  1  0  0  0  0
 15 16  1  0  0  0  0
 16 22  2  0  0  0  0
 16 17  1  0  0  0  0
 17 18  1  0  0  0  0
 17 19  2  0  0  0  0
 18 43  1  0  0  0  0
 18 44  1  0  0  0  0
 19 20  1  0  0  0  0
 20 21  2  0  0  0  0
 20 45  1  0  0  0  0
 21 22  1  0  0  0  0
 23 24  1  0  0  0  0
 23 28  1  0  0  0  0
 23 46  1  0  0  0  0
 24 25  1  0  0  0  0
 25 26  1  0  0  0  0
 25 27  2  0  0  0  0
 26 47  1  0  0  0  0
 26 48  1  0  0  0  0
 26 49  1  0  0  0  0
 28 29  1  0  0  0  0
 28 50  1  0  0  0  0
 29 30  1  0  0  0  0
 30 31  1  0  0  0  0
 30 32  2  0  0  0  0
 31 51  1  0  0  0  0
 31 52  1  0  0  0  0
 31 53  1  0  0  0  0
M  END
> <s_m_source_file>
AV-unprocessed.smi

> <i_m_source_file_index>
103

> <i_lp_mmshare_version>
43012

> <i_f3d_flags>
0

> <s_epik_input>
W0NIM11DKD1PKU9bQ0gyXVtDQEBIXTFPW0NASF0oW0NAQEhdKE9DKD1PKVtDSDNdKVtDQEhdMU9DKD1PKVtDSDNdKW4oYyhuMilTKD1PKSg9TylbQ0gzXSljKGMyMyluW2NIXW5jM1tOSDJd

> <s_epik_cmdline>
J2VwaWtfcHl0aG9uJywgJy1waCcsICc3LjAnLCAnLXRuJywgJzgnLCAnLW1hJywgJzIwMCcsICctbWV0YWxfYmluZGluZycsICctaW1hZScsICc8aW5maWxlLm1hZT4nLCAnLW9tYWUnLCAnPG91dGZpbGUubWFlPic=

> <r_lp_tautomer_probability>
1

> <r_epik_Ionization_Penalty>
1.51338e-05

> <r_epik_Ionization_Penalty_Charging>
0

> <r_epik_Ionization_Penalty_Neutral>
1.51338e-05

> <r_epik_State_Penalty>
-0

> <r_epik_Charging_Adjusted_Penalty>
0

> <i_epik_Tot_Q>
0

> <i_epik_Tot_abs_Q>
0

> <r_epik_Metal_State_Penalty>
-0

> <b_epik_Metal_Only>
0

> <s_epik_Chemistry_Notes>
This compound has an ester and may undergo hydrolysis at high or low pH. This compound contains an acetal/aminal-like group ( X-CH(R)-Y where X, Y are N, S, or O) that may be acid/base labile, releasing an aldehyde.

> <s_lp_Force_Field>
OPLS_2005

> <r_lp_Energy>
13.7998

> <b_lp_Chiralities_Consistent>
1

> <s_lp_Variant>
AV-unprocessed.smi:103-10

> <Gold.Version>
5.8.1

> <Gold.Id.Protein>
6NUR|6NUR_protein|mol2

> <Gold.PLP.Fitness>
37.8968

> <Gold.PLP.PLP>
-25.5284

> <Gold.PLP.part.hbond>
-6.9992

> <Gold.PLP.part.metal>
0.0000

> <Gold.PLP.part.buried>
-2.4007

> <Gold.PLP.part.nonpolar>
-15.6387

> <Gold.PLP.part.repulsive>
0.5392

> <Gold.PLP.ligand.clash>
0.0000

> <Gold.PLP.ligand.torsion>
1.7838

> <Gold.PLP.Chemscore.Hbond>
3.5274

> <Gold.PLP.Chemscore.CHOScore>
1.0000

> <Gold.PLP.Chemscore.Metal>
0.0000

> <Gold.Chemscore.Hbonds>
donor molecule, donor type, donor heavy atom, donor atom, acceptor molecule, acceptor atom, score
      P1  H  6896  6909       L1    14  1.00
      P1  H  6931  6943       L1    13  0.59
      P1  H  6934  6946       L1     3  1.00
      P1  H  6934  6947       L1    13  0.14
      P1  H  7989  7998       L1    27  0.36
      P1  H  8011  8017       L1    27  0.31
      L1  C    20    45       P1 10175  1.00

> <Gold.PLP.Chemscore.Internal.Correction>
2.3537

> <Gold.Rescore>
     Score         DG    S(hbond)    S(metal)    S(lipo)     H(rot)  DE(clash)    DE(int)     intcor
     -1.81     -10.53       3.70        0.00      30.33       4.25       0.10      12.24       ----

> <Gold.Chemscore.Fitness>
-1.8077

> <Gold.Chemscore.DG>
-10.5302

> <Gold.Chemscore.ZeroCoef>
-5.4800

> <Gold.Chemscore.Hbond>
3.7035

> <Gold.Chemscore.Metal>
0.0000

> <Gold.Chemscore.Lipo>
30.3349

> <Gold.Chemscore.Internal_Hbond>
0.0000

> <Gold.Chemscore.DEClash>
0.1016

> <Gold.Chemscore.DEInternal>
12.2363

> <Gold.Chemscore.Rot>
4.2456

> <Gold.Chemscore.Internal.Correction>
   9.000000E+99

> <Gold.Chemscore.Hbonds>
donor molecule, donor type, donor heavy atom, donor atom, acceptor molecule, acceptor atom, score
      P1  H  6896  6909       L1    14  0.98
      P1  H  6931  6943       L1    13  0.58
      P1  H  6934  6946       L1     3  0.92
      P1  H  6934  6947       L1    13  0.15
      P1  H  7989  7998       L1    27  0.36
      P1  H  8011  8017       L1    27  0.25

> <Gold.Chemscore.Hbond.Weighted>
-12.3697

> <Gold.Chemscore.Metal.Weighted>
-0.0000

> <Gold.Chemscore.Lipo.Weighted>
-3.5492

> <Gold.Chemscore.Internal_Hbond.Weighted>
0.0000

> <Gold.Chemscore.DEClash.Weighted>
0.1016

> <Gold.Chemscore.DEInternal.Weighted>
12.2363

> <Gold.Chemscore.Rot.Weighted>
10.8687

> <Gold.Chemscore.Internal.Correction.Weighted>
   9.000000E+99

> <Gold.Protein.RotatedTorsions>
[ 6907 6896 6895 6894 ] final   26.92 input  -60.11 | X-H torsion
[ 7974 7965 7964 7962 ] final -101.20 input  175.53 | X-H torsion
[ 8008 7997 7996 7995 ] final  -95.45 input   59.86 | X-H torsion
[ 10167 10162 10161 10158 ] final  -11.49 input  -65.29 | X-H torsion
[ 10718 10713 10712 10709 ] final  -91.32 input   66.30 | X-H torsion
[ 10763 10752 10751 10750 ] final   19.06 input  -60.55 | X-H torsion
[ 11005 11000 10999 10996 ] final -139.52 input  -57.11 | X-H torsion

> <Gold.Protein.ActiveResidues>
 VAL166  LYS551  ARG553  GLY616  TRP617  ASP618  TYR619  PRO620  LYS621  CYS622 
 ASP623  PHE694  ASN695  SER759  ASP760  ASP761  ALA762  ILE779  LEU786  VAL792 
 PHE793  MET794  SER795  GLU796  ALA797  LYS798  CYS799  TRP800  GLU811  SER814 

> <Gold.Protein.RotatedAtoms>
  151.9946  134.9961  160.0562 H   0  0  0  0  0  0  0  0  0  0  0  0  # atno 6907 bound_to 6896
  152.1576  133.4556  159.4853 H   0  0  0  0  0  0  0  0  0  0  0  0  # atno 6908 bound_to 6896
  150.6883  134.2029  159.4372 H   0  0  0  0  0  0  0  0  0  0  0  0  # atno 6909 bound_to 6896
  145.2847  140.9336  143.2912 H   0  0  0  0  0  0  0  0  0  0  0  0  # atno 7974 bound_to 7965
  154.7616  140.0480  157.0978 H   0  0  0  0  0  0  0  0  0  0  0  0  # atno 8008 bound_to 7997
  154.9931  140.3115  155.4878 H   0  0  0  0  0  0  0  0  0  0  0  0  # atno 8009 bound_to 7997
  156.2905  140.2215  156.5037 H   0  0  0  0  0  0  0  0  0  0  0  0  # atno 8010 bound_to 7997
  140.7139  143.5634  150.9171 H   0  0  0  0  0  0  0  0  0  0  0  0  # atno 10167 bound_to 10162
  155.9993  130.4943  150.5457 H   0  0  0  0  0  0  0  0  0  0  0  0  # atno 10718 bound_to 10713
  153.1195  135.6716  153.9360 H   0  0  0  0  0  0  0  0  0  0  0  0  # atno 10763 bound_to 10752
  153.8880  135.3050  155.3448 H   0  0  0  0  0  0  0  0  0  0  0  0  # atno 10764 bound_to 10752
  154.7608  135.4989  153.9540 H   0  0  0  0  0  0  0  0  0  0  0  0  # atno 10765 bound_to 10752
  140.8511  134.2284  157.4759 H   0  0  0  0  0  0  0  0  0  0  0  0  # atno 11005 bound_to 11000
  144.9223  139.4397  143.6535 LP  0  0  0  0  0  0  0  0  0  0  0  0  # atno 17320 bound_to 7965
  146.3205  139.8090  142.8949 LP  0  0  0  0  0  0  0  0  0  0  0  0  # atno 17321 bound_to 7965
  139.9359  143.6438  152.3065 LP  0  0  0  0  0  0  0  0  0  0  0  0  # atno 17342 bound_to 10162
  139.6906  144.7647  151.1446 LP  0  0  0  0  0  0  0  0  0  0  0  0  # atno 17343 bound_to 10162
  157.3387  131.0713  151.1805 LP  0  0  0  0  0  0  0  0  0  0  0  0  # atno 17370 bound_to 10713
  157.2661  130.6682  149.5997 LP  0  0  0  0  0  0  0  0  0  0  0  0  # atno 17371 bound_to 10713
  139.8704  134.9684  156.4629 LP  0  0  0  0  0  0  0  0  0  0  0  0  # atno 17394 bound_to 11000
  140.8788  133.7933  155.9444 LP  0  0  0  0  0  0  0  0  0  0  0  0  # atno 17395 bound_to 11000

$$$$
