AV-unprocessed.smi:1510|AV-procd|sdf|6097|dock9
  -GOLD-   22720 6223D 1   1.00000     0.00000
 Structure written by MMmdl.
 33 34  0  0  0  0  0  0  0  0  1 V2000
  153.0538  139.6186  158.1074 O   0  0  0  0  0  0  0  0  0  0  0  0
  151.9997  140.1404  158.4739 C   0  0  0  0  0  0  0  0  0  0  0  0
  150.6429  139.6210  157.9748 C   0  0  0  0  0  0  0  0  0  0  0  0
  150.6704  139.1556  156.5807 N   0  0  0  0  0  0  0  0  0  0  0  0
  150.1729  140.0732  155.6678 N   0  0  0  0  0  0  0  0  0  0  0  0
  150.1601  139.7884  154.4096 C   0  0  0  0  0  0  0  0  0  0  0  0
  149.6632  140.7280  153.5402 O   0  0  0  0  0  0  0  0  0  0  0  0
  150.6530  138.5184  153.9240 C   0  0  0  0  0  0  0  0  0  0  0  0
  151.1317  137.6293  154.8214 C   0  0  0  0  0  0  0  0  0  0  0  0
  151.1637  137.9210  156.2558 C   0  0  0  0  0  0  0  0  0  0  0  0
  151.5956  137.1309  157.0949 O   0  0  0  0  0  0  0  0  0  0  0  0
  151.9550  141.1916  159.3037 N   0  0  0  0  0  0  0  0  0  0  0  0
  153.1273  141.8442  159.8695 C   0  0  0  0  0  0  0  0  0  0  0  0
  152.9197  143.3632  159.9383 C   0  0  1  0  0  0  0  0  0  0  0  0
  152.6347  144.0075  158.5838 C   0  0  0  0  0  0  0  0  0  0  0  0
  151.9331  145.2810  158.9976 C   0  0  0  0  0  0  0  0  0  0  0  0
  151.1007  144.8132  160.1893 C   0  0  0  0  0  0  0  0  0  0  0  0
  151.7800  143.6828  160.7320 O   0  0  0  0  0  0  0  0  0  0  0  0
  149.5086  140.2638  152.7318 H   0  0  0  0  0  0  0  0  0  0  0  0
  150.2982  138.8195  158.6309 H   0  0  0  0  0  0  0  0  0  0  0  0
  149.9118  140.4235  158.0874 H   0  0  0  0  0  0  0  0  0  0  0  0
  150.6341  138.2962  152.8673 H   0  0  0  0  0  0  0  0  0  0  0  0
  151.5027  136.6766  154.4732 H   0  0  0  0  0  0  0  0  0  0  0  0
  151.0530  141.5720  159.5518 H   0  0  0  0  0  0  0  0  0  0  0  0
  153.3076  141.4504  160.8710 H   0  0  0  0  0  0  0  0  0  0  0  0
  154.0050  141.6082  159.2658 H   0  0  0  0  0  0  0  0  0  0  0  0
  153.7907  143.8450  160.3863 H   0  0  0  0  0  0  0  0  0  0  0  0
  153.5371  144.1854  157.9983 H   0  0  0  0  0  0  0  0  0  0  0  0
  151.9600  143.3844  157.9947 H   0  0  0  0  0  0  0  0  0  0  0  0
  152.6664  146.0222  159.3186 H   0  0  0  0  0  0  0  0  0  0  0  0
  151.3306  145.7191  158.2014 H   0  0  0  0  0  0  0  0  0  0  0  0
  150.9771  145.5974  160.9366 H   0  0  0  0  0  0  0  0  0  0  0  0
  150.1088  144.4969  159.8645 H   0  0  0  0  0  0  0  0  0  0  0  0
  1  2  2  0  0  0  0
  2  3  1  0  0  0  0
  2 12  1  0  0  0  0
  3 20  1  0  0  0  0
  3 21  1  0  0  0  0
  3  4  1  0  0  0  0
  4  5  1  0  0  0  0
  4 10  1  0  0  0  0
  5  6  2  0  0  0  0
  6  7  1  0  0  0  0
  6  8  1  0  0  0  0
  7 19  1  0  0  0  0
  8 22  1  0  0  0  0
  8  9  2  0  0  0  0
  9 23  1  0  0  0  0
  9 10  1  0  0  0  0
 10 11  2  0  0  0  0
 12 13  1  0  0  0  0
 12 24  1  0  0  0  0
 13 14  1  0  0  0  0
 13 25  1  0  0  0  0
 13 26  1  0  0  0  0
 14 18  1  0  0  0  0
 14 15  1  0  0  0  0
 14 27  1  0  0  0  0
 15 16  1  0  0  0  0
 15 28  1  0  0  0  0
 15 29  1  0  0  0  0
 16 17  1  0  0  0  0
 16 30  1  0  0  0  0
 16 31  1  0  0  0  0
 17 18  1  0  0  0  0
 17 32  1  0  0  0  0
 17 33  1  0  0  0  0
M  END
> <s_m_source_file>
AV-unprocessed.smi

> <i_m_source_file_index>
1510

> <i_lp_mmshare_version>
43012

> <i_f3d_flags>
0

> <s_epik_input>
TzFbQ0gyXVtDSDJdW0NIMl1bQ0BIXTFbQ0gyXVtOSF1DKD1PKVtDSDJdbjJbbkhdYyg9TylbY0hdW2NIXWMyPU8=

> <s_epik_cmdline>
J2VwaWtfcHl0aG9uJywgJy1waCcsICc3LjAnLCAnLXRuJywgJzgnLCAnLW1hJywgJzIwMCcsICctbWV0YWxfYmluZGluZycsICctaW1hZScsICc8aW5maWxlLm1hZT4nLCAnLW9tYWUnLCAnPG91dGZpbGUubWFlPic=

> <r_lp_tautomer_probability>
0.9996

> <r_epik_Ionization_Penalty>
2.13037

> <r_epik_Ionization_Penalty_Charging>
3.76e-08

> <r_epik_Ionization_Penalty_Neutral>
2.13037

> <r_epik_State_Penalty>
1.70753

> <r_epik_Charging_Adjusted_Penalty>
1.70753

> <i_epik_Tot_Q>
0

> <i_epik_Tot_abs_Q>
0

> <r_epik_Metal_State_Penalty>
1.70753

> <b_epik_Metal_Only>
0

> <s_lp_Force_Field>
OPLS_2005

> <r_lp_Energy>
28.362

> <b_lp_Chiralities_Consistent>
1

> <s_lp_Variant>
AV-unprocessed.smi:1510-4

> <Gold.Version>
5.8.1

> <Gold.Id.Protein>
6NUR|6NUR_protein|mol2

> <Gold.PLP.Fitness>
42.5375

> <Gold.PLP.PLP>
-37.2083

> <Gold.PLP.part.hbond>
-3.6261

> <Gold.PLP.part.metal>
0.0000

> <Gold.PLP.part.buried>
-5.0014

> <Gold.PLP.part.nonpolar>
-29.0068

> <Gold.PLP.part.repulsive>
0.2628

> <Gold.PLP.ligand.clash>
0.0000

> <Gold.PLP.ligand.torsion>
0.7717

> <Gold.PLP.Chemscore.Hbond>
2.2901

> <Gold.PLP.Chemscore.CHOScore>
0.0000

> <Gold.PLP.Chemscore.Metal>
0.0000

> <Gold.Chemscore.Hbonds>
donor molecule, donor type, donor heavy atom, donor atom, acceptor molecule, acceptor atom, score
      L1  H     7    19       P1  7957  1.00
      P1  H  7997  8008       L1     1  1.00
      P1  H  8011  8017       L1     7  0.22

> <Gold.PLP.Chemscore.Internal.Correction>
0.0025

> <Gold.Rescore>
     Score         DG    S(hbond)    S(metal)    S(lipo)     H(rot)  DE(clash)    DE(int)     intcor
     14.11     -14.90       1.99        0.00      82.68       2.69       0.02       0.77       ----

> <Gold.Chemscore.Fitness>
14.1145

> <Gold.Chemscore.DG>
-14.8981

> <Gold.Chemscore.ZeroCoef>
-5.4800

> <Gold.Chemscore.Hbond>
1.9880

> <Gold.Chemscore.Metal>
0.0000

> <Gold.Chemscore.Lipo>
82.6839

> <Gold.Chemscore.Internal_Hbond>
0.0000

> <Gold.Chemscore.DEClash>
0.0161

> <Gold.Chemscore.DEInternal>
0.7675

> <Gold.Chemscore.Rot>
2.6937

> <Gold.Chemscore.Internal.Correction>
   9.000000E+99

> <Gold.Chemscore.Hbonds>
donor molecule, donor type, donor heavy atom, donor atom, acceptor molecule, acceptor atom, score
      L1  H     7    19       P1  7957  0.96
      P1  H  7997  8008       L1     1  0.99

> <Gold.Chemscore.Hbond.Weighted>
-6.6400

> <Gold.Chemscore.Metal.Weighted>
-0.0000

> <Gold.Chemscore.Lipo.Weighted>
-9.6740

> <Gold.Chemscore.Internal_Hbond.Weighted>
0.0000

> <Gold.Chemscore.DEClash.Weighted>
0.0161

> <Gold.Chemscore.DEInternal.Weighted>
0.7675

> <Gold.Chemscore.Rot.Weighted>
6.8959

> <Gold.Chemscore.Internal.Correction.Weighted>
   9.000000E+99

> <Gold.Protein.RotatedTorsions>
[ 6907 6896 6895 6894 ] final   15.39 input  -60.11 | X-H torsion
[ 7974 7965 7964 7962 ] final  -85.10 input  175.53 | X-H torsion
[ 8008 7997 7996 7995 ] final  -80.28 input   59.86 | X-H torsion
[ 10167 10162 10161 10158 ] final   75.71 input  -65.29 | X-H torsion
[ 10718 10713 10712 10709 ] final  140.08 input   66.30 | X-H torsion
[ 10763 10752 10751 10750 ] final    6.82 input  -60.55 | X-H torsion
[ 11005 11000 10999 10996 ] final  126.78 input  -57.11 | X-H torsion

> <Gold.Protein.ActiveResidues>
 VAL166  LYS551  ARG553  GLY616  TRP617  ASP618  TYR619  PRO620  LYS621  CYS622 
 ASP623  PHE694  ASN695  SER759  ASP760  ASP761  ALA762  ILE779  LEU786  VAL792 
 PHE793  MET794  SER795  GLU796  ALA797  LYS798  CYS799  TRP800  GLU811  SER814 

> <Gold.Protein.RotatedAtoms>
  151.8173  135.0662  160.0420 H   0  0  0  0  0  0  0  0  0  0  0  0  # atno 6907 bound_to 6896
  152.2976  133.5619  159.5606 H   0  0  0  0  0  0  0  0  0  0  0  0  # atno 6908 bound_to 6896
  150.7258  134.0254  159.3757 H   0  0  0  0  0  0  0  0  0  0  0  0  # atno 6909 bound_to 6896
  145.4978  140.9549  143.1776 H   0  0  0  0  0  0  0  0  0  0  0  0  # atno 7974 bound_to 7965
  154.5868  140.0665  156.9182 H   0  0  0  0  0  0  0  0  0  0  0  0  # atno 8008 bound_to 7997
  155.2365  140.3341  155.4279 H   0  0  0  0  0  0  0  0  0  0  0  0  # atno 8009 bound_to 7997
  156.2228  140.1806  156.7420 H   0  0  0  0  0  0  0  0  0  0  0  0  # atno 8010 bound_to 7997
  140.0000  144.5693  150.7745 H   0  0  0  0  0  0  0  0  0  0  0  0  # atno 10167 bound_to 10162
  157.4073  131.1024  151.0491 H   0  0  0  0  0  0  0  0  0  0  0  0  # atno 10718 bound_to 10713
  153.2433  135.6906  153.7759 H   0  0  0  0  0  0  0  0  0  0  0  0  # atno 10763 bound_to 10752
  153.6880  135.3317  155.3196 H   0  0  0  0  0  0  0  0  0  0  0  0  # atno 10764 bound_to 10752
  154.8364  135.4538  154.1363 H   0  0  0  0  0  0  0  0  0  0  0  0  # atno 10765 bound_to 10752
  139.9474  134.9627  156.8758 H   0  0  0  0  0  0  0  0  0  0  0  0  # atno 11005 bound_to 11000
  144.7797  139.6553  143.7159 LP  0  0  0  0  0  0  0  0  0  0  0  0  # atno 17320 bound_to 7965
  146.2244  139.5696  142.9597 LP  0  0  0  0  0  0  0  0  0  0  0  0  # atno 17321 bound_to 7965
  140.7422  143.2829  151.3547 LP  0  0  0  0  0  0  0  0  0  0  0  0  # atno 17342 bound_to 10162
  139.6278  144.0779  152.2450 LP  0  0  0  0  0  0  0  0  0  0  0  0  # atno 17343 bound_to 10162
  157.1468  130.6167  149.5571 LP  0  0  0  0  0  0  0  0  0  0  0  0  # atno 17370 bound_to 10713
  155.9840  130.4862  150.6961 LP  0  0  0  0  0  0  0  0  0  0  0  0  # atno 17371 bound_to 10713
  140.5802  134.0359  155.7461 LP  0  0  0  0  0  0  0  0  0  0  0  0  # atno 17394 bound_to 11000
  141.1128  133.9589  157.2879 LP  0  0  0  0  0  0  0  0  0  0  0  0  # atno 17395 bound_to 11000

$$$$
