AV-unprocessed.smi:2105|AV-procd|sdf|8592|dock3
  -GOLD-   2272011323D 1   1.00000     0.00000
 Structure written by MMmdl.
 43 44  0  0  0  0  0  0  0  0  2 V2000
  154.0871  136.5551  164.3098 C   0  0  0  0  0  0  0  0  0  0  0  0
  154.3540  136.8772  162.8436 C   0  0  0  0  0  0  0  0  0  0  0  0
  154.4577  135.9685  162.0204 O   0  0  0  0  0  0  0  0  0  0  0  0
  154.4631  138.1774  162.5317 N   0  0  0  0  0  0  0  0  0  0  0  0
  154.7024  138.7050  161.1920 C   0  0  0  0  0  0  0  0  0  0  0  0
  154.8757  140.2368  161.1922 C   0  0  0  0  0  0  0  0  0  0  0  0
  153.7779  140.9153  160.5106 N   0  0  0  0  0  0  0  0  0  0  0  0
  153.2725  140.5617  159.3205 C   0  0  0  0  0  0  0  0  0  0  0  0
  153.6819  139.6045  158.6639 O   0  0  0  0  0  0  0  0  0  0  0  0
  152.2874  141.3934  158.9418 N   0  0  0  0  0  0  0  0  0  0  0  0
  151.5278  141.3627  157.7375 C   0  0  0  0  0  0  0  0  0  0  0  0
  151.3932  140.1682  156.9837 C   0  0  0  0  0  0  0  0  0  0  0  0
  150.6546  140.1715  155.7857 C   0  0  0  0  0  0  0  0  0  0  0  0
  150.0557  141.3690  155.3598 C   0  0  0  0  0  0  0  0  0  0  0  0
  150.1836  142.4835  156.1090 N   0  3  0  0  0  0  0  0  0  0  0  0
  150.8689  142.5409  157.2786 C   0  0  0  0  0  0  0  0  0  0  0  0
  150.9033  143.7785  157.9611 N   0  0  0  0  0  0  0  0  0  0  0  0
  150.1807  143.9494  159.2163 C   0  0  0  0  0  0  0  0  0  0  0  0
  150.7231  145.2460  159.8111 C   0  0  0  0  0  0  0  0  0  0  0  0
  152.1883  145.2129  159.3872 C   0  0  0  0  0  0  0  0  0  0  0  0
  152.1563  144.5247  158.0181 C   0  0  0  0  0  0  0  0  0  0  0  0
  154.8319  137.0301  164.9488 H   0  0  0  0  0  0  0  0  0  0  0  0
  154.1256  135.4792  164.4835 H   0  0  0  0  0  0  0  0  0  0  0  0
  153.0998  136.9130  164.6030 H   0  0  0  0  0  0  0  0  0  0  0  0
  154.3603  138.8528  163.2753 H   0  0  0  0  0  0  0  0  0  0  0  0
  155.5981  138.2367  160.7810 H   0  0  0  0  0  0  0  0  0  0  0  0
  153.8817  138.4046  160.5402 H   0  0  0  0  0  0  0  0  0  0  0  0
  154.9536  140.6211  162.2097 H   0  0  0  0  0  0  0  0  0  0  0  0
  155.8147  140.4978  160.7014 H   0  0  0  0  0  0  0  0  0  0  0  0
  153.3829  141.7174  160.9792 H   0  0  0  0  0  0  0  0  0  0  0  0
  152.1317  142.1948  159.5354 H   0  0  0  0  0  0  0  0  0  0  0  0
  151.8427  139.2426  157.3098 H   0  0  0  0  0  0  0  0  0  0  0  0
  150.5508  139.2679  155.2026 H   0  0  0  0  0  0  0  0  0  0  0  0
  149.4748  141.4679  154.4543 H   0  0  0  0  0  0  0  0  0  0  0  0
  149.1037  143.9979  159.0537 H   0  0  0  0  0  0  0  0  0  0  0  0
  150.3912  143.1208  159.8936 H   0  0  0  0  0  0  0  0  0  0  0  0
  150.2229  146.1032  159.3577 H   0  0  0  0  0  0  0  0  0  0  0  0
  150.5904  145.3072  160.8916 H   0  0  0  0  0  0  0  0  0  0  0  0
  152.6451  146.2026  159.3539 H   0  0  0  0  0  0  0  0  0  0  0  0
  152.7579  144.6040  160.0907 H   0  0  0  0  0  0  0  0  0  0  0  0
  153.0254  143.8802  157.8783 H   0  0  0  0  0  0  0  0  0  0  0  0
  152.1553  145.2737  157.2256 H   0  0  0  0  0  0  0  0  0  0  0  0
  149.7287  143.3344  155.7781 H   0  0  0  0  0  0  0  0  0  0  0  0
  1  2  1  0  0  0  0
  1 22  1  0  0  0  0
  1 23  1  0  0  0  0
  1 24  1  0  0  0  0
  2  3  2  0  0  0  0
  2  4  1  0  0  0  0
  4  5  1  0  0  0  0
  4 25  1  0  0  0  0
  5  6  1  0  0  0  0
  5 26  1  0  0  0  0
  5 27  1  0  0  0  0
  6  7  1  0  0  0  0
  6 28  1  0  0  0  0
  6 29  1  0  0  0  0
  7  8  1  0  0  0  0
  7 30  1  0  0  0  0
  8  9  2  0  0  0  0
  8 10  1  0  0  0  0
 10 11  1  0  0  0  0
 10 31  1  0  0  0  0
 11 16  1  0  0  0  0
 11 12  2  0  0  0  0
 12 13  1  0  0  0  0
 12 32  1  0  0  0  0
 13 14  2  0  0  0  0
 13 33  1  0  0  0  0
 14 15  1  0  0  0  0
 14 34  1  0  0  0  0
 15 16  2  0  0  0  0
 15 43  1  0  0  0  0
 16 17  1  0  0  0  0
 17 21  1  0  0  0  0
 17 18  1  0  0  0  0
 18 19  1  0  0  0  0
 18 35  1  0  0  0  0
 18 36  1  0  0  0  0
 19 20  1  0  0  0  0
 19 37  1  0  0  0  0
 19 38  1  0  0  0  0
 20 21  1  0  0  0  0
 20 39  1  0  0  0  0
 20 40  1  0  0  0  0
 21 41  1  0  0  0  0
 21 42  1  0  0  0  0
M  CHG  1  15   1
M  END
> <s_m_source_file>
AV-unprocessed.smi

> <i_m_source_file_index>
2105

> <i_lp_mmshare_version>
43012

> <i_f3d_flags>
0

> <s_epik_input>
W0NIM11DKD1PKVtOSF1bQ0gyXVtDSDJdW05IXUMoPU8pW05IXWMxW2NIXVtjSF1bY0hdbmMxTjJbQ0gyXVtDSDJdW0NIMl1bQ0gyXTI=

> <s_epik_cmdline>
J2VwaWtfcHl0aG9uJywgJy1waCcsICc3LjAnLCAnLXRuJywgJzgnLCAnLW1hJywgJzIwMCcsICctbWV0YWxfYmluZGluZycsICctaW1hZScsICc8aW5maWxlLm1hZT4nLCAnLW9tYWUnLCAnPG91dGZpbGUubWFlPic=

> <r_lp_tautomer_probability>
0.999994

> <r_epik_Ionization_Penalty>
1.12691

> <r_epik_Ionization_Penalty_Charging>
1.12689

> <r_epik_Ionization_Penalty_Neutral>
1.95207e-05

> <r_epik_State_Penalty>
1.18624

> <r_epik_Charging_Adjusted_Penalty>
2.31313

> <i_epik_Tot_Q>
1

> <i_epik_Tot_abs_Q>
1

> <r_epik_Metal_State_Penalty>
1.26987

> <b_epik_Metal_Only>
0

> <s_lp_Force_Field>
OPLS_2005

> <r_lp_Energy>
38.5687

> <b_lp_Chiralities_Consistent>
1

> <s_lp_Variant>
AV-unprocessed.smi:2105-2

> <Gold.Version>
5.8.1

> <Gold.Id.Protein>
6NUR|6NUR_protein|mol2

> <Gold.PLP.Fitness>
52.2858

> <Gold.PLP.PLP>
-44.4020

> <Gold.PLP.part.hbond>
-2.0000

> <Gold.PLP.part.metal>
0.0000

> <Gold.PLP.part.buried>
-7.4380

> <Gold.PLP.part.nonpolar>
-35.4038

> <Gold.PLP.part.repulsive>
0.4479

> <Gold.PLP.ligand.clash>
0.0000

> <Gold.PLP.ligand.torsion>
0.7497

> <Gold.PLP.Chemscore.Hbond>
3.0000

> <Gold.PLP.Chemscore.CHOScore>
0.0000

> <Gold.PLP.Chemscore.Metal>
0.0000

> <Gold.Chemscore.Hbonds>
donor molecule, donor type, donor heavy atom, donor atom, acceptor molecule, acceptor atom, score
      L1  H    15    43       P1  8028  2.00
      P1  H  7997  8010       L1     9  1.00

> <Gold.PLP.Chemscore.Internal.Correction>
0.3831

> <Gold.Rescore>
     Score         DG    S(hbond)    S(metal)    S(lipo)     H(rot)  DE(clash)    DE(int)     intcor
     15.89     -17.91       1.92        0.00      94.51       1.98       0.02       1.99       ----

> <Gold.Chemscore.Fitness>
15.8935

> <Gold.Chemscore.DG>
-17.9072

> <Gold.Chemscore.ZeroCoef>
-5.4800

> <Gold.Chemscore.Hbond>
1.9245

> <Gold.Chemscore.Metal>
0.0000

> <Gold.Chemscore.Lipo>
94.5128

> <Gold.Chemscore.Internal_Hbond>
0.0000

> <Gold.Chemscore.DEClash>
0.0234

> <Gold.Chemscore.DEInternal>
1.9902

> <Gold.Chemscore.Rot>
1.9760

> <Gold.Chemscore.Internal.Correction>
   9.000000E+99

> <Gold.Chemscore.Hbonds>
donor molecule, donor type, donor heavy atom, donor atom, acceptor molecule, acceptor atom, score
      L1  H    15    43       P1  8028  0.99
      P1  H  7997  8010       L1     9  0.92

> <Gold.Chemscore.Hbond.Weighted>
-6.4277

> <Gold.Chemscore.Metal.Weighted>
-0.0000

> <Gold.Chemscore.Lipo.Weighted>
-11.0580

> <Gold.Chemscore.Internal_Hbond.Weighted>
0.0000

> <Gold.Chemscore.DEClash.Weighted>
0.0234

> <Gold.Chemscore.DEInternal.Weighted>
1.9902

> <Gold.Chemscore.Rot.Weighted>
5.0585

> <Gold.Chemscore.Internal.Correction.Weighted>
   9.000000E+99

> <Gold.Protein.RotatedTorsions>
[ 6907 6896 6895 6894 ] final -104.62 input  -60.11 | X-H torsion
[ 7974 7965 7964 7962 ] final   63.25 input  175.53 | X-H torsion
[ 8008 7997 7996 7995 ] final   26.06 input   59.86 | X-H torsion
[ 10167 10162 10161 10158 ] final  153.79 input  -65.29 | X-H torsion
[ 10718 10713 10712 10709 ] final  -86.57 input   66.30 | X-H torsion
[ 10763 10752 10751 10750 ] final   30.73 input  -60.55 | X-H torsion
[ 11005 11000 10999 10996 ] final -104.48 input  -57.11 | X-H torsion

> <Gold.Protein.ActiveResidues>
 VAL166  LYS551  ARG553  GLY616  TRP617  ASP618  TYR619  PRO620  LYS621  CYS622 
 ASP623  PHE694  ASN695  SER759  ASP760  ASP761  ALA762  ILE779  LEU786  VAL792 
 PHE793  MET794  SER795  GLU796  ALA797  LYS798  CYS799  TRP800  GLU811  SER814 

> <Gold.Protein.RotatedAtoms>
  150.7296  134.0250  159.3713 H   0  0  0  0  0  0  0  0  0  0  0  0  # atno 6907 bound_to 6896
  151.8217  135.0647  160.0435 H   0  0  0  0  0  0  0  0  0  0  0  0  # atno 6908 bound_to 6896
  152.2999  133.5608  159.5648 H   0  0  0  0  0  0  0  0  0  0  0  0  # atno 6909 bound_to 6896
  145.8640  139.3334  143.0802 H   0  0  0  0  0  0  0  0  0  0  0  0  # atno 7974 bound_to 7965
  155.0214  140.3148  155.4792 H   0  0  0  0  0  0  0  0  0  0  0  0  # atno 8008 bound_to 7997
  156.2891  140.2196  156.5275 H   0  0  0  0  0  0  0  0  0  0  0  0  # atno 8009 bound_to 7997
  154.7448  140.0471  157.0831 H   0  0  0  0  0  0  0  0  0  0  0  0  # atno 8010 bound_to 7997
  139.4825  144.5243  151.7826 H   0  0  0  0  0  0  0  0  0  0  0  0  # atno 10167 bound_to 10162
  155.9989  130.4769  150.4734 H   0  0  0  0  0  0  0  0  0  0  0  0  # atno 10718 bound_to 10713
  153.0355  135.6457  154.1090 H   0  0  0  0  0  0  0  0  0  0  0  0  # atno 10763 bound_to 10752
  154.0805  135.2873  155.3293 H   0  0  0  0  0  0  0  0  0  0  0  0  # atno 10764 bound_to 10752
  154.6533  135.5418  153.7992 H   0  0  0  0  0  0  0  0  0  0  0  0  # atno 10765 bound_to 10752
  141.1098  133.8727  157.1616 H   0  0  0  0  0  0  0  0  0  0  0  0  # atno 11005 bound_to 11000
  145.9214  140.9112  143.0403 LP  0  0  0  0  0  0  0  0  0  0  0  0  # atno 17320 bound_to 7965
  144.6726  140.1294  143.7444 LP  0  0  0  0  0  0  0  0  0  0  0  0  # atno 17321 bound_to 7965
  140.4760  144.1518  150.5925 LP  0  0  0  0  0  0  0  0  0  0  0  0  # atno 17342 bound_to 10162
  140.4330  143.2560  151.9572 LP  0  0  0  0  0  0  0  0  0  0  0  0  # atno 17343 bound_to 10162
  157.2747  131.0594  151.2237 LP  0  0  0  0  0  0  0  0  0  0  0  0  # atno 17370 bound_to 10713
  157.3305  130.6982  149.6321 LP  0  0  0  0  0  0  0  0  0  0  0  0  # atno 17371 bound_to 10713
  139.9987  135.0036  157.0140 LP  0  0  0  0  0  0  0  0  0  0  0  0  # atno 17394 bound_to 11000
  140.4804  134.1295  155.7216 LP  0  0  0  0  0  0  0  0  0  0  0  0  # atno 17395 bound_to 11000

$$$$
