AV-unprocessed.smi:527|AV-procd|sdf|2820|dock7
  -GOLD-   2262023303D 1   1.00000     0.00000
 Structure written by MMmdl.
 42 43  0  0  0  0  0  0  0  0  1 V2000
  152.0207  144.3545  160.0276 C   0  0  0  0  0  0  0  0  0  0  0  0
  152.6514  143.0534  159.4972 C   0  0  1  0  0  0  0  0  0  0  0  0
  153.1747  142.2164  160.6818 C   0  0  0  0  0  0  0  0  0  0  0  0
  153.8449  140.9206  160.2130 C   0  0  0  0  0  0  0  0  0  0  0  0
  152.8742  140.0852  159.3736 C   0  0  0  0  0  0  0  0  0  0  0  0
  152.3427  140.8852  158.1684 C   0  0  1  0  0  0  0  0  0  0  0  0
  151.3913  140.0622  157.4225 N   0  0  0  0  0  0  0  0  0  0  0  0
  151.6717  139.3584  156.3157 C   0  0  0  0  0  0  0  0  0  0  0  0
  152.6527  139.5802  155.6025 O   0  0  0  0  0  0  0  0  0  0  0  0
  150.7462  138.4023  156.1050 N   0  0  0  0  0  0  0  0  0  0  0  0
  150.7968  137.3898  155.2153 C   0  0  0  0  0  0  0  0  0  0  0  0
  151.7343  137.1770  154.4419 O   0  0  0  0  0  0  0  0  0  0  0  0
  149.5631  136.4768  155.2136 C   0  0  0  0  0  0  0  0  0  0  0  0
  149.8971  135.0668  155.1024 N   0  0  0  0  0  0  0  0  0  0  0  0
  149.4390  134.1684  154.1466 C   0  0  0  0  0  0  0  0  0  0  0  0
  150.0240  132.9560  154.4348 C   0  0  0  0  0  0  0  0  0  0  0  0
  150.8389  133.0833  155.5571 N   0  0  0  0  0  0  0  0  0  0  0  0
  150.7152  134.3602  155.8950 C   0  0  0  0  0  0  0  0  0  0  0  0
  151.6839  142.2219  158.6067 C   0  0  2  0  0  0  0  0  0  0  0  0
  151.1933  143.0246  157.3812 C   0  0  0  0  0  0  0  0  0  0  0  0
  151.1004  144.1553  160.5773 H   0  0  0  0  0  0  0  0  0  0  0  0
  151.7891  145.0531  159.2244 H   0  0  0  0  0  0  0  0  0  0  0  0
  152.7025  144.8714  160.7034 H   0  0  0  0  0  0  0  0  0  0  0  0
  153.5125  143.3332  158.8884 H   0  0  0  0  0  0  0  0  0  0  0  0
  153.8898  142.7989  161.2638 H   0  0  0  0  0  0  0  0  0  0  0  0
  152.3522  141.9766  161.3573 H   0  0  0  0  0  0  0  0  0  0  0  0
  154.7342  141.1550  159.6265 H   0  0  0  0  0  0  0  0  0  0  0  0
  154.1833  140.3433  161.0737 H   0  0  0  0  0  0  0  0  0  0  0  0
  153.3786  139.1799  159.0335 H   0  0  0  0  0  0  0  0  0  0  0  0
  152.0416  139.7585  159.9984 H   0  0  0  0  0  0  0  0  0  0  0  0
  153.1855  141.1279  157.5176 H   0  0  0  0  0  0  0  0  0  0  0  0
  150.4442  140.0417  157.7710 H   0  0  0  0  0  0  0  0  0  0  0  0
  149.9154  138.4515  156.6758 H   0  0  0  0  0  0  0  0  0  0  0  0
  148.9939  136.6292  156.1318 H   0  0  0  0  0  0  0  0  0  0  0  0
  148.9127  136.7480  154.3812 H   0  0  0  0  0  0  0  0  0  0  0  0
  148.7576  134.4587  153.3603 H   0  0  0  0  0  0  0  0  0  0  0  0
  149.9232  132.0098  153.9240 H   0  0  0  0  0  0  0  0  0  0  0  0
  151.2329  134.7920  156.7391 H   0  0  0  0  0  0  0  0  0  0  0  0
  150.8075  141.9776  159.2095 H   0  0  0  0  0  0  0  0  0  0  0  0
  152.0296  143.3432  156.7584 H   0  0  0  0  0  0  0  0  0  0  0  0
  150.6365  143.9136  157.6740 H   0  0  0  0  0  0  0  0  0  0  0  0
  150.5207  142.4403  156.7539 H   0  0  0  0  0  0  0  0  0  0  0  0
  1  2  1  0  0  0  0
  1 21  1  0  0  0  0
  1 22  1  0  0  0  0
  1 23  1  0  0  0  0
  2 19  1  0  0  0  0
  2  3  1  0  0  0  0
  2 24  1  0  0  0  0
  3  4  1  0  0  0  0
  3 25  1  0  0  0  0
  3 26  1  0  0  0  0
  4  5  1  0  0  0  0
  4 27  1  0  0  0  0
  4 28  1  0  0  0  0
  5  6  1  0  0  0  0
  5 29  1  0  0  0  0
  5 30  1  0  0  0  0
  6  7  1  0  0  0  0
  6 19  1  0  0  0  0
  6 31  1  0  0  0  0
  7  8  1  0  0  0  0
  7 32  1  0  0  0  0
  8  9  2  0  0  0  0
  8 10  1  0  0  0  0
 10 11  1  0  0  0  0
 10 33  1  0  0  0  0
 11 12  2  0  0  0  0
 11 13  1  0  0  0  0
 13 14  1  0  0  0  0
 13 34  1  0  0  0  0
 13 35  1  0  0  0  0
 14 18  1  0  0  0  0
 14 15  1  0  0  0  0
 15 16  2  0  0  0  0
 15 36  1  0  0  0  0
 16 17  1  0  0  0  0
 16 37  1  0  0  0  0
 17 18  2  0  0  0  0
 18 38  1  0  0  0  0
 19 20  1  0  0  0  0
 19 39  1  0  0  0  0
 20 40  1  0  0  0  0
 20 41  1  0  0  0  0
 20 42  1  0  0  0  0
M  END
> <s_m_source_file>
AV-unprocessed.smi

> <i_m_source_file_index>
527

> <i_lp_mmshare_version>
43012

> <i_f3d_flags>
0

> <s_epik_input>
W0NIM11bQ0BASF0xW0NIMl1bQ0gyXVtDSDJdW0NASF0oW0NASF0xW0NIM10pW05IXUMoPU8pW05IXUMoPU8pW0NIMl1uMltjSF1bY0hdbltjSF0y

> <s_epik_cmdline>
J2VwaWtfcHl0aG9uJywgJy1waCcsICc3LjAnLCAnLXRuJywgJzgnLCAnLW1hJywgJzIwMCcsICctbWV0YWxfYmluZGluZycsICctaW1hZScsICc8aW5maWxlLm1hZT4nLCAnLW9tYWUnLCAnPG91dGZpbGUubWFlPic=

> <r_lp_tautomer_probability>
1

> <r_epik_Ionization_Penalty>
0.172132

> <r_epik_Ionization_Penalty_Charging>
0.172105

> <r_epik_Ionization_Penalty_Neutral>
2.71747e-05

> <r_epik_State_Penalty>
0.161503

> <r_epik_Charging_Adjusted_Penalty>
0.333607

> <i_epik_Tot_Q>
0

> <i_epik_Tot_abs_Q>
0

> <r_epik_Metal_State_Penalty>
0.124763

> <b_epik_Metal_Only>
0

> <s_lp_Force_Field>
OPLS_2005

> <r_lp_Energy>
15.9673

> <b_lp_Chiralities_Consistent>
1

> <s_lp_Variant>
AV-unprocessed.smi:527-6

> <Gold.Version>
5.8.1

> <Gold.Id.Protein>
6NUR|6NUR_protein|mol2

> <Gold.PLP.Fitness>
47.1768

> <Gold.PLP.PLP>
-39.5551

> <Gold.PLP.part.hbond>
-2.0000

> <Gold.PLP.part.metal>
0.0000

> <Gold.PLP.part.buried>
-6.0871

> <Gold.PLP.part.nonpolar>
-31.8695

> <Gold.PLP.part.repulsive>
0.2200

> <Gold.PLP.ligand.clash>
0.0000

> <Gold.PLP.ligand.torsion>
0.6562

> <Gold.PLP.Chemscore.Hbond>
1.9920

> <Gold.PLP.Chemscore.CHOScore>
0.9789

> <Gold.PLP.Chemscore.Metal>
0.0000

> <Gold.Chemscore.Hbonds>
donor molecule, donor type, donor heavy atom, donor atom, acceptor molecule, acceptor atom, score
      P1  H  7997  8009       L1     9  1.00
      P1  H 10752 10764       L1    12  1.00
      L1  C    15    36       P1  7948  0.89

> <Gold.PLP.Chemscore.Internal.Correction>
0.0216

> <Gold.Rescore>
     Score         DG    S(hbond)    S(metal)    S(lipo)     H(rot)  DE(clash)    DE(int)     intcor
     17.12     -19.00       1.94        0.00      96.46       1.66       0.08       1.80       ----

> <Gold.Chemscore.Fitness>
17.1164

> <Gold.Chemscore.DG>
-19.0003

> <Gold.Chemscore.ZeroCoef>
-5.4800

> <Gold.Chemscore.Hbond>
1.9434

> <Gold.Chemscore.Metal>
0.0000

> <Gold.Chemscore.Lipo>
96.4628

> <Gold.Chemscore.Internal_Hbond>
0.0000

> <Gold.Chemscore.DEClash>
0.0840

> <Gold.Chemscore.DEInternal>
1.7999

> <Gold.Chemscore.Rot>
1.6629

> <Gold.Chemscore.Internal.Correction>
   9.000000E+99

> <Gold.Chemscore.Hbonds>
donor molecule, donor type, donor heavy atom, donor atom, acceptor molecule, acceptor atom, score
      P1  H  7997  8009       L1     9  0.99
      P1  H 10752 10764       L1    12  0.94

> <Gold.Chemscore.Hbond.Weighted>
-6.4911

> <Gold.Chemscore.Metal.Weighted>
-0.0000

> <Gold.Chemscore.Lipo.Weighted>
-11.2861

> <Gold.Chemscore.Internal_Hbond.Weighted>
0.0000

> <Gold.Chemscore.DEClash.Weighted>
0.0840

> <Gold.Chemscore.DEInternal.Weighted>
1.7999

> <Gold.Chemscore.Rot.Weighted>
4.2569

> <Gold.Chemscore.Internal.Correction.Weighted>
   9.000000E+99

> <Gold.Protein.RotatedTorsions>
[ 6907 6896 6895 6894 ] final   83.16 input  -60.11 | X-H torsion
[ 7974 7965 7964 7962 ] final   81.71 input  175.53 | X-H torsion
[ 8008 7997 7996 7995 ] final -134.22 input   59.86 | X-H torsion
[ 10167 10162 10161 10158 ] final  129.91 input  -65.29 | X-H torsion
[ 10718 10713 10712 10709 ] final  145.17 input   66.30 | X-H torsion
[ 10763 10752 10751 10750 ] final  -86.16 input  -60.55 | X-H torsion
[ 11005 11000 10999 10996 ] final  118.73 input  -57.11 | X-H torsion

> <Gold.Protein.ActiveResidues>
 VAL166  LYS551  ARG553  GLY616  TRP617  ASP618  TYR619  PRO620  LYS621  CYS622 
 ASP623  PHE694  ASN695  SER759  ASP760  ASP761  ALA762  ILE779  LEU786  VAL792 
 PHE793  MET794  SER795  GLU796  ALA797  LYS798  CYS799  TRP800  GLU811  SER814 

> <Gold.Protein.RotatedAtoms>
  152.5319  134.2939  159.9052 H   0  0  0  0  0  0  0  0  0  0  0  0  # atno 6907 bound_to 6896
  151.2890  133.4167  159.2639 H   0  0  0  0  0  0  0  0  0  0  0  0  # atno 6908 bound_to 6896
  151.0217  134.9490  159.8120 H   0  0  0  0  0  0  0  0  0  0  0  0  # atno 6909 bound_to 6896
  145.6346  139.2412  143.2065 H   0  0  0  0  0  0  0  0  0  0  0  0  # atno 7974 bound_to 7965
  155.3585  140.0481  157.3046 H   0  0  0  0  0  0  0  0  0  0  0  0  # atno 8008 bound_to 7997
  154.5190  140.2218  155.8974 H   0  0  0  0  0  0  0  0  0  0  0  0  # atno 8009 bound_to 7997
  156.1669  140.3104  155.8910 H   0  0  0  0  0  0  0  0  0  0  0  0  # atno 8010 bound_to 7997
  139.5455  144.6769  151.4487 H   0  0  0  0  0  0  0  0  0  0  0  0  # atno 10167 bound_to 10162
  157.3485  131.0947  151.1021 H   0  0  0  0  0  0  0  0  0  0  0  0  # atno 10718 bound_to 10713
  154.6193  135.5459  153.7557 H   0  0  0  0  0  0  0  0  0  0  0  0  # atno 10763 bound_to 10752
  153.0230  135.6408  154.1465 H   0  0  0  0  0  0  0  0  0  0  0  0  # atno 10764 bound_to 10752
  154.1400  135.2909  155.3143 H   0  0  0  0  0  0  0  0  0  0  0  0  # atno 10765 bound_to 10752
  139.9120  134.9623  156.7548 H   0  0  0  0  0  0  0  0  0  0  0  0  # atno 11005 bound_to 11000
  146.1329  140.7161  142.9403 LP  0  0  0  0  0  0  0  0  0  0  0  0  # atno 17320 bound_to 7965
  144.7180  140.4277  143.7029 LP  0  0  0  0  0  0  0  0  0  0  0  0  # atno 17321 bound_to 7965
  140.6701  143.8311  150.6989 LP  0  0  0  0  0  0  0  0  0  0  0  0  # atno 17342 bound_to 10162
  140.1733  143.4176  152.1985 LP  0  0  0  0  0  0  0  0  0  0  0  0  # atno 17343 bound_to 10162
  157.2206  130.6479  149.5809 LP  0  0  0  0  0  0  0  0  0  0  0  0  # atno 17370 bound_to 10713
  155.9718  130.4630  150.6168 LP  0  0  0  0  0  0  0  0  0  0  0  0  # atno 17371 bound_to 10713
  140.6745  133.9530  155.7875 LP  0  0  0  0  0  0  0  0  0  0  0  0  # atno 17394 bound_to 11000
  141.0554  134.0424  157.3729 LP  0  0  0  0  0  0  0  0  0  0  0  0  # atno 17395 bound_to 11000

$$$$
