AV-unprocessed.smi:981|AV-procd|sdf|4313|dock2
  -GOLD-   22720 2223D 1   1.00000     0.00000
 Structure written by MMmdl.
 36 37  0  0  0  0  0  0  0  0  1 V2000
  152.5667  138.8408  158.0503 C   0  0  0  0  0  0  0  0  0  0  0  0
  151.9392  140.1502  157.5508 C   0  0  0  0  0  0  0  0  0  0  0  0
  152.2330  140.4336  156.0703 C   0  0  0  0  0  0  0  0  0  0  0  0
  152.2886  141.3123  158.4267 C   0  0  0  0  0  0  0  0  0  0  0  0
  151.8578  142.5595  158.2133 N   0  0  0  0  0  0  0  0  0  0  0  0
  152.3235  143.4642  159.1723 C   0  0  0  0  0  0  0  0  0  0  0  0
  151.9420  144.9106  159.0837 C   0  0  0  0  0  0  0  0  0  0  0  0
  150.9325  145.3125  160.1678 C   0  0  0  0  0  0  0  0  0  0  0  0
  149.5727  145.2498  159.6509 N   0  0  0  0  0  0  0  0  0  0  0  0
  148.5601  144.6040  160.2506 C   0  0  0  0  0  0  0  0  0  0  0  0
  148.6872  143.9823  161.3040 O   0  0  0  0  0  0  0  0  0  0  0  0
  147.3824  144.6666  159.6032 N   0  0  0  0  0  0  0  0  0  0  0  0
  146.1300  144.0854  159.9855 C   0  0  0  0  0  0  0  0  0  0  0  0
  145.8600  143.9375  161.4675 C   0  0  0  0  0  0  0  0  0  0  0  0
  146.1555  142.7194  160.6370 C   0  0  0  0  0  0  0  0  0  0  0  0
  153.1210  142.8804  160.1244 C   0  0  0  0  0  0  0  0  0  0  0  0
  153.3150  141.1711  159.8502 S   0  0  0  0  0  0  0  0  0  0  0  0
  152.2697  138.6311  159.0782 H   0  0  0  0  0  0  0  0  0  0  0  0
  153.6559  138.8860  158.0208 H   0  0  0  0  0  0  0  0  0  0  0  0
  152.2525  137.9960  157.4370 H   0  0  0  0  0  0  0  0  0  0  0  0
  150.8590  140.0215  157.6292 H   0  0  0  0  0  0  0  0  0  0  0  0
  151.7055  141.3250  155.7296 H   0  0  0  0  0  0  0  0  0  0  0  0
  151.9167  139.6017  155.4407 H   0  0  0  0  0  0  0  0  0  0  0  0
  153.2987  140.5918  155.9008 H   0  0  0  0  0  0  0  0  0  0  0  0
  152.8337  145.5336  159.1669 H   0  0  0  0  0  0  0  0  0  0  0  0
  151.5207  145.1225  158.0999 H   0  0  0  0  0  0  0  0  0  0  0  0
  151.0253  144.6491  161.0293 H   0  0  0  0  0  0  0  0  0  0  0  0
  151.1371  146.3261  160.5164 H   0  0  0  0  0  0  0  0  0  0  0  0
  149.3862  145.7314  158.7833 H   0  0  0  0  0  0  0  0  0  0  0  0
  147.3848  145.1535  158.7185 H   0  0  0  0  0  0  0  0  0  0  0  0
  145.2544  144.3128  159.3796 H   0  0  0  0  0  0  0  0  0  0  0  0
  146.6291  144.2691  162.1627 H   0  0  0  0  0  0  0  0  0  0  0  0
  144.8356  144.0770  161.8066 H   0  0  0  0  0  0  0  0  0  0  0  0
  145.3286  142.0457  160.4213 H   0  0  0  0  0  0  0  0  0  0  0  0
  147.1227  142.2395  160.7747 H   0  0  0  0  0  0  0  0  0  0  0  0
  153.6059  143.3511  160.9667 H   0  0  0  0  0  0  0  0  0  0  0  0
  1  2  1  0  0  0  0
  1 18  1  0  0  0  0
  1 19  1  0  0  0  0
  1 20  1  0  0  0  0
  2  3  1  0  0  0  0
  2  4  1  0  0  0  0
  2 21  1  0  0  0  0
  3 22  1  0  0  0  0
  3 23  1  0  0  0  0
  3 24  1  0  0  0  0
  4 17  1  0  0  0  0
  4  5  2  0  0  0  0
  5  6  1  0  0  0  0
  6  7  1  0  0  0  0
  6 16  2  0  0  0  0
  7  8  1  0  0  0  0
  7 25  1  0  0  0  0
  7 26  1  0  0  0  0
  8  9  1  0  0  0  0
  8 27  1  0  0  0  0
  8 28  1  0  0  0  0
  9 10  1  0  0  0  0
  9 29  1  0  0  0  0
 10 11  2  0  0  0  0
 10 12  1  0  0  0  0
 12 13  1  0  0  0  0
 12 30  1  0  0  0  0
 13 15  1  0  0  0  0
 13 14  1  0  0  0  0
 13 31  1  0  0  0  0
 14 15  1  0  0  0  0
 14 32  1  0  0  0  0
 14 33  1  0  0  0  0
 15 34  1  0  0  0  0
 15 35  1  0  0  0  0
 16 17  1  0  0  0  0
 16 36  1  0  0  0  0
M  END
> <s_m_source_file>
AV-unprocessed.smi

> <i_m_source_file_index>
981

> <i_lp_mmshare_version>
43012

> <i_f3d_flags>
0

> <s_epik_input>
W0NIM11bQ0hdKFtDSDNdKWMxbmMoW2NIXXMxKVtDSDJdW0NIMl1bTkhdQyg9TylbTkhdW0NIXTJbQ0gyXVtDSDJdMg==

> <s_epik_cmdline>
J2VwaWtfcHl0aG9uJywgJy1waCcsICc3LjAnLCAnLXRuJywgJzgnLCAnLW1hJywgJzIwMCcsICctbWV0YWxfYmluZGluZycsICctaW1hZScsICc8aW5maWxlLm1hZT4nLCAnLW9tYWUnLCAnPG91dGZpbGUubWFlPic=

> <r_epik_Ionization_Penalty>
0.00156572

> <r_epik_Ionization_Penalty_Charging>
0

> <r_epik_Ionization_Penalty_Neutral>
0.00156572

> <r_epik_State_Penalty>
0.0010059

> <r_epik_Charging_Adjusted_Penalty>
0.0010059

> <i_epik_Tot_Q>
0

> <i_epik_Tot_abs_Q>
0

> <r_epik_Metal_State_Penalty>
-0

> <b_epik_Metal_Only>
0

> <s_lp_Force_Field>
OPLS_2005

> <r_lp_Energy>
12.4684

> <b_lp_Chiralities_Consistent>
1

> <s_lp_Variant>
AV-unprocessed.smi:981-1

> <Gold.Version>
5.8.1

> <Gold.Id.Protein>
6NUR|6NUR_protein|mol2

> <Gold.PLP.Fitness>
45.0030

> <Gold.PLP.PLP>
-38.7903

> <Gold.PLP.part.hbond>
-3.0000

> <Gold.PLP.part.metal>
0.0000

> <Gold.PLP.part.buried>
-6.0762

> <Gold.PLP.part.nonpolar>
-31.5561

> <Gold.PLP.part.repulsive>
0.5898

> <Gold.PLP.ligand.clash>
0.0000

> <Gold.PLP.ligand.torsion>
0.8231

> <Gold.PLP.Chemscore.Hbond>
2.5680

> <Gold.PLP.Chemscore.CHOScore>
0.0000

> <Gold.PLP.Chemscore.Metal>
0.0000

> <Gold.Chemscore.Hbonds>
donor molecule, donor type, donor heavy atom, donor atom, acceptor molecule, acceptor atom, score
      L1  H     9    29       P1  8029  0.66
      L1  H    12    30       P1  8029  1.00
      P1  H  6933  6944       L1    11  0.75

> <Gold.PLP.Chemscore.Internal.Correction>
0.1549

> <Gold.Rescore>
     Score         DG    S(hbond)    S(metal)    S(lipo)     H(rot)  DE(clash)    DE(int)     intcor
     19.02     -21.04       2.60        0.00      96.03       1.70       0.01       2.02       ----

> <Gold.Chemscore.Fitness>
19.0152

> <Gold.Chemscore.DG>
-21.0443

> <Gold.Chemscore.ZeroCoef>
-5.4800

> <Gold.Chemscore.Hbond>
2.6026

> <Gold.Chemscore.Metal>
0.0000

> <Gold.Chemscore.Lipo>
96.0269

> <Gold.Chemscore.Internal_Hbond>
0.0000

> <Gold.Chemscore.DEClash>
0.0106

> <Gold.Chemscore.DEInternal>
2.0185

> <Gold.Chemscore.Rot>
1.7045

> <Gold.Chemscore.Internal.Correction>
   9.000000E+99

> <Gold.Chemscore.Hbonds>
donor molecule, donor type, donor heavy atom, donor atom, acceptor molecule, acceptor atom, score
      L1  H     9    29       P1  8029  0.65
      L1  H    12    30       P1  8029  1.00
      P1  H  6933  6944       L1    11  0.75

> <Gold.Chemscore.Hbond.Weighted>
-8.6928

> <Gold.Chemscore.Metal.Weighted>
-0.0000

> <Gold.Chemscore.Lipo.Weighted>
-11.2352

> <Gold.Chemscore.Internal_Hbond.Weighted>
0.0000

> <Gold.Chemscore.DEClash.Weighted>
0.0106

> <Gold.Chemscore.DEInternal.Weighted>
2.0185

> <Gold.Chemscore.Rot.Weighted>
4.3636

> <Gold.Chemscore.Internal.Correction.Weighted>
   9.000000E+99

> <Gold.Protein.RotatedTorsions>
[ 6907 6896 6895 6894 ] final   93.50 input  -60.11 | X-H torsion
[ 7974 7965 7964 7962 ] final   65.19 input  175.53 | X-H torsion
[ 8008 7997 7996 7995 ] final  162.10 input   59.86 | X-H torsion
[ 10167 10162 10161 10158 ] final   -2.46 input  -65.29 | X-H torsion
[ 10718 10713 10712 10709 ] final   -2.33 input   66.30 | X-H torsion
[ 10763 10752 10751 10750 ] final   -6.43 input  -60.55 | X-H torsion
[ 11005 11000 10999 10996 ] final -127.64 input  -57.11 | X-H torsion

> <Gold.Protein.ActiveResidues>
 VAL166  LYS551  ARG553  GLY616  TRP617  ASP618  TYR619  PRO620  LYS621  CYS622 
 ASP623  PHE694  ASN695  SER759  ASP760  ASP761  ALA762  ILE779  LEU786  VAL792 
 PHE793  MET794  SER795  GLU796  ALA797  LYS798  CYS799  TRP800  GLU811  SER814 

> <Gold.Protein.RotatedAtoms>
  152.5452  134.1338  159.8449 H   0  0  0  0  0  0  0  0  0  0  0  0  # atno 6907 bound_to 6896
  151.1381  133.4983  159.2605 H   0  0  0  0  0  0  0  0  0  0  0  0  # atno 6908 bound_to 6896
  151.1603  135.0280  159.8762 H   0  0  0  0  0  0  0  0  0  0  0  0  # atno 6909 bound_to 6896
  145.8414  139.3197  143.0929 H   0  0  0  0  0  0  0  0  0  0  0  0  # atno 7974 bound_to 7965
  156.2055  140.1759  156.7808 H   0  0  0  0  0  0  0  0  0  0  0  0  # atno 8008 bound_to 7997
  154.5650  140.0693  156.8907 H   0  0  0  0  0  0  0  0  0  0  0  0  # atno 8009 bound_to 7997
  155.2778  140.3347  155.4263 H   0  0  0  0  0  0  0  0  0  0  0  0  # atno 8010 bound_to 7997
  140.6852  143.6655  150.8230 H   0  0  0  0  0  0  0  0  0  0  0  0  # atno 10167 bound_to 10162
  156.7924  130.5366  149.5733 H   0  0  0  0  0  0  0  0  0  0  0  0  # atno 10718 bound_to 10713
  153.4123  135.7008  153.6351 H   0  0  0  0  0  0  0  0  0  0  0  0  # atno 10763 bound_to 10752
  153.4840  135.3687  155.2457 H   0  0  0  0  0  0  0  0  0  0  0  0  # atno 10764 bound_to 10752
  154.8717  135.4073  154.3477 H   0  0  0  0  0  0  0  0  0  0  0  0  # atno 10765 bound_to 10752
  140.9583  134.0972  157.3994 H   0  0  0  0  0  0  0  0  0  0  0  0  # atno 11005 bound_to 11000
  145.9461  140.8943  143.0283 LP  0  0  0  0  0  0  0  0  0  0  0  0  # atno 17320 bound_to 7965
  144.6733  140.1616  143.7422 LP  0  0  0  0  0  0  0  0  0  0  0  0  # atno 17321 bound_to 7965
  140.0361  143.5394  152.2739 LP  0  0  0  0  0  0  0  0  0  0  0  0  # atno 17342 bound_to 10162
  139.6204  144.7628  151.2753 LP  0  0  0  0  0  0  0  0  0  0  0  0  # atno 17343 bound_to 10162
  156.1151  130.6069  151.0107 LP  0  0  0  0  0  0  0  0  0  0  0  0  # atno 17370 bound_to 10713
  157.6594  131.0883  150.7873 LP  0  0  0  0  0  0  0  0  0  0  0  0  # atno 17371 bound_to 10713
  139.8869  135.0085  156.6529 LP  0  0  0  0  0  0  0  0  0  0  0  0  # atno 17394 bound_to 11000
  140.7505  133.8901  155.8343 LP  0  0  0  0  0  0  0  0  0  0  0  0  # atno 17395 bound_to 11000

$$$$
