#       Name:                AV-unprocessed.smi:1419
#       Creating user name   scv26
#       Creation time:       Fri Mar 27 05:42:07 2020


#       File generated by GOLD software.
#

@<TRIPOS>MOLECULE
AV-unprocessed.smi:1419
    46    47     1
SMALL
NO_CHARGES


@<TRIPOS>ATOM
      1 ****        -3.6044  -0.6707   1.6760 C.3            1 S1                 0.0000
      2 ****        -2.7220  -0.1449   0.5362 C.3            1 S1                 0.0000
      3 ****        -2.7184  -1.1162  -0.6634 C.3            1 S1                 0.0000
      4 ****        -2.0199  -0.5746  -1.8346 N.pl3          1 S1                 0.0000
      5 ****        -2.4494   0.4268  -2.6673 C.2            1 S1                 0.0000
      6 ****        -1.4670   0.6013  -3.6078 C.2            1 S1                 0.0000
      7 ****        -0.4842  -0.3058  -3.3150 N.pl3          1 S1                 1.0000
      8 ****        -0.8239  -1.0230  -2.2388 C.2            1 S1                 0.0000
      9 ****        -1.3665   0.0608   1.0444 N.am           1 S1                 0.0000
     10 ****        -0.5458   1.0758   0.7217 C.2            1 S1                 0.0000
     11 ****        -0.8882   1.9813  -0.0399 O.2            1 S1                 0.0000
     12 ****         0.6776   1.0202   1.3032 N.am           1 S1                 0.0000
     13 ****         1.2536  -0.1160   2.0338 C.3            1 S1                 0.0000
     14 ****         2.3311  -0.7607   1.1407 C.3            1 S1                 0.0000
     15 ****         3.0385  -1.9263   1.8400 C.3            1 S1                 0.0000
     16 ****         3.3192   0.2173   0.8051 O.3            1 S1                 0.0000
     17 ****         2.8295   1.4147   0.1923 C.3            1 S1                 0.0000
     18 ****         2.4218   1.1664  -1.2711 C.3            1 S1                 0.0000
     19 ****         1.7116   2.0295   1.0624 C.3            1 S1                 0.0000
     20 ****        -4.6331  -0.8111   1.3430 H              1 S1                 0.0000
     21 ****        -3.6237   0.0288   2.5124 H              1 S1                 0.0000
     22 ****        -3.2427  -1.6289   2.0512 H              1 S1                 0.0000
     23 ****        -3.1464   0.8085   0.2163 H              1 S1                 0.0000
     24 ****        -2.2610  -2.0693  -0.3915 H              1 S1                 0.0000
     25 ****        -3.7406  -1.3349  -0.9752 H              1 S1                 0.0000
     26 ****        -3.3933   0.9335  -2.5267 H              1 S1                 0.0000
     27 ****        -1.3960   1.2851  -4.4413 H              1 S1                 0.0000
     28 ****        -0.2408  -1.8022  -1.7808 H              1 S1                 0.0000
     29 ****        -1.0173  -0.6321   1.6906 H              1 S1                 0.0000
     30 ****         1.7001   0.2432   2.9624 H              1 S1                 0.0000
     31 ****         0.5210  -0.8649   2.3345 H              1 S1                 0.0000
     32 ****         1.8701  -1.1415   0.2286 H              1 S1                 0.0000
     33 ****         2.3317  -2.7123   2.1071 H              1 S1                 0.0000
     34 ****         3.5337  -1.5963   2.7537 H              1 S1                 0.0000
     35 ****         3.7956  -2.3671   1.1910 H              1 S1                 0.0000
     36 ****         3.6646   2.1156   0.1770 H              1 S1                 0.0000
     37 ****         2.1260   2.0982  -1.7533 H              1 S1                 0.0000
     38 ****         1.5843   0.4764  -1.3565 H              1 S1                 0.0000
     39 ****         3.2534   0.7499  -1.8394 H              1 S1                 0.0000
     40 ****         1.3217   2.9349   0.5945 H              1 S1                 0.0000
     41 ****         2.1235   2.3493   2.0207 H              1 S1                 0.0000
     42 ****         0.3768  -0.4187  -3.8356 H              1 S1                 0.0000
     43 ****        -1.8042   1.9776  -0.4412 LP             1 S1                 0.0000
     44 ****        -0.2503   2.7201  -0.2569 LP             1 S1                 0.0000
     45 ****         3.9683  -0.2069   0.1736 LP             1 S1                 0.0000
     46 ****         3.7933   0.4755   1.6469 LP             1 S1                 0.0000
@<TRIPOS>BOND
    1    1    2 1     
    2    1   20 1     
    3    1   21 1     
    4    1   22 1     
    5    2    3 1     
    6    2    9 1     
    7    2   23 1     
    8    3    4 1     
    9    3   24 1     
   10    3   25 1     
   11    4    8 1     
   12    4    5 1     
   13    5    6 2     
   14    5   26 1     
   15    6    7 1     
   16    6   27 1     
   17    7    8 2     
   18    7   42 1     
   19    8   28 1     
   20    9   10 am    
   21    9   29 1     
   22   10   11 2     
   23   10   12 am    
   24   12   19 1     
   25   12   13 1     
   26   13   14 1     
   27   13   30 1     
   28   13   31 1     
   29   14   15 1     
   30   14   16 1     
   31   14   32 1     
   32   15   33 1     
   33   15   34 1     
   34   15   35 1     
   35   16   17 1     
   36   17   18 1     
   37   17   19 1     
   38   17   36 1     
   39   18   37 1     
   40   18   38 1     
   41   18   39 1     
   42   19   40 1     
   43   19   41 1     
   44   11   43 1     
   45   11   44 1     
   46   16   45 1     
   47   16   46 1     
@<TRIPOS>SUBSTRUCTURE
      1 S1             1
@<TRIPOS>SET
LONE_PAIRS      STATIC     ATOMS    <user>   **** ""
4 43 44 45 46
DONOR_HYDROGENS      STATIC     ATOMS    <user>   **** ""
2 42 29
ATOM$BLUE        STATIC     ATOMS    COLORGROUP SYSTEM
4 43 44 45 46
ATOM$RED        STATIC     ATOMS    COLORGROUP SYSTEM
2 42 29
