#       Name:                AV-unprocessed.smi:1001
#       Creating user name   scv26
#       Creation time:       Fri Mar 27 02:25:47 2020


#       File generated by GOLD software.
#

@<TRIPOS>MOLECULE
AV-unprocessed.smi:1001
    54    55     1
SMALL
NO_CHARGES


@<TRIPOS>ATOM
      1 ****        -5.2326   5.2771  -1.4657 N.am           1 S1                 0.0000
      2 ****        -5.4707   4.2076  -2.2349 C.2            1 S1                 0.0000
      3 ****        -6.0970   4.2970  -3.2902 O.2            1 S1                 0.0000
      4 ****        -4.9331   2.9122  -1.7341 C.2            1 S1                 0.0000
      5 ****        -5.1639   1.7334  -2.5519 C.2            1 S1                 0.0000
      6 ****        -4.6879   0.5466  -2.1160 C.2            1 S1                 0.0000
      7 ****        -3.9535   0.4223  -0.8560 C.2            1 S1                 0.0000
      8 ****        -3.5121  -0.6473  -0.4364 O.2            1 S1                 0.0000
      9 ****        -3.7998   1.6045  -0.1844 N.am           1 S1                 0.0000
     10 ****        -3.0696   1.6641   1.0902 C.3            1 S1                 0.0000
     11 ****        -1.5443   1.6613   0.9112 C.2            1 S1                 0.0000
     12 ****        -1.0313   2.1138  -0.1133 O.2            1 S1                 0.0000
     13 ****        -0.8301   1.1580   1.9293 N.am           1 S1                 0.0000
     14 ****         0.6228   1.0359   1.9504 C.3            1 S1                 0.0000
     15 ****         1.0912  -0.2056   1.1735 C.3            1 S1                 0.0000
     16 ****         2.6208  -0.3651   1.1827 C.3            1 S1                 0.0000
     17 ****         3.1331  -1.5382   0.3213 C.3            1 S1                 0.0000
     18 ****         2.7505  -2.9159   0.9065 C.3            1 S1                 0.0000
     19 ****         3.2802  -4.0700   0.0397 C.3            1 S1                 0.0000
     20 ****         4.8004  -3.9717  -0.1540 C.3            1 S1                 0.0000
     21 ****         5.1942  -2.6064  -0.7369 C.3            1 S1                 0.0000
     22 ****         4.6620  -1.4547   0.1316 C.3            1 S1                 0.0000
     23 ****        -4.2867   2.8279  -0.6164 N.2            1 S1                 0.0000
     24 ****        -5.5685   6.1856  -1.7507 H              1 S1                 0.0000
     25 ****        -4.7158   5.1713  -0.6046 H              1 S1                 0.0000
     26 ****        -5.7017   1.7965  -3.4867 H              1 S1                 0.0000
     27 ****        -4.8516  -0.3376  -2.7141 H              1 S1                 0.0000
     28 ****        -3.3432   2.5656   1.6411 H              1 S1                 0.0000
     29 ****        -3.3682   0.8296   1.7278 H              1 S1                 0.0000
     30 ****        -1.3293   0.8147   2.7372 H              1 S1                 0.0000
     31 ****         1.0813   1.9394   1.5450 H              1 S1                 0.0000
     32 ****         0.9423   0.9658   2.9905 H              1 S1                 0.0000
     33 ****         0.6210  -1.0894   1.6042 H              1 S1                 0.0000
     34 ****         0.7441  -0.1431   0.1413 H              1 S1                 0.0000
     35 ****         3.0605   0.5613   0.8108 H              1 S1                 0.0000
     36 ****         2.9754  -0.4761   2.2082 H              1 S1                 0.0000
     37 ****         2.6769  -1.4509  -0.6660 H              1 S1                 0.0000
     38 ****         3.1472  -3.0100   1.9183 H              1 S1                 0.0000
     39 ****         1.6683  -3.0098   0.9905 H              1 S1                 0.0000
     40 ****         3.0254  -5.0257   0.4982 H              1 S1                 0.0000
     41 ****         2.7855  -4.0525  -0.9324 H              1 S1                 0.0000
     42 ****         5.3015  -4.1196   0.8033 H              1 S1                 0.0000
     43 ****         5.1444  -4.7711  -0.8111 H              1 S1                 0.0000
     44 ****         6.2791  -2.5380  -0.8207 H              1 S1                 0.0000
     45 ****         4.7991  -2.5132  -1.7493 H              1 S1                 0.0000
     46 ****         4.9299  -0.5036  -0.3297 H              1 S1                 0.0000
     47 ****         5.1557  -1.4751   1.1042 H              1 S1                 0.0000
     48 ****        -6.4427   5.1852  -3.5928 LP             1 S1                 0.0000
     49 ****        -6.2604   3.4814  -3.8453 LP             1 S1                 0.0000
     50 ****        -3.6489  -1.4860  -0.9637 LP             1 S1                 0.0000
     51 ****        -3.0167  -0.6777   0.4317 LP             1 S1                 0.0000
     52 ****        -1.6092   2.4878  -0.8387 LP             1 S1                 0.0000
     53 ****        -0.0370   2.1071  -0.2196 LP             1 S1                 0.0000
     54 ****        -4.1382   3.6475  -0.0631 LP             1 S1                 0.0000
@<TRIPOS>BOND
    1    1    2 am    
    2    1   24 1     
    3    1   25 1     
    4    2    3 2     
    5    2    4 1     
    6    4   23 2     
    7    4    5 1     
    8    5    6 2     
    9    5   26 1     
   10    6    7 1     
   11    6   27 1     
   12    7    8 2     
   13    7    9 am    
   14    9   10 1     
   15    9   23 1     
   16   10   11 1     
   17   10   28 1     
   18   10   29 1     
   19   11   12 2     
   20   11   13 am    
   21   13   14 1     
   22   13   30 1     
   23   14   15 1     
   24   14   31 1     
   25   14   32 1     
   26   15   16 1     
   27   15   33 1     
   28   15   34 1     
   29   16   17 1     
   30   16   35 1     
   31   16   36 1     
   32   17   22 1     
   33   17   18 1     
   34   17   37 1     
   35   18   19 1     
   36   18   38 1     
   37   18   39 1     
   38   19   20 1     
   39   19   40 1     
   40   19   41 1     
   41   20   21 1     
   42   20   42 1     
   43   20   43 1     
   44   21   22 1     
   45   21   44 1     
   46   21   45 1     
   47   22   46 1     
   48   22   47 1     
   49    3   48 1     
   50    3   49 1     
   51    8   50 1     
   52    8   51 1     
   53   12   52 1     
   54   12   53 1     
   55   23   54 1     
@<TRIPOS>SUBSTRUCTURE
      1 S1             1
@<TRIPOS>SET
LONE_PAIRS      STATIC     ATOMS    <user>   **** ""
7 48 49 50 51 52 53 54
DONOR_HYDROGENS      STATIC     ATOMS    <user>   **** ""
3 24 25 30
ATOM$BLUE        STATIC     ATOMS    COLORGROUP SYSTEM
7 48 49 50 51 52 53 54
ATOM$RED        STATIC     ATOMS    COLORGROUP SYSTEM
3 24 25 30
