AV-unprocessed.smi:3040|AV-procd|sdf|11595|dock7
  -GOLD-   2272016573D 1   1.00000     0.00000
 Structure written by MMmdl.
 39 40  0  0  0  0  0  0  0  0  1 V2000
  145.9888  143.4156  154.2559 C   0  0  0  0  0  0  0  0  0  0  0  0
  146.8396  142.3949  154.8701 N   0  0  0  0  0  0  0  0  0  0  0  0
  147.6543  141.6212  153.9255 C   0  0  0  0  0  0  0  0  0  0  0  0
  148.1334  140.2825  154.5025 C   0  0  0  0  0  0  0  0  0  0  0  0
  148.7586  140.4582  155.8941 C   0  0  1  0  0  0  0  0  0  0  0  0
  150.1348  141.1425  155.8315 C   0  0  0  0  0  0  0  0  0  0  0  0
  150.9663  140.7942  154.9923 O   0  0  0  0  0  0  0  0  0  0  0  0
  150.3681  142.1007  156.7432 N   0  0  0  0  0  0  0  0  0  0  0  0
  151.6448  142.7829  156.9466 C   0  0  0  0  0  0  0  0  0  0  0  0
  151.5542  143.8689  158.0373 C   0  0  0  0  0  0  0  0  0  0  0  0
  152.0622  143.4022  159.3769 C   0  0  0  0  0  0  0  0  0  0  0  0
  151.9672  144.0693  160.6316 C   0  0  0  0  0  0  0  0  0  0  0  0
  152.5533  143.4041  161.6138 N   0  0  0  0  0  0  0  0  0  0  0  0
  153.0384  142.2928  161.0238 N   0  0  0  0  0  0  0  0  0  0  0  0
  153.7670  141.3247  161.8149 C   0  0  0  0  0  0  0  0  0  0  0  0
  152.7481  142.2592  159.6775 C   0  0  0  0  0  0  0  0  0  0  0  0
  147.7825  141.1768  156.8544 C   0  0  0  0  0  0  0  0  0  0  0  0
  146.8757  142.2484  156.2172 C   0  0  0  0  0  0  0  0  0  0  0  0
  146.1898  142.9392  156.9713 O   0  0  0  0  0  0  0  0  0  0  0  0
  146.1416  144.3885  154.7256 H   0  0  0  0  0  0  0  0  0  0  0  0
  144.9372  143.1461  154.3612 H   0  0  0  0  0  0  0  0  0  0  0  0
  146.1972  143.5383  153.1923 H   0  0  0  0  0  0  0  0  0  0  0  0
  147.0886  141.4271  153.0132 H   0  0  0  0  0  0  0  0  0  0  0  0
  148.5077  142.2334  153.6326 H   0  0  0  0  0  0  0  0  0  0  0  0
  147.2862  139.5995  154.5767 H   0  0  0  0  0  0  0  0  0  0  0  0
  148.8394  139.8125  153.8168 H   0  0  0  0  0  0  0  0  0  0  0  0
  148.9284  139.4601  156.3016 H   0  0  0  0  0  0  0  0  0  0  0  0
  149.6243  142.3301  157.3864 H   0  0  0  0  0  0  0  0  0  0  0  0
  152.4281  142.0668  157.2010 H   0  0  0  0  0  0  0  0  0  0  0  0
  151.9467  143.2360  156.0021 H   0  0  0  0  0  0  0  0  0  0  0  0
  152.1076  144.7478  157.7056 H   0  0  0  0  0  0  0  0  0  0  0  0
  150.5168  144.1947  158.1208 H   0  0  0  0  0  0  0  0  0  0  0  0
  151.5052  145.0202  160.8522 H   0  0  0  0  0  0  0  0  0  0  0  0
  154.2315  140.5840  161.1633 H   0  0  0  0  0  0  0  0  0  0  0  0
  153.0838  140.8195  162.4981 H   0  0  0  0  0  0  0  0  0  0  0  0
  154.5460  141.8264  162.3904 H   0  0  0  0  0  0  0  0  0  0  0  0
  153.0655  141.4422  159.0464 H   0  0  0  0  0  0  0  0  0  0  0  0
  147.1202  140.4312  157.2959 H   0  0  0  0  0  0  0  0  0  0  0  0
  148.3195  141.6229  157.6935 H   0  0  0  0  0  0  0  0  0  0  0  0
  1  2  1  0  0  0  0
  1 20  1  0  0  0  0
  1 21  1  0  0  0  0
  1 22  1  0  0  0  0
  2 18  1  0  0  0  0
  2  3  1  0  0  0  0
  3  4  1  0  0  0  0
  3 23  1  0  0  0  0
  3 24  1  0  0  0  0
  4  5  1  0  0  0  0
  4 25  1  0  0  0  0
  4 26  1  0  0  0  0
  5  6  1  0  0  0  0
  5 17  1  0  0  0  0
  5 27  1  0  0  0  0
  6  7  2  0  0  0  0
  6  8  1  0  0  0  0
  8  9  1  0  0  0  0
  8 28  1  0  0  0  0
  9 10  1  0  0  0  0
  9 29  1  0  0  0  0
  9 30  1  0  0  0  0
 10 11  1  0  0  0  0
 10 31  1  0  0  0  0
 10 32  1  0  0  0  0
 11 16  2  0  0  0  0
 11 12  1  0  0  0  0
 12 13  2  0  0  0  0
 12 33  1  0  0  0  0
 13 14  1  0  0  0  0
 14 15  1  0  0  0  0
 14 16  1  0  0  0  0
 15 34  1  0  0  0  0
 15 35  1  0  0  0  0
 15 36  1  0  0  0  0
 16 37  1  0  0  0  0
 17 18  1  0  0  0  0
 17 38  1  0  0  0  0
 17 39  1  0  0  0  0
 18 19  2  0  0  0  0
M  END
> <s_m_source_file>
AV-unprocessed.smi

> <i_m_source_file_index>
3040

> <i_lp_mmshare_version>
43012

> <i_f3d_flags>
0

> <s_epik_input>
W0NIM11OMVtDSDJdW0NIMl1bQ0BIXShbQ0gyXUMxPU8pQyg9TylbTkhdW0NIMl1bQ0gyXWMyW2NIXW5uKFtDSDNdKVtjSF0y

> <s_epik_cmdline>
J2VwaWtfcHl0aG9uJywgJy1waCcsICc3LjAnLCAnLXRuJywgJzgnLCAnLW1hJywgJzIwMCcsICctbWV0YWxfYmluZGluZycsICctaW1hZScsICc8aW5maWxlLm1hZT4nLCAnLW9tYWUnLCAnPG91dGZpbGUubWFlPic=

> <r_lp_tautomer_probability>
1

> <r_epik_Ionization_Penalty>
0.000456436

> <r_epik_Ionization_Penalty_Charging>
0

> <r_epik_Ionization_Penalty_Neutral>
0.000456436

> <r_epik_State_Penalty>
-0

> <r_epik_Charging_Adjusted_Penalty>
0

> <i_epik_Tot_Q>
0

> <i_epik_Tot_abs_Q>
0

> <r_epik_Metal_State_Penalty>
-0

> <b_epik_Metal_Only>
0

> <s_lp_Force_Field>
OPLS_2005

> <r_lp_Energy>
8.58968

> <b_lp_Chiralities_Consistent>
1

> <s_lp_Variant>
AV-unprocessed.smi:3040-1

> <Gold.Version>
5.8.1

> <Gold.Id.Protein>
6NUR|6NUR_protein|mol2

> <Gold.PLP.Fitness>
44.1805

> <Gold.PLP.PLP>
-43.1145

> <Gold.PLP.part.hbond>
-2.0000

> <Gold.PLP.part.metal>
0.0000

> <Gold.PLP.part.buried>
-4.5517

> <Gold.PLP.part.nonpolar>
-36.4539

> <Gold.PLP.part.repulsive>
0.4568

> <Gold.PLP.ligand.clash>
0.0744

> <Gold.PLP.ligand.torsion>
0.6509

> <Gold.PLP.Chemscore.Hbond>
0.8000

> <Gold.PLP.Chemscore.CHOScore>
0.0000

> <Gold.PLP.Chemscore.Metal>
0.0000

> <Gold.Chemscore.Hbonds>
donor molecule, donor type, donor heavy atom, donor atom, acceptor molecule, acceptor atom, score
      P1  H  7989  7998       L1     7  0.83

> <Gold.PLP.Chemscore.Internal.Correction>
0.0423

> <Gold.Rescore>
     Score         DG    S(hbond)    S(metal)    S(lipo)     H(rot)  DE(clash)    DE(int)     intcor
     13.91     -14.35       0.88        0.00      86.97       1.65       0.03       0.41       ----

> <Gold.Chemscore.Fitness>
13.9112

> <Gold.Chemscore.DG>
-14.3502

> <Gold.Chemscore.ZeroCoef>
-5.4800

> <Gold.Chemscore.Hbond>
0.8766

> <Gold.Chemscore.Metal>
0.0000

> <Gold.Chemscore.Lipo>
86.9711

> <Gold.Chemscore.Internal_Hbond>
0.0000

> <Gold.Chemscore.DEClash>
0.0276

> <Gold.Chemscore.DEInternal>
0.4115

> <Gold.Chemscore.Rot>
1.6536

> <Gold.Chemscore.Internal.Correction>
   9.000000E+99

> <Gold.Chemscore.Hbonds>
donor molecule, donor type, donor heavy atom, donor atom, acceptor molecule, acceptor atom, score
      P1  H  7989  7998       L1     7  0.83

> <Gold.Chemscore.Hbond.Weighted>
-2.9278

> <Gold.Chemscore.Metal.Weighted>
-0.0000

> <Gold.Chemscore.Lipo.Weighted>
-10.1756

> <Gold.Chemscore.Internal_Hbond.Weighted>
0.0000

> <Gold.Chemscore.DEClash.Weighted>
0.0276

> <Gold.Chemscore.DEInternal.Weighted>
0.4115

> <Gold.Chemscore.Rot.Weighted>
4.2332

> <Gold.Chemscore.Internal.Correction.Weighted>
   9.000000E+99

> <Gold.Protein.RotatedTorsions>
[ 6907 6896 6895 6894 ] final  -57.76 input  -60.11 | X-H torsion
[ 7974 7965 7964 7962 ] final -173.85 input  175.53 | X-H torsion
[ 8008 7997 7996 7995 ] final  171.90 input   59.86 | X-H torsion
[ 10167 10162 10161 10158 ] final -107.40 input  -65.29 | X-H torsion
[ 10718 10713 10712 10709 ] final -116.20 input   66.30 | X-H torsion
[ 10763 10752 10751 10750 ] final  -83.16 input  -60.55 | X-H torsion
[ 11005 11000 10999 10996 ] final   79.89 input  -57.11 | X-H torsion

> <Gold.Protein.ActiveResidues>
 VAL166  LYS551  ARG553  GLY616  TRP617  ASP618  TYR619  PRO620  LYS621  CYS622 
 ASP623  PHE694  ASN695  SER759  ASP760  ASP761  ALA762  ILE779  LEU786  VAL792 
 PHE793  MET794  SER795  GLU796  ALA797  LYS798  CYS799  TRP800  GLU811  SER814 

> <Gold.Protein.RotatedAtoms>
  150.8060  134.7186  159.6644 H   0  0  0  0  0  0  0  0  0  0  0  0  # atno 6907 bound_to 6896
  152.4180  134.6004  160.0008 H   0  0  0  0  0  0  0  0  0  0  0  0  # atno 6908 bound_to 6896
  151.6227  133.3301  159.3127 H   0  0  0  0  0  0  0  0  0  0  0  0  # atno 6909 bound_to 6896
  144.7135  140.1559  143.6380 H   0  0  0  0  0  0  0  0  0  0  0  0  # atno 7974 bound_to 7965
  156.1227  140.1500  156.9182 H   0  0  0  0  0  0  0  0  0  0  0  0  # atno 8008 bound_to 7997
  154.4848  140.0868  156.7501 H   0  0  0  0  0  0  0  0  0  0  0  0  # atno 8009 bound_to 7997
  155.4400  140.3430  155.4291 H   0  0  0  0  0  0  0  0  0  0  0  0  # atno 8010 bound_to 7997
  140.1774  143.3994  152.1308 H   0  0  0  0  0  0  0  0  0  0  0  0  # atno 10167 bound_to 10162
  156.0947  130.6122  150.9005 H   0  0  0  0  0  0  0  0  0  0  0  0  # atno 10718 bound_to 10713
  154.5845  135.5565  153.7217 H   0  0  0  0  0  0  0  0  0  0  0  0  # atno 10763 bound_to 10752
  153.0093  135.6328  154.1936 H   0  0  0  0  0  0  0  0  0  0  0  0  # atno 10764 bound_to 10752
  154.1877  135.2884  155.3012 H   0  0  0  0  0  0  0  0  0  0  0  0  # atno 10765 bound_to 10752
  139.9155  134.7877  156.1837 H   0  0  0  0  0  0  0  0  0  0  0  0  # atno 11005 bound_to 11000
  145.9074  139.2466  143.1458 LP  0  0  0  0  0  0  0  0  0  0  0  0  # atno 17320 bound_to 7965
  145.9750  140.8729  143.0143 LP  0  0  0  0  0  0  0  0  0  0  0  0  # atno 17321 bound_to 7965
  139.5311  144.7160  151.5053 LP  0  0  0  0  0  0  0  0  0  0  0  0  # atno 17342 bound_to 10162
  140.6542  143.8634  150.6817 LP  0  0  0  0  0  0  0  0  0  0  0  0  # atno 17343 bound_to 10162
  157.6106  131.0936  150.8802 LP  0  0  0  0  0  0  0  0  0  0  0  0  # atno 17370 bound_to 10713
  156.8943  130.5224  149.5285 LP  0  0  0  0  0  0  0  0  0  0  0  0  # atno 17371 bound_to 10713
  141.0626  133.6834  156.1983 LP  0  0  0  0  0  0  0  0  0  0  0  0  # atno 17394 bound_to 11000
  140.6636  134.4942  157.5584 LP  0  0  0  0  0  0  0  0  0  0  0  0  # atno 17395 bound_to 11000

$$$$
