#       Name:                AV-unprocessed.smi:3337
#       Creating user name   scv26
#       Creation time:       Fri Mar 27 19:25:52 2020


#       File generated by GOLD software.
#

@<TRIPOS>MOLECULE
AV-unprocessed.smi:3337
    50    51     1
SMALL
NO_CHARGES


@<TRIPOS>ATOM
      1 ****        -0.8820   2.9267   3.6006 C.3            1 S1                 0.0000
      2 ****        -1.3879   2.6804   2.1722 C.3            1 S1                 0.0000
      3 ****        -2.9243   2.7435   2.1043 C.3            1 S1                 0.0000
      4 ****        -3.4446   2.4363   0.6883 C.3            1 S1                 0.0000
      5 ****        -3.2174   3.5945  -0.2990 C.3            1 S1                 0.0000
      6 ****        -2.8582   1.1068   0.1732 C.3            1 S1                 0.0000
      7 ****        -1.3731   1.0959   0.2362 N.4            1 S1                 1.0000
      8 ****        -0.7977  -0.1232  -0.3857 C.3            1 S1                 0.0000
      9 ****         0.6582   0.0808  -0.8494 C.3            1 S1                 0.0000
     10 ****         1.1868  -1.1158  -1.4934 N.am           1 S1                 0.0000
     11 ****         1.5912  -2.2205  -0.8466 C.2            1 S1                 0.0000
     12 ****         1.5484  -2.3313   0.3792 O.2            1 S1                 0.0000
     13 ****         2.1225  -3.3688  -1.7177 C.3            1 S1                 0.0000
     14 ****         1.7176  -4.7524  -1.1703 C.3            1 S1                 0.0000
     15 ****         3.5641  -3.2423  -1.8927 N.pl3          1 S1                 0.0000
     16 ****         4.2618  -2.6893  -2.8876 C.2            1 S1                 0.0000
     17 ****         5.5740  -2.7077  -2.7013 N.2            1 S1                 0.0000
     18 ****         5.6225  -3.3192  -1.4809 C.2            1 S1                 0.0000
     19 ****         4.4469  -3.6489  -0.9463 N.2            1 S1                 0.0000
     20 ****        -0.8843   1.3324   1.6210 C.3            1 S1                 0.0000
     21 ****        -1.2455   2.1623   4.2882 H              1 S1                 0.0000
     22 ****        -1.2160   3.8953   3.9734 H              1 S1                 0.0000
     23 ****         0.2076   2.9179   3.6394 H              1 S1                 0.0000
     24 ****        -0.9816   3.4755   1.5459 H              1 S1                 0.0000
     25 ****        -3.3440   2.0170   2.8018 H              1 S1                 0.0000
     26 ****        -3.2806   3.7204   2.4337 H              1 S1                 0.0000
     27 ****        -4.5253   2.3080   0.7631 H              1 S1                 0.0000
     28 ****        -2.1580   3.7834  -0.4721 H              1 S1                 0.0000
     29 ****        -3.6630   4.5179   0.0718 H              1 S1                 0.0000
     30 ****        -3.6736   3.3775  -1.2651 H              1 S1                 0.0000
     31 ****        -3.2445   0.2764   0.7668 H              1 S1                 0.0000
     32 ****        -3.1913   0.9376  -0.8518 H              1 S1                 0.0000
     33 ****        -0.8784  -0.9585   0.3115 H              1 S1                 0.0000
     34 ****        -1.3906  -0.3965  -1.2600 H              1 S1                 0.0000
     35 ****         0.7076   0.9007  -1.5665 H              1 S1                 0.0000
     36 ****         1.3109   0.3545  -0.0202 H              1 S1                 0.0000
     37 ****         1.2569  -1.1022  -2.5008 H              1 S1                 0.0000
     38 ****         1.6722  -3.2719  -2.7072 H              1 S1                 0.0000
     39 ****         0.6333  -4.8431  -1.0978 H              1 S1                 0.0000
     40 ****         2.1307  -4.9411  -0.1784 H              1 S1                 0.0000
     41 ****         2.0675  -5.5473  -1.8297 H              1 S1                 0.0000
     42 ****         3.8005  -2.2614  -3.7656 H              1 S1                 0.0000
     43 ****         6.5513  -3.5215  -0.9680 H              1 S1                 0.0000
     44 ****         0.2048   1.3293   1.6405 H              1 S1                 0.0000
     45 ****        -1.2108   0.5143   2.2656 H              1 S1                 0.0000
     46 ****        -1.0633   1.8767  -0.3245 H              1 S1                 0.0000
     47 ****         1.2008  -1.5779   0.9375 LP             1 S1                 0.0000
     48 ****         1.8612  -3.1746   0.8163 LP             1 S1                 0.0000
     49 ****         6.3134  -2.3716  -3.2846 LP             1 S1                 0.0000
     50 ****         4.2617  -4.0869  -0.0666 LP             1 S1                 0.0000
@<TRIPOS>BOND
    1    1    2 1     
    2    1   21 1     
    3    1   22 1     
    4    1   23 1     
    5    2   20 1     
    6    2    3 1     
    7    2   24 1     
    8    3    4 1     
    9    3   25 1     
   10    3   26 1     
   11    4    5 1     
   12    4    6 1     
   13    4   27 1     
   14    5   28 1     
   15    5   29 1     
   16    5   30 1     
   17    6    7 1     
   18    6   31 1     
   19    6   32 1     
   20    7    8 1     
   21    7   20 1     
   22    7   46 1     
   23    8    9 1     
   24    8   33 1     
   25    8   34 1     
   26    9   10 1     
   27    9   35 1     
   28    9   36 1     
   29   10   11 am    
   30   10   37 1     
   31   11   12 2     
   32   11   13 1     
   33   13   14 1     
   34   13   15 1     
   35   13   38 1     
   36   14   39 1     
   37   14   40 1     
   38   14   41 1     
   39   15   19 1     
   40   15   16 1     
   41   16   17 2     
   42   16   42 1     
   43   17   18 1     
   44   18   19 2     
   45   18   43 1     
   46   20   44 1     
   47   20   45 1     
   48   12   47 1     
   49   12   48 1     
   50   17   49 1     
   51   19   50 1     
@<TRIPOS>SUBSTRUCTURE
      1 S1             1
@<TRIPOS>SET
LONE_PAIRS      STATIC     ATOMS    <user>   **** ""
4 47 48 49 50
DONOR_HYDROGENS      STATIC     ATOMS    <user>   **** ""
2 46 37
ATOM$BLUE        STATIC     ATOMS    COLORGROUP SYSTEM
4 47 48 49 50
ATOM$RED        STATIC     ATOMS    COLORGROUP SYSTEM
2 46 37
