#       Name:                AV-unprocessed.smi:3117
#       Creating user name   scv26
#       Creation time:       Fri Mar 27 17:27:14 2020


#       File generated by GOLD software.
#

@<TRIPOS>MOLECULE
AV-unprocessed.smi:3117
    40    40     1
SMALL
NO_CHARGES


@<TRIPOS>ATOM
      1 ****        -1.2404  -0.0514   1.5999 C.3            1 S1                 0.0000
      2 ****        -0.7011   0.0577   0.1552 C.3            1 S1                 0.0000
      3 ****         0.7656  -0.0047   0.1362 N.3            1 S1                 0.0000
      4 ****         1.4658   1.1112   0.7763 C.3            1 S1                 0.0000
      5 ****         2.9987   1.0094   0.6166 C.3            1 S1                 0.0000
      6 ****         3.4429   0.8094  -0.8455 C.3            1 S1                 0.0000
      7 ****         3.6676   2.2625   1.2055 C.3            1 S1                 0.0000
      8 ****         3.4539  -0.0860   1.3875 O.3            1 S1                 0.0000
      9 ****        -1.2715  -1.0394  -0.7854 C.3            1 S1                 0.0000
     10 ****        -0.8958  -0.7993  -2.2610 C.3            1 S1                 0.0000
     11 ****        -2.7161  -1.1928  -0.6578 N.pl3          1 S1                 0.0000
     12 ****        -3.4188  -2.2849  -0.1917 C.2            1 S1                 0.0000
     13 ****        -4.7468  -1.9731  -0.2509 C.2            1 S1                 0.0000
     14 ****        -4.7600  -0.6497  -0.7726 C.2            1 S1                 0.0000
     15 ****        -3.5452  -0.1848  -1.0140 N.2            1 S1                 0.0000
     16 ****        -2.3272   0.0213   1.6339 H              1 S1                 0.0000
     17 ****        -0.8695   0.7492   2.2384 H              1 S1                 0.0000
     18 ****        -0.9584  -1.0008   2.0560 H              1 S1                 0.0000
     19 ****        -1.0161   1.0253  -0.2380 H              1 S1                 0.0000
     20 ****         1.0792  -0.8775   0.5490 H              1 S1                 0.0000
     21 ****         1.1220   2.0489   0.3382 H              1 S1                 0.0000
     22 ****         1.2249   1.1600   1.8379 H              1 S1                 0.0000
     23 ****         3.0851   1.6225  -1.4780 H              1 S1                 0.0000
     24 ****         3.0647  -0.1242  -1.2635 H              1 S1                 0.0000
     25 ****         4.5300   0.7816  -0.9288 H              1 S1                 0.0000
     26 ****         3.3701   3.1590   0.6604 H              1 S1                 0.0000
     27 ****         4.7551   2.1958   1.1578 H              1 S1                 0.0000
     28 ****         3.3921   2.4076   2.2511 H              1 S1                 0.0000
     29 ****         4.3937  -0.1402   1.3057 H              1 S1                 0.0000
     30 ****        -0.8348  -1.9947  -0.4886 H              1 S1                 0.0000
     31 ****         0.1843  -0.8187  -2.4072 H              1 S1                 0.0000
     32 ****        -1.2581   0.1667  -2.6143 H              1 S1                 0.0000
     33 ****        -1.3227  -1.5698  -2.9038 H              1 S1                 0.0000
     34 ****        -2.9206  -3.1837   0.1406 H              1 S1                 0.0000
     35 ****        -5.5816  -2.5953   0.0352 H              1 S1                 0.0000
     36 ****        -5.6101  -0.0175  -0.9815 H              1 S1                 0.0000
     37 ****         1.0054   0.0580  -0.8326 LP             1 S1                 0.0000
     38 ****         3.0368  -0.9308   1.0524 LP             1 S1                 0.0000
     39 ****         3.2061   0.0504   2.3467 LP             1 S1                 0.0000
     40 ****        -3.2954   0.7122  -1.3786 LP             1 S1                 0.0000
@<TRIPOS>BOND
    1    1    2 1     
    2    1   16 1     
    3    1   17 1     
    4    1   18 1     
    5    2    3 1     
    6    2    9 1     
    7    2   19 1     
    8    3    4 1     
    9    3   20 1     
   10    4    5 1     
   11    4   21 1     
   12    4   22 1     
   13    5    6 1     
   14    5    7 1     
   15    5    8 1     
   16    6   23 1     
   17    6   24 1     
   18    6   25 1     
   19    7   26 1     
   20    7   27 1     
   21    7   28 1     
   22    8   29 1     
   23    9   10 1     
   24    9   11 1     
   25    9   30 1     
   26   10   31 1     
   27   10   32 1     
   28   10   33 1     
   29   11   15 1     
   30   11   12 1     
   31   12   13 2     
   32   12   34 1     
   33   13   14 1     
   34   13   35 1     
   35   14   15 2     
   36   14   36 1     
   37    3   37 1     
   38    8   38 1     
   39    8   39 1     
   40   15   40 1     
@<TRIPOS>SUBSTRUCTURE
      1 S1             1
@<TRIPOS>SET
LONE_PAIRS      STATIC     ATOMS    <user>   **** ""
4 37 38 39 40
DONOR_HYDROGENS      STATIC     ATOMS    <user>   **** ""
2 20 29
ATOM$BLUE        STATIC     ATOMS    COLORGROUP SYSTEM
4 37 38 39 40
ATOM$RED        STATIC     ATOMS    COLORGROUP SYSTEM
2 20 29
