AV-unprocessed.smi:1088|AV-procd|sdf|4730|dock1
  -GOLD-   22720 3263D 1   1.00000     0.00000
 Structure written by MMmdl.
 48 49  0  0  0  0  0  0  0  0  2 V2000
  144.2904  133.2478  149.8314 C   0  0  0  0  0  0  0  0  0  0  0  0
  144.5783  132.5759  151.0451 O   0  0  0  0  0  0  0  0  0  0  0  0
  145.9707  132.4545  151.2813 C   0  0  0  0  0  0  0  0  0  0  0  0
  146.1941  131.4984  152.4614 C   0  0  0  0  0  0  0  0  0  0  0  0
  147.6237  131.4234  152.8519 N   0  3  2  0  0  0  0  0  0  0  0  0
  147.9715  130.3643  153.8279 C   0  0  0  0  0  0  0  0  0  0  0  0
  149.1746  130.8819  154.6286 C   0  0  0  0  0  0  0  0  0  0  0  0
  149.5663  132.1943  153.9509 C   0  0  0  0  0  0  0  0  0  0  0  0
  148.2627  132.6814  153.3074 C   0  0  2  0  0  0  0  0  0  0  0  0
  147.3788  133.5047  154.2819 C   0  0  0  0  0  0  0  0  0  0  0  0
  147.8818  134.8601  154.4704 N   0  0  0  0  0  0  0  0  0  0  0  0
  147.9396  135.5138  155.6429 C   0  0  0  0  0  0  0  0  0  0  0  0
  147.5737  135.0078  156.7030 O   0  0  0  0  0  0  0  0  0  0  0  0
  148.4724  136.9568  155.6464 C   0  0  0  0  0  0  0  0  0  0  0  0
  149.8528  137.1030  156.1327 N   0  0  0  0  0  0  0  0  0  0  0  0
  150.8296  137.5841  155.2797 C   0  0  0  0  0  0  0  0  0  0  0  0
  152.1240  137.7309  155.6367 C   0  0  0  0  0  0  0  0  0  0  0  0
  152.5747  137.3847  156.9793 C   0  0  0  0  0  0  0  0  0  0  0  0
  153.7487  137.4819  157.3383 O   0  0  0  0  0  0  0  0  0  0  0  0
  151.5525  136.9113  157.8367 N   0  0  0  0  0  0  0  0  0  0  0  0
  151.9025  136.5247  159.1879 C   0  0  0  0  0  0  0  0  0  0  0  0
  150.2035  136.7448  157.4522 C   0  0  0  0  0  0  0  0  0  0  0  0
  149.3568  136.2905  158.2252 O   0  0  0  0  0  0  0  0  0  0  0  0
  143.2110  133.3146  149.6971 H   0  0  0  0  0  0  0  0  0  0  0  0
  144.7032  132.7116  148.9760 H   0  0  0  0  0  0  0  0  0  0  0  0
  144.6921  134.2619  149.8365 H   0  0  0  0  0  0  0  0  0  0  0  0
  146.4568  132.0519  150.3917 H   0  0  0  0  0  0  0  0  0  0  0  0
  146.4162  133.4304  151.4783 H   0  0  0  0  0  0  0  0  0  0  0  0
  145.6064  131.8455  153.3123 H   0  0  0  0  0  0  0  0  0  0  0  0
  145.8266  130.5041  152.2048 H   0  0  0  0  0  0  0  0  0  0  0  0
  147.1364  130.1599  154.4997 H   0  0  0  0  0  0  0  0  0  0  0  0
  148.2086  129.4408  153.2987 H   0  0  0  0  0  0  0  0  0  0  0  0
  148.8773  131.0712  155.6610 H   0  0  0  0  0  0  0  0  0  0  0  0
  149.9998  130.1694  154.6487 H   0  0  0  0  0  0  0  0  0  0  0  0
  150.0200  132.9076  154.6395 H   0  0  0  0  0  0  0  0  0  0  0  0
  150.2993  131.9906  153.1689 H   0  0  0  0  0  0  0  0  0  0  0  0
  148.4849  133.2916  152.4309 H   0  0  0  0  0  0  0  0  0  0  0  0
  146.3501  133.5680  153.9250 H   0  0  0  0  0  0  0  0  0  0  0  0
  147.3357  133.0240  155.2597 H   0  0  0  0  0  0  0  0  0  0  0  0
  148.2090  135.3441  153.6467 H   0  0  0  0  0  0  0  0  0  0  0  0
  148.4060  137.3422  154.6281 H   0  0  0  0  0  0  0  0  0  0  0  0
  147.7946  137.5791  156.2332 H   0  0  0  0  0  0  0  0  0  0  0  0
  150.5463  137.8508  154.2717 H   0  0  0  0  0  0  0  0  0  0  0  0
  152.8374  138.1067  154.9179 H   0  0  0  0  0  0  0  0  0  0  0  0
  151.1289  136.8946  159.8630 H   0  0  0  0  0  0  0  0  0  0  0  0
  152.8528  136.9700  159.4819 H   0  0  0  0  0  0  0  0  0  0  0  0
  151.9583  135.4354  159.2012 H   0  0  0  0  0  0  0  0  0  0  0  0
  148.1251  131.1804  152.0091 H   0  0  0  0  0  0  0  0  0  0  0  0
  1  2  1  0  0  0  0
  1 24  1  0  0  0  0
  1 25  1  0  0  0  0
  1 26  1  0  0  0  0
  2  3  1  0  0  0  0
  3  4  1  0  0  0  0
  3 27  1  0  0  0  0
  3 28  1  0  0  0  0
  4  5  1  0  0  0  0
  4 29  1  0  0  0  0
  4 30  1  0  0  0  0
  5  9  1  0  0  0  0
  5  6  1  0  0  0  0
  5 48  1  0  0  0  0
  6  7  1  0  0  0  0
  6 31  1  0  0  0  0
  6 32  1  0  0  0  0
  7  8  1  0  0  0  0
  7 33  1  0  0  0  0
  7 34  1  0  0  0  0
  8  9  1  0  0  0  0
  8 35  1  0  0  0  0
  8 36  1  0  0  0  0
  9 10  1  0  0  0  0
  9 37  1  0  0  0  0
 10 11  1  0  0  0  0
 10 38  1  0  0  0  0
 10 39  1  0  0  0  0
 11 12  1  0  0  0  0
 11 40  1  0  0  0  0
 12 13  2  0  0  0  0
 12 14  1  0  0  0  0
 14 15  1  0  0  0  0
 14 41  1  0  0  0  0
 14 42  1  0  0  0  0
 15 22  1  0  0  0  0
 15 16  1  0  0  0  0
 16 17  2  0  0  0  0
 16 43  1  0  0  0  0
 17 18  1  0  0  0  0
 17 44  1  0  0  0  0
 18 19  2  0  0  0  0
 18 20  1  0  0  0  0
 20 21  1  0  0  0  0
 20 22  1  0  0  0  0
 21 45  1  0  0  0  0
 21 46  1  0  0  0  0
 21 47  1  0  0  0  0
 22 23  2  0  0  0  0
M  CHG  1   5   1
M  END
> <s_m_source_file>
AV-unprocessed.smi

> <i_m_source_file_index>
1088

> <i_lp_mmshare_version>
43012

> <i_f3d_flags>
0

> <s_epik_input>
W0NIM11PW0NIMl1bQ0gyXU4xW0NIMl1bQ0gyXVtDSDJdW0NASF0xW0NIMl1bTkhdQyg9TylbQ0gyXW4yW2NIXVtjSF1jKD1PKW4oW0NIM10pYzI9Tw==

> <s_epik_cmdline>
J2VwaWtfcHl0aG9uJywgJy1waCcsICc3LjAnLCAnLXRuJywgJzgnLCAnLW1hJywgJzIwMCcsICctbWV0YWxfYmluZGluZycsICctaW1hZScsICc8aW5maWxlLm1hZT4nLCAnLW9tYWUnLCAnPG91dGZpbGUubWFlPic=

> <r_lp_tautomer_probability>
1

> <r_epik_Ionization_Penalty>
0.0127388

> <r_epik_Ionization_Penalty_Charging>
0.0127387

> <r_epik_Ionization_Penalty_Neutral>
8.26414e-08

> <r_epik_State_Penalty>
0.00987716

> <r_epik_Charging_Adjusted_Penalty>
0.0226159

> <i_epik_Tot_Q>
1

> <i_epik_Tot_abs_Q>
1

> <r_epik_Metal_State_Penalty>
0.00987836

> <b_epik_Metal_Only>
0

> <s_lp_Force_Field>
OPLS_2005

> <r_lp_Energy>
40.6263

> <b_lp_Chiralities_Consistent>
1

> <s_lp_Variant>
AV-unprocessed.smi:1088-3

> <Gold.Version>
5.8.1

> <Gold.Id.Protein>
6NUR|6NUR_protein|mol2

> <Gold.PLP.Fitness>
45.7110

> <Gold.PLP.PLP>
-32.3472

> <Gold.PLP.part.hbond>
-3.0000

> <Gold.PLP.part.metal>
0.0000

> <Gold.PLP.part.buried>
-5.3225

> <Gold.PLP.part.nonpolar>
-23.9849

> <Gold.PLP.part.repulsive>
0.1706

> <Gold.PLP.ligand.clash>
0.0000

> <Gold.PLP.ligand.torsion>
0.5341

> <Gold.PLP.Chemscore.Hbond>
3.0000

> <Gold.PLP.Chemscore.CHOScore>
1.7455

> <Gold.PLP.Chemscore.Metal>
0.0000

> <Gold.Chemscore.Hbonds>
donor molecule, donor type, donor heavy atom, donor atom, acceptor molecule, acceptor atom, score
      L1  H     5    48       P1 10747  1.00
      L1  H    11    40       P1  7948  0.80

> <Gold.PLP.Chemscore.Internal.Correction>
0.1955

> <Gold.Rescore>
     Score         DG    S(hbond)    S(metal)    S(lipo)     H(rot)  DE(clash)    DE(int)     intcor
     15.38     -17.47       2.97        0.00      73.97       2.57       0.05       2.03       ----

> <Gold.Chemscore.Fitness>
15.3850

> <Gold.Chemscore.DG>
-17.4740

> <Gold.Chemscore.ZeroCoef>
-5.4800

> <Gold.Chemscore.Hbond>
2.9690

> <Gold.Chemscore.Metal>
0.0000

> <Gold.Chemscore.Lipo>
73.9715

> <Gold.Chemscore.Internal_Hbond>
0.0000

> <Gold.Chemscore.DEClash>
0.0541

> <Gold.Chemscore.DEInternal>
2.0349

> <Gold.Chemscore.Rot>
2.5692

> <Gold.Chemscore.Internal.Correction>
   9.000000E+99

> <Gold.Chemscore.Hbonds>
donor molecule, donor type, donor heavy atom, donor atom, acceptor molecule, acceptor atom, score
      L1  H     5    48       P1 10747  0.99
      L1  H    11    40       P1  7948  0.78

> <Gold.Chemscore.Hbond.Weighted>
-9.9165

> <Gold.Chemscore.Metal.Weighted>
-0.0000

> <Gold.Chemscore.Lipo.Weighted>
-8.6547

> <Gold.Chemscore.Internal_Hbond.Weighted>
0.0000

> <Gold.Chemscore.DEClash.Weighted>
0.0541

> <Gold.Chemscore.DEInternal.Weighted>
2.0349

> <Gold.Chemscore.Rot.Weighted>
6.5772

> <Gold.Chemscore.Internal.Correction.Weighted>
   9.000000E+99

> <Gold.Protein.RotatedTorsions>
[ 6907 6896 6895 6894 ] final  -37.78 input  -60.11 | X-H torsion
[ 7974 7965 7964 7962 ] final   59.92 input  175.53 | X-H torsion
[ 8008 7997 7996 7995 ] final  -35.64 input   59.86 | X-H torsion
[ 10167 10162 10161 10158 ] final  163.50 input  -65.29 | X-H torsion
[ 10718 10713 10712 10709 ] final  148.56 input   66.30 | X-H torsion
[ 10763 10752 10751 10750 ] final -144.37 input  -60.55 | X-H torsion
[ 11005 11000 10999 10996 ] final  132.82 input  -57.11 | X-H torsion

> <Gold.Protein.ActiveResidues>
 VAL166  LYS551  ARG553  GLY616  TRP617  ASP618  TYR619  PRO620  LYS621  CYS622 
 ASP623  PHE694  ASN695  SER759  ASP760  ASP761  ALA762  ILE779  LEU786  VAL792 
 PHE793  MET794  SER795  GLU796  ALA797  LYS798  CYS799  TRP800  GLU811  SER814 

> <Gold.Protein.RotatedAtoms>
  151.0105  134.9393  159.8004 H   0  0  0  0  0  0  0  0  0  0  0  0  # atno 6907 bound_to 6896
  152.5301  134.3034  159.9097 H   0  0  0  0  0  0  0  0  0  0  0  0  # atno 6908 bound_to 6896
  151.3040  133.4068  159.2676 H   0  0  0  0  0  0  0  0  0  0  0  0  # atno 6909 bound_to 6896
  145.9018  139.3587  143.0588 H   0  0  0  0  0  0  0  0  0  0  0  0  # atno 7974 bound_to 7965
  154.4091  140.1652  156.2245 H   0  0  0  0  0  0  0  0  0  0  0  0  # atno 8008 bound_to 7997
  155.9335  140.3413  155.6245 H   0  0  0  0  0  0  0  0  0  0  0  0  # atno 8009 bound_to 7997
  155.7077  140.0753  157.2375 H   0  0  0  0  0  0  0  0  0  0  0  0  # atno 8010 bound_to 7997
  139.4875  144.4330  151.9047 H   0  0  0  0  0  0  0  0  0  0  0  0  # atno 10167 bound_to 10162
  157.3071  131.0881  151.1345 H   0  0  0  0  0  0  0  0  0  0  0  0  # atno 10718 bound_to 10713
  154.8431  135.3442  154.6335 H   0  0  0  0  0  0  0  0  0  0  0  0  # atno 10763 bound_to 10752
  153.6945  135.6973  153.5085 H   0  0  0  0  0  0  0  0  0  0  0  0  # atno 10764 bound_to 10752
  153.2569  135.4335  155.0810 H   0  0  0  0  0  0  0  0  0  0  0  0  # atno 10765 bound_to 10752
  139.9814  134.9547  156.9637 H   0  0  0  0  0  0  0  0  0  0  0  0  # atno 11005 bound_to 11000
  145.8781  140.9379  143.0615 LP  0  0  0  0  0  0  0  0  0  0  0  0  # atno 17320 bound_to 7965
  144.6736  140.0744  143.7472 LP  0  0  0  0  0  0  0  0  0  0  0  0  # atno 17321 bound_to 7965
  140.3779  144.2774  150.5912 LP  0  0  0  0  0  0  0  0  0  0  0  0  # atno 17342 bound_to 10162
  140.5260  143.2254  151.8314 LP  0  0  0  0  0  0  0  0  0  0  0  0  # atno 17343 bound_to 10162
  157.2682  130.6691  149.6007 LP  0  0  0  0  0  0  0  0  0  0  0  0  # atno 17370 bound_to 10713
  155.9675  130.4487  150.5631 LP  0  0  0  0  0  0  0  0  0  0  0  0  # atno 17371 bound_to 10713
  140.5090  134.1021  155.7266 LP  0  0  0  0  0  0  0  0  0  0  0  0  # atno 17394 bound_to 11000
  141.1485  133.9012  157.2156 LP  0  0  0  0  0  0  0  0  0  0  0  0  # atno 17395 bound_to 11000

$$$$
