AV-unprocessed.smi:2803|AV-procd|sdf|10807|dock6
  -GOLD-   2272015243D 1   1.00000     0.00000
 Structure written by MMmdl.
 42 43  0  0  0  0  0  0  0  0  1 V2000
  150.8807  141.0247  157.7135 C   0  0  0  0  0  0  0  0  0  0  0  0
  150.6446  140.2881  156.3804 C   0  0  1  0  0  0  0  0  0  0  0  0
  151.9395  139.9574  155.7565 C   0  0  0  0  0  0  0  0  0  0  0  0
  152.9560  139.6995  155.2671 N   0  0  0  0  0  0  0  0  0  0  0  0
  149.8742  139.0674  156.6276 N   0  0  0  0  0  0  0  0  0  0  0  0
  150.1606  138.0500  157.4591 C   0  0  0  0  0  0  0  0  0  0  0  0
  151.1592  138.0300  158.1761 O   0  0  0  0  0  0  0  0  0  0  0  0
  149.1906  136.8557  157.4920 C   0  0  0  0  0  0  0  0  0  0  0  0
  148.2443  136.8635  158.6136 N   0  0  0  0  0  0  0  0  0  0  0  0
  147.1704  137.7174  158.6825 C   0  0  0  0  0  0  0  0  0  0  0  0
  146.5182  137.5763  159.7833 N   0  0  0  0  0  0  0  0  0  0  0  0
  147.2016  136.5924  160.4403 N   0  0  0  0  0  0  0  0  0  0  0  0
  146.7610  136.1524  161.7889 C   0  0  0  0  0  0  0  0  0  0  0  0
  145.4528  136.8785  162.1701 C   0  0  0  0  0  0  0  0  0  0  0  0
  147.8161  136.4736  162.8765 C   0  0  0  0  0  0  0  0  0  0  0  0
  146.5322  134.6252  161.7889 C   0  0  0  0  0  0  0  0  0  0  0  0
  148.2575  136.1453  159.7333 C   0  0  0  0  0  0  0  0  0  0  0  0
  149.0791  135.2851  160.0481 O   0  0  0  0  0  0  0  0  0  0  0  0
  149.9274  141.2323  155.4189 C   0  0  0  0  0  0  0  0  0  0  0  0
  148.4193  141.2892  155.3124 C   0  0  0  0  0  0  0  0  0  0  0  0
  149.2374  140.7351  154.1669 C   0  0  0  0  0  0  0  0  0  0  0  0
  151.4254  141.9562  157.5560 H   0  0  0  0  0  0  0  0  0  0  0  0
  151.4663  140.4275  158.4126 H   0  0  0  0  0  0  0  0  0  0  0  0
  149.9371  141.2737  158.2002 H   0  0  0  0  0  0  0  0  0  0  0  0
  149.0250  138.9796  156.0890 H   0  0  0  0  0  0  0  0  0  0  0  0
  148.6483  136.8217  156.5455 H   0  0  0  0  0  0  0  0  0  0  0  0
  149.7799  135.9387  157.5341 H   0  0  0  0  0  0  0  0  0  0  0  0
  146.9712  138.4055  157.8594 H   0  0  0  0  0  0  0  0  0  0  0  0
  145.1341  136.6139  163.1789 H   0  0  0  0  0  0  0  0  0  0  0  0
  144.6296  136.6256  161.5019 H   0  0  0  0  0  0  0  0  0  0  0  0
  145.5803  137.9613  162.1410 H   0  0  0  0  0  0  0  0  0  0  0  0
  148.0125  137.5443  162.9457 H   0  0  0  0  0  0  0  0  0  0  0  0
  148.7640  135.9699  162.6820 H   0  0  0  0  0  0  0  0  0  0  0  0
  147.4790  136.1474  163.8610 H   0  0  0  0  0  0  0  0  0  0  0  0
  146.2493  134.2695  162.7803 H   0  0  0  0  0  0  0  0  0  0  0  0
  147.4371  134.0912  161.4965 H   0  0  0  0  0  0  0  0  0  0  0  0
  145.7368  134.3253  161.1069 H   0  0  0  0  0  0  0  0  0  0  0  0
  150.4339  142.1901  155.3115 H   0  0  0  0  0  0  0  0  0  0  0  0
  147.8346  140.5851  155.9006 H   0  0  0  0  0  0  0  0  0  0  0  0
  147.9639  142.2678  155.1760 H   0  0  0  0  0  0  0  0  0  0  0  0
  149.3248  141.3467  153.2713 H   0  0  0  0  0  0  0  0  0  0  0  0
  149.1897  139.6621  153.9915 H   0  0  0  0  0  0  0  0  0  0  0  0
  1  2  1  0  0  0  0
  1 22  1  0  0  0  0
  1 23  1  0  0  0  0
  1 24  1  0  0  0  0
  2  3  1  0  0  0  0
  2  5  1  0  0  0  0
  2 19  1  0  0  0  0
  3  4  3  0  0  0  0
  5  6  1  0  0  0  0
  5 25  1  0  0  0  0
  6  7  2  0  0  0  0
  6  8  1  0  0  0  0
  8  9  1  0  0  0  0
  8 26  1  0  0  0  0
  8 27  1  0  0  0  0
  9 17  1  0  0  0  0
  9 10  1  0  0  0  0
 10 11  2  0  0  0  0
 10 28  1  0  0  0  0
 11 12  1  0  0  0  0
 12 13  1  0  0  0  0
 12 17  1  0  0  0  0
 13 14  1  0  0  0  0
 13 15  1  0  0  0  0
 13 16  1  0  0  0  0
 14 29  1  0  0  0  0
 14 30  1  0  0  0  0
 14 31  1  0  0  0  0
 15 32  1  0  0  0  0
 15 33  1  0  0  0  0
 15 34  1  0  0  0  0
 16 35  1  0  0  0  0
 16 36  1  0  0  0  0
 16 37  1  0  0  0  0
 17 18  2  0  0  0  0
 19 21  1  0  0  0  0
 19 20  1  0  0  0  0
 19 38  1  0  0  0  0
 20 21  1  0  0  0  0
 20 39  1  0  0  0  0
 20 40  1  0  0  0  0
 21 41  1  0  0  0  0
 21 42  1  0  0  0  0
M  END
> <s_m_source_file>
AV-unprocessed.smi

> <i_m_source_file_index>
2803

> <i_lp_mmshare_version>
43012

> <i_f3d_flags>
0

> <s_epik_input>
W0NIMl0xW0NIMl1bQ0hdMVtDQF0oW0NIM10pKEMjTilbTkhdQyg9TylbQ0gyXW4yW2NIXW5uKGMyPU8pQyhbQ0gzXSkoW0NIM10pW0NIM10=

> <s_epik_cmdline>
J2VwaWtfcHl0aG9uJywgJy1waCcsICc3LjAnLCAnLXRuJywgJzgnLCAnLW1hJywgJzIwMCcsICctbWV0YWxfYmluZGluZycsICctaW1hZScsICc8aW5maWxlLm1hZT4nLCAnLW9tYWUnLCAnPG91dGZpbGUubWFlPic=

> <r_lp_tautomer_probability>
1

> <r_epik_Ionization_Penalty>
4.88615e-06

> <r_epik_Ionization_Penalty_Charging>
4.80261e-08

> <r_epik_Ionization_Penalty_Neutral>
4.83813e-06

> <r_epik_State_Penalty>
-0

> <r_epik_Charging_Adjusted_Penalty>
4.80261e-08

> <i_epik_Tot_Q>
0

> <i_epik_Tot_abs_Q>
0

> <r_epik_Metal_State_Penalty>
-0

> <b_epik_Metal_Only>
0

> <s_lp_Force_Field>
OPLS_2005

> <r_lp_Energy>
32.3619

> <b_lp_Chiralities_Consistent>
1

> <s_lp_Variant>
AV-unprocessed.smi:2803-1

> <Gold.Version>
5.8.1

> <Gold.Id.Protein>
6NUR|6NUR_protein|mol2

> <Gold.PLP.Fitness>
40.1250

> <Gold.PLP.PLP>
-32.4389

> <Gold.PLP.part.hbond>
-4.0000

> <Gold.PLP.part.metal>
0.0000

> <Gold.PLP.part.buried>
-1.4073

> <Gold.PLP.part.nonpolar>
-27.1473

> <Gold.PLP.part.repulsive>
0.0109

> <Gold.PLP.ligand.clash>
0.0000

> <Gold.PLP.ligand.torsion>
1.3454

> <Gold.PLP.Chemscore.Hbond>
2.9440

> <Gold.PLP.Chemscore.CHOScore>
0.0000

> <Gold.PLP.Chemscore.Metal>
0.0000

> <Gold.Chemscore.Hbonds>
donor molecule, donor type, donor heavy atom, donor atom, acceptor molecule, acceptor atom, score
      P1  H  6896  6907       L1    18  0.88
      P1  H  6934  6947       L1    11  0.80
      P1  H  7997  8010       L1     4  1.00

> <Gold.PLP.Chemscore.Internal.Correction>
1.5450

> <Gold.Rescore>
     Score         DG    S(hbond)    S(metal)    S(lipo)     H(rot)  DE(clash)    DE(int)     intcor
     13.23     -15.98       2.37        0.00      66.76       2.05       0.27       2.48       ----

> <Gold.Chemscore.Fitness>
13.2270

> <Gold.Chemscore.DG>
-15.9794

> <Gold.Chemscore.ZeroCoef>
-5.4800

> <Gold.Chemscore.Hbond>
2.3728

> <Gold.Chemscore.Metal>
0.0000

> <Gold.Chemscore.Lipo>
66.7635

> <Gold.Chemscore.Internal_Hbond>
0.0000

> <Gold.Chemscore.DEClash>
0.2715

> <Gold.Chemscore.DEInternal>
2.4808

> <Gold.Chemscore.Rot>
2.0457

> <Gold.Chemscore.Internal.Correction>
   9.000000E+99

> <Gold.Chemscore.Hbonds>
donor molecule, donor type, donor heavy atom, donor atom, acceptor molecule, acceptor atom, score
      P1  H  6896  6907       L1    18  0.87
      P1  H  6934  6947       L1    11  0.05
      P1  H  7997  8010       L1     4  1.00

> <Gold.Chemscore.Hbond.Weighted>
-7.9250

> <Gold.Chemscore.Metal.Weighted>
-0.0000

> <Gold.Chemscore.Lipo.Weighted>
-7.8113

> <Gold.Chemscore.Internal_Hbond.Weighted>
0.0000

> <Gold.Chemscore.DEClash.Weighted>
0.2715

> <Gold.Chemscore.DEInternal.Weighted>
2.4808

> <Gold.Chemscore.Rot.Weighted>
5.2370

> <Gold.Chemscore.Internal.Correction.Weighted>
   9.000000E+99

> <Gold.Protein.RotatedTorsions>
[ 6907 6896 6895 6894 ] final  -58.41 input  -60.11 | X-H torsion
[ 7974 7965 7964 7962 ] final   26.38 input  175.53 | X-H torsion
[ 8008 7997 7996 7995 ] final  105.15 input   59.86 | X-H torsion
[ 10167 10162 10161 10158 ] final   92.87 input  -65.29 | X-H torsion
[ 10718 10713 10712 10709 ] final  -15.51 input   66.30 | X-H torsion
[ 10763 10752 10751 10750 ] final -132.75 input  -60.55 | X-H torsion
[ 11005 11000 10999 10996 ] final -159.87 input  -57.11 | X-H torsion

> <Gold.Protein.ActiveResidues>
 VAL166  LYS551  ARG553  GLY616  TRP617  ASP618  TYR619  PRO620  LYS621  CYS622 
 ASP623  PHE694  ASN695  SER759  ASP760  ASP761  ALA762  ILE779  LEU786  VAL792 
 PHE793  MET794  SER795  GLU796  ALA797  LYS798  CYS799  TRP800  GLU811  SER814 

> <Gold.Protein.RotatedAtoms>
  150.8009  134.7102  159.6599 H   0  0  0  0  0  0  0  0  0  0  0  0  # atno 6907 bound_to 6896
  152.4126  134.6095  160.0031 H   0  0  0  0  0  0  0  0  0  0  0  0  # atno 6908 bound_to 6896
  151.6333  133.3293  159.3150 H   0  0  0  0  0  0  0  0  0  0  0  0  # atno 6909 bound_to 6896
  146.1840  139.7336  142.8880 H   0  0  0  0  0  0  0  0  0  0  0  0  # atno 7974 bound_to 7965
  156.1634  140.3135  155.8847 H   0  0  0  0  0  0  0  0  0  0  0  0  # atno 8008 bound_to 7997
  155.3735  140.0483  157.3062 H   0  0  0  0  0  0  0  0  0  0  0  0  # atno 8009 bound_to 7997
  154.5169  140.2184  155.9060 H   0  0  0  0  0  0  0  0  0  0  0  0  # atno 8010 bound_to 7997
  139.8235  144.6720  150.9489 H   0  0  0  0  0  0  0  0  0  0  0  0  # atno 10167 bound_to 10162
  156.6007  130.4823  149.6241 H   0  0  0  0  0  0  0  0  0  0  0  0  # atno 10718 bound_to 10713
  154.8740  135.3788  154.4461 H   0  0  0  0  0  0  0  0  0  0  0  0  # atno 10763 bound_to 10752
  153.5141  135.7029  153.5770 H   0  0  0  0  0  0  0  0  0  0  0  0  # atno 10764 bound_to 10752
  153.4046  135.3939  155.1976 H   0  0  0  0  0  0  0  0  0  0  0  0  # atno 10765 bound_to 10752
  140.6378  134.4584  157.5232 H   0  0  0  0  0  0  0  0  0  0  0  0  # atno 11005 bound_to 11000
  145.3992  141.0383  143.3080 LP  0  0  0  0  0  0  0  0  0  0  0  0  # atno 17320 bound_to 7965
  144.8365  139.5542  143.6920 LP  0  0  0  0  0  0  0  0  0  0  0  0  # atno 17321 bound_to 7965
  140.7812  143.4069  151.1057 LP  0  0  0  0  0  0  0  0  0  0  0  0  # atno 17342 bound_to 10162
  139.7727  143.8470  152.3123 LP  0  0  0  0  0  0  0  0  0  0  0  0  # atno 17343 bound_to 10162
  156.2471  130.6885  151.1610 LP  0  0  0  0  0  0  0  0  0  0  0  0  # atno 17370 bound_to 10713
  157.7280  131.0635  150.5839 LP  0  0  0  0  0  0  0  0  0  0  0  0  # atno 17371 bound_to 10713
  139.9092  134.8382  156.1592 LP  0  0  0  0  0  0  0  0  0  0  0  0  # atno 17394 bound_to 11000
  141.0629  133.6833  156.1988 LP  0  0  0  0  0  0  0  0  0  0  0  0  # atno 17395 bound_to 11000

$$$$
