AV-unprocessed.smi:3029|AV-procd|sdf|11529|dock5
  -GOLD-   2272016473D 1   1.00000     0.00000
 Structure written by MMmdl.
 41 42  0  0  0  0  0  0  0  0  3 V2000
  153.4388  136.6098  160.1365 O   0  0  0  0  0  0  0  0  0  0  0  0
  153.9544  137.0212  161.1759 C   0  0  0  0  0  0  0  0  0  0  0  0
  154.1315  136.1599  162.3496 C   0  0  0  0  0  0  0  0  0  0  0  0
  154.7105  136.6121  163.4793 C   0  0  0  0  0  0  0  0  0  0  0  0
  155.1842  137.9800  163.5661 C   0  0  0  0  0  0  0  0  0  0  0  0
  155.8210  138.4710  164.7684 N   0  3  0  0  0  0  0  0  0  0  0  0
  155.8679  137.7447  165.7568 O   0  0  0  0  0  0  0  0  0  0  0  0
  156.2961  139.6021  164.7625 O   0  5  0  0  0  0  0  0  0  0  0  0
  155.0141  138.7715  162.4888 C   0  0  0  0  0  0  0  0  0  0  0  0
  154.3993  138.3074  161.3100 N   0  0  0  0  0  0  0  0  0  0  0  0
  154.2707  139.2646  160.2040 C   0  0  0  0  0  0  0  0  0  0  0  0
  153.7269  140.6138  160.6978 C   0  0  0  0  0  0  0  0  0  0  0  0
  153.4422  141.4691  159.5567 N   0  0  0  0  0  0  0  0  0  0  0  0
  152.0349  141.3986  159.1819 C   0  0  2  0  0  0  0  0  0  0  0  0
  151.8279  140.0171  158.5271 C   0  0  0  0  0  0  0  0  0  0  0  0
  150.4003  139.8453  157.9955 C   0  0  0  0  0  0  0  0  0  0  0  0
  150.0565  140.9640  157.0065 C   0  0  0  0  0  0  0  0  0  0  0  0
  150.2341  142.3424  157.6587 C   0  0  0  0  0  0  0  0  0  0  0  0
  151.6623  142.5594  158.2140 C   0  0  1  0  0  0  0  0  0  0  0  0
  151.7746  143.9647  158.8595 C   0  0  0  0  0  0  0  0  0  0  0  0
  150.7501  144.1854  159.6841 F   0  0  0  0  0  0  0  0  0  0  0  0
  152.9123  144.1001  159.5406 F   0  0  0  0  0  0  0  0  0  0  0  0
  151.7671  144.9021  157.9113 F   0  0  0  0  0  0  0  0  0  0  0  0
  153.7870  135.1371  162.3062 H   0  0  0  0  0  0  0  0  0  0  0  0
  154.8176  135.9402  164.3182 H   0  0  0  0  0  0  0  0  0  0  0  0
  155.3369  139.8021  162.4499 H   0  0  0  0  0  0  0  0  0  0  0  0
  155.2341  139.4060  159.7102 H   0  0  0  0  0  0  0  0  0  0  0  0
  153.6133  138.8612  159.4317 H   0  0  0  0  0  0  0  0  0  0  0  0
  152.8165  140.4657  161.2801 H   0  0  0  0  0  0  0  0  0  0  0  0
  154.4568  141.0987  161.3473 H   0  0  0  0  0  0  0  0  0  0  0  0
  154.0178  141.1910  158.7746 H   0  0  0  0  0  0  0  0  0  0  0  0
  151.3953  141.4561  160.0648 H   0  0  0  0  0  0  0  0  0  0  0  0
  152.5311  139.8853  157.7029 H   0  0  0  0  0  0  0  0  0  0  0  0
  152.0442  139.2257  159.2461 H   0  0  0  0  0  0  0  0  0  0  0  0
  150.2977  138.8743  157.5102 H   0  0  0  0  0  0  0  0  0  0  0  0
  149.6931  139.8550  158.8259 H   0  0  0  0  0  0  0  0  0  0  0  0
  150.6951  140.8877  156.1255 H   0  0  0  0  0  0  0  0  0  0  0  0
  149.0304  140.8482  156.6564 H   0  0  0  0  0  0  0  0  0  0  0  0
  149.9956  143.1118  156.9240 H   0  0  0  0  0  0  0  0  0  0  0  0
  149.5071  142.4539  158.4640 H   0  0  0  0  0  0  0  0  0  0  0  0
  152.3482  142.5286  157.3655 H   0  0  0  0  0  0  0  0  0  0  0  0
  1  2  2  0  0  0  0
  2 10  1  0  0  0  0
  2  3  1  0  0  0  0
  3  4  2  0  0  0  0
  3 24  1  0  0  0  0
  4  5  1  0  0  0  0
  4 25  1  0  0  0  0
  5  6  1  0  0  0  0
  5  9  2  0  0  0  0
  6  7  2  0  0  0  0
  6  8  1  0  0  0  0
  9 10  1  0  0  0  0
  9 26  1  0  0  0  0
 10 11  1  0  0  0  0
 11 12  1  0  0  0  0
 11 27  1  0  0  0  0
 11 28  1  0  0  0  0
 12 13  1  0  0  0  0
 12 29  1  0  0  0  0
 12 30  1  0  0  0  0
 13 14  1  0  0  0  0
 13 31  1  0  0  0  0
 14 19  1  0  0  0  0
 14 15  1  0  0  0  0
 14 32  1  0  0  0  0
 15 16  1  0  0  0  0
 15 33  1  0  0  0  0
 15 34  1  0  0  0  0
 16 17  1  0  0  0  0
 16 35  1  0  0  0  0
 16 36  1  0  0  0  0
 17 18  1  0  0  0  0
 17 37  1  0  0  0  0
 17 38  1  0  0  0  0
 18 19  1  0  0  0  0
 18 39  1  0  0  0  0
 18 40  1  0  0  0  0
 19 20  1  0  0  0  0
 19 41  1  0  0  0  0
 20 21  1  0  0  0  0
 20 22  1  0  0  0  0
 20 23  1  0  0  0  0
M  CHG  1   6   1
M  CHG  1   8  -1
M  END
> <s_m_source_file>
AV-unprocessed.smi

> <i_m_source_file_index>
3029

> <i_lp_mmshare_version>
43012

> <i_f3d_flags>
0

> <s_epik_input>
Tz1jMVtjSF1bY0hdYyhbTitdKD1PKVtPLV0pW2NIXW4xW0NIMl1bQ0gyXVtOSF1bQ0BASF0yW0NIMl1bQ0gyXVtDSDJdW0NIMl1bQ0BIXTJDKEYpKEYpRg==

> <s_epik_cmdline>
J2VwaWtfcHl0aG9uJywgJy1waCcsICc3LjAnLCAnLXRuJywgJzgnLCAnLW1hJywgJzIwMCcsICctbWV0YWxfYmluZGluZycsICctaW1hZScsICc8aW5maWxlLm1hZT4nLCAnLW9tYWUnLCAnPG91dGZpbGUubWFlPic=

> <r_lp_tautomer_probability>
1

> <r_epik_Ionization_Penalty>
1.65565

> <r_epik_Ionization_Penalty_Charging>
3.32684e-10

> <r_epik_Ionization_Penalty_Neutral>
1.65565

> <r_epik_State_Penalty>
1.75811

> <r_epik_Charging_Adjusted_Penalty>
1.75811

> <i_epik_Tot_Q>
0

> <i_epik_Tot_abs_Q>
2

> <r_epik_Metal_State_Penalty>
1.75811

> <b_epik_Metal_Only>
0

> <s_lp_Force_Field>
OPLS_2005

> <r_lp_Energy>
33.0444

> <b_lp_Chiralities_Consistent>
1

> <s_lp_Variant>
AV-unprocessed.smi:3029-5

> <Gold.Version>
5.8.1

> <Gold.Id.Protein>
6NUR|6NUR_protein|mol2

> <Gold.PLP.Fitness>
45.8302

> <Gold.PLP.PLP>
-44.8689

> <Gold.PLP.part.hbond>
-1.1591

> <Gold.PLP.part.metal>
0.0000

> <Gold.PLP.part.buried>
-7.2497

> <Gold.PLP.part.nonpolar>
-37.0650

> <Gold.PLP.part.repulsive>
0.1078

> <Gold.PLP.ligand.clash>
0.0000

> <Gold.PLP.ligand.torsion>
0.7833

> <Gold.PLP.Chemscore.Hbond>
0.8288

> <Gold.PLP.Chemscore.CHOScore>
0.0000

> <Gold.PLP.Chemscore.Metal>
0.0000

> <Gold.Chemscore.Hbonds>
donor molecule, donor type, donor heavy atom, donor atom, acceptor molecule, acceptor atom, score
      P1  H  6896  6907       L1     1  0.89

> <Gold.PLP.Chemscore.Internal.Correction>
0.0417

> <Gold.Rescore>
     Score         DG    S(hbond)    S(metal)    S(lipo)     H(rot)  DE(clash)    DE(int)     intcor
     12.54     -14.97       0.99        0.00      93.51       1.86       0.01       2.42       ----

> <Gold.Chemscore.Fitness>
12.5353

> <Gold.Chemscore.DG>
-14.9671

> <Gold.Chemscore.ZeroCoef>
-5.4800

> <Gold.Chemscore.Hbond>
0.9893

> <Gold.Chemscore.Metal>
0.0000

> <Gold.Chemscore.Lipo>
93.5065

> <Gold.Chemscore.Internal_Hbond>
0.0000

> <Gold.Chemscore.DEClash>
0.0148

> <Gold.Chemscore.DEInternal>
2.4169

> <Gold.Chemscore.Rot>
1.8584

> <Gold.Chemscore.Internal.Correction>
   9.000000E+99

> <Gold.Chemscore.Hbonds>
donor molecule, donor type, donor heavy atom, donor atom, acceptor molecule, acceptor atom, score
      P1  H  6896  6907       L1     1  0.85

> <Gold.Chemscore.Hbond.Weighted>
-3.3044

> <Gold.Chemscore.Metal.Weighted>
-0.0000

> <Gold.Chemscore.Lipo.Weighted>
-10.9403

> <Gold.Chemscore.Internal_Hbond.Weighted>
0.0000

> <Gold.Chemscore.DEClash.Weighted>
0.0148

> <Gold.Chemscore.DEInternal.Weighted>
2.4169

> <Gold.Chemscore.Rot.Weighted>
4.7576

> <Gold.Chemscore.Internal.Correction.Weighted>
   9.000000E+99

> <Gold.Protein.RotatedTorsions>
[ 6907 6896 6895 6894 ] final   35.33 input  -60.11 | X-H torsion
[ 7974 7965 7964 7962 ] final  -72.99 input  175.53 | X-H torsion
[ 8008 7997 7996 7995 ] final -143.79 input   59.86 | X-H torsion
[ 10167 10162 10161 10158 ] final -103.54 input  -65.29 | X-H torsion
[ 10718 10713 10712 10709 ] final   92.86 input   66.30 | X-H torsion
[ 10763 10752 10751 10750 ] final  -50.42 input  -60.55 | X-H torsion
[ 11005 11000 10999 10996 ] final   12.20 input  -57.11 | X-H torsion

> <Gold.Protein.ActiveResidues>
 VAL166  LYS551  ARG553  GLY616  TRP617  ASP618  TYR619  PRO620  LYS621  CYS622 
 ASP623  PHE694  ASN695  SER759  ASP760  ASP761  ALA762  ILE779  LEU786  VAL792 
 PHE793  MET794  SER795  GLU796  ALA797  LYS798  CYS799  TRP800  GLU811  SER814 

> <Gold.Protein.RotatedAtoms>
  152.1147  134.9249  160.0565 H   0  0  0  0  0  0  0  0  0  0  0  0  # atno 6907 bound_to 6896
  152.0413  133.3974  159.4346 H   0  0  0  0  0  0  0  0  0  0  0  0  # atno 6908 bound_to 6896
  150.6845  134.3332  159.4880 H   0  0  0  0  0  0  0  0  0  0  0  0  # atno 6909 bound_to 6896
  145.6579  140.9262  143.0949 H   0  0  0  0  0  0  0  0  0  0  0  0  # atno 7974 bound_to 7965
  155.5163  140.0587  157.2915 H   0  0  0  0  0  0  0  0  0  0  0  0  # atno 8008 bound_to 7997
  154.4534  140.1960  156.0399 H   0  0  0  0  0  0  0  0  0  0  0  0  # atno 8009 bound_to 7997
  156.0750  140.3255  155.7626 H   0  0  0  0  0  0  0  0  0  0  0  0  # atno 8010 bound_to 7997
  140.2189  143.3690  152.0986 H   0  0  0  0  0  0  0  0  0  0  0  0  # atno 10167 bound_to 10162
  157.6957  131.0458  150.3945 H   0  0  0  0  0  0  0  0  0  0  0  0  # atno 10718 bound_to 10713
  154.1101  135.6550  153.4883 H   0  0  0  0  0  0  0  0  0  0  0  0  # atno 10763 bound_to 10752
  153.0259  135.5245  154.7200 H   0  0  0  0  0  0  0  0  0  0  0  0  # atno 10764 bound_to 10752
  154.6378  135.2984  155.0110 H   0  0  0  0  0  0  0  0  0  0  0  0  # atno 10765 bound_to 10752
  140.4946  134.0806  155.7779 H   0  0  0  0  0  0  0  0  0  0  0  0  # atno 11005 bound_to 11000
  144.7099  139.8411  143.7418 LP  0  0  0  0  0  0  0  0  0  0  0  0  # atno 17320 bound_to 7965
  146.1149  139.4159  143.0264 LP  0  0  0  0  0  0  0  0  0  0  0  0  # atno 17321 bound_to 7965
  139.5151  144.6958  151.5633 LP  0  0  0  0  0  0  0  0  0  0  0  0  # atno 17342 bound_to 10162
  140.6269  143.9151  150.6572 LP  0  0  0  0  0  0  0  0  0  0  0  0  # atno 17343 bound_to 10162
  156.4345  130.3979  149.6738 LP  0  0  0  0  0  0  0  0  0  0  0  0  # atno 17370 bound_to 10713
  156.3943  130.7643  151.2646 LP  0  0  0  0  0  0  0  0  0  0  0  0  # atno 17371 bound_to 10713
  141.1466  133.9043  157.2199 LP  0  0  0  0  0  0  0  0  0  0  0  0  # atno 17394 bound_to 11000
  139.9749  135.0117  156.9605 LP  0  0  0  0  0  0  0  0  0  0  0  0  # atno 17395 bound_to 11000

$$$$
