AV-unprocessed.smi:1703|AV-procd|sdf|6868|dock10
  -GOLD-   22720 8 63D 1   1.00000     0.00000
 Structure written by MMmdl.
 49 51  0  0  0  0  0  0  0  0  2 V2000
  146.9547  135.1214  161.6050 C   0  0  0  0  0  0  0  0  0  0  0  0
  147.8884  135.1380  160.3903 C   0  0  2  0  0  0  0  0  0  0  0  0
  148.5619  136.5097  160.1908 C   0  0  0  0  0  0  0  0  0  0  0  0
  149.4012  136.5422  158.9962 N   0  0  0  0  0  0  0  0  0  0  0  0
  150.0403  137.8522  158.8394 C   0  0  0  0  0  0  0  0  0  0  0  0
  150.7993  138.0859  157.5138 C   0  0  2  0  0  0  0  0  0  0  0  0
  151.4193  136.8591  157.1802 O   0  0  0  0  0  0  0  0  0  0  0  0
  151.8787  139.1910  157.5480 C   0  0  0  0  0  0  0  0  0  0  0  0
  151.3256  140.5491  157.4210 N   0  0  0  0  0  0  0  0  0  0  0  0
  150.4516  141.0673  156.5104 C   0  0  0  0  0  0  0  0  0  0  0  0
  149.8137  140.3342  155.3732 C   0  0  0  0  0  0  0  0  0  0  0  0
  150.7446  139.8515  154.4274 O   0  0  0  0  0  0  0  0  0  0  0  0
  150.2676  142.3795  156.8348 N   0  3  0  0  0  0  0  0  0  0  0  0
  151.0300  142.7028  157.9577 C   0  0  0  0  0  0  0  0  0  0  0  0
  151.1706  143.9004  158.6520 C   0  0  0  0  0  0  0  0  0  0  0  0
  152.0370  143.8887  159.7651 C   0  0  0  0  0  0  0  0  0  0  0  0
  152.7242  142.7185  160.1487 C   0  0  0  0  0  0  0  0  0  0  0  0
  152.5741  141.5102  159.4366 C   0  0  0  0  0  0  0  0  0  0  0  0
  151.7144  141.5309  158.3387 C   0  0  0  0  0  0  0  0  0  0  0  0
  148.5653  136.1826  157.8511 C   0  0  0  0  0  0  0  0  0  0  0  0
  147.8926  134.8086  158.0341 C   0  0  2  0  0  0  0  0  0  0  0  0
  146.9623  134.4596  156.8676 C   0  0  0  0  0  0  0  0  0  0  0  0
  147.1217  134.8240  159.2316 O   0  0  0  0  0  0  0  0  0  0  0  0
  147.4997  135.3477  162.5216 H   0  0  0  0  0  0  0  0  0  0  0  0
  146.4918  134.1418  161.7266 H   0  0  0  0  0  0  0  0  0  0  0  0
  146.1564  135.8564  161.4989 H   0  0  0  0  0  0  0  0  0  0  0  0
  148.6537  134.3715  160.5261 H   0  0  0  0  0  0  0  0  0  0  0  0
  147.7972  137.2859  160.1263 H   0  0  0  0  0  0  0  0  0  0  0  0
  149.1642  136.7394  161.0708 H   0  0  0  0  0  0  0  0  0  0  0  0
  149.3191  138.6517  159.0165 H   0  0  0  0  0  0  0  0  0  0  0  0
  150.7829  137.9615  159.6318 H   0  0  0  0  0  0  0  0  0  0  0  0
  150.0780  138.3021  156.7253 H   0  0  0  0  0  0  0  0  0  0  0  0
  150.7552  136.2645  156.8664 H   0  0  0  0  0  0  0  0  0  0  0  0
  152.4428  139.1637  158.4784 H   0  0  0  0  0  0  0  0  0  0  0  0
  152.5952  139.0470  156.7387 H   0  0  0  0  0  0  0  0  0  0  0  0
  149.2414  139.4934  155.7663 H   0  0  0  0  0  0  0  0  0  0  0  0
  149.1111  140.9977  154.8685 H   0  0  0  0  0  0  0  0  0  0  0  0
  150.5843  138.9296  154.2923 H   0  0  0  0  0  0  0  0  0  0  0  0
  150.6461  144.7985  158.3597 H   0  0  0  0  0  0  0  0  0  0  0  0
  152.1779  144.7953  160.3357 H   0  0  0  0  0  0  0  0  0  0  0  0
  153.3801  142.7480  161.0069 H   0  0  0  0  0  0  0  0  0  0  0  0
  153.1045  140.6191  159.7384 H   0  0  0  0  0  0  0  0  0  0  0  0
  147.7963  136.9427  157.7051 H   0  0  0  0  0  0  0  0  0  0  0  0
  149.1460  136.1600  156.9347 H   0  0  0  0  0  0  0  0  0  0  0  0
  148.6585  134.0353  158.1152 H   0  0  0  0  0  0  0  0  0  0  0  0
  147.5088  134.4304  155.9247 H   0  0  0  0  0  0  0  0  0  0  0  0
  146.1615  135.1930  156.7686 H   0  0  0  0  0  0  0  0  0  0  0  0
  146.5023  133.4824  157.0158 H   0  0  0  0  0  0  0  0  0  0  0  0
  149.6610  143.0039  156.3182 H   0  0  0  0  0  0  0  0  0  0  0  0
  1  2  1  0  0  0  0
  1 24  1  0  0  0  0
  1 25  1  0  0  0  0
  1 26  1  0  0  0  0
  2 23  1  0  0  0  0
  2  3  1  0  0  0  0
  2 27  1  0  0  0  0
  3  4  1  0  0  0  0
  3 28  1  0  0  0  0
  3 29  1  0  0  0  0
  4  5  1  0  0  0  0
  4 20  1  0  0  0  0
  5  6  1  0  0  0  0
  5 30  1  0  0  0  0
  5 31  1  0  0  0  0
  6  7  1  0  0  0  0
  6  8  1  0  0  0  0
  6 32  1  0  0  0  0
  7 33  1  0  0  0  0
  8  9  1  0  0  0  0
  8 34  1  0  0  0  0
  8 35  1  0  0  0  0
  9 19  1  0  0  0  0
  9 10  1  0  0  0  0
 10 11  1  0  0  0  0
 10 13  2  0  0  0  0
 11 12  1  0  0  0  0
 11 36  1  0  0  0  0
 11 37  1  0  0  0  0
 12 38  1  0  0  0  0
 13 14  1  0  0  0  0
 13 49  1  0  0  0  0
 14 19  2  0  0  0  0
 14 15  1  0  0  0  0
 15 16  2  0  0  0  0
 15 39  1  0  0  0  0
 16 17  1  0  0  0  0
 16 40  1  0  0  0  0
 17 18  2  0  0  0  0
 17 41  1  0  0  0  0
 18 19  1  0  0  0  0
 18 42  1  0  0  0  0
 20 21  1  0  0  0  0
 20 43  1  0  0  0  0
 20 44  1  0  0  0  0
 21 22  1  0  0  0  0
 21 23  1  0  0  0  0
 21 45  1  0  0  0  0
 22 46  1  0  0  0  0
 22 47  1  0  0  0  0
 22 48  1  0  0  0  0
M  CHG  1  13   1
M  END
> <s_m_source_file>
AV-unprocessed.smi

> <i_m_source_file_index>
1703

> <i_lp_mmshare_version>
43012

> <i_f3d_flags>
0

> <s_epik_input>
W0NIM11bQ0BASF0xW0NIMl1OKFtDSDJdW0NASF0oTzEpW0NIM10pW0NIMl1bQ0BIXShbT0hdKVtDSDJdbihjKG4yKVtDSDJdW09IXSljKGMyMylbY0hdW2NIXVtjSF1bY0hdMw==

> <s_epik_cmdline>
J2VwaWtfcHl0aG9uJywgJy1waCcsICc3LjAnLCAnLXRuJywgJzgnLCAnLW1hJywgJzIwMCcsICctbWV0YWxfYmluZGluZycsICctaW1hZScsICc8aW5maWxlLm1hZT4nLCAnLW9tYWUnLCAnPG91dGZpbGUubWFlPic=

> <r_epik_Ionization_Penalty>
1.7682

> <r_epik_Ionization_Penalty_Charging>
1.55298

> <r_epik_Ionization_Penalty_Neutral>
0.215215

> <r_epik_State_Penalty>
1.83821

> <r_epik_Charging_Adjusted_Penalty>
3.39119

> <i_epik_Tot_Q>
1

> <i_epik_Tot_abs_Q>
1

> <r_epik_Metal_State_Penalty>
5.89206

> <b_epik_Metal_Only>
0

> <s_lp_Force_Field>
OPLS_2005

> <r_lp_Energy>
30.4523

> <b_lp_Chiralities_Consistent>
1

> <s_lp_Variant>
AV-unprocessed.smi:1703-16

> <Gold.Version>
5.8.1

> <Gold.Id.Protein>
6NUR|6NUR_protein|mol2

> <Gold.PLP.Fitness>
48.2076

> <Gold.PLP.PLP>
-38.7663

> <Gold.PLP.part.hbond>
-2.4491

> <Gold.PLP.part.metal>
0.0000

> <Gold.PLP.part.buried>
-5.4426

> <Gold.PLP.part.nonpolar>
-31.9865

> <Gold.PLP.part.repulsive>
0.0519

> <Gold.PLP.ligand.clash>
0.0000

> <Gold.PLP.ligand.torsion>
0.5562

> <Gold.PLP.Chemscore.Hbond>
3.4936

> <Gold.PLP.Chemscore.CHOScore>
0.0000

> <Gold.PLP.Chemscore.Metal>
0.0000

> <Gold.Chemscore.Hbonds>
donor molecule, donor type, donor heavy atom, donor atom, acceptor molecule, acceptor atom, score
      L1  H    13    49       P1  8028  2.00
      P1  H  6896  6908       L1     4  0.18
      P1  H  7989  7998       L1    12  1.00

> <Gold.PLP.Chemscore.Internal.Correction>
0.0731

> <Gold.Rescore>
     Score         DG    S(hbond)    S(metal)    S(lipo)     H(rot)  DE(clash)    DE(int)     intcor
     16.31     -16.88       1.98        0.00     105.55       2.96       0.19       0.38       ----

> <Gold.Chemscore.Fitness>
16.3121

> <Gold.Chemscore.DG>
-16.8845

> <Gold.Chemscore.ZeroCoef>
-5.4800

> <Gold.Chemscore.Hbond>
1.9824

> <Gold.Chemscore.Metal>
0.0000

> <Gold.Chemscore.Lipo>
105.5487

> <Gold.Chemscore.Internal_Hbond>
0.0000

> <Gold.Chemscore.DEClash>
0.1893

> <Gold.Chemscore.DEInternal>
0.3831

> <Gold.Chemscore.Rot>
2.9555

> <Gold.Chemscore.Internal.Correction>
   9.000000E+99

> <Gold.Chemscore.Hbonds>
donor molecule, donor type, donor heavy atom, donor atom, acceptor molecule, acceptor atom, score
      L1  H    13    49       P1  8028  0.96
      P1  H  6896  6908       L1     4  0.02
      P1  H  7989  7998       L1    12  0.98

> <Gold.Chemscore.Hbond.Weighted>
-6.6213

> <Gold.Chemscore.Metal.Weighted>
-0.0000

> <Gold.Chemscore.Lipo.Weighted>
-12.3492

> <Gold.Chemscore.Internal_Hbond.Weighted>
0.0000

> <Gold.Chemscore.DEClash.Weighted>
0.1893

> <Gold.Chemscore.DEInternal.Weighted>
0.3831

> <Gold.Chemscore.Rot.Weighted>
7.5660

> <Gold.Chemscore.Internal.Correction.Weighted>
   9.000000E+99

> <Gold.Protein.RotatedTorsions>
[ 6907 6896 6895 6894 ] final -160.45 input  -60.11 | X-H torsion
[ 7974 7965 7964 7962 ] final   58.20 input  175.53 | X-H torsion
[ 8008 7997 7996 7995 ] final -119.51 input   59.86 | X-H torsion
[ 10167 10162 10161 10158 ] final  165.83 input  -65.29 | X-H torsion
[ 10718 10713 10712 10709 ] final   52.85 input   66.30 | X-H torsion
[ 10763 10752 10751 10750 ] final  173.47 input  -60.55 | X-H torsion
[ 11005 11000 10999 10996 ] final -107.92 input  -57.11 | X-H torsion

> <Gold.Protein.ActiveResidues>
 VAL166  LYS551  ARG553  GLY616  TRP617  ASP618  TYR619  PRO620  LYS621  CYS622 
 ASP623  PHE694  ASN695  SER759  ASP760  ASP761  ALA762  ILE779  LEU786  VAL792 
 PHE793  MET794  SER795  GLU796  ALA797  LYS798  CYS799  TRP800  GLU811  SER814 

> <Gold.Protein.RotatedAtoms>
  151.3493  133.3932  159.2678 H   0  0  0  0  0  0  0  0  0  0  0  0  # atno 6907 bound_to 6896
  150.9814  134.9169  159.7857 H   0  0  0  0  0  0  0  0  0  0  0  0  # atno 6908 bound_to 6896
  152.5218  134.3456  159.9285 H   0  0  0  0  0  0  0  0  0  0  0  0  # atno 6909 bound_to 6896
  145.9207  139.3727  143.0480 H   0  0  0  0  0  0  0  0  0  0  0  0  # atno 7974 bound_to 7965
  155.1169  140.0398  157.2739 H   0  0  0  0  0  0  0  0  0  0  0  0  # atno 8008 bound_to 7997
  154.6643  140.2598  155.7049 H   0  0  0  0  0  0  0  0  0  0  0  0  # atno 8009 bound_to 7997
  156.2632  140.2810  156.1127 H   0  0  0  0  0  0  0  0  0  0  0  0  # atno 8010 bound_to 7997
  139.4913  144.4091  151.9320 H   0  0  0  0  0  0  0  0  0  0  0  0  # atno 10167 bound_to 10162
  157.5113  130.8503  149.8439 H   0  0  0  0  0  0  0  0  0  0  0  0  # atno 10718 bound_to 10713
  154.4405  135.2762  155.1851 H   0  0  0  0  0  0  0  0  0  0  0  0  # atno 10763 bound_to 10752
  154.3719  135.6106  153.5748 H   0  0  0  0  0  0  0  0  0  0  0  0  # atno 10764 bound_to 10752
  152.9840  135.5859  154.4732 H   0  0  0  0  0  0  0  0  0  0  0  0  # atno 10765 bound_to 10752
  141.0929  133.9023  157.2033 H   0  0  0  0  0  0  0  0  0  0  0  0  # atno 11005 bound_to 11000
  145.8553  140.9506  143.0728 LP  0  0  0  0  0  0  0  0  0  0  0  0  # atno 17320 bound_to 7965
  144.6752  140.0460  143.7480 LP  0  0  0  0  0  0  0  0  0  0  0  0  # atno 17321 bound_to 7965
  140.3532  144.3064  150.5946 LP  0  0  0  0  0  0  0  0  0  0  0  0  # atno 17342 bound_to 10162
  140.5467  143.2213  151.7995 LP  0  0  0  0  0  0  0  0  0  0  0  0  # atno 17343 bound_to 10162
  156.0291  130.3770  150.1738 LP  0  0  0  0  0  0  0  0  0  0  0  0  # atno 17370 bound_to 10713
  156.9928  130.9898  151.3410 LP  0  0  0  0  0  0  0  0  0  0  0  0  # atno 17371 bound_to 10713
  139.9759  135.0114  156.9629 LP  0  0  0  0  0  0  0  0  0  0  0  0  # atno 17394 bound_to 11000
  140.5210  134.0908  155.7292 LP  0  0  0  0  0  0  0  0  0  0  0  0  # atno 17395 bound_to 11000

$$$$
