AV-unprocessed.smi:658|AV-procd|sdf|3237|dock6
  -GOLD-   22720 0183D 1   1.00000     0.00000
 Structure written by MMmdl.
 37 37  0  0  0  0  0  0  0  0  3 V2000
  147.3602  141.9871  154.2058 C   0  0  0  0  0  0  0  0  0  0  0  0
  148.7662  141.3781  154.3705 C   0  0  1  0  0  0  0  0  0  0  0  0
  149.3857  141.8152  155.6440 N   0  3  0  0  0  0  0  0  0  0  0  0
  148.6390  141.4656  156.8692 C   0  0  0  0  0  0  0  0  0  0  0  0
  148.7810  142.5703  157.9212 C   0  0  0  0  0  0  0  0  0  0  0  0
  147.4658  142.8452  158.6635 C   0  0  0  0  0  0  0  0  0  0  0  0
  147.7254  143.9399  160.1254 S   0  0  0  0  0  0  0  0  0  0  0  0
  146.7124  145.1475  159.7792 N   0  5  0  0  0  0  0  0  0  0  0  0
  147.2919  143.1746  161.3044 O   0  0  0  0  0  0  0  0  0  0  0  0
  149.1327  144.3618  160.0608 O   0  0  0  0  0  0  0  0  0  0  0  0
  148.7522  139.8306  154.2633 C   0  0  1  0  0  0  0  0  0  0  0  0
  148.0535  139.3224  152.9892 C   0  0  0  0  0  0  0  0  0  0  0  0
  150.0772  139.2366  154.4204 N   0  0  0  0  0  0  0  0  0  0  0  0
  150.4657  137.9187  154.2704 C   0  0  0  0  0  0  0  0  0  0  0  0
  151.8112  137.8594  154.4926 C   0  0  0  0  0  0  0  0  0  0  0  0
  152.1676  139.2080  154.7697 C   0  0  0  0  0  0  0  0  0  0  0  0
  151.1309  140.0283  154.7204 N   0  0  0  0  0  0  0  0  0  0  0  0
  146.8796  141.6177  153.2996 H   0  0  0  0  0  0  0  0  0  0  0  0
  147.3971  143.0732  154.1254 H   0  0  0  0  0  0  0  0  0  0  0  0
  146.7126  141.7401  155.0477 H   0  0  0  0  0  0  0  0  0  0  0  0
  149.3884  141.7487  153.5544 H   0  0  0  0  0  0  0  0  0  0  0  0
  150.3177  141.4302  155.7037 H   0  0  0  0  0  0  0  0  0  0  0  0
  147.5863  141.3211  156.6232 H   0  0  0  0  0  0  0  0  0  0  0  0
  149.0109  140.5250  157.2750 H   0  0  0  0  0  0  0  0  0  0  0  0
  149.5501  142.2872  158.6412 H   0  0  0  0  0  0  0  0  0  0  0  0
  149.1278  143.4860  157.4411 H   0  0  0  0  0  0  0  0  0  0  0  0
  146.7646  143.3505  157.9992 H   0  0  0  0  0  0  0  0  0  0  0  0
  146.9889  141.9254  159.0030 H   0  0  0  0  0  0  0  0  0  0  0  0
  146.8801  145.4371  158.8080 H   0  0  0  0  0  0  0  0  0  0  0  0
  148.1451  139.4660  155.0943 H   0  0  0  0  0  0  0  0  0  0  0  0
  147.0318  139.6979  152.9285 H   0  0  0  0  0  0  0  0  0  0  0  0
  148.0015  138.2330  152.9817 H   0  0  0  0  0  0  0  0  0  0  0  0
  148.5735  139.6343  152.0833 H   0  0  0  0  0  0  0  0  0  0  0  0
  149.7625  137.1380  154.0207 H   0  0  0  0  0  0  0  0  0  0  0  0
  152.4453  136.9857  154.4605 H   0  0  0  0  0  0  0  0  0  0  0  0
  153.1418  139.6130  155.0005 H   0  0  0  0  0  0  0  0  0  0  0  0
  149.4576  142.8222  155.6182 H   0  0  0  0  0  0  0  0  0  0  0  0
  1  2  1  0  0  0  0
  1 18  1  0  0  0  0
  1 19  1  0  0  0  0
  1 20  1  0  0  0  0
  2  3  1  0  0  0  0
  2 11  1  0  0  0  0
  2 21  1  0  0  0  0
  3  4  1  0  0  0  0
  3 22  1  0  0  0  0
  3 37  1  0  0  0  0
  4  5  1  0  0  0  0
  4 23  1  0  0  0  0
  4 24  1  0  0  0  0
  5  6  1  0  0  0  0
  5 25  1  0  0  0  0
  5 26  1  0  0  0  0
  6  7  1  0  0  0  0
  6 27  1  0  0  0  0
  6 28  1  0  0  0  0
  7  8  1  0  0  0  0
  7  9  2  0  0  0  0
  7 10  2  0  0  0  0
  8 29  1  0  0  0  0
 11 12  1  0  0  0  0
 11 13  1  0  0  0  0
 11 30  1  0  0  0  0
 12 31  1  0  0  0  0
 12 32  1  0  0  0  0
 12 33  1  0  0  0  0
 13 17  1  0  0  0  0
 13 14  1  0  0  0  0
 14 15  2  0  0  0  0
 14 34  1  0  0  0  0
 15 16  1  0  0  0  0
 15 35  1  0  0  0  0
 16 17  2  0  0  0  0
 16 36  1  0  0  0  0
M  CHG  1   3   1
M  CHG  1   8  -1
M  END
> <s_m_source_file>
AV-unprocessed.smi

> <i_m_source_file_index>
658

> <i_lp_mmshare_version>
43012

> <i_f3d_flags>
0

> <s_epik_input>
bjFbY0hdW2NIXVtjSF1uMVtDQEBIXShbQ0gzXSlbQ0BIXShbQ0gzXSlbTkhdW0NIMl1bQ0gyXVtDSDJdUyg9TykoPU8pW05IMl0=

> <s_epik_cmdline>
J2VwaWtfcHl0aG9uJywgJy1waCcsICc3LjAnLCAnLXRuJywgJzgnLCAnLW1hJywgJzIwMCcsICctbWV0YWxfYmluZGluZycsICctaW1hZScsICc8aW5maWxlLm1hZT4nLCAnLW9tYWUnLCAnPG91dGZpbGUubWFlPic=

> <r_lp_tautomer_probability>
1

> <r_epik_Ionization_Penalty>
4.63642

> <r_epik_Ionization_Penalty_Charging>
4.63641

> <r_epik_Ionization_Penalty_Neutral>
1.08396e-05

> <r_epik_State_Penalty>
4.63466

> <r_epik_Charging_Adjusted_Penalty>
9.27106

> <i_epik_Tot_Q>
0

> <i_epik_Tot_abs_Q>
2

> <r_epik_Metal_State_Penalty>
0.890424

> <b_epik_Metal_Only>
1

> <s_lp_Force_Field>
OPLS_2005

> <r_lp_Energy>
1.41706

> <b_lp_Chiralities_Consistent>
1

> <s_lp_Variant>
AV-unprocessed.smi:658-8

> <Gold.Version>
5.8.1

> <Gold.Id.Protein>
6NUR|6NUR_protein|mol2

> <Gold.PLP.Fitness>
45.8143

> <Gold.PLP.PLP>
-30.2096

> <Gold.PLP.part.hbond>
-4.8194

> <Gold.PLP.part.metal>
0.0000

> <Gold.PLP.part.buried>
1.0880

> <Gold.PLP.part.nonpolar>
-26.7056

> <Gold.PLP.part.repulsive>
0.3864

> <Gold.PLP.ligand.clash>
0.0000

> <Gold.PLP.ligand.torsion>
0.8019

> <Gold.PLP.Chemscore.Hbond>
4.6506

> <Gold.PLP.Chemscore.CHOScore>
1.0000

> <Gold.PLP.Chemscore.Metal>
0.0000

> <Gold.Chemscore.Hbonds>
donor molecule, donor type, donor heavy atom, donor atom, acceptor molecule, acceptor atom, score
      L1  H     3    37       P1  8028  2.00
      L1  H     8    29       P1  8029  1.00
      P1  H  6933  6944       L1     9  0.73
      P1  H  6934  6946       L1     9  0.05
      P1  H  7989  7998       L1    17  0.80
      L1  C    14    34       P1  7948  1.00

> <Gold.PLP.Chemscore.Internal.Correction>
0.2567

> <Gold.Rescore>
     Score         DG    S(hbond)    S(metal)    S(lipo)     H(rot)  DE(clash)    DE(int)     intcor
      9.73     -13.20       2.68        0.00      56.08       3.04       1.15       2.32       ----

> <Gold.Chemscore.Fitness>
9.7264

> <Gold.Chemscore.DG>
-13.2021

> <Gold.Chemscore.ZeroCoef>
-5.4800

> <Gold.Chemscore.Hbond>
2.6784

> <Gold.Chemscore.Metal>
0.0000

> <Gold.Chemscore.Lipo>
56.0776

> <Gold.Chemscore.Internal_Hbond>
0.0000

> <Gold.Chemscore.DEClash>
1.1529

> <Gold.Chemscore.DEInternal>
2.3228

> <Gold.Chemscore.Rot>
3.0409

> <Gold.Chemscore.Internal.Correction>
   9.000000E+99

> <Gold.Chemscore.Hbonds>
donor molecule, donor type, donor heavy atom, donor atom, acceptor molecule, acceptor atom, score
      L1  H     3    37       P1  8028  0.97
      L1  H     8    29       P1  8029  0.99
      P1  H  6933  6944       L1     9  0.14
      P1  H  6934  6946       L1     9  0.05
      P1  H  7989  7998       L1    17  0.10

> <Gold.Chemscore.Hbond.Weighted>
-8.9459

> <Gold.Chemscore.Metal.Weighted>
-0.0000

> <Gold.Chemscore.Lipo.Weighted>
-6.5611

> <Gold.Chemscore.Internal_Hbond.Weighted>
0.0000

> <Gold.Chemscore.DEClash.Weighted>
1.1529

> <Gold.Chemscore.DEInternal.Weighted>
2.3228

> <Gold.Chemscore.Rot.Weighted>
7.7848

> <Gold.Chemscore.Internal.Correction.Weighted>
   9.000000E+99

> <Gold.Protein.RotatedTorsions>
[ 6907 6896 6895 6894 ] final  125.37 input  -60.11 | X-H torsion
[ 7974 7965 7964 7962 ] final -127.08 input  175.53 | X-H torsion
[ 8008 7997 7996 7995 ] final -125.75 input   59.86 | X-H torsion
[ 10167 10162 10161 10158 ] final    4.07 input  -65.29 | X-H torsion
[ 10718 10713 10712 10709 ] final -174.75 input   66.30 | X-H torsion
[ 10763 10752 10751 10750 ] final  -42.68 input  -60.55 | X-H torsion
[ 11005 11000 10999 10996 ] final  160.25 input  -57.11 | X-H torsion

> <Gold.Protein.ActiveResidues>
 VAL166  LYS551  ARG553  GLY616  TRP617  ASP618  TYR619  PRO620  LYS621  CYS622 
 ASP623  PHE694  ASN695  SER759  ASP760  ASP761  ALA762  ILE779  LEU786  VAL792 
 PHE793  MET794  SER795  GLU796  ALA797  LYS798  CYS799  TRP800  GLU811  SER814 

> <Gold.Protein.RotatedAtoms>
  152.3998  133.6801  159.6306 H   0  0  0  0  0  0  0  0  0  0  0  0  # atno 6907 bound_to 6896
  150.7891  133.8811  159.3295 H   0  0  0  0  0  0  0  0  0  0  0  0  # atno 6908 bound_to 6896
  151.6579  135.0995  160.0225 H   0  0  0  0  0  0  0  0  0  0  0  0  # atno 6909 bound_to 6896
  144.9807  140.7637  143.4614 H   0  0  0  0  0  0  0  0  0  0  0  0  # atno 7974 bound_to 7965
  155.2184  140.0421  157.2944 H   0  0  0  0  0  0  0  0  0  0  0  0  # atno 8008 bound_to 7997
  154.5965  140.2441  155.7820 H   0  0  0  0  0  0  0  0  0  0  0  0  # atno 8009 bound_to 7997
  156.2294  140.2943  156.0158 H   0  0  0  0  0  0  0  0  0  0  0  0  # atno 8010 bound_to 7997
  140.6553  143.7442  150.7644 H   0  0  0  0  0  0  0  0  0  0  0  0  # atno 10167 bound_to 10162
  156.7897  130.9513  151.3120 H   0  0  0  0  0  0  0  0  0  0  0  0  # atno 10718 bound_to 10713
  153.9831  135.6714  153.4751 H   0  0  0  0  0  0  0  0  0  0  0  0  # atno 10763 bound_to 10752
  153.0739  135.4959  154.8360 H   0  0  0  0  0  0  0  0  0  0  0  0  # atno 10764 bound_to 10752
  154.7153  135.3105  154.9095 H   0  0  0  0  0  0  0  0  0  0  0  0  # atno 10765 bound_to 10752
  140.2041  134.8316  157.3049 H   0  0  0  0  0  0  0  0  0  0  0  0  # atno 11005 bound_to 11000
  145.2425  139.2066  143.4985 LP  0  0  0  0  0  0  0  0  0  0  0  0  # atno 17320 bound_to 7965
  146.3407  140.2323  142.8593 LP  0  0  0  0  0  0  0  0  0  0  0  0  # atno 17321 bound_to 7965
  140.1101  143.4707  152.2375 LP  0  0  0  0  0  0  0  0  0  0  0  0  # atno 17342 bound_to 10162
  139.5775  144.7494  151.3727 LP  0  0  0  0  0  0  0  0  0  0  0  0  # atno 17343 bound_to 10162
  157.6607  130.8963  149.9823 LP  0  0  0  0  0  0  0  0  0  0  0  0  # atno 17370 bound_to 10713
  156.1167  130.3647  149.9957 LP  0  0  0  0  0  0  0  0  0  0  0  0  # atno 17371 bound_to 10713
  140.2022  134.4240  155.7656 LP  0  0  0  0  0  0  0  0  0  0  0  0  # atno 17394 bound_to 11000
  141.2227  133.7078  156.8203 LP  0  0  0  0  0  0  0  0  0  0  0  0  # atno 17395 bound_to 11000

$$$$
