AV-unprocessed.smi:1962|AV-procd|sdf|7923|dock3
  -GOLD-   2272010 93D 1   1.00000     0.00000
 Structure written by MMmdl.
 36 37  0  0  0  0  0  0  0  0  1 V2000
  144.0782  136.9028  152.6231 C   0  0  0  0  0  0  0  0  0  0  0  0
  145.3354  136.0407  152.4470 C   0  0  1  0  0  0  0  0  0  0  0  0
  145.5327  135.6277  150.9734 C   0  0  0  0  0  0  0  0  0  0  0  0
  145.4277  134.1923  150.7766 N   0  0  0  0  0  0  0  0  0  0  0  0
  144.3859  133.4784  150.2233 C   0  0  0  0  0  0  0  0  0  0  0  0
  144.7319  132.1581  150.2630 C   0  0  0  0  0  0  0  0  0  0  0  0
  146.0216  132.1647  150.8641 C   0  0  0  0  0  0  0  0  0  0  0  0
  146.4369  133.3837  151.1677 N   0  0  0  0  0  0  0  0  0  0  0  0
  146.4947  136.7854  152.9361 N   0  0  0  0  0  0  0  0  0  0  0  0
  146.5887  137.4064  154.1270 C   0  0  0  0  0  0  0  0  0  0  0  0
  145.6674  137.4383  154.9434 O   0  0  0  0  0  0  0  0  0  0  0  0
  147.8950  138.0539  154.4200 C   0  0  0  0  0  0  0  0  0  0  0  0
  148.0580  139.3197  154.1923 N   0  0  0  0  0  0  0  0  0  0  0  0
  149.2488  139.9646  154.4574 N   0  0  0  0  0  0  0  0  0  0  0  0
  149.1835  141.4233  154.3955 C   0  0  0  0  0  0  0  0  0  0  0  0
  150.4223  139.3387  154.7237 C   0  0  0  0  0  0  0  0  0  0  0  0
  151.4730  139.9308  154.9701 O   0  0  0  0  0  0  0  0  0  0  0  0
  150.4064  137.8084  154.6736 C   0  0  0  0  0  0  0  0  0  0  0  0
  149.0194  137.2269  155.0119 C   0  0  0  0  0  0  0  0  0  0  0  0
  143.1869  136.3667  152.2959 H   0  0  0  0  0  0  0  0  0  0  0  0
  144.1435  137.8246  152.0442 H   0  0  0  0  0  0  0  0  0  0  0  0
  143.9319  137.1752  153.6689 H   0  0  0  0  0  0  0  0  0  0  0  0
  145.1927  135.1389  153.0451 H   0  0  0  0  0  0  0  0  0  0  0  0
  144.7761  136.1033  150.3482 H   0  0  0  0  0  0  0  0  0  0  0  0
  146.5005  135.9720  150.6045 H   0  0  0  0  0  0  0  0  0  0  0  0
  143.4931  133.9640  149.8576 H   0  0  0  0  0  0  0  0  0  0  0  0
  144.1515  131.3157  149.9172 H   0  0  0  0  0  0  0  0  0  0  0  0
  146.6644  131.3260  151.0868 H   0  0  0  0  0  0  0  0  0  0  0  0
  147.3040  136.8103  152.3324 H   0  0  0  0  0  0  0  0  0  0  0  0
  149.8362  141.8031  153.6079 H   0  0  0  0  0  0  0  0  0  0  0  0
  149.4994  141.8632  155.3425 H   0  0  0  0  0  0  0  0  0  0  0  0
  148.1733  141.7802  154.1875 H   0  0  0  0  0  0  0  0  0  0  0  0
  150.6921  137.5113  153.6638 H   0  0  0  0  0  0  0  0  0  0  0  0
  151.1623  137.4025  155.3465 H   0  0  0  0  0  0  0  0  0  0  0  0
  148.8931  137.1708  156.0936 H   0  0  0  0  0  0  0  0  0  0  0  0
  148.9780  136.2008  154.6441 H   0  0  0  0  0  0  0  0  0  0  0  0
  1  2  1  0  0  0  0
  1 20  1  0  0  0  0
  1 21  1  0  0  0  0
  1 22  1  0  0  0  0
  2  3  1  0  0  0  0
  2  9  1  0  0  0  0
  2 23  1  0  0  0  0
  3  4  1  0  0  0  0
  3 24  1  0  0  0  0
  3 25  1  0  0  0  0
  4  8  1  0  0  0  0
  4  5  1  0  0  0  0
  5  6  2  0  0  0  0
  5 26  1  0  0  0  0
  6  7  1  0  0  0  0
  6 27  1  0  0  0  0
  7  8  2  0  0  0  0
  7 28  1  0  0  0  0
  9 10  1  0  0  0  0
  9 29  1  0  0  0  0
 10 11  2  0  0  0  0
 10 12  1  0  0  0  0
 12 19  1  0  0  0  0
 12 13  2  0  0  0  0
 13 14  1  0  0  0  0
 14 15  1  0  0  0  0
 14 16  1  0  0  0  0
 15 30  1  0  0  0  0
 15 31  1  0  0  0  0
 15 32  1  0  0  0  0
 16 17  2  0  0  0  0
 16 18  1  0  0  0  0
 18 19  1  0  0  0  0
 18 33  1  0  0  0  0
 18 34  1  0  0  0  0
 19 35  1  0  0  0  0
 19 36  1  0  0  0  0
M  END
> <s_m_source_file>
AV-unprocessed.smi

> <i_m_source_file_index>
1962

> <i_lp_mmshare_version>
43012

> <i_f3d_flags>
0

> <s_epik_input>
bjFbY0hdW2NIXVtjSF1uMVtDSDJdW0NAQEhdKFtDSDNdKVtOSF1DKD1PKUMyPU5OKFtDSDNdKUMoPU8pW0NIMl1bQ0gyXTI=

> <s_epik_cmdline>
J2VwaWtfcHl0aG9uJywgJy1waCcsICc3LjAnLCAnLXRuJywgJzgnLCAnLW1hJywgJzIwMCcsICctbWV0YWxfYmluZGluZycsICctaW1hZScsICc8aW5maWxlLm1hZT4nLCAnLW9tYWUnLCAnPG91dGZpbGUubWFlPic=

> <r_lp_tautomer_probability>
1

> <r_epik_Ionization_Penalty>
9.43868e-05

> <r_epik_Ionization_Penalty_Charging>
0

> <r_epik_Ionization_Penalty_Neutral>
9.43868e-05

> <r_epik_State_Penalty>
-0

> <r_epik_Charging_Adjusted_Penalty>
0

> <i_epik_Tot_Q>
0

> <i_epik_Tot_abs_Q>
0

> <r_epik_Metal_State_Penalty>
0.0732556

> <b_epik_Metal_Only>
0

> <s_epik_Chemistry_Notes>
This compound has an imine and may undergo hydrolysis.

> <s_lp_Force_Field>
OPLS_2005

> <r_lp_Energy>
16.0721

> <b_lp_Chiralities_Consistent>
1

> <s_lp_Variant>
AV-unprocessed.smi:1962-2

> <Gold.Version>
5.8.1

> <Gold.Id.Protein>
6NUR|6NUR_protein|mol2

> <Gold.PLP.Fitness>
40.1365

> <Gold.PLP.PLP>
-33.0860

> <Gold.PLP.part.hbond>
-2.0000

> <Gold.PLP.part.metal>
0.0000

> <Gold.PLP.part.buried>
-3.9309

> <Gold.PLP.part.nonpolar>
-26.7816

> <Gold.PLP.part.repulsive>
0.4450

> <Gold.PLP.ligand.clash>
0.0000

> <Gold.PLP.ligand.torsion>
2.4900

> <Gold.PLP.Chemscore.Hbond>
2.0000

> <Gold.PLP.Chemscore.CHOScore>
1.9989

> <Gold.PLP.Chemscore.Metal>
0.0000

> <Gold.Chemscore.Hbonds>
donor molecule, donor type, donor heavy atom, donor atom, acceptor molecule, acceptor atom, score
      L1  H     9    29       P1  7948  1.00
      P1  H  7989  7998       L1    17  1.00
      L1  C     5    26       P1 10186  0.97
      L1  C     7    28       P1 10747  0.98

> <Gold.PLP.Chemscore.Internal.Correction>
0.0339

> <Gold.Rescore>
     Score         DG    S(hbond)    S(metal)    S(lipo)     H(rot)  DE(clash)    DE(int)     intcor
     11.18     -14.73       1.71        0.00      63.62       1.53       0.04       3.51       ----

> <Gold.Chemscore.Fitness>
11.1828

> <Gold.Chemscore.DG>
-14.7347

> <Gold.Chemscore.ZeroCoef>
-5.4800

> <Gold.Chemscore.Hbond>
1.7114

> <Gold.Chemscore.Metal>
0.0000

> <Gold.Chemscore.Lipo>
63.6204

> <Gold.Chemscore.Internal_Hbond>
0.0000

> <Gold.Chemscore.DEClash>
0.0392

> <Gold.Chemscore.DEInternal>
3.5127

> <Gold.Chemscore.Rot>
1.5254

> <Gold.Chemscore.Internal.Correction>
   9.000000E+99

> <Gold.Chemscore.Hbonds>
donor molecule, donor type, donor heavy atom, donor atom, acceptor molecule, acceptor atom, score
      L1  H     9    29       P1  7948  0.96
      P1  H  7989  7998       L1    17  0.25

> <Gold.Chemscore.Hbond.Weighted>
-5.7161

> <Gold.Chemscore.Metal.Weighted>
-0.0000

> <Gold.Chemscore.Lipo.Weighted>
-7.4436

> <Gold.Chemscore.Internal_Hbond.Weighted>
0.0000

> <Gold.Chemscore.DEClash.Weighted>
0.0392

> <Gold.Chemscore.DEInternal.Weighted>
3.5127

> <Gold.Chemscore.Rot.Weighted>
3.9051

> <Gold.Chemscore.Internal.Correction.Weighted>
   9.000000E+99

> <Gold.Protein.RotatedTorsions>
[ 6907 6896 6895 6894 ] final  -79.24 input  -60.11 | X-H torsion
[ 7974 7965 7964 7962 ] final  120.53 input  175.53 | X-H torsion
[ 8008 7997 7996 7995 ] final -166.55 input   59.86 | X-H torsion
[ 10167 10162 10161 10158 ] final  -11.27 input  -65.29 | X-H torsion
[ 10718 10713 10712 10709 ] final  118.26 input   66.30 | X-H torsion
[ 10763 10752 10751 10750 ] final  -69.14 input  -60.55 | X-H torsion
[ 11005 11000 10999 10996 ] final -131.79 input  -57.11 | X-H torsion

> <Gold.Protein.ActiveResidues>
 VAL166  LYS551  ARG553  GLY616  TRP617  ASP618  TYR619  PRO620  LYS621  CYS622 
 ASP623  PHE694  ASN695  SER759  ASP760  ASP761  ALA762  ILE779  LEU786  VAL792 
 PHE793  MET794  SER795  GLU796  ALA797  LYS798  CYS799  TRP800  GLU811  SER814 

> <Gold.Protein.RotatedAtoms>
  150.6954  134.4152  159.5179 H   0  0  0  0  0  0  0  0  0  0  0  0  # atno 6907 bound_to 6896
  152.1904  134.8674  160.0527 H   0  0  0  0  0  0  0  0  0  0  0  0  # atno 6908 bound_to 6896
  151.9632  133.3667  159.4080 H   0  0  0  0  0  0  0  0  0  0  0  0  # atno 6909 bound_to 6896
  145.1300  139.3333  143.4670 H   0  0  0  0  0  0  0  0  0  0  0  0  # atno 7974 bound_to 7965
  155.8654  140.0984  157.1586 H   0  0  0  0  0  0  0  0  0  0  0  0  # atno 8008 bound_to 7997
  154.3993  140.1357  156.4074 H   0  0  0  0  0  0  0  0  0  0  0  0  # atno 8009 bound_to 7997
  155.7811  140.3458  155.5300 H   0  0  0  0  0  0  0  0  0  0  0  0  # atno 8010 bound_to 7997
  140.7134  143.5658  150.9146 H   0  0  0  0  0  0  0  0  0  0  0  0  # atno 10167 bound_to 10162
  157.6042  131.1046  150.7731 H   0  0  0  0  0  0  0  0  0  0  0  0  # atno 10718 bound_to 10713
  154.3991  135.6035  153.5887 H   0  0  0  0  0  0  0  0  0  0  0  0  # atno 10763 bound_to 10752
  152.9788  135.5902  154.4205 H   0  0  0  0  0  0  0  0  0  0  0  0  # atno 10764 bound_to 10752
  154.4001  135.2843  155.2080 H   0  0  0  0  0  0  0  0  0  0  0  0  # atno 10765 bound_to 10752
  140.9227  134.1423  157.4300 H   0  0  0  0  0  0  0  0  0  0  0  0  # atno 11005 bound_to 11000
  146.3514  140.1295  142.8597 LP  0  0  0  0  0  0  0  0  0  0  0  0  # atno 17320 bound_to 7965
  145.0646  140.9112  143.4918 LP  0  0  0  0  0  0  0  0  0  0  0  0  # atno 17321 bound_to 7965
  139.9384  143.6411  152.3060 LP  0  0  0  0  0  0  0  0  0  0  0  0  # atno 17342 bound_to 10162
  139.6887  144.7649  151.1478 LP  0  0  0  0  0  0  0  0  0  0  0  0  # atno 17343 bound_to 10162
  156.8123  130.4956  149.5354 LP  0  0  0  0  0  0  0  0  0  0  0  0  # atno 17370 bound_to 10713
  156.1123  130.6049  151.0067 LP  0  0  0  0  0  0  0  0  0  0  0  0  # atno 17371 bound_to 10713
  139.8779  134.9977  156.5862 LP  0  0  0  0  0  0  0  0  0  0  0  0  # atno 17394 bound_to 11000
  140.7966  133.8539  155.8691 LP  0  0  0  0  0  0  0  0  0  0  0  0  # atno 17395 bound_to 11000

$$$$
