AV-unprocessed.smi:1545|AV-procd|sdf|6216|dock4
  -GOLD-   22720 6383D 1   1.00000     0.00000
 Structure written by MMmdl.
 41 43  0  0  0  0  0  0  0  0  1 V2000
  149.8121  138.6889  153.4815 O   0  0  0  0  0  0  0  0  0  0  0  0
  150.7597  138.9018  154.5057 C   0  0  0  0  0  0  0  0  0  0  0  0
  150.2343  139.9352  155.5126 C   0  0  0  0  0  0  0  0  0  0  0  0
  150.9813  139.9144  156.7569 N   0  0  0  0  0  0  0  0  0  0  0  0
  151.3078  140.9135  157.6666 C   0  0  0  0  0  0  0  0  0  0  0  0
  150.9518  142.1894  157.5325 N   0  0  0  0  0  0  0  0  0  0  0  0
  151.5005  142.7671  158.6618 C   0  0  0  0  0  0  0  0  0  0  0  0
  151.4771  144.1073  159.1099 C   0  0  0  0  0  0  0  0  0  0  0  0
  152.1167  144.4689  160.3136 C   0  0  0  0  0  0  0  0  0  0  0  0
  152.7873  143.4981  161.0857 C   0  0  0  0  0  0  0  0  0  0  0  0
  152.8232  142.1568  160.6585 C   0  0  0  0  0  0  0  0  0  0  0  0
  152.1843  141.8003  159.4557 C   0  0  0  0  0  0  0  0  0  0  0  0
  152.0321  140.6005  158.7667 N   0  0  0  0  0  0  0  0  0  0  0  0
  152.5455  139.2952  159.1610 C   0  0  0  0  0  0  0  0  0  0  0  0
  153.8261  139.3970  160.0132 C   0  0  2  0  0  0  0  0  0  0  0  0
  154.9187  139.7802  159.2004 O   0  0  0  0  0  0  0  0  0  0  0  0
  154.0946  138.1051  160.7686 C   0  0  0  0  0  0  0  0  0  0  0  0
  154.4087  136.9266  160.0577 C   0  0  0  0  0  0  0  0  0  0  0  0
  154.6683  135.7277  160.7497 C   0  0  0  0  0  0  0  0  0  0  0  0
  154.6184  135.7009  162.1566 C   0  0  0  0  0  0  0  0  0  0  0  0
  154.3096  136.8739  162.8715 C   0  0  0  0  0  0  0  0  0  0  0  0
  154.2648  136.8500  164.2245 F   0  0  0  0  0  0  0  0  0  0  0  0
  154.0489  138.0731  162.1801 C   0  0  0  0  0  0  0  0  0  0  0  0
  150.0609  139.2034  152.7290 H   0  0  0  0  0  0  0  0  0  0  0  0
  151.0214  137.9595  154.9893 H   0  0  0  0  0  0  0  0  0  0  0  0
  151.6659  139.2824  154.0343 H   0  0  0  0  0  0  0  0  0  0  0  0
  150.3490  140.9344  155.0922 H   0  0  0  0  0  0  0  0  0  0  0  0
  149.1693  139.7973  155.7043 H   0  0  0  0  0  0  0  0  0  0  0  0
  151.2898  138.9912  157.0242 H   0  0  0  0  0  0  0  0  0  0  0  0
  150.9654  144.8579  158.5258 H   0  0  0  0  0  0  0  0  0  0  0  0
  152.0919  145.4963  160.6457 H   0  0  0  0  0  0  0  0  0  0  0  0
  153.2742  143.7837  162.0065 H   0  0  0  0  0  0  0  0  0  0  0  0
  153.3349  141.4119  161.2494 H   0  0  0  0  0  0  0  0  0  0  0  0
  151.7651  138.7699  159.7131 H   0  0  0  0  0  0  0  0  0  0  0  0
  152.7295  138.7040  158.2634 H   0  0  0  0  0  0  0  0  0  0  0  0
  153.6983  140.1934  160.7474 H   0  0  0  0  0  0  0  0  0  0  0  0
  155.6408  139.1958  159.3722 H   0  0  0  0  0  0  0  0  0  0  0  0
  154.4528  136.9375  158.9784 H   0  0  0  0  0  0  0  0  0  0  0  0
  154.9072  134.8285  160.2012 H   0  0  0  0  0  0  0  0  0  0  0  0
  154.8188  134.7815  162.6866 H   0  0  0  0  0  0  0  0  0  0  0  0
  153.8164  138.9684  162.7379 H   0  0  0  0  0  0  0  0  0  0  0  0
  1  2  1  0  0  0  0
  1 24  1  0  0  0  0
  2  3  1  0  0  0  0
  2 25  1  0  0  0  0
  2 26  1  0  0  0  0
  3  4  1  0  0  0  0
  3 27  1  0  0  0  0
  3 28  1  0  0  0  0
  4  5  1  0  0  0  0
  4 29  1  0  0  0  0
  5 13  1  0  0  0  0
  5  6  2  0  0  0  0
  6  7  1  0  0  0  0
  7 12  2  0  0  0  0
  7  8  1  0  0  0  0
  8  9  2  0  0  0  0
  8 30  1  0  0  0  0
  9 10  1  0  0  0  0
  9 31  1  0  0  0  0
 10 11  2  0  0  0  0
 10 32  1  0  0  0  0
 11 12  1  0  0  0  0
 11 33  1  0  0  0  0
 12 13  1  0  0  0  0
 13 14  1  0  0  0  0
 14 15  1  0  0  0  0
 14 34  1  0  0  0  0
 14 35  1  0  0  0  0
 15 16  1  0  0  0  0
 15 17  1  0  0  0  0
 15 36  1  0  0  0  0
 16 37  1  0  0  0  0
 17 23  1  0  0  0  0
 17 18  2  0  0  0  0
 18 19  1  0  0  0  0
 18 38  1  0  0  0  0
 19 20  2  0  0  0  0
 19 39  1  0  0  0  0
 20 21  1  0  0  0  0
 20 40  1  0  0  0  0
 21 22  1  0  0  0  0
 21 23  2  0  0  0  0
 23 41  1  0  0  0  0
M  END
> <s_m_source_file>
AV-unprocessed.smi

> <i_m_source_file_index>
1545

> <i_lp_mmshare_version>
43012

> <i_f3d_flags>
0

> <s_epik_input>
W09IXVtDSDJdW0NIMl1bTkhdYyhuMSluKGMoYzEyKVtjSF1bY0hdW2NIXVtjSF0yKVtDSDJdW0NASF0oW09IXSljM1tjSF1bY0hdW2NIXWMoRilbY0hdMw==

> <s_epik_cmdline>
J2VwaWtfcHl0aG9uJywgJy1waCcsICc3LjAnLCAnLXRuJywgJzgnLCAnLW1hJywgJzIwMCcsICctbWV0YWxfYmluZGluZycsICctaW1hZScsICc8aW5maWxlLm1hZT4nLCAnLW9tYWUnLCAnPG91dGZpbGUubWFlPic=

> <r_epik_Ionization_Penalty>
1.30972

> <r_epik_Ionization_Penalty_Charging>
0

> <r_epik_Ionization_Penalty_Neutral>
1.30972

> <r_epik_State_Penalty>
1.38438

> <r_epik_Charging_Adjusted_Penalty>
1.38438

> <i_epik_Tot_Q>
0

> <i_epik_Tot_abs_Q>
0

> <r_epik_Metal_State_Penalty>
0.00551145

> <b_epik_Metal_Only>
0

> <s_lp_Force_Field>
OPLS_2005

> <r_lp_Energy>
9.7293

> <b_lp_Chiralities_Consistent>
1

> <s_lp_Variant>
AV-unprocessed.smi:1545-3

> <Gold.Version>
5.8.1

> <Gold.Id.Protein>
6NUR|6NUR_protein|mol2

> <Gold.PLP.Fitness>
54.4770

> <Gold.PLP.PLP>
-49.9734

> <Gold.PLP.part.hbond>
-3.0000

> <Gold.PLP.part.metal>
0.0000

> <Gold.PLP.part.buried>
-7.3565

> <Gold.PLP.part.nonpolar>
-39.4749

> <Gold.PLP.part.repulsive>
0.1352

> <Gold.PLP.ligand.clash>
0.0000

> <Gold.PLP.ligand.torsion>
0.7691

> <Gold.PLP.Chemscore.Hbond>
2.0000

> <Gold.PLP.Chemscore.CHOScore>
0.0000

> <Gold.PLP.Chemscore.Metal>
0.0000

> <Gold.Chemscore.Hbonds>
donor molecule, donor type, donor heavy atom, donor atom, acceptor molecule, acceptor atom, score
      L1  H     1    24       P1  7957  1.00
      P1  H  7997  8008       L1    16  1.00

> <Gold.PLP.Chemscore.Internal.Correction>
0.0419

> <Gold.Rescore>
     Score         DG    S(hbond)    S(metal)    S(lipo)     H(rot)  DE(clash)    DE(int)     intcor
     16.91     -18.92       1.82        0.00     130.35       3.08       0.06       1.95       ----

> <Gold.Chemscore.Fitness>
16.9064

> <Gold.Chemscore.DG>
-18.9178

> <Gold.Chemscore.ZeroCoef>
-5.4800

> <Gold.Chemscore.Hbond>
1.8187

> <Gold.Chemscore.Metal>
0.0000

> <Gold.Chemscore.Lipo>
130.3506

> <Gold.Chemscore.Internal_Hbond>
0.0000

> <Gold.Chemscore.DEClash>
0.0609

> <Gold.Chemscore.DEInternal>
1.9505

> <Gold.Chemscore.Rot>
3.0812

> <Gold.Chemscore.Internal.Correction>
   9.000000E+99

> <Gold.Chemscore.Hbonds>
donor molecule, donor type, donor heavy atom, donor atom, acceptor molecule, acceptor atom, score
      L1  H     1    24       P1  7957  0.78
      P1  H  7997  8008       L1    16  0.34

> <Gold.Chemscore.Hbond.Weighted>
-6.0746

> <Gold.Chemscore.Metal.Weighted>
-0.0000

> <Gold.Chemscore.Lipo.Weighted>
-15.2510

> <Gold.Chemscore.Internal_Hbond.Weighted>
0.0000

> <Gold.Chemscore.DEClash.Weighted>
0.0609

> <Gold.Chemscore.DEInternal.Weighted>
1.9505

> <Gold.Chemscore.Rot.Weighted>
7.8878

> <Gold.Chemscore.Internal.Correction.Weighted>
   9.000000E+99

> <Gold.Protein.RotatedTorsions>
[ 6907 6896 6895 6894 ] final -160.22 input  -60.11 | X-H torsion
[ 7974 7965 7964 7962 ] final  -36.13 input  175.53 | X-H torsion
[ 8008 7997 7996 7995 ] final -114.50 input   59.86 | X-H torsion
[ 10167 10162 10161 10158 ] final   -9.07 input  -65.29 | X-H torsion
[ 10718 10713 10712 10709 ] final  134.99 input   66.30 | X-H torsion
[ 10763 10752 10751 10750 ] final -100.77 input  -60.55 | X-H torsion
[ 11005 11000 10999 10996 ] final  -48.41 input  -57.11 | X-H torsion

> <Gold.Protein.ActiveResidues>
 VAL166  LYS551  ARG553  GLY616  TRP617  ASP618  TYR619  PRO620  LYS621  CYS622 
 ASP623  PHE694  ASN695  SER759  ASP760  ASP761  ALA762  ILE779  LEU786  VAL792 
 PHE793  MET794  SER795  GLU796  ALA797  LYS798  CYS799  TRP800  GLU811  SER814 

> <Gold.Protein.RotatedAtoms>
  151.3457  133.3945  159.2675 H   0  0  0  0  0  0  0  0  0  0  0  0  # atno 6907 bound_to 6896
  150.9841  134.9191  159.7872 H   0  0  0  0  0  0  0  0  0  0  0  0  # atno 6908 bound_to 6896
  152.5226  134.3422  159.9273 H   0  0  0  0  0  0  0  0  0  0  0  0  # atno 6909 bound_to 6896
  146.0687  140.6242  142.8962 H   0  0  0  0  0  0  0  0  0  0  0  0  # atno 7974 bound_to 7965
  155.0373  140.0392  157.2496 H   0  0  0  0  0  0  0  0  0  0  0  0  # atno 8008 bound_to 7997
  154.7246  140.2718  155.6487 H   0  0  0  0  0  0  0  0  0  0  0  0  # atno 8009 bound_to 7997
  156.2826  140.2696  156.1928 H   0  0  0  0  0  0  0  0  0  0  0  0  # atno 8010 bound_to 7997
  140.7077  143.5898  150.8905 H   0  0  0  0  0  0  0  0  0  0  0  0  # atno 10167 bound_to 10162
  157.4616  131.1074  150.9913 H   0  0  0  0  0  0  0  0  0  0  0  0  # atno 10718 bound_to 10713
  154.7605  135.4923  153.9456 H   0  0  0  0  0  0  0  0  0  0  0  0  # atno 10763 bound_to 10752
  153.1246  135.6739  153.9286 H   0  0  0  0  0  0  0  0  0  0  0  0  # atno 10764 bound_to 10752
  153.9008  135.3110  155.3427 H   0  0  0  0  0  0  0  0  0  0  0  0  # atno 10765 bound_to 10752
  141.0699  133.6682  156.3437 H   0  0  0  0  0  0  0  0  0  0  0  0  # atno 11005 bound_to 11000
  144.7218  140.4399  143.7002 LP  0  0  0  0  0  0  0  0  0  0  0  0  # atno 17320 bound_to 7965
  145.6430  139.1553  143.2905 LP  0  0  0  0  0  0  0  0  0  0  0  0  # atno 17321 bound_to 7965
  139.9624  143.6149  152.2998 LP  0  0  0  0  0  0  0  0  0  0  0  0  # atno 17342 bound_to 10162
  139.6706  144.7661  151.1790 LP  0  0  0  0  0  0  0  0  0  0  0  0  # atno 17343 bound_to 10162
  157.0708  130.5863  149.5402 LP  0  0  0  0  0  0  0  0  0  0  0  0  # atno 17370 bound_to 10713
  156.0031  130.5114  150.7735 LP  0  0  0  0  0  0  0  0  0  0  0  0  # atno 17371 bound_to 10713
  140.5696  134.5854  157.5454 LP  0  0  0  0  0  0  0  0  0  0  0  0  # atno 17394 bound_to 11000
  139.9513  134.7613  156.0443 LP  0  0  0  0  0  0  0  0  0  0  0  0  # atno 17395 bound_to 11000

$$$$
