#       Name:                AV-unprocessed.smi:193
#       Creating user name   scv26
#       Creation time:       Thu Mar 26 19:33:29 2020


#       File generated by GOLD software.
#

@<TRIPOS>MOLECULE
AV-unprocessed.smi:193
    69    73     1
SMALL
NO_CHARGES


@<TRIPOS>ATOM
      1 ****        -3.5861  -3.4528   2.7727 C.3            1 S1                 0.0000
      2 ****        -3.0918  -2.1316   2.1615 C.3            1 S1                 0.0000
      3 ****        -1.5497  -2.1378   2.1030 C.3            1 S1                 0.0000
      4 ****        -0.9819  -1.2316   1.1023 N.pl3          1 S1                 0.0000
      5 ****         0.2910  -1.4553   0.6827 C.ar           1 S1                 0.0000
      6 ****         1.1752  -2.0357   1.5370 N.ar           1 S1                 0.0000
      7 ****         2.4387  -2.2511   1.1593 C.ar           1 S1                 0.0000
      8 ****         3.0197  -1.9692  -0.0077 N.ar           1 S1                 0.0000
      9 ****         2.1371  -1.3965  -0.8748 C.ar           1 S1                 0.0000
     10 ****         0.7658  -1.1126  -0.6168 C.ar           1 S1                 0.0000
     11 ****         0.1804  -0.5518  -1.7469 N.2            1 S1                 0.0000
     12 ****         1.1523  -0.4940  -2.6156 C.2            1 S1                 0.0000
     13 ****         2.3664  -0.9649  -2.1697 N.pl3          1 S1                 0.0000
     14 ****         3.6136  -1.0034  -2.9180 C.3            1 S1                 0.0000
     15 ****         4.4859   0.2664  -2.7504 C.3            1 S1                 0.0000
     16 ****         4.8684   0.3539  -1.3888 O.3            1 S1                 0.0000
     17 ****         5.7635   0.1567  -3.6064 C.3            1 S1                 0.0000
     18 ****         6.5752   1.4643  -3.6103 C.3            1 S1                 0.0000
     19 ****         5.7555   2.5442  -4.0400 O.3            1 S1                 0.0000
     20 ****         4.6625   2.7861  -3.1630 C.3            1 S1                 0.0000
     21 ****         3.7316   1.5611  -3.1261 C.3            1 S1                 0.0000
     22 ****        -1.5806   0.0658   0.7905 C.3            1 S1                 0.0000
     23 ****        -2.1532   0.7846   2.0184 C.3            1 S1                 0.0000
     24 ****        -3.5475   0.3597   2.2866 N.4            1 S1                 1.0000
     25 ****        -4.3126   1.4156   2.9909 C.3            1 S1                 0.0000
     26 ****        -5.8044   1.3618   2.7488 C.3            1 S1                 0.0000
     27 ****        -4.9751   2.4401   2.0863 C.3            1 S1                 0.0000
     28 ****        -4.8097   2.4558   0.5772 C.3            1 S1                 0.0000
     29 ****        -3.6382  -0.9451   2.9868 C.3            1 S1                 0.0000
     30 ****        -3.2191  -3.5810   3.7917 H              1 S1                 0.0000
     31 ****        -3.2485  -4.3087   2.1874 H              1 S1                 0.0000
     32 ****        -4.6754  -3.4930   2.8026 H              1 S1                 0.0000
     33 ****        -3.4941  -2.0852   1.1481 H              1 S1                 0.0000
     34 ****        -1.1289  -1.9154   3.0846 H              1 S1                 0.0000
     35 ****        -1.2188  -3.1468   1.8509 H              1 S1                 0.0000
     36 ****         3.0768  -2.7130   1.8983 H              1 S1                 0.0000
     37 ****         1.0121  -0.0932  -3.6092 H              1 S1                 0.0000
     38 ****         4.1707  -1.8907  -2.6127 H              1 S1                 0.0000
     39 ****         3.3670  -1.1491  -3.9705 H              1 S1                 0.0000
     40 ****         5.4165   1.1156  -1.2781 H              1 S1                 0.0000
     41 ****         6.3866  -0.6688  -3.2597 H              1 S1                 0.0000
     42 ****         5.4893  -0.0804  -4.6353 H              1 S1                 0.0000
     43 ****         6.9880   1.6760  -2.6226 H              1 S1                 0.0000
     44 ****         7.4212   1.3746  -4.2918 H              1 S1                 0.0000
     45 ****         5.0287   3.0319  -2.1652 H              1 S1                 0.0000
     46 ****         4.1141   3.6580  -3.5196 H              1 S1                 0.0000
     47 ****         3.2786   1.4402  -4.1108 H              1 S1                 0.0000
     48 ****         2.9119   1.7501  -2.4320 H              1 S1                 0.0000
     49 ****        -0.8195   0.7228   0.3684 H              1 S1                 0.0000
     50 ****        -2.3402  -0.0538   0.0170 H              1 S1                 0.0000
     51 ****        -1.5186   0.6703   2.8989 H              1 S1                 0.0000
     52 ****        -2.1597   1.8513   1.7914 H              1 S1                 0.0000
     53 ****        -3.9313   1.7062   3.9685 H              1 S1                 0.0000
     54 ****        -6.1960   0.5659   2.1177 H              1 S1                 0.0000
     55 ****        -6.4567   1.6683   3.5642 H              1 S1                 0.0000
     56 ****        -5.0689   3.4371   2.5122 H              1 S1                 0.0000
     57 ****        -4.8186   1.4470   0.1637 H              1 S1                 0.0000
     58 ****        -3.8697   2.9369   0.3066 H              1 S1                 0.0000
     59 ****        -5.6260   3.0163   0.1214 H              1 S1                 0.0000
     60 ****        -4.6912  -1.1315   3.2017 H              1 S1                 0.0000
     61 ****        -3.1390  -0.8847   3.9553 H              1 S1                 0.0000
     62 ****        -3.9953   0.2457   1.3885 H              1 S1                 0.0000
     63 ****         0.8782  -2.3031   2.4536 LP             1 S1                 0.0000
     64 ****         3.9794  -2.1542  -0.2195 LP             1 S1                 0.0000
     65 ****        -0.7684  -0.2597  -1.8664 LP             1 S1                 0.0000
     66 ****         5.3761  -0.4673  -1.1280 LP             1 S1                 0.0000
     67 ****         4.0540   0.4386  -0.8148 LP             1 S1                 0.0000
     68 ****         5.3958   2.3310  -4.9484 LP             1 S1                 0.0000
     69 ****         6.3156   3.3712  -4.0889 LP             1 S1                 0.0000
@<TRIPOS>BOND
    1    1    2 1     
    2    1   30 1     
    3    1   31 1     
    4    1   32 1     
    5    2   29 1     
    6    2    3 1     
    7    2   33 1     
    8    3    4 1     
    9    3   34 1     
   10    3   35 1     
   11    4    5 1     
   12    4   22 1     
   13    5   10 ar    
   14    5    6 ar    
   15    6    7 ar    
   16    7    8 ar    
   17    7   36 1     
   18    8    9 ar    
   19    9   13 1     
   20    9   10 ar    
   21   10   11 1     
   22   11   12 2     
   23   12   13 1     
   24   12   37 1     
   25   13   14 1     
   26   14   15 1     
   27   14   38 1     
   28   14   39 1     
   29   15   21 1     
   30   15   16 1     
   31   15   17 1     
   32   16   40 1     
   33   17   18 1     
   34   17   41 1     
   35   17   42 1     
   36   18   19 1     
   37   18   43 1     
   38   18   44 1     
   39   19   20 1     
   40   20   21 1     
   41   20   45 1     
   42   20   46 1     
   43   21   47 1     
   44   21   48 1     
   45   22   23 1     
   46   22   49 1     
   47   22   50 1     
   48   23   24 1     
   49   23   51 1     
   50   23   52 1     
   51   24   25 1     
   52   24   29 1     
   53   24   62 1     
   54   25   27 1     
   55   25   26 1     
   56   25   53 1     
   57   26   27 1     
   58   26   54 1     
   59   26   55 1     
   60   27   28 1     
   61   27   56 1     
   62   28   57 1     
   63   28   58 1     
   64   28   59 1     
   65   29   60 1     
   66   29   61 1     
   67    6   63 1     
   68    8   64 1     
   69   11   65 1     
   70   16   66 1     
   71   16   67 1     
   72   19   68 1     
   73   19   69 1     
@<TRIPOS>SUBSTRUCTURE
      1 S1             1
@<TRIPOS>SET
LONE_PAIRS      STATIC     ATOMS    <user>   **** ""
7 63 64 65 66 67 68 69
DONOR_HYDROGENS      STATIC     ATOMS    <user>   **** ""
2 40 62
ATOM$BLUE        STATIC     ATOMS    COLORGROUP SYSTEM
7 63 64 65 66 67 68 69
ATOM$RED        STATIC     ATOMS    COLORGROUP SYSTEM
2 40 62
