#       Name:                AV-unprocessed.smi:2803
#       Creating user name   scv26
#       Creation time:       Fri Mar 27 15:24:21 2020


#       File generated by GOLD software.
#

@<TRIPOS>MOLECULE
AV-unprocessed.smi:2803
    48    49     1
SMALL
NO_CHARGES


@<TRIPOS>ATOM
      1 ****        -2.8077  -0.8505   2.8628 C.3            1 S1                 0.0000
      2 ****        -2.6027   0.2624   1.8164 C.3            1 S1                 0.0000
      3 ****        -3.4023   1.4462   2.1835 C.1            1 S1                 0.0000
      4 ****        -4.0305   2.3749   2.4703 N.1            1 S1                 0.0000
      5 ****        -1.1821   0.6113   1.7475 N.am           1 S1                 0.0000
      6 ****        -0.4213   1.2136   2.6785 C.2            1 S1                 0.0000
      7 ****        -0.8492   1.5471   3.7820 O.2            1 S1                 0.0000
      8 ****         1.0478   1.5055   2.3253 C.3            1 S1                 0.0000
      9 ****         1.4171   1.2057   0.9369 N.am           1 S1                 0.0000
     10 ****         1.4455   2.1573  -0.0534 C.2            1 S1                 0.0000
     11 ****         1.7439   1.6473  -1.1970 N.2            1 S1                 0.0000
     12 ****         1.9149   0.3195  -0.9244 N.am           1 S1                 0.0000
     13 ****         2.2531  -0.6280  -2.0173 C.3            1 S1                 0.0000
     14 ****         3.5970  -1.3213  -1.7056 C.3            1 S1                 0.0000
     15 ****         2.3947   0.0894  -3.3827 C.3            1 S1                 0.0000
     16 ****         1.1363  -1.6858  -2.1528 C.3            1 S1                 0.0000
     17 ****         1.7215   0.0373   0.3786 C.2            1 S1                 0.0000
     18 ****         1.7810  -1.0556   0.9409 O.2            1 S1                 0.0000
     19 ****        -3.1382  -0.2240   0.4723 C.3            1 S1                 0.0000
     20 ****        -2.3088  -1.0620  -0.4758 C.3            1 S1                 0.0000
     21 ****        -2.6672   0.3614  -0.8417 C.3            1 S1                 0.0000
     22 ****        -3.8539  -1.1541   2.9131 H              1 S1                 0.0000
     23 ****        -2.5209  -0.5284   3.8640 H              1 S1                 0.0000
     24 ****        -2.2196  -1.7359   2.6187 H              1 S1                 0.0000
     25 ****        -0.7247   0.3779   0.8784 H              1 S1                 0.0000
     26 ****         1.2585   2.5524   2.5505 H              1 S1                 0.0000
     27 ****         1.6820   0.9207   2.9929 H              1 S1                 0.0000
     28 ****         1.2220   3.1978   0.1879 H              1 S1                 0.0000
     29 ****         3.8966  -1.9844  -2.5179 H              1 S1                 0.0000
     30 ****         3.5490  -1.9295  -0.8024 H              1 S1                 0.0000
     31 ****         4.3950  -0.5905  -1.5690 H              1 S1                 0.0000
     32 ****         3.1852   0.8408  -3.3647 H              1 S1                 0.0000
     33 ****         1.4681   0.5834  -3.6784 H              1 S1                 0.0000
     34 ****         2.6450  -0.6171  -4.1749 H              1 S1                 0.0000
     35 ****         1.3395  -2.3692  -2.9782 H              1 S1                 0.0000
     36 ****         0.1710  -1.2170  -2.3473 H              1 S1                 0.0000
     37 ****         1.0323  -2.2960  -1.2559 H              1 S1                 0.0000
     38 ****        -4.1967  -0.4771   0.5060 H              1 S1                 0.0000
     39 ****        -1.2742  -1.2685  -0.2098 H              1 S1                 0.0000
     40 ****        -2.8164  -1.8607  -1.0124 H              1 S1                 0.0000
     41 ****        -3.4129   0.5063  -1.6206 H              1 S1                 0.0000
     42 ****        -1.8669   1.0987  -0.8245 H              1 S1                 0.0000
     43 ****        -4.5733   3.1773   2.7180 LP             1 S1                 0.0000
     44 ****        -1.8044   1.3728   4.0214 LP             1 S1                 0.0000
     45 ****        -0.2421   1.9926   4.4399 LP             1 S1                 0.0000
     46 ****         1.8302   2.1132  -2.0777 LP             1 S1                 0.0000
     47 ****         1.5889  -1.1254   1.9199 LP             1 S1                 0.0000
     48 ****         2.0214  -1.8740   0.4190 LP             1 S1                 0.0000
@<TRIPOS>BOND
    1    1    2 1     
    2    1   22 1     
    3    1   23 1     
    4    1   24 1     
    5    2    3 1     
    6    2    5 1     
    7    2   19 1     
    8    3    4 3     
    9    5    6 am    
   10    5   25 1     
   11    6    7 2     
   12    6    8 1     
   13    8    9 1     
   14    8   26 1     
   15    8   27 1     
   16    9   17 am    
   17    9   10 1     
   18   10   11 2     
   19   10   28 1     
   20   11   12 1     
   21   12   13 1     
   22   12   17 am    
   23   13   14 1     
   24   13   15 1     
   25   13   16 1     
   26   14   29 1     
   27   14   30 1     
   28   14   31 1     
   29   15   32 1     
   30   15   33 1     
   31   15   34 1     
   32   16   35 1     
   33   16   36 1     
   34   16   37 1     
   35   17   18 2     
   36   19   21 1     
   37   19   20 1     
   38   19   38 1     
   39   20   21 1     
   40   20   39 1     
   41   20   40 1     
   42   21   41 1     
   43   21   42 1     
   44    4   43 1     
   45    7   44 1     
   46    7   45 1     
   47   11   46 1     
   48   18   47 1     
   49   18   48 1     
@<TRIPOS>SUBSTRUCTURE
      1 S1             1
@<TRIPOS>SET
LONE_PAIRS      STATIC     ATOMS    <user>   **** ""
6 43 44 45 46 47 48
DONOR_HYDROGENS      STATIC     ATOMS    <user>   **** ""
1 25
ATOM$BLUE        STATIC     ATOMS    COLORGROUP SYSTEM
6 43 44 45 46 47 48
ATOM$RED        STATIC     ATOMS    COLORGROUP SYSTEM
1 25
