AV-unprocessed.smi:4|AV-procd|sdf|34|dock8
  -GOLD-   2262015143D 1   1.00000     0.00000
 Structure written by MMmdl.
 43 44  0  0  0  0  0  0  0  0  1 V2000
  146.1219  143.3813  156.2747 C   0  0  0  0  0  0  0  0  0  0  0  0
  146.1235  142.2734  155.1893 C   0  0  0  0  0  0  0  0  0  0  0  0
  145.0119  141.2795  155.6171 C   0  0  0  0  0  0  0  0  0  0  0  0
  145.7438  142.9877  153.8669 C   0  0  0  0  0  0  0  0  0  0  0  0
  147.4328  141.5971  155.0699 N   0  0  0  0  0  0  0  0  0  0  0  0
  148.5983  142.0335  155.7062 C   0  0  0  0  0  0  0  0  0  0  0  0
  149.8073  141.4231  155.6111 C   0  0  0  0  0  0  0  0  0  0  0  0
  151.0443  141.9763  156.3054 C   0  0  0  0  0  0  0  0  0  0  0  0
  150.8738  143.3824  156.6611 N   0  0  0  0  0  0  0  0  0  0  0  0
  150.4389  143.5754  158.0419 C   0  0  0  0  0  0  0  0  0  0  0  0
  151.6277  143.8348  158.9715 C   0  0  0  0  0  0  0  0  0  0  0  0
  152.3632  144.8756  158.3579 O   0  0  0  0  0  0  0  0  0  0  0  0
  151.3103  144.0987  160.4548 C   0  0  0  0  0  0  0  0  0  0  0  0
  152.5107  143.2358  160.8463 C   0  0  0  0  0  0  0  0  0  0  0  0
  152.4660  142.6314  159.4426 C   0  0  0  0  0  0  0  0  0  0  0  0
  149.9455  140.2305  154.7746 C   0  0  0  0  0  0  0  0  0  0  0  0
  150.9849  139.5981  154.5949 O   0  0  0  0  0  0  0  0  0  0  0  0
  148.7719  139.8172  154.1487 N   0  0  0  0  0  0  0  0  0  0  0  0
  147.5276  140.4352  154.2515 C   0  0  0  0  0  0  0  0  0  0  0  0
  146.5866  139.9463  153.6285 O   0  0  0  0  0  0  0  0  0  0  0  0
  148.8287  138.9946  153.5661 H   0  0  0  0  0  0  0  0  0  0  0  0
  145.1445  143.8593  156.3518 H   0  0  0  0  0  0  0  0  0  0  0  0
  146.8338  144.1765  156.0490 H   0  0  0  0  0  0  0  0  0  0  0  0
  146.3493  142.9830  157.2645 H   0  0  0  0  0  0  0  0  0  0  0  0
  145.3024  140.7241  156.5097 H   0  0  0  0  0  0  0  0  0  0  0  0
  144.7540  140.5550  154.8470 H   0  0  0  0  0  0  0  0  0  0  0  0
  144.0846  141.8038  155.8508 H   0  0  0  0  0  0  0  0  0  0  0  0
  144.8475  143.5962  153.9921 H   0  0  0  0  0  0  0  0  0  0  0  0
  145.5277  142.3021  153.0495 H   0  0  0  0  0  0  0  0  0  0  0  0
  146.5420  143.6534  153.5364 H   0  0  0  0  0  0  0  0  0  0  0  0
  148.5865  142.9126  156.3284 H   0  0  0  0  0  0  0  0  0  0  0  0
  151.2445  141.3808  157.1969 H   0  0  0  0  0  0  0  0  0  0  0  0
  151.9116  141.8603  155.6544 H   0  0  0  0  0  0  0  0  0  0  0  0
  150.1855  143.8025  156.0437 H   0  0  0  0  0  0  0  0  0  0  0  0
  149.7245  144.3983  158.1002 H   0  0  0  0  0  0  0  0  0  0  0  0
  149.8977  142.6874  158.3706 H   0  0  0  0  0  0  0  0  0  0  0  0
  151.7861  145.6212  158.2951 H   0  0  0  0  0  0  0  0  0  0  0  0
  151.3903  145.1417  160.7637 H   0  0  0  0  0  0  0  0  0  0  0  0
  150.3617  143.6639  160.7737 H   0  0  0  0  0  0  0  0  0  0  0  0
  153.4130  143.8229  161.0239 H   0  0  0  0  0  0  0  0  0  0  0  0
  152.3204  142.5279  161.6535 H   0  0  0  0  0  0  0  0  0  0  0  0
  151.9142  141.6903  159.4093 H   0  0  0  0  0  0  0  0  0  0  0  0
  153.4409  142.5368  158.9635 H   0  0  0  0  0  0  0  0  0  0  0  0
  1  2  1  0  0  0  0
  1 22  1  0  0  0  0
  1 23  1  0  0  0  0
  1 24  1  0  0  0  0
  2  3  1  0  0  0  0
  2  4  1  0  0  0  0
  2  5  1  0  0  0  0
  3 25  1  0  0  0  0
  3 26  1  0  0  0  0
  3 27  1  0  0  0  0
  4 28  1  0  0  0  0
  4 29  1  0  0  0  0
  4 30  1  0  0  0  0
  5 19  1  0  0  0  0
  5  6  1  0  0  0  0
  6  7  2  0  0  0  0
  6 31  1  0  0  0  0
  7  8  1  0  0  0  0
  7 16  1  0  0  0  0
  8  9  1  0  0  0  0
  8 32  1  0  0  0  0
  8 33  1  0  0  0  0
  9 10  1  0  0  0  0
  9 34  1  0  0  0  0
 10 11  1  0  0  0  0
 10 35  1  0  0  0  0
 10 36  1  0  0  0  0
 11 15  1  0  0  0  0
 11 12  1  0  0  0  0
 11 13  1  0  0  0  0
 12 37  1  0  0  0  0
 13 14  1  0  0  0  0
 13 38  1  0  0  0  0
 13 39  1  0  0  0  0
 14 15  1  0  0  0  0
 14 40  1  0  0  0  0
 14 41  1  0  0  0  0
 15 42  1  0  0  0  0
 15 43  1  0  0  0  0
 16 17  2  0  0  0  0
 16 18  1  0  0  0  0
 18 21  1  0  0  0  0
 18 19  1  0  0  0  0
 19 20  2  0  0  0  0
M  END
> <s_m_source_file>
AV-unprocessed.smi

> <i_m_source_file_index>
4

> <i_lp_mmshare_version>
43012

> <i_f3d_flags>
0

> <s_epik_input>
W0NIM11DKFtDSDNdKShbQ0gzXSluMVtjSF1jKGMoPU8pW25IXWMxPU8pW0NIMl1bTkhdW0NIMl1DMihbT0hdKVtDSDJdW0NIMl1bQ0gyXTI=

> <s_epik_cmdline>
J2VwaWtfcHl0aG9uJywgJy1waCcsICc3LjAnLCAnLXRuJywgJzgnLCAnLW1hJywgJzIwMCcsICctbWV0YWxfYmluZGluZycsICctaW1hZScsICc8aW5maWxlLm1hZT4nLCAnLW9tYWUnLCAnPG91dGZpbGUubWFlPic=

> <r_lp_tautomer_probability>
0.999537

> <r_epik_Ionization_Penalty>
2.11381

> <r_epik_Ionization_Penalty_Charging>
0.000786845

> <r_epik_Ionization_Penalty_Neutral>
2.11303

> <r_epik_State_Penalty>
2.25008

> <r_epik_Charging_Adjusted_Penalty>
2.25087

> <i_epik_Tot_Q>
0

> <i_epik_Tot_abs_Q>
0

> <r_epik_Metal_State_Penalty>
2.75188

> <b_epik_Metal_Only>
0

> <s_lp_Force_Field>
OPLS_2005

> <r_lp_Energy>
31.2144

> <b_lp_Chiralities_Consistent>
1

> <s_lp_Variant>
AV-unprocessed.smi:4-2

> <Gold.Version>
5.8.1

> <Gold.Id.Protein>
6NUR|6NUR_protein|mol2

> <Gold.PLP.Fitness>
40.5198

> <Gold.PLP.PLP>
-34.4937

> <Gold.PLP.part.hbond>
-2.2376

> <Gold.PLP.part.metal>
0.0000

> <Gold.PLP.part.buried>
-4.9137

> <Gold.PLP.part.nonpolar>
-27.2137

> <Gold.PLP.part.repulsive>
0.3354

> <Gold.PLP.ligand.clash>
0.0000

> <Gold.PLP.ligand.torsion>
1.1172

> <Gold.PLP.Chemscore.Hbond>
2.0000

> <Gold.PLP.Chemscore.CHOScore>
0.7132

> <Gold.PLP.Chemscore.Metal>
0.0000

> <Gold.Chemscore.Hbonds>
donor molecule, donor type, donor heavy atom, donor atom, acceptor molecule, acceptor atom, score
      L1  H     9    34       P1  8028  1.00
      P1  H  7989  7998       L1    17  0.60
      L1  C     6    31       P1  8028  0.69

> <Gold.PLP.Chemscore.Internal.Correction>
0.1209

> <Gold.Rescore>
     Score         DG    S(hbond)    S(metal)    S(lipo)     H(rot)  DE(clash)    DE(int)     intcor
     12.92     -15.36       1.98        0.00      81.71       2.46       0.26       2.19       ----

> <Gold.Chemscore.Fitness>
12.9177

> <Gold.Chemscore.DG>
-15.3608

> <Gold.Chemscore.ZeroCoef>
-5.4800

> <Gold.Chemscore.Hbond>
1.9824

> <Gold.Chemscore.Metal>
0.0000

> <Gold.Chemscore.Lipo>
81.7117

> <Gold.Chemscore.Internal_Hbond>
0.0000

> <Gold.Chemscore.DEClash>
0.2566

> <Gold.Chemscore.DEInternal>
2.1864

> <Gold.Chemscore.Rot>
2.4612

> <Gold.Chemscore.Internal.Correction>
   9.000000E+99

> <Gold.Chemscore.Hbonds>
donor molecule, donor type, donor heavy atom, donor atom, acceptor molecule, acceptor atom, score
      L1  H     9    34       P1  8028  0.98
      P1  H  7989  7998       L1    17  0.04

> <Gold.Chemscore.Hbond.Weighted>
-6.6211

> <Gold.Chemscore.Metal.Weighted>
-0.0000

> <Gold.Chemscore.Lipo.Weighted>
-9.5603

> <Gold.Chemscore.Internal_Hbond.Weighted>
0.0000

> <Gold.Chemscore.DEClash.Weighted>
0.2566

> <Gold.Chemscore.DEInternal.Weighted>
2.1864

> <Gold.Chemscore.Rot.Weighted>
6.3006

> <Gold.Chemscore.Internal.Correction.Weighted>
   9.000000E+99

> <Gold.Protein.RotatedTorsions>
[ 6907 6896 6895 6894 ] final   78.19 input  -60.11 | X-H torsion
[ 7974 7965 7964 7962 ] final  -99.55 input  175.53 | X-H torsion
[ 8008 7997 7996 7995 ] final -128.15 input   59.86 | X-H torsion
[ 10167 10162 10161 10158 ] final  -38.85 input  -65.29 | X-H torsion
[ 10718 10713 10712 10709 ] final   81.16 input   66.30 | X-H torsion
[ 10763 10752 10751 10750 ] final  102.89 input  -60.55 | X-H torsion
[ 11005 11000 10999 10996 ] final -176.57 input  -57.11 | X-H torsion

> <Gold.Protein.ActiveResidues>
 VAL166  LYS551  ARG553  GLY616  TRP617  ASP618  TYR619  PRO620  LYS621  CYS622 
 ASP623  PHE694  ASN695  SER759  ASP760  ASP761  ALA762  ILE779  LEU786  VAL792 
 PHE793  MET794  SER795  GLU796  ALA797  LYS798  CYS799  TRP800  GLU811  SER814 

> <Gold.Protein.RotatedAtoms>
  152.5149  134.3702  159.9315 H   0  0  0  0  0  0  0  0  0  0  0  0  # atno 6907 bound_to 6896
  151.3656  133.3867  159.2702 H   0  0  0  0  0  0  0  0  0  0  0  0  # atno 6908 bound_to 6896
  150.9617  134.9023  159.7793 H   0  0  0  0  0  0  0  0  0  0  0  0  # atno 6909 bound_to 6896
  145.3061  140.9389  143.2796 H   0  0  0  0  0  0  0  0  0  0  0  0  # atno 7974 bound_to 7965
  155.2579  140.0435  157.2994 H   0  0  0  0  0  0  0  0  0  0  0  0  # atno 8008 bound_to 7997
  154.5729  140.2379  155.8135 H   0  0  0  0  0  0  0  0  0  0  0  0  # atno 8009 bound_to 7997
  156.2136  140.2991  155.9796 H   0  0  0  0  0  0  0  0  0  0  0  0  # atno 8010 bound_to 7997
  140.7081  143.3251  151.2700 H   0  0  0  0  0  0  0  0  0  0  0  0  # atno 10167 bound_to 10162
  157.6825  130.9991  150.2185 H   0  0  0  0  0  0  0  0  0  0  0  0  # atno 10718 bound_to 10713
  153.3455  135.3995  155.1605 H   0  0  0  0  0  0  0  0  0  0  0  0  # atno 10763 bound_to 10752
  154.8652  135.3644  154.5290 H   0  0  0  0  0  0  0  0  0  0  0  0  # atno 10764 bound_to 10752
  153.5737  135.7078  153.5553 H   0  0  0  0  0  0  0  0  0  0  0  0  # atno 10765 bound_to 10752
  140.4506  134.6347  157.4799 H   0  0  0  0  0  0  0  0  0  0  0  0  # atno 11005 bound_to 11000
  144.9053  139.4597  143.6613 LP  0  0  0  0  0  0  0  0  0  0  0  0  # atno 17320 bound_to 7965
  146.3134  139.7831  142.9002 LP  0  0  0  0  0  0  0  0  0  0  0  0  # atno 17321 bound_to 7965
  139.6717  144.0009  152.2756 LP  0  0  0  0  0  0  0  0  0  0  0  0  # atno 17342 bound_to 10162
  139.9610  144.6558  150.8080 LP  0  0  0  0  0  0  0  0  0  0  0  0  # atno 17343 bound_to 10162
  156.2842  130.3737  149.7905 LP  0  0  0  0  0  0  0  0  0  0  0  0  # atno 17370 bound_to 10713
  156.5585  130.8373  151.3321 LP  0  0  0  0  0  0  0  0  0  0  0  0  # atno 17371 bound_to 10713
  140.0010  134.6837  155.9531 LP  0  0  0  0  0  0  0  0  0  0  0  0  # atno 17394 bound_to 11000
  141.1666  133.6537  156.4501 LP  0  0  0  0  0  0  0  0  0  0  0  0  # atno 17395 bound_to 11000

$$$$
