AV-unprocessed.smi:2667|AV-procd|sdf|10336|dock8
  -GOLD-   2272014353D 1   1.00000     0.00000
 Structure written by MMmdl.
 45 47  0  0  0  0  0  0  0  0  2 V2000
  152.0376  145.2451  159.1236 C   0  0  0  0  0  0  0  0  0  0  0  0
  151.7877  144.1465  160.1689 C   0  0  0  0  0  0  0  0  0  0  0  0
  152.4246  142.7932  159.8165 C   0  0  0  0  0  0  0  0  0  0  0  0
  153.2825  142.3097  160.5566 O   0  0  0  0  0  0  0  0  0  0  0  0
  151.9588  142.1202  158.5692 C   0  0  0  0  0  0  0  0  0  0  0  0
  151.0521  142.7398  157.6775 C   0  0  0  0  0  0  0  0  0  0  0  0
  150.6320  142.0745  156.5099 C   0  0  0  0  0  0  0  0  0  0  0  0
  151.1006  140.7822  156.2046 C   0  0  0  0  0  0  0  0  0  0  0  0
  150.6309  140.2063  155.0451 O   0  0  0  0  0  0  0  0  0  0  0  0
  149.3520  140.5955  154.5628 C   0  0  0  0  0  0  0  0  0  0  0  0
  148.5392  139.3705  154.1000 C   0  0  2  0  0  0  0  0  0  0  0  0
  149.3182  138.6136  153.1968 O   0  0  0  0  0  0  0  0  0  0  0  0
  147.1148  139.6513  153.5596 C   0  0  0  0  0  0  0  0  0  0  0  0
  146.6028  138.6719  152.5874 N   0  0  0  0  0  0  0  0  0  0  0  0
  146.7810  138.6110  151.2389 C   0  0  0  0  0  0  0  0  0  0  0  0
  146.1080  137.5196  150.7815 N   0  3  0  0  0  0  0  0  0  0  0  0
  145.4730  136.8829  151.8495 C   0  0  0  0  0  0  0  0  0  0  0  0
  144.6709  135.7463  151.8848 C   0  0  0  0  0  0  0  0  0  0  0  0
  144.1700  135.3637  153.1464 C   0  0  0  0  0  0  0  0  0  0  0  0
  144.4688  136.1023  154.3096 C   0  0  0  0  0  0  0  0  0  0  0  0
  145.2826  137.2534  154.2617 C   0  0  0  0  0  0  0  0  0  0  0  0
  145.7795  137.6223  153.0122 C   0  0  0  0  0  0  0  0  0  0  0  0
  152.0110  140.1608  157.0933 C   0  0  0  0  0  0  0  0  0  0  0  0
  152.4325  140.8247  158.2615 C   0  0  0  0  0  0  0  0  0  0  0  0
  151.5683  146.1796  159.4311 H   0  0  0  0  0  0  0  0  0  0  0  0
  151.6227  144.9727  158.1524 H   0  0  0  0  0  0  0  0  0  0  0  0
  153.1033  145.4388  158.9954 H   0  0  0  0  0  0  0  0  0  0  0  0
  152.1780  144.4738  161.1327 H   0  0  0  0  0  0  0  0  0  0  0  0
  150.7135  144.0046  160.2901 H   0  0  0  0  0  0  0  0  0  0  0  0
  150.6627  143.7286  157.8671 H   0  0  0  0  0  0  0  0  0  0  0  0
  149.9391  142.5624  155.8399 H   0  0  0  0  0  0  0  0  0  0  0  0
  148.8049  141.1331  155.3389 H   0  0  0  0  0  0  0  0  0  0  0  0
  149.4729  141.2715  153.7149 H   0  0  0  0  0  0  0  0  0  0  0  0
  148.4185  138.7305  154.9746 H   0  0  0  0  0  0  0  0  0  0  0  0
  149.3472  139.0696  152.3699 H   0  0  0  0  0  0  0  0  0  0  0  0
  146.4001  139.7303  154.3794 H   0  0  0  0  0  0  0  0  0  0  0  0
  147.1054  140.6222  153.0624 H   0  0  0  0  0  0  0  0  0  0  0  0
  147.3665  139.2958  150.6421 H   0  0  0  0  0  0  0  0  0  0  0  0
  144.4377  135.1803  150.9949 H   0  0  0  0  0  0  0  0  0  0  0  0
  143.5428  134.4871  153.2232 H   0  0  0  0  0  0  0  0  0  0  0  0
  144.0662  135.7792  155.2585 H   0  0  0  0  0  0  0  0  0  0  0  0
  145.5050  137.8110  155.1588 H   0  0  0  0  0  0  0  0  0  0  0  0
  152.4029  139.1735  156.9021 H   0  0  0  0  0  0  0  0  0  0  0  0
  153.1272  140.3229  158.9196 H   0  0  0  0  0  0  0  0  0  0  0  0
  146.0830  137.2351  149.8107 H   0  0  0  0  0  0  0  0  0  0  0  0
  1  2  1  0  0  0  0
  1 25  1  0  0  0  0
  1 26  1  0  0  0  0
  1 27  1  0  0  0  0
  2  3  1  0  0  0  0
  2 28  1  0  0  0  0
  2 29  1  0  0  0  0
  3  4  2  0  0  0  0
  3  5  1  0  0  0  0
  5 24  1  0  0  0  0
  5  6  2  0  0  0  0
  6  7  1  0  0  0  0
  6 30  1  0  0  0  0
  7  8  2  0  0  0  0
  7 31  1  0  0  0  0
  8  9  1  0  0  0  0
  8 23  1  0  0  0  0
  9 10  1  0  0  0  0
 10 11  1  0  0  0  0
 10 32  1  0  0  0  0
 10 33  1  0  0  0  0
 11 12  1  0  0  0  0
 11 13  1  0  0  0  0
 11 34  1  0  0  0  0
 12 35  1  0  0  0  0
 13 14  1  0  0  0  0
 13 36  1  0  0  0  0
 13 37  1  0  0  0  0
 14 22  1  0  0  0  0
 14 15  1  0  0  0  0
 15 16  2  0  0  0  0
 15 38  1  0  0  0  0
 16 17  1  0  0  0  0
 16 45  1  0  0  0  0
 17 22  2  0  0  0  0
 17 18  1  0  0  0  0
 18 19  2  0  0  0  0
 18 39  1  0  0  0  0
 19 20  1  0  0  0  0
 19 40  1  0  0  0  0
 20 21  2  0  0  0  0
 20 41  1  0  0  0  0
 21 22  1  0  0  0  0
 21 42  1  0  0  0  0
 23 24  2  0  0  0  0
 23 43  1  0  0  0  0
 24 44  1  0  0  0  0
M  CHG  1  16   1
M  END
> <s_m_source_file>
AV-unprocessed.smi

> <i_m_source_file_index>
2667

> <i_lp_mmshare_version>
43012

> <i_f3d_flags>
0

> <s_epik_input>
W0NIM11bQ0gyXUMoPU8pYzFbY0hdW2NIXWMoW2NIXVtjSF0xKU9bQ0gyXVtDQEhdKFtPSF0pW0NIMl1uKFtjSF1uMiljKGMyMylbY0hdW2NIXVtjSF1bY0hdMw==

> <s_epik_cmdline>
J2VwaWtfcHl0aG9uJywgJy1waCcsICc3LjAnLCAnLXRuJywgJzgnLCAnLW1hJywgJzIwMCcsICctbWV0YWxfYmluZGluZycsICctaW1hZScsICc8aW5maWxlLm1hZT4nLCAnLW9tYWUnLCAnPG91dGZpbGUubWFlPic=

> <r_lp_tautomer_probability>
0.9999

> <r_epik_Ionization_Penalty>
1.40272

> <r_epik_Ionization_Penalty_Charging>
1.40272

> <r_epik_Ionization_Penalty_Neutral>
2.3993e-06

> <r_epik_State_Penalty>
1.48501

> <r_epik_Charging_Adjusted_Penalty>
2.88772

> <i_epik_Tot_Q>
1

> <i_epik_Tot_abs_Q>
1

> <r_epik_Metal_State_Penalty>
5.5274

> <b_epik_Metal_Only>
0

> <s_lp_Force_Field>
OPLS_2005

> <r_lp_Energy>
30.2491

> <b_lp_Chiralities_Consistent>
1

> <s_lp_Variant>
AV-unprocessed.smi:2667-3

> <Gold.Version>
5.8.1

> <Gold.Id.Protein>
6NUR|6NUR_protein|mol2

> <Gold.PLP.Fitness>
55.7726

> <Gold.PLP.PLP>
-50.5291

> <Gold.PLP.part.hbond>
-4.2112

> <Gold.PLP.part.metal>
0.0000

> <Gold.PLP.part.buried>
-2.8494

> <Gold.PLP.part.nonpolar>
-43.4203

> <Gold.PLP.part.repulsive>
0.1675

> <Gold.PLP.ligand.clash>
0.0000

> <Gold.PLP.ligand.torsion>
1.4453

> <Gold.PLP.Chemscore.Hbond>
1.7000

> <Gold.PLP.Chemscore.CHOScore>
0.9571

> <Gold.PLP.Chemscore.Metal>
0.0000

> <Gold.Chemscore.Hbonds>
donor molecule, donor type, donor heavy atom, donor atom, acceptor molecule, acceptor atom, score
      L1  H    12    35       P1  7957  1.00
      P1  H  7989  7998       L1     9  0.80
      L1  C    15    38       P1  7957  0.93

> <Gold.PLP.Chemscore.Internal.Correction>
0.1630

> <Gold.Rescore>
     Score         DG    S(hbond)    S(metal)    S(lipo)     H(rot)  DE(clash)    DE(int)     intcor
     13.65     -15.15       0.96        0.00     111.74       2.59       0.16       1.34       ----

> <Gold.Chemscore.Fitness>
13.6504

> <Gold.Chemscore.DG>
-15.1470

> <Gold.Chemscore.ZeroCoef>
-5.4800

> <Gold.Chemscore.Hbond>
0.9632

> <Gold.Chemscore.Metal>
0.0000

> <Gold.Chemscore.Lipo>
111.7377

> <Gold.Chemscore.Internal_Hbond>
0.0000

> <Gold.Chemscore.DEClash>
0.1574

> <Gold.Chemscore.DEInternal>
1.3392

> <Gold.Chemscore.Rot>
2.5873

> <Gold.Chemscore.Internal.Correction>
   9.000000E+99

> <Gold.Chemscore.Hbonds>
donor molecule, donor type, donor heavy atom, donor atom, acceptor molecule, acceptor atom, score
      L1  H    12    35       P1  7957  0.91
      P1  H  7989  7998       L1     9  0.09

> <Gold.Chemscore.Hbond.Weighted>
-3.2173

> <Gold.Chemscore.Metal.Weighted>
-0.0000

> <Gold.Chemscore.Lipo.Weighted>
-13.0733

> <Gold.Chemscore.Internal_Hbond.Weighted>
0.0000

> <Gold.Chemscore.DEClash.Weighted>
0.1574

> <Gold.Chemscore.DEInternal.Weighted>
1.3392

> <Gold.Chemscore.Rot.Weighted>
6.6235

> <Gold.Chemscore.Internal.Correction.Weighted>
   9.000000E+99

> <Gold.Protein.RotatedTorsions>
[ 6907 6896 6895 6894 ] final  139.93 input  -60.11 | X-H torsion
[ 7974 7965 7964 7962 ] final   12.49 input  175.53 | X-H torsion
[ 8008 7997 7996 7995 ] final -145.27 input   59.86 | X-H torsion
[ 10167 10162 10161 10158 ] final -125.00 input  -65.29 | X-H torsion
[ 10718 10713 10712 10709 ] final    4.55 input   66.30 | X-H torsion
[ 10763 10752 10751 10750 ] final -120.46 input  -60.55 | X-H torsion
[ 11005 11000 10999 10996 ] final  152.83 input  -57.11 | X-H torsion

> <Gold.Protein.ActiveResidues>
 VAL166  LYS551  ARG553  GLY616  TRP617  ASP618  TYR619  PRO620  LYS621  CYS622 
 ASP623  PHE694  ASN695  SER759  ASP760  ASP761  ALA762  ILE779  LEU786  VAL792 
 PHE793  MET794  SER795  GLU796  ALA797  LYS798  CYS799  TRP800  GLU811  SER814 

> <Gold.Protein.RotatedAtoms>
  152.2491  133.5200  159.5314 H   0  0  0  0  0  0  0  0  0  0  0  0  # atno 6907 bound_to 6896
  150.7088  134.0985  159.3966 H   0  0  0  0  0  0  0  0  0  0  0  0  # atno 6908 bound_to 6896
  151.8905  135.0418  160.0548 H   0  0  0  0  0  0  0  0  0  0  0  0  # atno 6909 bound_to 6896
  146.2350  139.9328  142.8494 H   0  0  0  0  0  0  0  0  0  0  0  0  # atno 7974 bound_to 7965
  155.5404  140.0607  157.2871 H   0  0  0  0  0  0  0  0  0  0  0  0  # atno 8008 bound_to 7997
  154.4454  140.1920  156.0629 H   0  0  0  0  0  0  0  0  0  0  0  0  # atno 8009 bound_to 7997
  156.0589  140.3275  155.7441 H   0  0  0  0  0  0  0  0  0  0  0  0  # atno 8010 bound_to 7997
  139.9868  143.5683  152.2357 H   0  0  0  0  0  0  0  0  0  0  0  0  # atno 10167 bound_to 10162
  156.8943  130.5699  149.5649 H   0  0  0  0  0  0  0  0  0  0  0  0  # atno 10718 bound_to 10713
  154.8644  135.4202  154.2463 H   0  0  0  0  0  0  0  0  0  0  0  0  # atno 10763 bound_to 10752
  153.3418  135.6994  153.6866 H   0  0  0  0  0  0  0  0  0  0  0  0  # atno 10764 bound_to 10752
  153.5842  135.3567  155.2859 H   0  0  0  0  0  0  0  0  0  0  0  0  # atno 10765 bound_to 10752
  140.1343  134.8781  157.2246 H   0  0  0  0  0  0  0  0  0  0  0  0  # atno 11005 bound_to 11000
  145.2028  140.9862  143.4146 LP  0  0  0  0  0  0  0  0  0  0  0  0  # atno 17320 bound_to 7965
  144.9759  139.3832  143.6286 LP  0  0  0  0  0  0  0  0  0  0  0  0  # atno 17321 bound_to 7965
  139.6369  144.7651  151.2419 LP  0  0  0  0  0  0  0  0  0  0  0  0  # atno 17342 bound_to 10162
  140.7469  143.6383  150.8358 LP  0  0  0  0  0  0  0  0  0  0  0  0  # atno 17343 bound_to 10162
  156.0613  130.5665  150.9199 LP  0  0  0  0  0  0  0  0  0  0  0  0  # atno 17370 bound_to 10713
  157.6065  131.0939  150.8871 LP  0  0  0  0  0  0  0  0  0  0  0  0  # atno 17371 bound_to 10713
  140.2802  134.3358  155.7345 LP  0  0  0  0  0  0  0  0  0  0  0  0  # atno 17394 bound_to 11000
  141.2175  133.7474  156.9353 LP  0  0  0  0  0  0  0  0  0  0  0  0  # atno 17395 bound_to 11000

$$$$
