AV-unprocessed.smi:276|AV-procd|sdf|2073|dock6
  -GOLD-   2262021333D 1   1.00000     0.00000
 Structure written by MMmdl.
 57 61  0  0  0  0  0  0  0  0  1 V2000
  144.5899  134.1459  162.8579 C   0  0  0  0  0  0  0  0  0  0  0  0
  145.9519  133.7673  162.7657 O   0  0  0  0  0  0  0  0  0  0  0  0
  146.4663  133.8980  161.4499 C   0  0  1  0  0  0  0  0  0  0  0  0
  147.9707  134.1874  161.3797 C   0  0  0  0  0  0  0  0  0  0  0  0
  148.0643  133.1962  160.2029 C   0  0  2  0  0  0  0  0  0  0  0  0
  147.9390  133.8815  158.9079 N   0  0  0  0  0  0  0  0  0  0  0  0
  148.4352  135.2529  158.8560 C   0  0  0  0  0  0  0  0  0  0  0  0
  148.3933  133.1948  157.8363 C   0  0  0  0  0  0  0  0  0  0  0  0
  149.7326  132.9998  157.7526 N   0  0  0  0  0  0  0  0  0  0  0  0
  150.2494  132.3549  156.7025 C   0  0  0  0  0  0  0  0  0  0  0  0
  149.6174  131.8366  155.6472 N   0  0  0  0  0  0  0  0  0  0  0  0
  148.2683  132.0170  155.7384 C   0  0  0  0  0  0  0  0  0  0  0  0
  147.5747  132.6681  156.7965 C   0  0  0  0  0  0  0  0  0  0  0  0
  146.2071  132.6457  156.5495 N   0  0  0  0  0  0  0  0  0  0  0  0
  146.0999  132.0352  155.4015 C   0  0  0  0  0  0  0  0  0  0  0  0
  147.2913  131.6487  154.8305 N   0  0  0  0  0  0  0  0  0  0  0  0
  147.4636  130.9753  153.5560 C   0  0  0  0  0  0  0  0  0  0  0  0
  146.1355  130.5013  152.9208 C   0  0  2  0  0  0  0  0  0  0  0  0
  146.5036  129.5454  151.9470 O   0  0  0  0  0  0  0  0  0  0  0  0
  145.3101  131.5939  152.1998 C   0  0  2  0  0  0  0  0  0  0  0  0
  144.2524  131.1015  151.2040 C   0  0  0  0  0  0  0  0  0  0  0  0
  144.1517  132.2131  150.1708 C   0  0  0  0  0  0  0  0  0  0  0  0
  145.3357  133.1223  150.4929 C   0  0  0  0  0  0  0  0  0  0  0  0
  146.1612  132.3343  151.3358 O   0  0  0  0  0  0  0  0  0  0  0  0
  146.7626  132.5547  160.7596 C   0  0  0  0  0  0  0  0  0  0  0  0
  146.8571  131.2661  161.5975 C   0  0  0  0  0  0  0  0  0  0  0  0
  145.4348  130.9294  161.1421 C   0  0  0  0  0  0  0  0  0  0  0  0
  145.6812  131.8325  159.9317 C   0  0  0  0  0  0  0  0  0  0  0  0
  144.2440  134.0197  163.8837 H   0  0  0  0  0  0  0  0  0  0  0  0
  143.9653  133.5264  162.2133 H   0  0  0  0  0  0  0  0  0  0  0  0
  144.4484  135.1914  162.5820 H   0  0  0  0  0  0  0  0  0  0  0  0
  145.8756  134.5594  160.8126 H   0  0  0  0  0  0  0  0  0  0  0  0
  148.2144  135.2276  161.1664 H   0  0  0  0  0  0  0  0  0  0  0  0
  148.5064  133.8336  162.2623 H   0  0  0  0  0  0  0  0  0  0  0  0
  148.9387  132.5499  160.2816 H   0  0  0  0  0  0  0  0  0  0  0  0
  148.4898  135.6272  157.8324 H   0  0  0  0  0  0  0  0  0  0  0  0
  149.4319  135.3174  159.2937 H   0  0  0  0  0  0  0  0  0  0  0  0
  147.7769  135.9233  159.4072 H   0  0  0  0  0  0  0  0  0  0  0  0
  151.3239  132.2456  156.7046 H   0  0  0  0  0  0  0  0  0  0  0  0
  145.1435  131.8639  154.9291 H   0  0  0  0  0  0  0  0  0  0  0  0
  147.9973  131.6349  152.8707 H   0  0  0  0  0  0  0  0  0  0  0  0
  148.1179  130.1206  153.7335 H   0  0  0  0  0  0  0  0  0  0  0  0
  145.5213  130.0030  153.6715 H   0  0  0  0  0  0  0  0  0  0  0  0
  146.9447  129.9917  151.2405 H   0  0  0  0  0  0  0  0  0  0  0  0
  144.8475  132.2697  152.9223 H   0  0  0  0  0  0  0  0  0  0  0  0
  144.5864  130.1878  150.7111 H   0  0  0  0  0  0  0  0  0  0  0  0
  143.2939  130.8994  151.6808 H   0  0  0  0  0  0  0  0  0  0  0  0
  144.2299  131.8051  149.1629 H   0  0  0  0  0  0  0  0  0  0  0  0
  143.2084  132.7553  150.2436 H   0  0  0  0  0  0  0  0  0  0  0  0
  145.8717  133.4484  149.6014 H   0  0  0  0  0  0  0  0  0  0  0  0
  145.0051  134.0082  151.0372 H   0  0  0  0  0  0  0  0  0  0  0  0
  147.5970  130.5655  161.2062 H   0  0  0  0  0  0  0  0  0  0  0  0
  146.9737  131.4082  162.6721 H   0  0  0  0  0  0  0  0  0  0  0  0
  145.2666  129.8790  160.9049 H   0  0  0  0  0  0  0  0  0  0  0  0
  144.6702  131.3217  161.8145 H   0  0  0  0  0  0  0  0  0  0  0  0
  144.8324  132.4520  159.6420 H   0  0  0  0  0  0  0  0  0  0  0  0
  146.0693  131.2608  159.0897 H   0  0  0  0  0  0  0  0  0  0  0  0
  1  2  1  0  0  0  0
  1 29  1  0  0  0  0
  1 30  1  0  0  0  0
  1 31  1  0  0  0  0
  2  3  1  0  0  0  0
  3 25  1  0  0  0  0
  3  4  1  0  0  0  0
  3 32  1  0  0  0  0
  4  5  1  0  0  0  0
  4 33  1  0  0  0  0
  4 34  1  0  0  0  0
  5  6  1  0  0  0  0
  5 25  1  0  0  0  0
  5 35  1  0  0  0  0
  6  7  1  0  0  0  0
  6  8  1  0  0  0  0
  7 36  1  0  0  0  0
  7 37  1  0  0  0  0
  7 38  1  0  0  0  0
  8 13  1  0  0  0  0
  8  9  2  0  0  0  0
  9 10  1  0  0  0  0
 10 11  2  0  0  0  0
 10 39  1  0  0  0  0
 11 12  1  0  0  0  0
 12 16  1  0  0  0  0
 12 13  2  0  0  0  0
 13 14  1  0  0  0  0
 14 15  2  0  0  0  0
 15 16  1  0  0  0  0
 15 40  1  0  0  0  0
 16 17  1  0  0  0  0
 17 18  1  0  0  0  0
 17 41  1  0  0  0  0
 17 42  1  0  0  0  0
 18 19  1  0  0  0  0
 18 20  1  0  0  0  0
 18 43  1  0  0  0  0
 19 44  1  0  0  0  0
 20 24  1  0  0  0  0
 20 21  1  0  0  0  0
 20 45  1  0  0  0  0
 21 22  1  0  0  0  0
 21 46  1  0  0  0  0
 21 47  1  0  0  0  0
 22 23  1  0  0  0  0
 22 48  1  0  0  0  0
 22 49  1  0  0  0  0
 23 24  1  0  0  0  0
 23 50  1  0  0  0  0
 23 51  1  0  0  0  0
 25 28  1  0  0  0  0
 25 26  1  0  0  0  0
 26 27  1  0  0  0  0
 26 52  1  0  0  0  0
 26 53  1  0  0  0  0
 27 28  1  0  0  0  0
 27 54  1  0  0  0  0
 27 55  1  0  0  0  0
 28 56  1  0  0  0  0
 28 57  1  0  0  0  0
M  END
> <s_m_source_file>
AV-unprocessed.smi

> <i_m_source_file_index>
276

> <i_lp_mmshare_version>
43012

> <i_f3d_flags>
0

> <s_epik_input>
W0NIMl0xW0NIMl1bQ0gyXUMxMltDQEhdKE9bQ0gzXSlbQ0gyXVtDQEhdMk4oW0NIM10pYyhuW2NIXW4zKWMoYzM0KW5bY0hdbjRbQ0gyXVtDQEhdKFtPSF0pW0NAQEhdNVtDSDJdW0NIMl1bQ0gyXU81

> <s_epik_cmdline>
J2VwaWtfcHl0aG9uJywgJy1waCcsICc3LjAnLCAnLXRuJywgJzgnLCAnLW1hJywgJzIwMCcsICctbWV0YWxfYmluZGluZycsICctaW1hZScsICc8aW5maWxlLm1hZT4nLCAnLW9tYWUnLCAnPG91dGZpbGUubWFlPic=

> <r_lp_tautomer_probability>
1

> <r_epik_Ionization_Penalty>
0.00204117

> <r_epik_Ionization_Penalty_Charging>
0

> <r_epik_Ionization_Penalty_Neutral>
0.00204117

> <r_epik_State_Penalty>
0.00127401

> <r_epik_Charging_Adjusted_Penalty>
0.00127401

> <i_epik_Tot_Q>
0

> <i_epik_Tot_abs_Q>
0

> <r_epik_Metal_State_Penalty>
-0

> <b_epik_Metal_Only>
0

> <s_lp_Force_Field>
OPLS_2005

> <r_lp_Energy>
57.8978

> <b_lp_Chiralities_Consistent>
1

> <s_lp_Variant>
AV-unprocessed.smi:276-4

> <Gold.Version>
5.8.1

> <Gold.Id.Protein>
6NUR|6NUR_protein|mol2

> <Gold.PLP.Fitness>
40.0103

> <Gold.PLP.PLP>
-34.2725

> <Gold.PLP.part.hbond>
-2.5942

> <Gold.PLP.part.metal>
0.0000

> <Gold.PLP.part.buried>
-6.8486

> <Gold.PLP.part.nonpolar>
-25.4511

> <Gold.PLP.part.repulsive>
0.2746

> <Gold.PLP.ligand.clash>
0.0000

> <Gold.PLP.ligand.torsion>
1.9884

> <Gold.PLP.Chemscore.Hbond>
2.0000

> <Gold.PLP.Chemscore.CHOScore>
0.9601

> <Gold.PLP.Chemscore.Metal>
0.0000

> <Gold.Chemscore.Hbonds>
donor molecule, donor type, donor heavy atom, donor atom, acceptor molecule, acceptor atom, score
      L1  H    19    44       P1 10747  0.10
      P1  H  6896  6909       L1     9  1.00
      L1  C    15    40       P1 10957  0.91

> <Gold.PLP.Chemscore.Internal.Correction>
0.8344

> <Gold.Rescore>
     Score         DG    S(hbond)    S(metal)    S(lipo)     H(rot)  DE(clash)    DE(int)     intcor
     13.37     -15.78       1.89        0.00      93.48       2.72       0.05       2.36       ----

> <Gold.Chemscore.Fitness>
13.3663

> <Gold.Chemscore.DG>
-15.7772

> <Gold.Chemscore.ZeroCoef>
-5.4800

> <Gold.Chemscore.Hbond>
1.8911

> <Gold.Chemscore.Metal>
0.0000

> <Gold.Chemscore.Lipo>
93.4772

> <Gold.Chemscore.Internal_Hbond>
0.0000

> <Gold.Chemscore.DEClash>
0.0544

> <Gold.Chemscore.DEInternal>
2.3565

> <Gold.Chemscore.Rot>
2.7172

> <Gold.Chemscore.Internal.Correction>
   9.000000E+99

> <Gold.Chemscore.Hbonds>
donor molecule, donor type, donor heavy atom, donor atom, acceptor molecule, acceptor atom, score
      L1  H    19    44       P1 10747  0.12
      P1  H  6896  6909       L1     9  0.86

> <Gold.Chemscore.Hbond.Weighted>
-6.3164

> <Gold.Chemscore.Metal.Weighted>
-0.0000

> <Gold.Chemscore.Lipo.Weighted>
-10.9368

> <Gold.Chemscore.Internal_Hbond.Weighted>
0.0000

> <Gold.Chemscore.DEClash.Weighted>
0.0544

> <Gold.Chemscore.DEInternal.Weighted>
2.3565

> <Gold.Chemscore.Rot.Weighted>
6.9560

> <Gold.Chemscore.Internal.Correction.Weighted>
   9.000000E+99

> <Gold.Protein.RotatedTorsions>
[ 6907 6896 6895 6894 ] final  -22.52 input  -60.11 | X-H torsion
[ 7974 7965 7964 7962 ] final   97.17 input  175.53 | X-H torsion
[ 8008 7997 7996 7995 ] final   48.89 input   59.86 | X-H torsion
[ 10167 10162 10161 10158 ] final    8.22 input  -65.29 | X-H torsion
[ 10718 10713 10712 10709 ] final -120.45 input   66.30 | X-H torsion
[ 10763 10752 10751 10750 ] final -127.22 input  -60.55 | X-H torsion
[ 11005 11000 10999 10996 ] final   93.77 input  -57.11 | X-H torsion

> <Gold.Protein.ActiveResidues>
 VAL166  LYS551  ARG553  GLY616  TRP617  ASP618  TYR619  PRO620  LYS621  CYS622 
 ASP623  PHE694  ASN695  SER759  ASP760  ASP761  ALA762  ILE779  LEU786  VAL792 
 PHE793  MET794  SER795  GLU796  ALA797  LYS798  CYS799  TRP800  GLU811  SER814 

> <Gold.Protein.RotatedAtoms>
  151.2174  135.0505  159.8935 H   0  0  0  0  0  0  0  0  0  0  0  0  # atno 6907 bound_to 6896
  152.5419  134.0678  159.8191 H   0  0  0  0  0  0  0  0  0  0  0  0  # atno 6908 bound_to 6896
  151.0840  133.5320  159.2650 H   0  0  0  0  0  0  0  0  0  0  0  0  # atno 6909 bound_to 6896
  145.4291  139.2312  143.3154 H   0  0  0  0  0  0  0  0  0  0  0  0  # atno 7974 bound_to 7965
  155.3931  140.3434  155.4252 H   0  0  0  0  0  0  0  0  0  0  0  0  # atno 8008 bound_to 7997
  156.1546  140.1581  156.8746 H   0  0  0  0  0  0  0  0  0  0  0  0  # atno 8009 bound_to 7997
  154.5083  140.0796  156.7920 H   0  0  0  0  0  0  0  0  0  0  0  0  # atno 8010 bound_to 7997
  140.6327  143.7957  150.7317 H   0  0  0  0  0  0  0  0  0  0  0  0  # atno 10167 bound_to 10162
  156.1259  130.6359  150.9542 H   0  0  0  0  0  0  0  0  0  0  0  0  # atno 10718 bound_to 10713
  154.8751  135.3969  154.3558 H   0  0  0  0  0  0  0  0  0  0  0  0  # atno 10763 bound_to 10752
  153.4337  135.7025  153.6219 H   0  0  0  0  0  0  0  0  0  0  0  0  # atno 10764 bound_to 10752
  153.4829  135.3765  155.2421 H   0  0  0  0  0  0  0  0  0  0  0  0  # atno 10765 bound_to 10752
  139.8806  134.8808  156.3766 H   0  0  0  0  0  0  0  0  0  0  0  0  # atno 11005 bound_to 11000
  146.2616  140.5025  142.8851 LP  0  0  0  0  0  0  0  0  0  0  0  0  # atno 17320 bound_to 7965
  144.8195  140.6525  143.6362 LP  0  0  0  0  0  0  0  0  0  0  0  0  # atno 17321 bound_to 7965
  140.1572  143.4306  152.2091 LP  0  0  0  0  0  0  0  0  0  0  0  0  # atno 17342 bound_to 10162
  139.5539  144.7359  151.4351 LP  0  0  0  0  0  0  0  0  0  0  0  0  # atno 17343 bound_to 10162
  157.6440  131.0906  150.8191 LP  0  0  0  0  0  0  0  0  0  0  0  0  # atno 17370 bound_to 10713
  156.8282  130.5007  149.5335 LP  0  0  0  0  0  0  0  0  0  0  0  0  # atno 17371 bound_to 10713
  140.9428  133.7503  156.0168 LP  0  0  0  0  0  0  0  0  0  0  0  0  # atno 17394 bound_to 11000
  140.8199  134.3301  157.5385 LP  0  0  0  0  0  0  0  0  0  0  0  0  # atno 17395 bound_to 11000

$$$$
