#       Name:                AV-unprocessed.smi:3298
#       Creating user name   scv26
#       Creation time:       Fri Mar 27 18:58:02 2020


#       File generated by GOLD software.
#

@<TRIPOS>MOLECULE
AV-unprocessed.smi:3298
    40    41     1
SMALL
NO_CHARGES


@<TRIPOS>ATOM
      1 ****        -3.2324   4.9035  -0.7815 C.3            1 S1                 0.0000
      2 ****        -3.3639   3.4775  -0.2896 C.ar           1 S1                 0.0000
      3 ****        -2.2689   2.5871  -0.2585 C.ar           1 S1                 0.0000
      4 ****        -2.4578   1.2647   0.2204 C.ar           1 S1                 0.0000
      5 ****        -1.4334   0.2791   0.2882 N.am           1 S1                 0.0000
      6 ****        -0.1000   0.4285   0.1949 C.2            1 S1                 0.0000
      7 ****         0.4905   1.4963   0.0364 O.2            1 S1                 0.0000
      8 ****         0.5281  -0.7507   0.3092 N.am           1 S1                 0.0000
      9 ****         1.9743  -0.9410   0.2485 C.3            1 S1                 0.0000
     10 ****         2.4572  -1.0378  -1.1744 C.2            1 S1                 0.0000
     11 ****         3.0557  -2.1976  -1.4354 C.2            1 S1                 0.0000
     12 ****         3.0768  -3.1266  -0.2496 C.3            1 S1                 0.0000
     13 ****         4.5016  -3.5970   0.0884 C.3            1 S1                 0.0000
     14 ****         4.4704  -4.5308   1.1470 O.3            1 S1                 0.0000
     15 ****         2.4044  -2.2917   0.8728 C.3            1 S1                 0.0000
     16 ****        -3.7520   0.8789   0.6351 C.ar           1 S1                 0.0000
     17 ****        -4.8087   1.8100   0.5804 C.ar           1 S1                 0.0000
     18 ****        -4.5793   3.0607   0.1277 N.pl3          1 S1                 1.0000
     19 ****         2.4907  -0.1182   0.7464 H              1 S1                 0.0000
     20 ****         2.4540  -3.9871  -0.4980 H              1 S1                 0.0000
     21 ****        -2.2088   5.1216  -1.0876 H              1 S1                 0.0000
     22 ****        -3.5073   5.6045   0.0072 H              1 S1                 0.0000
     23 ****        -3.8865   5.0724  -1.6374 H              1 S1                 0.0000
     24 ****        -1.3115   2.9364  -0.6115 H              1 S1                 0.0000
     25 ****        -1.7547  -0.6604   0.4705 H              1 S1                 0.0000
     26 ****        -0.0318  -1.5802   0.4415 H              1 S1                 0.0000
     27 ****         2.3286  -0.2321  -1.8822 H              1 S1                 0.0000
     28 ****         3.4758  -2.4765  -2.3905 H              1 S1                 0.0000
     29 ****         4.9599  -4.0742  -0.7784 H              1 S1                 0.0000
     30 ****         5.1363  -2.7547   0.3668 H              1 S1                 0.0000
     31 ****         5.3549  -4.8109   1.3276 H              1 S1                 0.0000
     32 ****         3.0979  -2.1099   1.6951 H              1 S1                 0.0000
     33 ****         1.5580  -2.8343   1.2967 H              1 S1                 0.0000
     34 ****        -3.9376  -0.1222   0.9970 H              1 S1                 0.0000
     35 ****        -5.8230   1.5933   0.8823 H              1 S1                 0.0000
     36 ****        -5.3580   3.7193   0.0962 H              1 S1                 0.0000
     37 ****        -0.0277   2.3486  -0.0339 LP             1 S1                 0.0000
     38 ****         1.4887   1.5118  -0.0222 LP             1 S1                 0.0000
     39 ****         3.9142  -5.3193   0.8845 LP             1 S1                 0.0000
     40 ****         4.0792  -4.1034   1.9620 LP             1 S1                 0.0000
@<TRIPOS>BOND
    1    1    2 1     
    2    1   21 1     
    3    1   22 1     
    4    1   23 1     
    5    2   18 ar    
    6    2    3 ar    
    7    3    4 ar    
    8    3   24 1     
    9    4    5 1     
   10    4   16 ar    
   11    5    6 am    
   12    5   25 1     
   13    6    7 2     
   14    6    8 am    
   15    8    9 1     
   16    8   26 1     
   17    9   19 1     
   18    9   15 1     
   19    9   10 1     
   20   10   11 2     
   21   10   27 1     
   22   11   12 1     
   23   11   28 1     
   24   12   20 1     
   25   12   13 1     
   26   12   15 1     
   27   13   14 1     
   28   13   29 1     
   29   13   30 1     
   30   14   31 1     
   31   15   32 1     
   32   15   33 1     
   33   16   17 ar    
   34   16   34 1     
   35   17   18 ar    
   36   17   35 1     
   37   18   36 1     
   38    7   37 1     
   39    7   38 1     
   40   14   39 1     
   41   14   40 1     
@<TRIPOS>SUBSTRUCTURE
      1 S1             1
@<TRIPOS>SET
LONE_PAIRS      STATIC     ATOMS    <user>   **** ""
4 37 38 39 40
DONOR_HYDROGENS      STATIC     ATOMS    <user>   **** ""
4 25 26 31 36
ATOM$BLUE        STATIC     ATOMS    COLORGROUP SYSTEM
4 37 38 39 40
ATOM$RED        STATIC     ATOMS    COLORGROUP SYSTEM
4 25 26 31 36
