#       Name:                AV-unprocessed.smi:1867
#       Creating user name   scv26
#       Creation time:       Fri Mar 27 09:29:19 2020


#       File generated by GOLD software.
#

@<TRIPOS>MOLECULE
AV-unprocessed.smi:1867
    55    58     1
SMALL
NO_CHARGES


@<TRIPOS>ATOM
      1 ****        -0.1556   2.1450  -1.0850 O.2            1 S1                 0.0000
      2 ****        -0.6584   1.0265  -1.0158 C.2            1 S1                 0.0000
      3 ****         0.1095  -0.0318  -0.6549 N.am           1 S1                 0.0000
      4 ****         1.4918  -0.1124  -0.3237 C.ar           1 S1                 0.0000
      5 ****         2.0077  -1.3968  -0.0499 C.ar           1 S1                 0.0000
      6 ****         3.3675  -1.5542   0.2866 C.ar           1 S1                 0.0000
      7 ****         4.2077  -0.4185   0.3515 C.ar           1 S1                 0.0000
      8 ****         5.5752  -0.4982   0.6757 N.pl3          1 S1                 0.0000
      9 ****         6.3626   0.6964   0.9368 C.3            1 S1                 0.0000
     10 ****         7.7117   0.1697   1.4223 C.3            1 S1                 0.0000
     11 ****         7.3346  -1.1145   2.1609 C.3            1 S1                 0.0000
     12 ****         6.1144  -1.6430   1.3967 C.3            1 S1                 0.0000
     13 ****         3.6737   0.7953   0.0782 N.pl3          1 S1                 1.0000
     14 ****         2.3775   0.9907  -0.2474 C.ar           1 S1                 0.0000
     15 ****        -1.9822   0.8360  -1.3000 N.pl3          1 S1                -1.0000
     16 ****        -2.7810  -0.4044  -1.2711 C.3            1 S1                 0.0000
     17 ****        -3.3898  -0.6466  -2.6654 C.3            1 S1                 0.0000
     18 ****        -4.7653   0.0541  -2.6567 C.3            1 S1                 0.0000
     19 ****        -4.9383   0.5775  -1.2867 N.4            1 S1                 1.0000
     20 ****        -6.3214   0.6717  -0.7690 C.3            1 S1                 0.0000
     21 ****        -6.3031   1.2984   0.6401 C.3            1 S1                 0.0000
     22 ****        -5.3528   0.5442   1.5925 C.3            1 S1                 0.0000
     23 ****        -3.9428   0.4188   0.9835 C.3            1 S1                 0.0000
     24 ****        -4.0492  -0.2153  -0.4215 C.3            1 S1                 0.0000
     25 ****        -0.3815  -0.9136  -0.6309 H              1 S1                 0.0000
     26 ****         1.3653  -2.2640  -0.1001 H              1 S1                 0.0000
     27 ****         3.7497  -2.5448   0.4837 H              1 S1                 0.0000
     28 ****         6.4681   1.3139   0.0441 H              1 S1                 0.0000
     29 ****         5.8792   1.2894   1.7145 H              1 S1                 0.0000
     30 ****         8.3455  -0.0696   0.5671 H              1 S1                 0.0000
     31 ****         8.2458   0.8840   2.0495 H              1 S1                 0.0000
     32 ****         8.1515  -1.8355   2.2053 H              1 S1                 0.0000
     33 ****         7.0470  -0.8724   3.1849 H              1 S1                 0.0000
     34 ****         5.3870  -2.0815   2.0807 H              1 S1                 0.0000
     35 ****         6.4101  -2.4055   0.6754 H              1 S1                 0.0000
     36 ****         2.1196   2.0222  -0.4280 H              1 S1                 0.0000
     37 ****        -2.2162  -1.2749  -0.9347 H              1 S1                 0.0000
     38 ****        -2.7504  -0.2951  -3.4769 H              1 S1                 0.0000
     39 ****        -3.5339  -1.7169  -2.8180 H              1 S1                 0.0000
     40 ****        -4.8136   0.8734  -3.3749 H              1 S1                 0.0000
     41 ****        -5.5547  -0.6576  -2.9040 H              1 S1                 0.0000
     42 ****        -6.9232   1.2802  -1.4447 H              1 S1                 0.0000
     43 ****        -6.7730  -0.3210  -0.7384 H              1 S1                 0.0000
     44 ****        -5.9857   2.3395   0.5672 H              1 S1                 0.0000
     45 ****        -7.3117   1.3131   1.0541 H              1 S1                 0.0000
     46 ****        -5.3014   1.0558   2.5540 H              1 S1                 0.0000
     47 ****        -5.7531  -0.4505   1.7923 H              1 S1                 0.0000
     48 ****        -3.4890   1.4106   0.9368 H              1 S1                 0.0000
     49 ****        -3.3103  -0.1853   1.6358 H              1 S1                 0.0000
     50 ****        -4.5023  -1.2023  -0.3030 H              1 S1                 0.0000
     51 ****        -4.5456   1.5085  -1.2913 H              1 S1                 0.0000
     52 ****         4.2835   1.6118   0.1216 H              1 S1                 0.0000
     53 ****         0.8141   2.2711  -0.8759 LP             1 S1                 0.0000
     54 ****        -0.7160   2.9295  -1.3504 LP             1 S1                 0.0000
     55 ****        -2.4833   1.6592  -1.5670 LP             1 S1                 0.0000
@<TRIPOS>BOND
    1    1    2 2     
    2    2    3 am    
    3    2   15 1     
    4    3    4 1     
    5    3   25 1     
    6    4   14 ar    
    7    4    5 ar    
    8    5    6 ar    
    9    5   26 1     
   10    6    7 ar    
   11    6   27 1     
   12    7    8 1     
   13    7   13 ar    
   14    8   12 1     
   15    8    9 1     
   16    9   10 1     
   17    9   28 1     
   18    9   29 1     
   19   10   11 1     
   20   10   30 1     
   21   10   31 1     
   22   11   12 1     
   23   11   32 1     
   24   11   33 1     
   25   12   34 1     
   26   12   35 1     
   27   13   14 ar    
   28   13   52 1     
   29   14   36 1     
   30   15   16 1     
   31   16   24 1     
   32   16   17 1     
   33   16   37 1     
   34   17   18 1     
   35   17   38 1     
   36   17   39 1     
   37   18   19 1     
   38   18   40 1     
   39   18   41 1     
   40   19   24 1     
   41   19   20 1     
   42   19   51 1     
   43   20   21 1     
   44   20   42 1     
   45   20   43 1     
   46   21   22 1     
   47   21   44 1     
   48   21   45 1     
   49   22   23 1     
   50   22   46 1     
   51   22   47 1     
   52   23   24 1     
   53   23   48 1     
   54   23   49 1     
   55   24   50 1     
   56    1   53 1     
   57    1   54 1     
   58   15   55 1     
@<TRIPOS>SUBSTRUCTURE
      1 S1             1
@<TRIPOS>SET
LONE_PAIRS      STATIC     ATOMS    <user>   **** ""
3 53 54 55
DONOR_HYDROGENS      STATIC     ATOMS    <user>   **** ""
3 25 52 51
ATOM$BLUE        STATIC     ATOMS    COLORGROUP SYSTEM
3 53 54 55
ATOM$RED        STATIC     ATOMS    COLORGROUP SYSTEM
3 25 52 51
