AV-unprocessed.smi:229|AV-procd|sdf|1758|dock6
  -GOLD-   2262020283D 1   1.00000     0.00000
 Structure written by MMmdl.
 58 62  0  0  0  0  0  0  0  0  1 V2000
  153.6161  140.2552  160.1913 C   0  0  0  0  0  0  0  0  0  0  0  0
  153.8190  139.0767  159.2309 C   0  0  0  0  0  0  0  0  0  0  0  0
  152.5578  138.7411  158.4209 C   0  0  1  0  0  0  0  0  0  0  0  0
  151.4979  138.0343  159.2811 C   0  0  0  0  0  0  0  0  0  0  0  0
  150.2826  137.8315  158.5051 N   0  0  0  0  0  0  0  0  0  0  0  0
  149.3701  136.9139  158.9178 C   0  0  0  0  0  0  0  0  0  0  0  0
  148.7697  137.1347  160.1166 N   0  0  0  0  0  0  0  0  0  0  0  0
  147.8503  136.2858  160.5838 C   0  0  0  0  0  0  0  0  0  0  0  0
  147.3872  135.1676  160.0243 N   0  0  0  0  0  0  0  0  0  0  0  0
  147.9869  134.9331  158.8227 C   0  0  0  0  0  0  0  0  0  0  0  0
  148.9792  135.7436  158.1977 C   0  0  0  0  0  0  0  0  0  0  0  0
  149.3513  135.1660  156.9873 N   0  0  0  0  0  0  0  0  0  0  0  0
  148.6179  134.0908  156.8985 C   0  0  0  0  0  0  0  0  0  0  0  0
  147.7681  133.8761  157.9578 N   0  0  0  0  0  0  0  0  0  0  0  0
  146.8427  132.7688  158.1230 C   0  0  0  0  0  0  0  0  0  0  0  0
  145.3698  133.2245  158.1029 C   0  0  1  0  0  0  0  0  0  0  0  0
  145.1371  133.9928  156.9371 O   0  0  0  0  0  0  0  0  0  0  0  0
  144.3894  132.0368  158.1183 C   0  0  2  0  0  0  0  0  0  0  0  0
  142.9134  132.4352  158.1457 C   0  0  0  0  0  0  0  0  0  0  0  0
  142.2717  131.1854  158.7027 C   0  0  0  0  0  0  0  0  0  0  0  0
  143.3050  130.7264  159.7286 C   0  0  0  0  0  0  0  0  0  0  0  0
  144.5559  131.2629  159.3035 O   0  0  0  0  0  0  0  0  0  0  0  0
  149.7502  139.0597  157.9238 C   0  0  0  0  0  0  0  0  0  0  0  0
  150.8359  139.8024  157.1102 C   0  0  2  0  0  0  0  0  0  0  0  0
  150.3630  141.1968  156.7103 C   0  0  0  0  0  0  0  0  0  0  0  0
  149.8318  140.9970  155.2992 C   0  0  0  0  0  0  0  0  0  0  0  0
  150.7807  140.1059  154.7444 O   0  0  0  0  0  0  0  0  0  0  0  0
  151.1201  139.1456  155.7383 C   0  0  0  0  0  0  0  0  0  0  0  0
  152.0125  139.9586  157.9093 O   0  0  0  0  0  0  0  0  0  0  0  0
  154.5350  140.4742  160.7351 H   0  0  0  0  0  0  0  0  0  0  0  0
  152.8397  140.0390  160.9257 H   0  0  0  0  0  0  0  0  0  0  0  0
  153.3256  141.1570  159.6515 H   0  0  0  0  0  0  0  0  0  0  0  0
  154.6328  139.3197  158.5471 H   0  0  0  0  0  0  0  0  0  0  0  0
  154.1418  138.1989  159.7919 H   0  0  0  0  0  0  0  0  0  0  0  0
  152.8412  138.0822  157.5997 H   0  0  0  0  0  0  0  0  0  0  0  0
  151.8909  137.0762  159.6231 H   0  0  0  0  0  0  0  0  0  0  0  0
  151.2677  138.6331  160.1632 H   0  0  0  0  0  0  0  0  0  0  0  0
  147.4228  136.5411  161.5423 H   0  0  0  0  0  0  0  0  0  0  0  0
  148.6757  133.4226  156.0515 H   0  0  0  0  0  0  0  0  0  0  0  0
  147.0283  132.0377  157.3348 H   0  0  0  0  0  0  0  0  0  0  0  0
  147.0742  132.2739  159.0669 H   0  0  0  0  0  0  0  0  0  0  0  0
  145.1780  133.8601  158.9685 H   0  0  0  0  0  0  0  0  0  0  0  0
  144.3065  133.7338  156.5685 H   0  0  0  0  0  0  0  0  0  0  0  0
  144.5703  131.3829  157.2631 H   0  0  0  0  0  0  0  0  0  0  0  0
  142.7524  133.2732  158.8257 H   0  0  0  0  0  0  0  0  0  0  0  0
  142.5275  132.7110  157.1638 H   0  0  0  0  0  0  0  0  0  0  0  0
  141.2876  131.3632  159.1373 H   0  0  0  0  0  0  0  0  0  0  0  0
  142.1675  130.4384  157.9145 H   0  0  0  0  0  0  0  0  0  0  0  0
  143.0734  131.1287  160.7152 H   0  0  0  0  0  0  0  0  0  0  0  0
  143.3479  129.6398  159.8083 H   0  0  0  0  0  0  0  0  0  0  0  0
  148.8827  138.8681  157.2913 H   0  0  0  0  0  0  0  0  0  0  0  0
  149.4032  139.6907  158.7433 H   0  0  0  0  0  0  0  0  0  0  0  0
  149.6223  141.6222  157.3880 H   0  0  0  0  0  0  0  0  0  0  0  0
  151.2093  141.8848  156.6745 H   0  0  0  0  0  0  0  0  0  0  0  0
  148.8453  140.5307  155.3099 H   0  0  0  0  0  0  0  0  0  0  0  0
  149.7724  141.9270  154.7336 H   0  0  0  0  0  0  0  0  0  0  0  0
  152.1640  138.8627  155.6073 H   0  0  0  0  0  0  0  0  0  0  0  0
  150.5145  138.2501  155.5927 H   0  0  0  0  0  0  0  0  0  0  0  0
  1  2  1  0  0  0  0
  1 30  1  0  0  0  0
  1 31  1  0  0  0  0
  1 32  1  0  0  0  0
  2  3  1  0  0  0  0
  2 33  1  0  0  0  0
  2 34  1  0  0  0  0
  3 29  1  0  0  0  0
  3  4  1  0  0  0  0
  3 35  1  0  0  0  0
  4  5  1  0  0  0  0
  4 36  1  0  0  0  0
  4 37  1  0  0  0  0
  5  6  1  0  0  0  0
  5 23  1  0  0  0  0
  6 11  1  0  0  0  0
  6  7  2  0  0  0  0
  7  8  1  0  0  0  0
  8  9  2  0  0  0  0
  8 38  1  0  0  0  0
  9 10  1  0  0  0  0
 10 14  1  0  0  0  0
 10 11  2  0  0  0  0
 11 12  1  0  0  0  0
 12 13  2  0  0  0  0
 13 14  1  0  0  0  0
 13 39  1  0  0  0  0
 14 15  1  0  0  0  0
 15 16  1  0  0  0  0
 15 40  1  0  0  0  0
 15 41  1  0  0  0  0
 16 17  1  0  0  0  0
 16 18  1  0  0  0  0
 16 42  1  0  0  0  0
 17 43  1  0  0  0  0
 18 22  1  0  0  0  0
 18 19  1  0  0  0  0
 18 44  1  0  0  0  0
 19 20  1  0  0  0  0
 19 45  1  0  0  0  0
 19 46  1  0  0  0  0
 20 21  1  0  0  0  0
 20 47  1  0  0  0  0
 20 48  1  0  0  0  0
 21 22  1  0  0  0  0
 21 49  1  0  0  0  0
 21 50  1  0  0  0  0
 23 24  1  0  0  0  0
 23 51  1  0  0  0  0
 23 52  1  0  0  0  0
 24 28  1  0  0  0  0
 24 25  1  0  0  0  0
 24 29  1  0  0  0  0
 25 26  1  0  0  0  0
 25 53  1  0  0  0  0
 25 54  1  0  0  0  0
 26 27  1  0  0  0  0
 26 55  1  0  0  0  0
 26 56  1  0  0  0  0
 27 28  1  0  0  0  0
 28 57  1  0  0  0  0
 28 58  1  0  0  0  0
M  END
> <s_m_source_file>
AV-unprocessed.smi

> <i_m_source_file_index>
229

> <i_lp_mmshare_version>
43012

> <i_f3d_flags>
0

> <s_epik_input>
W0NIMl0xT1tDSDJdW0NIMl1bQ0BdMTJbQ0gyXU4oW0NIMl1bQ0BIXShPMilbQ0gyXVtDSDNdKWMobltjSF1uMyljKGMzNCluW2NIXW40W0NIMl1bQ0BIXShbT0hdKVtDQEBIXTVbQ0gyXVtDSDJdW0NIMl1PNQ==

> <s_epik_cmdline>
J2VwaWtfcHl0aG9uJywgJy1waCcsICc3LjAnLCAnLXRuJywgJzgnLCAnLW1hJywgJzIwMCcsICctbWV0YWxfYmluZGluZycsICctaW1hZScsICc8aW5maWxlLm1hZT4nLCAnLW9tYWUnLCAnPG91dGZpbGUubWFlPic=

> <r_lp_tautomer_probability>
1

> <r_epik_Ionization_Penalty>
0.00318402

> <r_epik_Ionization_Penalty_Charging>
0

> <r_epik_Ionization_Penalty_Neutral>
0.00318402

> <r_epik_State_Penalty>
0.00215642

> <r_epik_Charging_Adjusted_Penalty>
0.00215642

> <i_epik_Tot_Q>
0

> <i_epik_Tot_abs_Q>
0

> <r_epik_Metal_State_Penalty>
-0

> <b_epik_Metal_Only>
0

> <s_lp_Force_Field>
OPLS_2005

> <r_lp_Energy>
55.1094

> <b_lp_Chiralities_Consistent>
1

> <s_lp_Variant>
AV-unprocessed.smi:229-12

> <Gold.Version>
5.8.1

> <Gold.Id.Protein>
6NUR|6NUR_protein|mol2

> <Gold.PLP.Fitness>
35.3788

> <Gold.PLP.PLP>
-31.3234

> <Gold.PLP.part.hbond>
-2.5340

> <Gold.PLP.part.metal>
0.0000

> <Gold.PLP.part.buried>
-6.9689

> <Gold.PLP.part.nonpolar>
-23.3119

> <Gold.PLP.part.repulsive>
0.0761

> <Gold.PLP.ligand.clash>
0.0000

> <Gold.PLP.ligand.torsion>
0.4349

> <Gold.PLP.Chemscore.Hbond>
1.4760

> <Gold.PLP.Chemscore.CHOScore>
0.0000

> <Gold.PLP.Chemscore.Metal>
0.0000

> <Gold.Chemscore.Hbonds>
donor molecule, donor type, donor heavy atom, donor atom, acceptor molecule, acceptor atom, score
      P1  H  6931  6943       L1     7  0.42
      P1  H  7989  7998       L1    27  1.00

> <Gold.PLP.Chemscore.Internal.Correction>
0.4972

> <Gold.Rescore>
     Score         DG    S(hbond)    S(metal)    S(lipo)     H(rot)  DE(clash)    DE(int)     intcor
     10.82     -11.29       1.36        0.00      64.54       2.46       0.02       0.44       ----

> <Gold.Chemscore.Fitness>
10.8250

> <Gold.Chemscore.DG>
-11.2852

> <Gold.Chemscore.ZeroCoef>
-5.4800

> <Gold.Chemscore.Hbond>
1.3621

> <Gold.Chemscore.Metal>
0.0000

> <Gold.Chemscore.Lipo>
64.5380

> <Gold.Chemscore.Internal_Hbond>
0.0000

> <Gold.Chemscore.DEClash>
0.0164

> <Gold.Chemscore.DEInternal>
0.4438

> <Gold.Chemscore.Rot>
2.4591

> <Gold.Chemscore.Internal.Correction>
   9.000000E+99

> <Gold.Chemscore.Hbonds>
donor molecule, donor type, donor heavy atom, donor atom, acceptor molecule, acceptor atom, score
      P1  H  6931  6943       L1     7  0.08
      P1  H  7989  7998       L1    27  0.74

> <Gold.Chemscore.Hbond.Weighted>
-4.5496

> <Gold.Chemscore.Metal.Weighted>
-0.0000

> <Gold.Chemscore.Lipo.Weighted>
-7.5509

> <Gold.Chemscore.Internal_Hbond.Weighted>
0.0000

> <Gold.Chemscore.DEClash.Weighted>
0.0164

> <Gold.Chemscore.DEInternal.Weighted>
0.4438

> <Gold.Chemscore.Rot.Weighted>
6.2953

> <Gold.Chemscore.Internal.Correction.Weighted>
   9.000000E+99

> <Gold.Protein.RotatedTorsions>
[ 6907 6896 6895 6894 ] final -108.93 input  -60.11 | X-H torsion
[ 7974 7965 7964 7962 ] final   11.95 input  175.53 | X-H torsion
[ 8008 7997 7996 7995 ] final  -68.95 input   59.86 | X-H torsion
[ 10167 10162 10161 10158 ] final  171.26 input  -65.29 | X-H torsion
[ 10718 10713 10712 10709 ] final -112.34 input   66.30 | X-H torsion
[ 10763 10752 10751 10750 ] final  -34.33 input  -60.55 | X-H torsion
[ 11005 11000 10999 10996 ] final  122.66 input  -57.11 | X-H torsion

> <Gold.Protein.ActiveResidues>
 VAL166  LYS551  ARG553  GLY616  TRP617  ASP618  TYR619  PRO620  LYS621  CYS622 
 ASP623  PHE694  ASN695  SER759  ASP760  ASP761  ALA762  ILE779  LEU786  VAL792 
 PHE793  MET794  SER795  GLU796  ALA797  LYS798  CYS799  TRP800  GLU811  SER814 

> <Gold.Protein.RotatedAtoms>
  150.7531  133.9604  159.3513 H   0  0  0  0  0  0  0  0  0  0  0  0  # atno 6907 bound_to 6896
  151.7529  135.0826  160.0343 H   0  0  0  0  0  0  0  0  0  0  0  0  # atno 6908 bound_to 6896
  152.3454  133.6079  159.5942 H   0  0  0  0  0  0  0  0  0  0  0  0  # atno 6909 bound_to 6896
  146.2361  139.9410  142.8483 H   0  0  0  0  0  0  0  0  0  0  0  0  # atno 7974 bound_to 7965
  154.4904  140.0863  156.7582 H   0  0  0  0  0  0  0  0  0  0  0  0  # atno 8008 bound_to 7997
  155.4245  140.3447  155.4256 H   0  0  0  0  0  0  0  0  0  0  0  0  # atno 8009 bound_to 7997
  156.1322  140.1504  156.9037 H   0  0  0  0  0  0  0  0  0  0  0  0  # atno 8010 bound_to 7997
  139.5041  144.3506  151.9927 H   0  0  0  0  0  0  0  0  0  0  0  0  # atno 10167 bound_to 10162
  156.0700  130.5915  150.8495 H   0  0  0  0  0  0  0  0  0  0  0  0  # atno 10718 bound_to 10713
  153.8449  135.6854  153.4798 H   0  0  0  0  0  0  0  0  0  0  0  0  # atno 10763 bound_to 10752
  153.1431  135.4649  154.9524 H   0  0  0  0  0  0  0  0  0  0  0  0  # atno 10764 bound_to 10752
  154.7828  135.3274  154.7899 H   0  0  0  0  0  0  0  0  0  0  0  0  # atno 10765 bound_to 10752
  139.9278  134.9641  156.8143 H   0  0  0  0  0  0  0  0  0  0  0  0  # atno 11005 bound_to 11000
  145.1953  140.9830  143.4187 LP  0  0  0  0  0  0  0  0  0  0  0  0  # atno 17320 bound_to 7965
  144.9821  139.3773  143.6257 LP  0  0  0  0  0  0  0  0  0  0  0  0  # atno 17321 bound_to 7965
  140.2943  144.3719  150.6079 LP  0  0  0  0  0  0  0  0  0  0  0  0  # atno 17342 bound_to 10162
  140.5923  143.2167  151.7230 LP  0  0  0  0  0  0  0  0  0  0  0  0  # atno 17343 bound_to 10162
  157.5765  131.0946  150.9337 LP  0  0  0  0  0  0  0  0  0  0  0  0  # atno 17370 bound_to 10713
  156.9542  130.5431  149.5283 LP  0  0  0  0  0  0  0  0  0  0  0  0  # atno 17371 bound_to 10713
  140.6287  133.9926  155.7651 LP  0  0  0  0  0  0  0  0  0  0  0  0  # atno 17394 bound_to 11000
  141.0847  134.0008  157.3331 LP  0  0  0  0  0  0  0  0  0  0  0  0  # atno 17395 bound_to 11000

$$$$
