AV-unprocessed.smi:1235|AV-procd|sdf|5175|dock3
  -GOLD-   22720 4253D 1   1.00000     0.00000
 Structure written by MMmdl.
 50 51  0  0  0  0  0  0  0  0  2 V2000
  147.1437  141.3778  155.1045 C   0  0  0  0  0  0  0  0  0  0  0  0
  148.4920  141.0596  154.8062 O   0  0  0  0  0  0  0  0  0  0  0  0
  148.8780  139.7966  155.3208 C   0  0  0  0  0  0  0  0  0  0  0  0
  150.2330  139.4048  154.7124 C   0  0  0  0  0  0  0  0  0  0  0  0
  150.7500  138.1655  155.3015 N   0  0  0  0  0  0  0  0  0  0  0  0
  149.9374  137.0625  155.0986 N   0  0  0  0  0  0  0  0  0  0  0  0
  150.2799  135.9071  155.5698 C   0  0  0  0  0  0  0  0  0  0  0  0
  149.4351  134.6966  155.3697 C   0  0  0  0  0  0  0  0  0  0  0  0
  149.4626  133.7455  156.1526 O   0  0  0  0  0  0  0  0  0  0  0  0
  148.6475  134.7161  154.2792 N   0  0  0  0  0  0  0  0  0  0  0  0
  147.7357  133.6488  153.8850 C   0  0  0  0  0  0  0  0  0  0  0  0
  148.3202  132.8061  152.7325 C   0  0  0  0  0  0  0  0  0  0  0  0
  147.2685  132.1484  151.9049 N   0  3  2  0  0  0  0  0  0  0  0  0
  146.3269  133.1539  151.3305 C   0  0  0  0  0  0  0  0  0  0  0  0
  145.3160  132.5168  150.3680 C   0  0  0  0  0  0  0  0  0  0  0  0
  144.5215  131.4223  151.0788 C   0  0  0  0  0  0  0  0  0  0  0  0
  145.4923  130.3940  151.6636 C   0  0  0  0  0  0  0  0  0  0  0  0
  146.5350  131.0408  152.6035 C   0  0  1  0  0  0  0  0  0  0  0  0
  147.4665  129.9283  153.1309 C   0  0  0  0  0  0  0  0  0  0  0  0
  151.5147  135.7448  156.3184 C   0  0  0  0  0  0  0  0  0  0  0  0
  152.2939  136.8312  156.5135 C   0  0  0  0  0  0  0  0  0  0  0  0
  151.9290  138.1501  155.9936 C   0  0  0  0  0  0  0  0  0  0  0  0
  152.6175  139.1555  156.1652 O   0  0  0  0  0  0  0  0  0  0  0  0
  146.8943  142.3501  154.6793 H   0  0  0  0  0  0  0  0  0  0  0  0
  146.9797  141.4295  156.1818 H   0  0  0  0  0  0  0  0  0  0  0  0
  146.4606  140.6402  154.6809 H   0  0  0  0  0  0  0  0  0  0  0  0
  148.9492  139.8440  156.4087 H   0  0  0  0  0  0  0  0  0  0  0  0
  148.1239  139.0480  155.0716 H   0  0  0  0  0  0  0  0  0  0  0  0
  150.1235  139.2842  153.6330 H   0  0  0  0  0  0  0  0  0  0  0  0
  150.9502  140.2174  154.8413 H   0  0  0  0  0  0  0  0  0  0  0  0
  148.6797  135.5350  153.6882 H   0  0  0  0  0  0  0  0  0  0  0  0
  147.5076  133.0452  154.7630 H   0  0  0  0  0  0  0  0  0  0  0  0
  146.7970  134.1056  153.5704 H   0  0  0  0  0  0  0  0  0  0  0  0
  148.9210  133.4881  152.1368 H   0  0  0  0  0  0  0  0  0  0  0  0
  149.0097  132.0491  153.1090 H   0  0  0  0  0  0  0  0  0  0  0  0
  145.7986  133.6602  152.1402 H   0  0  0  0  0  0  0  0  0  0  0  0
  146.8675  133.9246  150.7847 H   0  0  0  0  0  0  0  0  0  0  0  0
  144.6368  133.2780  149.9826 H   0  0  0  0  0  0  0  0  0  0  0  0
  145.8373  132.0992  149.5055 H   0  0  0  0  0  0  0  0  0  0  0  0
  143.9133  131.8569  151.8734 H   0  0  0  0  0  0  0  0  0  0  0  0
  143.8337  130.9410  150.3827 H   0  0  0  0  0  0  0  0  0  0  0  0
  144.9240  129.6340  152.2014 H   0  0  0  0  0  0  0  0  0  0  0  0
  146.0015  129.8756  150.8494 H   0  0  0  0  0  0  0  0  0  0  0  0
  146.0062  131.4731  153.4547 H   0  0  0  0  0  0  0  0  0  0  0  0
  146.8902  129.0624  153.4590 H   0  0  0  0  0  0  0  0  0  0  0  0
  148.0473  130.2418  153.9974 H   0  0  0  0  0  0  0  0  0  0  0  0
  148.1569  129.5869  152.3590 H   0  0  0  0  0  0  0  0  0  0  0  0
  151.8089  134.7835  156.7142 H   0  0  0  0  0  0  0  0  0  0  0  0
  153.2139  136.7257  157.0695 H   0  0  0  0  0  0  0  0  0  0  0  0
  147.7458  131.7164  151.1267 H   0  0  0  0  0  0  0  0  0  0  0  0
  1  2  1  0  0  0  0
  1 24  1  0  0  0  0
  1 25  1  0  0  0  0
  1 26  1  0  0  0  0
  2  3  1  0  0  0  0
  3  4  1  0  0  0  0
  3 27  1  0  0  0  0
  3 28  1  0  0  0  0
  4  5  1  0  0  0  0
  4 29  1  0  0  0  0
  4 30  1  0  0  0  0
  5 22  1  0  0  0  0
  5  6  1  0  0  0  0
  6  7  2  0  0  0  0
  7  8  1  0  0  0  0
  7 20  1  0  0  0  0
  8  9  2  0  0  0  0
  8 10  1  0  0  0  0
 10 11  1  0  0  0  0
 10 31  1  0  0  0  0
 11 12  1  0  0  0  0
 11 32  1  0  0  0  0
 11 33  1  0  0  0  0
 12 13  1  0  0  0  0
 12 34  1  0  0  0  0
 12 35  1  0  0  0  0
 13 18  1  0  0  0  0
 13 14  1  0  0  0  0
 13 50  1  0  0  0  0
 14 15  1  0  0  0  0
 14 36  1  0  0  0  0
 14 37  1  0  0  0  0
 15 16  1  0  0  0  0
 15 38  1  0  0  0  0
 15 39  1  0  0  0  0
 16 17  1  0  0  0  0
 16 40  1  0  0  0  0
 16 41  1  0  0  0  0
 17 18  1  0  0  0  0
 17 42  1  0  0  0  0
 17 43  1  0  0  0  0
 18 19  1  0  0  0  0
 18 44  1  0  0  0  0
 19 45  1  0  0  0  0
 19 46  1  0  0  0  0
 19 47  1  0  0  0  0
 20 21  2  0  0  0  0
 20 48  1  0  0  0  0
 21 22  1  0  0  0  0
 21 49  1  0  0  0  0
 22 23  2  0  0  0  0
M  CHG  1  13   1
M  END
> <s_m_source_file>
AV-unprocessed.smi

> <i_m_source_file_index>
1235

> <i_lp_mmshare_version>
43012

> <i_f3d_flags>
0

> <s_epik_input>
W0NIM11PW0NIMl1bQ0gyXW4xbmMoW2NIXVtjSF1jMT1PKUMoPU8pW05IXVtDSDJdW0NIMl1OMltDSDJdW0NIMl1bQ0gyXVtDSDJdW0NASF0yW0NIM10=

> <s_epik_cmdline>
J2VwaWtfcHl0aG9uJywgJy1waCcsICc3LjAnLCAnLXRuJywgJzgnLCAnLW1hJywgJzIwMCcsICctbWV0YWxfYmluZGluZycsICctaW1hZScsICc8aW5maWxlLm1hZT4nLCAnLW9tYWUnLCAnPG91dGZpbGUubWFlPic=

> <r_lp_tautomer_probability>
1

> <r_epik_Ionization_Penalty>
0.00271975

> <r_epik_Ionization_Penalty_Charging>
0.00271407

> <r_epik_Ionization_Penalty_Neutral>
5.6803e-06

> <r_epik_State_Penalty>
0.00189271

> <r_epik_Charging_Adjusted_Penalty>
0.00460678

> <i_epik_Tot_Q>
1

> <i_epik_Tot_abs_Q>
1

> <r_epik_Metal_State_Penalty>
-0

> <b_epik_Metal_Only>
0

> <s_lp_Force_Field>
OPLS_2005

> <r_lp_Energy>
40.0899

> <b_lp_Chiralities_Consistent>
1

> <s_lp_Variant>
AV-unprocessed.smi:1235-1

> <Gold.Version>
5.8.1

> <Gold.Id.Protein>
6NUR|6NUR_protein|mol2

> <Gold.PLP.Fitness>
49.6157

> <Gold.PLP.PLP>
-39.0846

> <Gold.PLP.part.hbond>
-4.6473

> <Gold.PLP.part.metal>
0.0000

> <Gold.PLP.part.buried>
-5.1119

> <Gold.PLP.part.nonpolar>
-31.1932

> <Gold.PLP.part.repulsive>
1.4131

> <Gold.PLP.ligand.clash>
0.0000

> <Gold.PLP.ligand.torsion>
0.6259

> <Gold.PLP.Chemscore.Hbond>
3.8640

> <Gold.PLP.Chemscore.CHOScore>
0.0000

> <Gold.PLP.Chemscore.Metal>
0.0000

> <Gold.Chemscore.Hbonds>
donor molecule, donor type, donor heavy atom, donor atom, acceptor molecule, acceptor atom, score
      L1  H    10    31       P1  7948  0.90
      L1  H    13    50       P1 10747  1.00
      P1  H  7997  8008       L1    23  1.00

> <Gold.PLP.Chemscore.Internal.Correction>
0.1909

> <Gold.Rescore>
     Score         DG    S(hbond)    S(metal)    S(lipo)     H(rot)  DE(clash)    DE(int)     intcor
     20.64     -22.10       3.14        0.00      96.18       2.00       0.68       0.78       ----

> <Gold.Chemscore.Fitness>
20.6426

> <Gold.Chemscore.DG>
-22.1023

> <Gold.Chemscore.ZeroCoef>
-5.4800

> <Gold.Chemscore.Hbond>
3.1420

> <Gold.Chemscore.Metal>
0.0000

> <Gold.Chemscore.Lipo>
96.1808

> <Gold.Chemscore.Internal_Hbond>
0.0000

> <Gold.Chemscore.DEClash>
0.6776

> <Gold.Chemscore.DEInternal>
0.7821

> <Gold.Chemscore.Rot>
2.0020

> <Gold.Chemscore.Internal.Correction>
   9.000000E+99

> <Gold.Chemscore.Hbonds>
donor molecule, donor type, donor heavy atom, donor atom, acceptor molecule, acceptor atom, score
      L1  H    10    31       P1  7948  0.84
      L1  H    13    50       P1 10747  0.99
      P1  H  7997  8008       L1    23  0.98

> <Gold.Chemscore.Hbond.Weighted>
-10.4943

> <Gold.Chemscore.Metal.Weighted>
-0.0000

> <Gold.Chemscore.Lipo.Weighted>
-11.2532

> <Gold.Chemscore.Internal_Hbond.Weighted>
0.0000

> <Gold.Chemscore.DEClash.Weighted>
0.6776

> <Gold.Chemscore.DEInternal.Weighted>
0.7821

> <Gold.Chemscore.Rot.Weighted>
5.1252

> <Gold.Chemscore.Internal.Correction.Weighted>
   9.000000E+99

> <Gold.Protein.RotatedTorsions>
[ 6907 6896 6895 6894 ] final  164.69 input  -60.11 | X-H torsion
[ 7974 7965 7964 7962 ] final  -79.97 input  175.53 | X-H torsion
[ 8008 7997 7996 7995 ] final  -43.62 input   59.86 | X-H torsion
[ 10167 10162 10161 10158 ] final -107.23 input  -65.29 | X-H torsion
[ 10718 10713 10712 10709 ] final   40.27 input   66.30 | X-H torsion
[ 10763 10752 10751 10750 ] final  125.86 input  -60.55 | X-H torsion
[ 11005 11000 10999 10996 ] final   93.04 input  -57.11 | X-H torsion

> <Gold.Protein.ActiveResidues>
 VAL166  LYS551  ARG553  GLY616  TRP617  ASP618  TYR619  PRO620  LYS621  CYS622 
 ASP623  PHE694  ASN695  SER759  ASP760  ASP761  ALA762  ILE779  LEU786  VAL792 
 PHE793  MET794  SER795  GLU796  ALA797  LYS798  CYS799  TRP800  GLU811  SER814 

> <Gold.Protein.RotatedAtoms>
  151.9059  133.3549  159.3846 H   0  0  0  0  0  0  0  0  0  0  0  0  # atno 6907 bound_to 6896
  150.7069  134.4781  159.5466 H   0  0  0  0  0  0  0  0  0  0  0  0  # atno 6908 bound_to 6896
  152.2378  134.8259  160.0515 H   0  0  0  0  0  0  0  0  0  0  0  0  # atno 6909 bound_to 6896
  145.5661  140.9474  143.1421 H   0  0  0  0  0  0  0  0  0  0  0  0  # atno 7974 bound_to 7965
  154.3997  140.1443  156.3549 H   0  0  0  0  0  0  0  0  0  0  0  0  # atno 8008 bound_to 7997
  155.8235  140.3468  155.5507 H   0  0  0  0  0  0  0  0  0  0  0  0  # atno 8009 bound_to 7997
  155.8263  140.0905  157.1809 H   0  0  0  0  0  0  0  0  0  0  0  0  # atno 8010 bound_to 7997
  140.1792  143.3980  152.1295 H   0  0  0  0  0  0  0  0  0  0  0  0  # atno 10167 bound_to 10162
  157.3802  130.7749  149.7187 H   0  0  0  0  0  0  0  0  0  0  0  0  # atno 10718 bound_to 10713
  153.6840  135.3310  155.3185 H   0  0  0  0  0  0  0  0  0  0  0  0  # atno 10763 bound_to 10752
  154.8458  135.4416  154.1577 H   0  0  0  0  0  0  0  0  0  0  0  0  # atno 10764 bound_to 10752
  153.2601  135.6990  153.7665 H   0  0  0  0  0  0  0  0  0  0  0  0  # atno 10765 bound_to 10752
  139.8815  134.8767  156.3661 H   0  0  0  0  0  0  0  0  0  0  0  0  # atno 11005 bound_to 11000
  144.7460  139.7320  143.7292 LP  0  0  0  0  0  0  0  0  0  0  0  0  # atno 17320 bound_to 7965
  146.1817  139.5012  142.9862 LP  0  0  0  0  0  0  0  0  0  0  0  0  # atno 17321 bound_to 7965
  139.5304  144.7152  151.5078 LP  0  0  0  0  0  0  0  0  0  0  0  0  # atno 17342 bound_to 10162
  140.6531  143.8655  150.6806 LP  0  0  0  0  0  0  0  0  0  0  0  0  # atno 17343 bound_to 10162
  155.9774  130.4063  150.3714 LP  0  0  0  0  0  0  0  0  0  0  0  0  # atno 17370 bound_to 10713
  157.1817  131.0394  151.2745 LP  0  0  0  0  0  0  0  0  0  0  0  0  # atno 17371 bound_to 10713
  140.9496  133.7459  156.0255 LP  0  0  0  0  0  0  0  0  0  0  0  0  # atno 17394 bound_to 11000
  140.8121  134.3387  157.5408 LP  0  0  0  0  0  0  0  0  0  0  0  0  # atno 17395 bound_to 11000

$$$$
