AV-unprocessed.smi:703|AV-procd|sdf|3428|dock6
  -GOLD-   22720 0413D 1   1.00000     0.00000
 Structure written by MMmdl.
 38 39  0  0  0  0  0  0  0  0  2 V2000
  147.0827  139.2966  152.2507 C   0  0  0  0  0  0  0  0  0  0  0  0
  147.0554  138.4662  153.5410 C   0  0  0  0  0  0  0  0  0  0  0  0
  148.3936  137.9386  153.8972 N   0  3  1  0  0  0  0  0  0  0  0  0
  149.3594  138.9503  154.3747 C   0  0  0  0  0  0  0  0  0  0  0  0
  150.3731  138.1892  155.2333 C   0  0  2  0  0  0  0  0  0  0  0  0
  151.5246  137.6190  154.3885 C   0  0  0  0  0  0  0  0  0  0  0  0
  149.5227  137.0860  155.8772 C   0  0  1  0  0  0  0  0  0  0  0  0
  149.0089  137.5448  157.1720 N   0  0  0  0  0  0  0  0  0  0  0  0
  149.1794  136.4989  158.5339 S   0  0  0  0  0  0  0  0  0  0  0  0
  149.8423  135.2686  158.0744 O   0  0  0  0  0  0  0  0  0  0  0  0
  149.7737  137.2896  159.6220 O   0  0  0  0  0  0  0  0  0  0  0  0
  147.4316  136.1010  158.9584 C   0  0  0  0  0  0  0  0  0  0  0  0
  147.2441  136.1988  160.4449 C   0  0  0  0  0  0  0  0  0  0  0  0
  147.0726  135.1455  161.3849 C   0  0  0  0  0  0  0  0  0  0  0  0
  146.9530  135.7995  162.5772 C   0  0  0  0  0  0  0  0  0  0  0  0
  147.0381  137.1411  162.3939 O   0  0  0  0  0  0  0  0  0  0  0  0
  147.2220  137.3863  161.0284 N   0  0  0  0  0  0  0  0  0  0  0  0
  148.3689  136.8377  154.8875 C   0  0  0  0  0  0  0  0  0  0  0  0
  146.0775  139.6225  151.9823 H   0  0  0  0  0  0  0  0  0  0  0  0
  147.4756  138.7154  151.4159 H   0  0  0  0  0  0  0  0  0  0  0  0
  147.6976  140.1902  152.3588 H   0  0  0  0  0  0  0  0  0  0  0  0
  146.6557  139.0577  154.3661 H   0  0  0  0  0  0  0  0  0  0  0  0
  146.3756  137.6249  153.3995 H   0  0  0  0  0  0  0  0  0  0  0  0
  149.8228  139.4899  153.5478 H   0  0  0  0  0  0  0  0  0  0  0  0
  148.8405  139.6815  154.9968 H   0  0  0  0  0  0  0  0  0  0  0  0
  150.8075  138.8507  155.9847 H   0  0  0  0  0  0  0  0  0  0  0  0
  151.1593  136.9478  153.6104 H   0  0  0  0  0  0  0  0  0  0  0  0
  152.2228  137.0571  155.0096 H   0  0  0  0  0  0  0  0  0  0  0  0
  152.0874  138.4168  153.9029 H   0  0  0  0  0  0  0  0  0  0  0  0
  150.1099  136.1809  156.0411 H   0  0  0  0  0  0  0  0  0  0  0  0
  149.3551  138.4792  157.3904 H   0  0  0  0  0  0  0  0  0  0  0  0
  146.7790  136.7935  158.4263 H   0  0  0  0  0  0  0  0  0  0  0  0
  147.2111  135.0945  158.6038 H   0  0  0  0  0  0  0  0  0  0  0  0
  147.0465  134.0799  161.2129 H   0  0  0  0  0  0  0  0  0  0  0  0
  146.8099  135.4676  163.5948 H   0  0  0  0  0  0  0  0  0  0  0  0
  147.4055  136.7802  155.3970 H   0  0  0  0  0  0  0  0  0  0  0  0
  148.5086  135.8942  154.3591 H   0  0  0  0  0  0  0  0  0  0  0  0
  148.7916  137.5407  153.0583 H   0  0  0  0  0  0  0  0  0  0  0  0
  1  2  1  0  0  0  0
  1 19  1  0  0  0  0
  1 20  1  0  0  0  0
  1 21  1  0  0  0  0
  2  3  1  0  0  0  0
  2 22  1  0  0  0  0
  2 23  1  0  0  0  0
  3 18  1  0  0  0  0
  3  4  1  0  0  0  0
  3 38  1  0  0  0  0
  4  5  1  0  0  0  0
  4 24  1  0  0  0  0
  4 25  1  0  0  0  0
  5  6  1  0  0  0  0
  5  7  1  0  0  0  0
  5 26  1  0  0  0  0
  6 27  1  0  0  0  0
  6 28  1  0  0  0  0
  6 29  1  0  0  0  0
  7  8  1  0  0  0  0
  7 18  1  0  0  0  0
  7 30  1  0  0  0  0
  8  9  1  0  0  0  0
  8 31  1  0  0  0  0
  9 10  2  0  0  0  0
  9 11  2  0  0  0  0
  9 12  1  0  0  0  0
 12 13  1  0  0  0  0
 12 32  1  0  0  0  0
 12 33  1  0  0  0  0
 13 17  2  0  0  0  0
 13 14  1  0  0  0  0
 14 15  2  0  0  0  0
 14 34  1  0  0  0  0
 15 16  1  0  0  0  0
 15 35  1  0  0  0  0
 16 17  1  0  0  0  0
 18 36  1  0  0  0  0
 18 37  1  0  0  0  0
M  CHG  1   3   1
M  END
> <s_m_source_file>
AV-unprocessed.smi

> <i_m_source_file_index>
703

> <i_lp_mmshare_version>
43012

> <i_f3d_flags>
0

> <s_epik_input>
W0NIM11bQ0gyXU4xW0NIMl1bQ0BASF0oW0NIM10pW0NASF0oW0NIMl0xKVtOSF1TKD1PKSg9TylbQ0gyXWMyW2NIXVtjSF1vbjI=

> <s_epik_cmdline>
J2VwaWtfcHl0aG9uJywgJy1waCcsICc3LjAnLCAnLXRuJywgJzgnLCAnLW1hJywgJzIwMCcsICctbWV0YWxfYmluZGluZycsICctaW1hZScsICc8aW5maWxlLm1hZT4nLCAnLW9tYWUnLCAnPG91dGZpbGUubWFlPic=

> <r_epik_Ionization_Penalty>
0.00324529

> <r_epik_Ionization_Penalty_Charging>
0.0019384

> <r_epik_Ionization_Penalty_Neutral>
0.00130689

> <r_epik_State_Penalty>
0.00218682

> <r_epik_Charging_Adjusted_Penalty>
0.00412522

> <i_epik_Tot_Q>
1

> <i_epik_Tot_abs_Q>
1

> <r_epik_Metal_State_Penalty>
0.310831

> <b_epik_Metal_Only>
0

> <s_lp_Force_Field>
OPLS_2005

> <r_lp_Energy>
19.6453

> <b_lp_Chiralities_Consistent>
1

> <s_lp_Variant>
AV-unprocessed.smi:703-3

> <Gold.Version>
5.8.1

> <Gold.Id.Protein>
6NUR|6NUR_protein|mol2

> <Gold.PLP.Fitness>
39.7163

> <Gold.PLP.PLP>
-30.6623

> <Gold.PLP.part.hbond>
-6.7751

> <Gold.PLP.part.metal>
0.0000

> <Gold.PLP.part.buried>
-3.0495

> <Gold.PLP.part.nonpolar>
-21.3081

> <Gold.PLP.part.repulsive>
0.0032

> <Gold.PLP.ligand.clash>
0.0000

> <Gold.PLP.ligand.torsion>
1.2941

> <Gold.PLP.Chemscore.Hbond>
3.8240

> <Gold.PLP.Chemscore.CHOScore>
0.0000

> <Gold.PLP.Chemscore.Metal>
0.0000

> <Gold.Chemscore.Hbonds>
donor molecule, donor type, donor heavy atom, donor atom, acceptor molecule, acceptor atom, score
      L1  H     3    38       P1  7948  2.00
      P1  H  6896  6908       L1    10  0.88
      P1  H  6934  6947       L1    17  1.00

> <Gold.PLP.Chemscore.Internal.Correction>
0.1703

> <Gold.Rescore>
     Score         DG    S(hbond)    S(metal)    S(lipo)     H(rot)  DE(clash)    DE(int)     intcor
     14.99     -17.49       3.24        0.00      52.55       1.94       0.03       2.47       ----

> <Gold.Chemscore.Fitness>
14.9907

> <Gold.Chemscore.DG>
-17.4861

> <Gold.Chemscore.ZeroCoef>
-5.4800

> <Gold.Chemscore.Hbond>
3.2408

> <Gold.Chemscore.Metal>
0.0000

> <Gold.Chemscore.Lipo>
52.5502

> <Gold.Chemscore.Internal_Hbond>
0.0000

> <Gold.Chemscore.DEClash>
0.0251

> <Gold.Chemscore.DEInternal>
2.4703

> <Gold.Chemscore.Rot>
1.9400

> <Gold.Chemscore.Internal.Correction>
   9.000000E+99

> <Gold.Chemscore.Hbonds>
donor molecule, donor type, donor heavy atom, donor atom, acceptor molecule, acceptor atom, score
      L1  H     3    38       P1  7948  0.97
      P1  H  6896  6908       L1    10  0.34
      P1  H  6934  6947       L1    17  0.39

> <Gold.Chemscore.Hbond.Weighted>
-10.8242

> <Gold.Chemscore.Metal.Weighted>
-0.0000

> <Gold.Chemscore.Lipo.Weighted>
-6.1484

> <Gold.Chemscore.Internal_Hbond.Weighted>
0.0000

> <Gold.Chemscore.DEClash.Weighted>
0.0251

> <Gold.Chemscore.DEInternal.Weighted>
2.4703

> <Gold.Chemscore.Rot.Weighted>
4.9665

> <Gold.Chemscore.Internal.Correction.Weighted>
   9.000000E+99

> <Gold.Protein.RotatedTorsions>
[ 6907 6896 6895 6894 ] final  178.36 input  -60.11 | X-H torsion
[ 7974 7965 7964 7962 ] final -176.49 input  175.53 | X-H torsion
[ 8008 7997 7996 7995 ] final   44.74 input   59.86 | X-H torsion
[ 10167 10162 10161 10158 ] final  129.21 input  -65.29 | X-H torsion
[ 10718 10713 10712 10709 ] final -156.00 input   66.30 | X-H torsion
[ 10763 10752 10751 10750 ] final   16.56 input  -60.55 | X-H torsion
[ 11005 11000 10999 10996 ] final  -85.64 input  -57.11 | X-H torsion

> <Gold.Protein.ActiveResidues>
 VAL166  LYS551  ARG553  GLY616  TRP617  ASP618  TYR619  PRO620  LYS621  CYS622 
 ASP623  PHE694  ASN695  SER759  ASP760  ASP761  ALA762  ILE779  LEU786  VAL792 
 PHE793  MET794  SER795  GLU796  ALA797  LYS798  CYS799  TRP800  GLU811  SER814 

> <Gold.Protein.RotatedAtoms>
  151.6890  133.3311  159.3237 H   0  0  0  0  0  0  0  0  0  0  0  0  # atno 6907 bound_to 6896
  150.7787  134.6715  159.6403 H   0  0  0  0  0  0  0  0  0  0  0  0  # atno 6908 bound_to 6896
  152.3838  134.6552  160.0185 H   0  0  0  0  0  0  0  0  0  0  0  0  # atno 6909 bound_to 6896
  144.7127  140.1163  143.6408 H   0  0  0  0  0  0  0  0  0  0  0  0  # atno 7974 bound_to 7965
  155.3243  140.3399  155.4240 H   0  0  0  0  0  0  0  0  0  0  0  0  # atno 8008 bound_to 7997
  156.1893  140.1692  156.8160 H   0  0  0  0  0  0  0  0  0  0  0  0  # atno 8009 bound_to 7997
  154.5423  140.0722  156.8515 H   0  0  0  0  0  0  0  0  0  0  0  0  # atno 8010 bound_to 7997
  139.5489  144.6797  151.4386 H   0  0  0  0  0  0  0  0  0  0  0  0  # atno 10167 bound_to 10162
  156.5205  130.8476  151.2680 H   0  0  0  0  0  0  0  0  0  0  0  0  # atno 10718 bound_to 10713
  153.1420  135.6762  153.9013 H   0  0  0  0  0  0  0  0  0  0  0  0  # atno 10763 bound_to 10752
  153.8466  135.3098  155.3431 H   0  0  0  0  0  0  0  0  0  0  0  0  # atno 10764 bound_to 10752
  154.7795  135.4896  153.9898 H   0  0  0  0  0  0  0  0  0  0  0  0  # atno 10765 bound_to 10752
  141.1639  133.7410  156.9044 H   0  0  0  0  0  0  0  0  0  0  0  0  # atno 11005 bound_to 11000
  145.9411  139.2669  143.1268 LP  0  0  0  0  0  0  0  0  0  0  0  0  # atno 17320 bound_to 7965
  145.9423  140.8970  143.0301 LP  0  0  0  0  0  0  0  0  0  0  0  0  # atno 17321 bound_to 7965
  140.6746  143.8219  150.7041 LP  0  0  0  0  0  0  0  0  0  0  0  0  # atno 17342 bound_to 10162
  140.1654  143.4240  152.2038 LP  0  0  0  0  0  0  0  0  0  0  0  0  # atno 17343 bound_to 10162
  157.7437  130.9919  150.2616 LP  0  0  0  0  0  0  0  0  0  0  0  0  # atno 17370 bound_to 10713
  156.3153  130.3778  149.7624 LP  0  0  0  0  0  0  0  0  0  0  0  0  # atno 17371 bound_to 10713
  140.1560  134.9198  157.2654 LP  0  0  0  0  0  0  0  0  0  0  0  0  # atno 17394 bound_to 11000
  140.2666  134.3508  155.7387 LP  0  0  0  0  0  0  0  0  0  0  0  0  # atno 17395 bound_to 11000

$$$$
