AV-unprocessed.smi:1513|AV-procd|sdf|6108|dock9
  -GOLD-   22720 6243D 1   1.00000     0.00000
 Structure written by MMmdl.
 34 35  0  0  0  0  0  0  0  0  1 V2000
  145.1688  138.0336  152.1857 N   0  0  0  0  0  0  0  0  0  0  0  0
  145.7704  137.1170  153.5088 S   0  0  0  0  0  0  0  0  0  0  0  0
  145.4161  137.7996  154.7621 O   0  0  0  0  0  0  0  0  0  0  0  0
  145.4508  135.6988  153.2869 O   0  0  0  0  0  0  0  0  0  0  0  0
  147.4543  137.3407  153.2336 N   0  0  0  0  0  0  0  0  0  0  0  0
  148.2749  137.9857  154.2570 C   0  0  0  0  0  0  0  0  0  0  0  0
  148.0787  139.4934  154.2922 C   0  0  0  0  0  0  0  0  0  0  0  0
  146.9062  140.0605  153.7501 C   0  0  0  0  0  0  0  0  0  0  0  0
  146.7435  141.4577  153.7812 C   0  0  0  0  0  0  0  0  0  0  0  0
  147.7658  142.2365  154.3549 C   0  0  0  0  0  0  0  0  0  0  0  0
  148.8930  141.7089  154.8766 N   0  0  0  0  0  0  0  0  0  0  0  0
  149.0520  140.3634  154.8481 C   0  0  0  0  0  0  0  0  0  0  0  0
  150.2266  139.8368  155.4092 N   0  0  0  0  0  0  0  0  0  0  0  0
  151.0886  139.1066  154.4889 C   0  0  0  0  0  0  0  0  0  0  0  0
  152.2279  138.4336  155.2723 C   0  0  0  0  0  0  0  0  0  0  0  0
  152.9417  139.4197  156.0136 O   0  0  0  0  0  0  0  0  0  0  0  0
  152.1104  140.0878  156.9593 C   0  0  0  0  0  0  0  0  0  0  0  0
  150.9548  140.7946  156.2295 C   0  0  0  0  0  0  0  0  0  0  0  0
  145.8899  138.2309  151.4921 H   0  0  0  0  0  0  0  0  0  0  0  0
  144.6569  138.8618  152.4891 H   0  0  0  0  0  0  0  0  0  0  0  0
  147.9051  136.5575  152.7613 H   0  0  0  0  0  0  0  0  0  0  0  0
  148.0402  137.5447  155.2262 H   0  0  0  0  0  0  0  0  0  0  0  0
  149.3273  137.7717  154.0672 H   0  0  0  0  0  0  0  0  0  0  0  0
  146.1410  139.4358  153.3133 H   0  0  0  0  0  0  0  0  0  0  0  0
  145.8570  141.9211  153.3739 H   0  0  0  0  0  0  0  0  0  0  0  0
  147.6760  143.3118  154.3966 H   0  0  0  0  0  0  0  0  0  0  0  0
  150.5058  138.3567  153.9527 H   0  0  0  0  0  0  0  0  0  0  0  0
  151.5038  139.7899  153.7468 H   0  0  0  0  0  0  0  0  0  0  0  0
  151.8386  137.6675  155.9450 H   0  0  0  0  0  0  0  0  0  0  0  0
  152.9145  137.9372  154.5868 H   0  0  0  0  0  0  0  0  0  0  0  0
  151.7290  139.3737  157.6903 H   0  0  0  0  0  0  0  0  0  0  0  0
  152.7089  140.8146  157.5082 H   0  0  0  0  0  0  0  0  0  0  0  0
  151.3450  141.5925  155.5959 H   0  0  0  0  0  0  0  0  0  0  0  0
  150.2810  141.2558  156.9525 H   0  0  0  0  0  0  0  0  0  0  0  0
  1  2  1  0  0  0  0
  1 19  1  0  0  0  0
  1 20  1  0  0  0  0
  2  3  2  0  0  0  0
  2  4  2  0  0  0  0
  2  5  1  0  0  0  0
  5  6  1  0  0  0  0
  5 21  1  0  0  0  0
  6  7  1  0  0  0  0
  6 22  1  0  0  0  0
  6 23  1  0  0  0  0
  7 12  1  0  0  0  0
  7  8  2  0  0  0  0
  8  9  1  0  0  0  0
  8 24  1  0  0  0  0
  9 10  2  0  0  0  0
  9 25  1  0  0  0  0
 10 11  1  0  0  0  0
 10 26  1  0  0  0  0
 11 12  2  0  0  0  0
 12 13  1  0  0  0  0
 13 18  1  0  0  0  0
 13 14  1  0  0  0  0
 14 15  1  0  0  0  0
 14 27  1  0  0  0  0
 14 28  1  0  0  0  0
 15 16  1  0  0  0  0
 15 29  1  0  0  0  0
 15 30  1  0  0  0  0
 16 17  1  0  0  0  0
 17 18  1  0  0  0  0
 17 31  1  0  0  0  0
 17 32  1  0  0  0  0
 18 33  1  0  0  0  0
 18 34  1  0  0  0  0
M  END
> <s_m_source_file>
AV-unprocessed.smi

> <i_m_source_file_index>
1513

> <i_lp_mmshare_version>
43012

> <i_f3d_flags>
0

> <s_epik_input>
W05IMl1TKD1PKSg9TylbTkhdW0NIMl1jMVtjSF1bY0hdW2NIXW5jMU4yW0NIMl1bQ0gyXU9bQ0gyXVtDSDJdMg==

> <s_epik_cmdline>
J2VwaWtfcHl0aG9uJywgJy1waCcsICc3LjAnLCAnLXRuJywgJzgnLCAnLW1hJywgJzIwMCcsICctbWV0YWxfYmluZGluZycsICctaW1hZScsICc8aW5maWxlLm1hZT4nLCAnLW9tYWUnLCAnPG91dGZpbGUubWFlPic=

> <r_lp_tautomer_probability>
1

> <r_epik_Ionization_Penalty>
0.193648

> <r_epik_Ionization_Penalty_Charging>
0

> <r_epik_Ionization_Penalty_Neutral>
0.193648

> <r_epik_State_Penalty>
0.187016

> <r_epik_Charging_Adjusted_Penalty>
0.187016

> <i_epik_Tot_Q>
0

> <i_epik_Tot_abs_Q>
0

> <r_epik_Metal_State_Penalty>
0.77957

> <b_epik_Metal_Only>
0

> <s_lp_Force_Field>
OPLS_2005

> <r_lp_Energy>
22.2983

> <b_lp_Chiralities_Consistent>
1

> <s_lp_Variant>
AV-unprocessed.smi:1513-1

> <Gold.Version>
5.8.1

> <Gold.Id.Protein>
6NUR|6NUR_protein|mol2

> <Gold.PLP.Fitness>
34.7829

> <Gold.PLP.PLP>
-24.4856

> <Gold.PLP.part.hbond>
-3.5531

> <Gold.PLP.part.metal>
0.0000

> <Gold.PLP.part.buried>
-1.5582

> <Gold.PLP.part.nonpolar>
-20.1361

> <Gold.PLP.part.repulsive>
0.4326

> <Gold.PLP.ligand.clash>
0.0000

> <Gold.PLP.ligand.torsion>
0.5948

> <Gold.PLP.Chemscore.Hbond>
2.7840

> <Gold.PLP.Chemscore.CHOScore>
0.9582

> <Gold.PLP.Chemscore.Metal>
0.0000

> <Gold.Chemscore.Hbonds>
donor molecule, donor type, donor heavy atom, donor atom, acceptor molecule, acceptor atom, score
      L1  H     1    20       P1 10175  1.00
      L1  H     5    21       P1  7948  0.62
      P1  H  7997  8010       L1    16  1.00
      L1  C    10    26       P1  8028  0.97

> <Gold.PLP.Chemscore.Internal.Correction>
0.2601

> <Gold.Rescore>
     Score         DG    S(hbond)    S(metal)    S(lipo)     H(rot)  DE(clash)    DE(int)     intcor
     13.71     -14.47       2.70        0.00      53.68       2.47       0.07       0.69       ----

> <Gold.Chemscore.Fitness>
13.7102

> <Gold.Chemscore.DG>
-14.4714

> <Gold.Chemscore.ZeroCoef>
-5.4800

> <Gold.Chemscore.Hbond>
2.7026

> <Gold.Chemscore.Metal>
0.0000

> <Gold.Chemscore.Lipo>
53.6782

> <Gold.Chemscore.Internal_Hbond>
0.0000

> <Gold.Chemscore.DEClash>
0.0672

> <Gold.Chemscore.DEInternal>
0.6940

> <Gold.Chemscore.Rot>
2.4671

> <Gold.Chemscore.Internal.Correction>
   9.000000E+99

> <Gold.Chemscore.Hbonds>
donor molecule, donor type, donor heavy atom, donor atom, acceptor molecule, acceptor atom, score
      L1  H     1    20       P1 10175  1.00
      L1  H     5    21       P1  7948  0.60
      P1  H  7997  8010       L1    16  0.34

> <Gold.Chemscore.Hbond.Weighted>
-9.0267

> <Gold.Chemscore.Metal.Weighted>
-0.0000

> <Gold.Chemscore.Lipo.Weighted>
-6.2803

> <Gold.Chemscore.Internal_Hbond.Weighted>
0.0000

> <Gold.Chemscore.DEClash.Weighted>
0.0672

> <Gold.Chemscore.DEInternal.Weighted>
0.6940

> <Gold.Chemscore.Rot.Weighted>
6.3157

> <Gold.Chemscore.Internal.Correction.Weighted>
   9.000000E+99

> <Gold.Protein.RotatedTorsions>
[ 6907 6896 6895 6894 ] final   75.05 input  -60.11 | X-H torsion
[ 7974 7965 7964 7962 ] final -178.45 input  175.53 | X-H torsion
[ 8008 7997 7996 7995 ] final   81.44 input   59.86 | X-H torsion
[ 10167 10162 10161 10158 ] final -108.90 input  -65.29 | X-H torsion
[ 10718 10713 10712 10709 ] final   84.41 input   66.30 | X-H torsion
[ 10763 10752 10751 10750 ] final -149.55 input  -60.55 | X-H torsion
[ 11005 11000 10999 10996 ] final  136.62 input  -57.11 | X-H torsion

> <Gold.Protein.ActiveResidues>
 VAL166  LYS551  ARG553  GLY616  TRP617  ASP618  TYR619  PRO620  LYS621  CYS622 
 ASP623  PHE694  ASN695  SER759  ASP760  ASP761  ALA762  ILE779  LEU786  VAL792 
 PHE793  MET794  SER795  GLU796  ALA797  LYS798  CYS799  TRP800  GLU811  SER814 

> <Gold.Protein.RotatedAtoms>
  152.5007  134.4178  159.9470 H   0  0  0  0  0  0  0  0  0  0  0  0  # atno 6907 bound_to 6896
  151.4150  133.3709  159.2756 H   0  0  0  0  0  0  0  0  0  0  0  0  # atno 6908 bound_to 6896
  150.9264  134.8703  159.7582 H   0  0  0  0  0  0  0  0  0  0  0  0  # atno 6909 bound_to 6896
  144.7131  140.0867  143.6423 H   0  0  0  0  0  0  0  0  0  0  0  0  # atno 7974 bound_to 7965
  155.8972  140.3435  155.5999 H   0  0  0  0  0  0  0  0  0  0  0  0  # atno 8008 bound_to 7997
  155.7543  140.0824  157.2205 H   0  0  0  0  0  0  0  0  0  0  0  0  # atno 8009 bound_to 7997
  154.4039  140.1547  156.2746 H   0  0  0  0  0  0  0  0  0  0  0  0  # atno 8010 bound_to 7997
  140.1612  143.4119  152.1424 H   0  0  0  0  0  0  0  0  0  0  0  0  # atno 10167 bound_to 10162
  157.6897  131.0132  150.2669 H   0  0  0  0  0  0  0  0  0  0  0  0  # atno 10718 bound_to 10713
  154.8171  135.3306  154.7146 H   0  0  0  0  0  0  0  0  0  0  0  0  # atno 10763 bound_to 10752
  153.7785  135.6920  153.4897 H   0  0  0  0  0  0  0  0  0  0  0  0  # atno 10764 bound_to 10752
  153.1996  135.4521  155.0198 H   0  0  0  0  0  0  0  0  0  0  0  0  # atno 10765 bound_to 10752
  140.0059  134.9459  157.0173 H   0  0  0  0  0  0  0  0  0  0  0  0  # atno 11005 bound_to 11000
  145.9656  139.2832  143.1129 LP  0  0  0  0  0  0  0  0  0  0  0  0  # atno 17320 bound_to 7965
  145.9173  140.9139  143.0423 LP  0  0  0  0  0  0  0  0  0  0  0  0  # atno 17321 bound_to 7965
  139.5380  144.7229  151.4827 LP  0  0  0  0  0  0  0  0  0  0  0  0  # atno 17342 bound_to 10162
  140.6642  143.8434  150.6922 LP  0  0  0  0  0  0  0  0  0  0  0  0  # atno 17343 bound_to 10162
  156.3238  130.3790  149.7551 LP  0  0  0  0  0  0  0  0  0  0  0  0  # atno 17370 bound_to 10713
  156.5113  130.8173  151.3169 LP  0  0  0  0  0  0  0  0  0  0  0  0  # atno 17371 bound_to 10713
  140.4643  134.1452  155.7195 LP  0  0  0  0  0  0  0  0  0  0  0  0  # atno 17394 bound_to 11000
  141.1676  133.8672  157.1668 LP  0  0  0  0  0  0  0  0  0  0  0  0  # atno 17395 bound_to 11000

$$$$
