AV-unprocessed.smi:221|AV-procd|sdf|1687|dock3
  -GOLD-   2262020123D 1   1.00000     0.00000
 Structure written by MMmdl.
 50 53  0  0  0  0  0  0  0  0  1 V2000
  143.9107  136.8286  160.2169 N   0  0  0  0  0  0  0  0  0  0  0  0
  144.9757  137.3525  160.8318 C   0  0  0  0  0  0  0  0  0  0  0  0
  145.2948  138.5295  160.6775 O   0  0  0  0  0  0  0  0  0  0  0  0
  145.8123  136.4274  161.7402 C   0  0  1  0  0  0  0  0  0  0  0  0
  145.2419  135.0184  161.9602 C   0  0  0  0  0  0  0  0  0  0  0  0
  146.4416  134.2233  162.4889 C   0  0  1  0  0  0  0  0  0  0  0  0
  146.5564  133.0656  161.8372 F   0  0  0  0  0  0  0  0  0  0  0  0
  147.6666  135.1218  162.2461 C   0  0  0  0  0  0  0  0  0  0  0  0
  147.2231  136.2166  161.3885 N   0  0  0  0  0  0  0  0  0  0  0  0
  147.5940  136.0205  160.0962 C   0  0  0  0  0  0  0  0  0  0  0  0
  146.8372  135.2713  159.2507 N   0  0  0  0  0  0  0  0  0  0  0  0
  147.2344  135.0753  157.9900 C   0  0  0  0  0  0  0  0  0  0  0  0
  148.3350  135.5245  157.3825 N   0  0  0  0  0  0  0  0  0  0  0  0
  149.0980  136.2723  158.2302 C   0  0  0  0  0  0  0  0  0  0  0  0
  148.8032  136.5649  159.5909 C   0  0  0  0  0  0  0  0  0  0  0  0
  149.8059  137.3543  160.1392 N   0  0  0  0  0  0  0  0  0  0  0  0
  150.6475  137.5220  159.1557 C   0  0  0  0  0  0  0  0  0  0  0  0
  150.2986  136.9106  157.9727 N   0  0  0  0  0  0  0  0  0  0  0  0
  151.0525  136.9400  156.7319 C   0  0  0  0  0  0  0  0  0  0  0  0
  150.3719  137.7899  155.6306 C   0  0  2  0  0  0  0  0  0  0  0  0
  151.0886  137.6733  154.2632 C   0  0  0  0  0  0  0  0  0  0  0  0
  151.3430  136.3250  153.9260 O   0  0  0  0  0  0  0  0  0  0  0  0
  150.1881  139.2633  156.0744 C   0  0  2  0  0  0  0  0  0  0  0  0
  149.6004  140.1791  155.0147 C   0  0  0  0  0  0  0  0  0  0  0  0
  149.9761  141.5611  155.5374 C   0  0  0  0  0  0  0  0  0  0  0  0
  151.2162  141.3925  156.2145 O   0  0  0  0  0  0  0  0  0  0  0  0
  151.4917  140.0060  156.3873 C   0  0  0  0  0  0  0  0  0  0  0  0
  145.8275  136.9291  162.7095 H   0  0  0  0  0  0  0  0  0  0  0  0
  146.3360  133.9859  163.5477 H   0  0  0  0  0  0  0  0  0  0  0  0
  143.3437  137.4087  159.6159 H   0  0  0  0  0  0  0  0  0  0  0  0
  143.6774  135.8560  160.3553 H   0  0  0  0  0  0  0  0  0  0  0  0
  144.4076  135.0175  162.6622 H   0  0  0  0  0  0  0  0  0  0  0  0
  144.8817  134.5901  161.0235 H   0  0  0  0  0  0  0  0  0  0  0  0
  148.0110  135.5509  163.1879 H   0  0  0  0  0  0  0  0  0  0  0  0
  148.5064  134.5587  161.8329 H   0  0  0  0  0  0  0  0  0  0  0  0
  146.5780  134.4701  157.3824 H   0  0  0  0  0  0  0  0  0  0  0  0
  151.5518  138.1034  159.2648 H   0  0  0  0  0  0  0  0  0  0  0  0
  152.0425  137.3322  156.9640 H   0  0  0  0  0  0  0  0  0  0  0  0
  151.2025  135.9163  156.3871 H   0  0  0  0  0  0  0  0  0  0  0  0
  149.3730  137.3746  155.4872 H   0  0  0  0  0  0  0  0  0  0  0  0
  150.4950  138.1261  153.4692 H   0  0  0  0  0  0  0  0  0  0  0  0
  152.0351  138.2133  154.2731 H   0  0  0  0  0  0  0  0  0  0  0  0
  151.3467  136.2450  152.9844 H   0  0  0  0  0  0  0  0  0  0  0  0
  149.5450  139.3037  156.9552 H   0  0  0  0  0  0  0  0  0  0  0  0
  150.0772  140.0024  154.0494 H   0  0  0  0  0  0  0  0  0  0  0  0
  148.5234  140.0624  154.8909 H   0  0  0  0  0  0  0  0  0  0  0  0
  150.0525  142.3012  154.7407 H   0  0  0  0  0  0  0  0  0  0  0  0
  149.2336  141.9107  156.2558 H   0  0  0  0  0  0  0  0  0  0  0  0
  151.8560  139.8028  157.3947 H   0  0  0  0  0  0  0  0  0  0  0  0
  152.2758  139.7256  155.6826 H   0  0  0  0  0  0  0  0  0  0  0  0
  1  2  1  0  0  0  0
  1 30  1  0  0  0  0
  1 31  1  0  0  0  0
  2  3  2  0  0  0  0
  2  4  1  0  0  0  0
  4 28  1  0  0  0  0
  4  9  1  0  0  0  0
  4  5  1  0  0  0  0
  5  6  1  0  0  0  0
  5 32  1  0  0  0  0
  5 33  1  0  0  0  0
  6 29  1  0  0  0  0
  6  7  1  0  0  0  0
  6  8  1  0  0  0  0
  8  9  1  0  0  0  0
  8 34  1  0  0  0  0
  8 35  1  0  0  0  0
  9 10  1  0  0  0  0
 10 15  1  0  0  0  0
 10 11  2  0  0  0  0
 11 12  1  0  0  0  0
 12 13  2  0  0  0  0
 12 36  1  0  0  0  0
 13 14  1  0  0  0  0
 14 18  1  0  0  0  0
 14 15  2  0  0  0  0
 15 16  1  0  0  0  0
 16 17  2  0  0  0  0
 17 18  1  0  0  0  0
 17 37  1  0  0  0  0
 18 19  1  0  0  0  0
 19 20  1  0  0  0  0
 19 38  1  0  0  0  0
 19 39  1  0  0  0  0
 20 21  1  0  0  0  0
 20 23  1  0  0  0  0
 20 40  1  0  0  0  0
 21 22  1  0  0  0  0
 21 41  1  0  0  0  0
 21 42  1  0  0  0  0
 22 43  1  0  0  0  0
 23 27  1  0  0  0  0
 23 24  1  0  0  0  0
 23 44  1  0  0  0  0
 24 25  1  0  0  0  0
 24 45  1  0  0  0  0
 24 46  1  0  0  0  0
 25 26  1  0  0  0  0
 25 47  1  0  0  0  0
 25 48  1  0  0  0  0
 26 27  1  0  0  0  0
 27 49  1  0  0  0  0
 27 50  1  0  0  0  0
M  END
> <s_m_source_file>
AV-unprocessed.smi

> <i_m_source_file_index>
221

> <i_lp_mmshare_version>
43012

> <i_f3d_flags>
0

> <s_epik_input>
W05IMl1DKD1PKVtDQEBIXTFbQ0gyXVtDQEBIXShGKVtDSDJdTjFjKG5bY0hdbjIpYyhjMjMpbltjSF1uM1tDSDJdW0NASF0oW0NIMl1bT0hdKVtDQEBIXTRbQ0gyXVtDSDJdT1tDSDJdNA==

> <s_epik_cmdline>
J2VwaWtfcHl0aG9uJywgJy1waCcsICc3LjAnLCAnLXRuJywgJzgnLCAnLW1hJywgJzIwMCcsICctbWV0YWxfYmluZGluZycsICctaW1hZScsICc8aW5maWxlLm1hZT4nLCAnLW9tYWUnLCAnPG91dGZpbGUubWFlPic=

> <r_lp_tautomer_probability>
1

> <r_epik_Ionization_Penalty>
0.000818822

> <r_epik_Ionization_Penalty_Charging>
0

> <r_epik_Ionization_Penalty_Neutral>
0.000818822

> <r_epik_State_Penalty>
0.000440551

> <r_epik_Charging_Adjusted_Penalty>
0.000440551

> <i_epik_Tot_Q>
0

> <i_epik_Tot_abs_Q>
0

> <r_epik_Metal_State_Penalty>
-0

> <b_epik_Metal_Only>
0

> <s_lp_Force_Field>
OPLS_2005

> <r_lp_Energy>
55.6777

> <b_lp_Chiralities_Consistent>
1

> <s_lp_Variant>
AV-unprocessed.smi:221-2

> <Gold.Version>
5.8.1

> <Gold.Id.Protein>
6NUR|6NUR_protein|mol2

> <Gold.PLP.Fitness>
43.6110

> <Gold.PLP.PLP>
-37.0849

> <Gold.PLP.part.hbond>
-4.7097

> <Gold.PLP.part.metal>
0.0000

> <Gold.PLP.part.buried>
-4.1429

> <Gold.PLP.part.nonpolar>
-28.6914

> <Gold.PLP.part.repulsive>
0.0755

> <Gold.PLP.ligand.clash>
0.0000

> <Gold.PLP.ligand.torsion>
0.9036

> <Gold.PLP.Chemscore.Hbond>
2.7195

> <Gold.PLP.Chemscore.CHOScore>
0.0000

> <Gold.PLP.Chemscore.Metal>
0.0000

> <Gold.Chemscore.Hbonds>
donor molecule, donor type, donor heavy atom, donor atom, acceptor molecule, acceptor atom, score
      L1  H    22    43       P1  7949  0.98
      P1  H  6931  6943       L1    16  0.20
      P1  H  6934  6947       L1     3  0.53
      P1  H 10752 10764       L1    22  1.00

> <Gold.PLP.Chemscore.Internal.Correction>
0.1750

> <Gold.Rescore>
     Score         DG    S(hbond)    S(metal)    S(lipo)     H(rot)  DE(clash)    DE(int)     intcor
     11.12     -11.96       2.32        0.00      70.52       3.72       0.07       0.78       ----

> <Gold.Chemscore.Fitness>
11.1164

> <Gold.Chemscore.DG>
-11.9624

> <Gold.Chemscore.ZeroCoef>
-5.4800

> <Gold.Chemscore.Hbond>
2.3219

> <Gold.Chemscore.Metal>
0.0000

> <Gold.Chemscore.Lipo>
70.5219

> <Gold.Chemscore.Internal_Hbond>
0.0000

> <Gold.Chemscore.DEClash>
0.0691

> <Gold.Chemscore.DEInternal>
0.7769

> <Gold.Chemscore.Rot>
3.7202

> <Gold.Chemscore.Internal.Correction>
   9.000000E+99

> <Gold.Chemscore.Hbonds>
donor molecule, donor type, donor heavy atom, donor atom, acceptor molecule, acceptor atom, score
      L1  H    22    43       P1  7949  0.69
      P1  H  6931  6943       L1    16  0.13
      P1  H  6934  6947       L1     3  0.51
      P1  H 10752 10764       L1    22  0.29

> <Gold.Chemscore.Hbond.Weighted>
-7.7551

> <Gold.Chemscore.Metal.Weighted>
-0.0000

> <Gold.Chemscore.Lipo.Weighted>
-8.2511

> <Gold.Chemscore.Internal_Hbond.Weighted>
0.0000

> <Gold.Chemscore.DEClash.Weighted>
0.0691

> <Gold.Chemscore.DEInternal.Weighted>
0.7769

> <Gold.Chemscore.Rot.Weighted>
9.5237

> <Gold.Chemscore.Internal.Correction.Weighted>
   9.000000E+99

> <Gold.Protein.RotatedTorsions>
[ 6907 6896 6895 6894 ] final  -46.17 input  -60.11 | X-H torsion
[ 7974 7965 7964 7962 ] final  106.35 input  175.53 | X-H torsion
[ 8008 7997 7996 7995 ] final  164.10 input   59.86 | X-H torsion
[ 10167 10162 10161 10158 ] final -178.45 input  -65.29 | X-H torsion
[ 10718 10713 10712 10709 ] final   19.75 input   66.30 | X-H torsion
[ 10763 10752 10751 10750 ] final  -74.25 input  -60.55 | X-H torsion
[ 11005 11000 10999 10996 ] final -120.23 input  -57.11 | X-H torsion

> <Gold.Protein.ActiveResidues>
 VAL166  LYS551  ARG553  GLY616  TRP617  ASP618  TYR619  PRO620  LYS621  CYS622 
 ASP623  PHE694  ASN695  SER759  ASP760  ASP761  ALA762  ILE779  LEU786  VAL792 
 PHE793  MET794  SER795  GLU796  ALA797  LYS798  CYS799  TRP800  GLU811  SER814 

> <Gold.Protein.RotatedAtoms>
  150.9141  134.8558  159.7444 H   0  0  0  0  0  0  0  0  0  0  0  0  # atno 6907 bound_to 6896
  152.4959  134.4315  159.9524 H   0  0  0  0  0  0  0  0  0  0  0  0  # atno 6908 bound_to 6896
  151.4355  133.3618  159.2809 H   0  0  0  0  0  0  0  0  0  0  0  0  # atno 6909 bound_to 6896
  145.3077  139.2550  143.3780 H   0  0  0  0  0  0  0  0  0  0  0  0  # atno 7974 bound_to 7965
  156.1906  140.1705  156.8100 H   0  0  0  0  0  0  0  0  0  0  0  0  # atno 8008 bound_to 7997
  154.5466  140.0726  156.8631 H   0  0  0  0  0  0  0  0  0  0  0  0  # atno 8009 bound_to 7997
  155.3109  140.3367  155.4246 H   0  0  0  0  0  0  0  0  0  0  0  0  # atno 8010 bound_to 7997
  139.5432  144.2307  152.0936 H   0  0  0  0  0  0  0  0  0  0  0  0  # atno 10167 bound_to 10162
  157.1149  130.6524  149.5907 H   0  0  0  0  0  0  0  0  0  0  0  0  # atno 10718 bound_to 10713
  154.4705  135.5870  153.6318 H   0  0  0  0  0  0  0  0  0  0  0  0  # atno 10763 bound_to 10752
  152.9834  135.6065  154.3373 H   0  0  0  0  0  0  0  0  0  0  0  0  # atno 10764 bound_to 10752
  154.3254  135.2843  155.2478 H   0  0  0  0  0  0  0  0  0  0  0  0  # atno 10765 bound_to 10752
  141.0158  134.0197  157.3351 H   0  0  0  0  0  0  0  0  0  0  0  0  # atno 11005 bound_to 11000
  146.3129  140.3606  142.8664 LP  0  0  0  0  0  0  0  0  0  0  0  0  # atno 17320 bound_to 7965
  144.9041  140.7678  143.5848 LP  0  0  0  0  0  0  0  0  0  0  0  0  # atno 17321 bound_to 7965
  140.1789  144.4864  150.6539 LP  0  0  0  0  0  0  0  0  0  0  0  0  # atno 17342 bound_to 10162
  140.6670  143.2271  151.5719 LP  0  0  0  0  0  0  0  0  0  0  0  0  # atno 17343 bound_to 10162
  155.9842  130.4865  150.6970 LP  0  0  0  0  0  0  0  0  0  0  0  0  # atno 17370 bound_to 10713
  157.4527  131.0874  151.0829 LP  0  0  0  0  0  0  0  0  0  0  0  0  # atno 17371 bound_to 10713
  139.9116  135.0191  156.7716 LP  0  0  0  0  0  0  0  0  0  0  0  0  # atno 17394 bound_to 11000
  140.6656  133.9605  155.7828 LP  0  0  0  0  0  0  0  0  0  0  0  0  # atno 17395 bound_to 11000

$$$$
