AV-unprocessed.smi:970|AV-procd|sdf|4292|dock10
  -GOLD-   22720 2193D 1   1.00000     0.00000
 Structure written by MMmdl.
 31 31  0  0  0  0  0  0  0  0  1 V2000
  150.2730  136.5002  155.0931 C   0  0  0  0  0  0  0  0  0  0  0  0
  149.6659  135.3670  154.4127 N   0  0  0  0  0  0  0  0  0  0  0  0
  149.8954  134.0851  154.7307 C   0  0  0  0  0  0  0  0  0  0  0  0
  150.6610  133.7426  155.6339 O   0  0  0  0  0  0  0  0  0  0  0  0
  149.1570  133.0324  153.8872 C   0  0  1  0  0  0  0  0  0  0  0  0
  148.2887  132.1873  154.8339 C   0  0  0  0  0  0  0  0  0  0  0  0
  148.2720  133.6843  152.9240 N   0  0  0  0  0  0  0  0  0  0  0  0
  147.2271  133.1031  152.3123 C   0  0  0  0  0  0  0  0  0  0  0  0
  146.8667  131.9494  152.5493 O   0  0  0  0  0  0  0  0  0  0  0  0
  146.4927  133.9592  151.2691 C   0  0  2  0  0  0  0  0  0  0  0  0
  145.8307  135.2108  151.8810 C   0  0  0  0  0  0  0  0  0  0  0  0
  145.5434  133.1354  150.5302 N   0  0  0  0  0  0  0  0  0  0  0  0
  145.7503  132.0425  149.7919 C   0  0  0  0  0  0  0  0  0  0  0  0
  144.6427  131.5060  149.3000 N   0  0  0  0  0  0  0  0  0  0  0  0
  143.7212  132.3685  149.8217 C   0  0  0  0  0  0  0  0  0  0  0  0
  144.2057  133.3564  150.5738 N   0  0  0  0  0  0  0  0  0  0  0  0
  149.9212  137.4320  154.6499 H   0  0  0  0  0  0  0  0  0  0  0  0
  151.3599  136.4692  155.0054 H   0  0  0  0  0  0  0  0  0  0  0  0
  150.0084  136.5049  156.1514 H   0  0  0  0  0  0  0  0  0  0  0  0
  149.0262  135.5684  153.6578 H   0  0  0  0  0  0  0  0  0  0  0  0
  149.8713  132.3891  153.3691 H   0  0  0  0  0  0  0  0  0  0  0  0
  148.8984  131.6753  155.5794 H   0  0  0  0  0  0  0  0  0  0  0  0
  147.7440  131.4213  154.2812 H   0  0  0  0  0  0  0  0  0  0  0  0
  147.5540  132.7949  155.3648 H   0  0  0  0  0  0  0  0  0  0  0  0
  148.5029  134.6332  152.6682 H   0  0  0  0  0  0  0  0  0  0  0  0
  147.2382  134.3078  150.5525 H   0  0  0  0  0  0  0  0  0  0  0  0
  146.5686  135.8419  152.3772 H   0  0  0  0  0  0  0  0  0  0  0  0
  145.0679  134.9543  152.6172 H   0  0  0  0  0  0  0  0  0  0  0  0
  145.3532  135.8140  151.1084 H   0  0  0  0  0  0  0  0  0  0  0  0
  146.7318  131.6274  149.6151 H   0  0  0  0  0  0  0  0  0  0  0  0
  142.6608  132.2623  149.6462 H   0  0  0  0  0  0  0  0  0  0  0  0
  1  2  1  0  0  0  0
  1 17  1  0  0  0  0
  1 18  1  0  0  0  0
  1 19  1  0  0  0  0
  2  3  1  0  0  0  0
  2 20  1  0  0  0  0
  3  4  2  0  0  0  0
  3  5  1  0  0  0  0
  5  6  1  0  0  0  0
  5  7  1  0  0  0  0
  5 21  1  0  0  0  0
  6 22  1  0  0  0  0
  6 23  1  0  0  0  0
  6 24  1  0  0  0  0
  7  8  1  0  0  0  0
  7 25  1  0  0  0  0
  8  9  2  0  0  0  0
  8 10  1  0  0  0  0
 10 11  1  0  0  0  0
 10 12  1  0  0  0  0
 10 26  1  0  0  0  0
 11 27  1  0  0  0  0
 11 28  1  0  0  0  0
 11 29  1  0  0  0  0
 12 16  1  0  0  0  0
 12 13  1  0  0  0  0
 13 14  2  0  0  0  0
 13 30  1  0  0  0  0
 14 15  1  0  0  0  0
 15 16  2  0  0  0  0
 15 31  1  0  0  0  0
M  END
> <s_m_source_file>
AV-unprocessed.smi

> <i_m_source_file_index>
970

> <i_lp_mmshare_version>
43012

> <i_f3d_flags>
0

> <s_epik_input>
W0NIM11bTkhdQyg9TylbQ0BIXShbQ0gzXSlbTkhdQyg9TylbQ0BIXShbQ0gzXSluMVtjSF1uW2NIXW4x

> <s_epik_cmdline>
J2VwaWtfcHl0aG9uJywgJy1waCcsICc3LjAnLCAnLXRuJywgJzgnLCAnLW1hJywgJzIwMCcsICctbWV0YWxfYmluZGluZycsICctaW1hZScsICc8aW5maWxlLm1hZT4nLCAnLW9tYWUnLCAnPG91dGZpbGUubWFlPic=

> <r_lp_tautomer_probability>
1

> <r_epik_Ionization_Penalty>
1.07271e-05

> <r_epik_Ionization_Penalty_Charging>
0

> <r_epik_Ionization_Penalty_Neutral>
1.07271e-05

> <r_epik_State_Penalty>
-0

> <r_epik_Charging_Adjusted_Penalty>
0

> <i_epik_Tot_Q>
0

> <i_epik_Tot_abs_Q>
0

> <r_epik_Metal_State_Penalty>
-0

> <b_epik_Metal_Only>
0

> <s_lp_Force_Field>
OPLS_2005

> <r_lp_Energy>
8.21171

> <b_lp_Chiralities_Consistent>
1

> <s_lp_Variant>
AV-unprocessed.smi:970-2

> <Gold.Version>
5.8.1

> <Gold.Id.Protein>
6NUR|6NUR_protein|mol2

> <Gold.PLP.Fitness>
37.3167

> <Gold.PLP.PLP>
-25.7491

> <Gold.PLP.part.hbond>
-3.1189

> <Gold.PLP.part.metal>
0.0000

> <Gold.PLP.part.buried>
-2.2543

> <Gold.PLP.part.nonpolar>
-20.9440

> <Gold.PLP.part.repulsive>
0.5048

> <Gold.PLP.ligand.clash>
1.7483

> <Gold.PLP.ligand.torsion>
0.4321

> <Gold.PLP.Chemscore.Hbond>
2.2300

> <Gold.PLP.Chemscore.CHOScore>
2.4574

> <Gold.PLP.Chemscore.Metal>
0.0000

> <Gold.Chemscore.Hbonds>
donor molecule, donor type, donor heavy atom, donor atom, acceptor molecule, acceptor atom, score
      L1  H     2    20       P1  7948  0.83
      L1  H     7    25       P1  7948  0.90
      P1  H 10785 10796       L1    14  0.21
      L1  C    13    30       P1 10747  1.00
      L1  C    15    31       P1 10186  0.46
      L1  C    15    31       P1 10952  0.70

> <Gold.PLP.Chemscore.Internal.Correction>
0.1178

> <Gold.Rescore>
     Score         DG    S(hbond)    S(metal)    S(lipo)     H(rot)  DE(clash)    DE(int)     intcor
      4.58      -8.28       2.07        0.00      21.53       2.59       0.62       3.08       ----

> <Gold.Chemscore.Fitness>
4.5797

> <Gold.Chemscore.DG>
-8.2787

> <Gold.Chemscore.ZeroCoef>
-5.4800

> <Gold.Chemscore.Hbond>
2.0653

> <Gold.Chemscore.Metal>
0.0000

> <Gold.Chemscore.Lipo>
21.5269

> <Gold.Chemscore.Internal_Hbond>
0.0000

> <Gold.Chemscore.DEClash>
0.6174

> <Gold.Chemscore.DEInternal>
3.0815

> <Gold.Chemscore.Rot>
2.5852

> <Gold.Chemscore.Internal.Correction>
   9.000000E+99

> <Gold.Chemscore.Hbonds>
donor molecule, donor type, donor heavy atom, donor atom, acceptor molecule, acceptor atom, score
      L1  H     2    20       P1  7948  0.64
      L1  H     7    25       P1  7948  0.18
      P1  H 10785 10796       L1    14  0.02

> <Gold.Chemscore.Hbond.Weighted>
-6.8982

> <Gold.Chemscore.Metal.Weighted>
-0.0000

> <Gold.Chemscore.Lipo.Weighted>
-2.5186

> <Gold.Chemscore.Internal_Hbond.Weighted>
0.0000

> <Gold.Chemscore.DEClash.Weighted>
0.6174

> <Gold.Chemscore.DEInternal.Weighted>
3.0815

> <Gold.Chemscore.Rot.Weighted>
6.6182

> <Gold.Chemscore.Internal.Correction.Weighted>
   9.000000E+99

> <Gold.Protein.RotatedTorsions>
[ 6907 6896 6895 6894 ] final   12.18 input  -60.11 | X-H torsion
[ 7974 7965 7964 7962 ] final   66.33 input  175.53 | X-H torsion
[ 8008 7997 7996 7995 ] final   11.83 input   59.86 | X-H torsion
[ 10167 10162 10161 10158 ] final  177.44 input  -65.29 | X-H torsion
[ 10718 10713 10712 10709 ] final  -90.25 input   66.30 | X-H torsion
[ 10763 10752 10751 10750 ] final  109.00 input  -60.55 | X-H torsion
[ 11005 11000 10999 10996 ] final  177.91 input  -57.11 | X-H torsion

> <Gold.Protein.ActiveResidues>
 VAL166  LYS551  ARG553  GLY616  TRP617  ASP618  TYR619  PRO620  LYS621  CYS622 
 ASP623  PHE694  ASN695  SER759  ASP760  ASP761  ALA762  ILE779  LEU786  VAL792 
 PHE793  MET794  SER795  GLU796  ALA797  LYS798  CYS799  TRP800  GLU811  SER814 

> <Gold.Protein.RotatedAtoms>
  151.7662  135.0798  160.0352 H   0  0  0  0  0  0  0  0  0  0  0  0  # atno 6907 bound_to 6896
  152.3320  133.5964  159.5824 H   0  0  0  0  0  0  0  0  0  0  0  0  # atno 6908 bound_to 6896
  150.7428  133.9770  159.3606 H   0  0  0  0  0  0  0  0  0  0  0  0  # atno 6909 bound_to 6896
  145.8279  139.3122  143.1005 H   0  0  0  0  0  0  0  0  0  0  0  0  # atno 7974 bound_to 7965
  154.8123  140.2870  155.5845 H   0  0  0  0  0  0  0  0  0  0  0  0  # atno 8008 bound_to 7997
  156.2989  140.2566  156.2943 H   0  0  0  0  0  0  0  0  0  0  0  0  # atno 8009 bound_to 7997
  154.9433  140.0381  157.2097 H   0  0  0  0  0  0  0  0  0  0  0  0  # atno 8010 bound_to 7997
  139.5253  144.2798  152.0556 H   0  0  0  0  0  0  0  0  0  0  0  0  # atno 10167 bound_to 10162
  155.9987  130.4903  150.5295 H   0  0  0  0  0  0  0  0  0  0  0  0  # atno 10718 bound_to 10713
  153.4285  135.3794  155.2156 H   0  0  0  0  0  0  0  0  0  0  0  0  # atno 10763 bound_to 10752
  154.8749  135.3834  154.4296 H   0  0  0  0  0  0  0  0  0  0  0  0  # atno 10764 bound_to 10752
  153.4826  135.7088  153.5992 H   0  0  0  0  0  0  0  0  0  0  0  0  # atno 10765 bound_to 10752
  140.3893  134.6877  157.4498 H   0  0  0  0  0  0  0  0  0  0  0  0  # atno 11005 bound_to 11000
  145.9603  140.8840  143.0214 LP  0  0  0  0  0  0  0  0  0  0  0  0  # atno 17320 bound_to 7965
  144.6742  140.1803  143.7406 LP  0  0  0  0  0  0  0  0  0  0  0  0  # atno 17321 bound_to 7965
  140.2254  144.4423  150.6323 LP  0  0  0  0  0  0  0  0  0  0  0  0  # atno 17342 bound_to 10162
  140.6391  143.2200  151.6330 LP  0  0  0  0  0  0  0  0  0  0  0  0  # atno 17343 bound_to 10162
  157.3246  131.0688  151.1906 LP  0  0  0  0  0  0  0  0  0  0  0  0  # atno 17370 bound_to 10713
  157.2808  130.6749  149.6065 LP  0  0  0  0  0  0  0  0  0  0  0  0  # atno 17371 bound_to 10713
  140.0419  134.6255  155.8970 LP  0  0  0  0  0  0  0  0  0  0  0  0  # atno 17394 bound_to 11000
  141.1896  133.6566  156.5377 LP  0  0  0  0  0  0  0  0  0  0  0  0  # atno 17395 bound_to 11000

$$$$
