AV-unprocessed.smi:867|AV-procd|sdf|3994|dock10
  -GOLD-   22720 1473D 1   1.00000     0.00000
 Structure written by MMmdl.
 53 56  0  0  0  0  0  0  0  0  2 V2000
  152.8391  139.4151  156.0657 O   0  0  0  0  0  0  0  0  0  0  0  0
  151.6371  139.5294  155.8236 C   0  0  0  0  0  0  0  0  0  0  0  0
  150.8365  140.3538  156.5219 N   0  0  0  0  0  0  0  0  0  0  0  0
  151.2480  141.2008  157.6391 C   0  0  0  0  0  0  0  0  0  0  0  0
  151.0349  142.6974  157.3429 C   0  0  0  0  0  0  0  0  0  0  0  0
  151.3551  143.6014  158.5204 C   0  0  0  0  0  0  0  0  0  0  0  0
  152.2772  143.2051  159.5112 C   0  0  0  0  0  0  0  0  0  0  0  0
  152.5587  144.0903  160.5690 C   0  0  0  0  0  0  0  0  0  0  0  0
  151.9005  145.3360  160.5934 C   0  0  0  0  0  0  0  0  0  0  0  0
  151.0133  145.7247  159.6526 N   0  0  0  0  0  0  0  0  0  0  0  0
  150.7503  144.8706  158.6406 C   0  0  0  0  0  0  0  0  0  0  0  0
  150.9954  138.7742  154.8986 N   0  0  0  0  0  0  0  0  0  0  0  0
  151.6195  137.7785  154.0176 C   0  0  0  0  0  0  0  0  0  0  0  0
  151.2848  136.3695  154.5408 C   0  0  0  0  0  0  0  0  0  0  0  0
  149.8130  136.1580  154.6599 N   0  3  0  0  0  0  0  0  0  0  0  0
  149.4686  134.7955  155.1594 C   0  0  2  0  0  0  0  0  0  0  0  0
  149.9188  133.6415  154.2298 C   0  0  0  0  0  0  0  0  0  0  0  0
  148.6460  132.7840  154.0933 C   0  0  2  0  0  0  0  0  0  0  0  0
  147.6699  133.4939  153.1400 C   0  0  0  0  0  0  0  0  0  0  0  0
  147.2012  134.6968  153.9779 C   0  0  0  0  0  0  0  0  0  0  0  0
  147.9541  134.5055  155.3129 C   0  0  1  0  0  0  0  0  0  0  0  0
  147.9634  132.9858  155.4407 C   0  0  0  0  0  0  0  0  0  0  0  0
  149.1508  137.2516  155.4277 C   0  0  0  0  0  0  0  0  0  0  0  0
  149.5375  138.6387  154.8847 C   0  0  0  0  0  0  0  0  0  0  0  0
  149.8558  140.3694  156.2831 H   0  0  0  0  0  0  0  0  0  0  0  0
  150.7205  140.9203  158.5521 H   0  0  0  0  0  0  0  0  0  0  0  0
  152.3047  141.0158  157.8328 H   0  0  0  0  0  0  0  0  0  0  0  0
  151.6552  142.9947  156.4969 H   0  0  0  0  0  0  0  0  0  0  0  0
  150.0023  142.8662  157.0345 H   0  0  0  0  0  0  0  0  0  0  0  0
  152.7683  142.2447  159.4584 H   0  0  0  0  0  0  0  0  0  0  0  0
  153.2621  143.8218  161.3429 H   0  0  0  0  0  0  0  0  0  0  0  0
  152.0920  146.0393  161.3902 H   0  0  0  0  0  0  0  0  0  0  0  0
  150.0429  145.2133  157.8999 H   0  0  0  0  0  0  0  0  0  0  0  0
  151.2303  137.9040  153.0060 H   0  0  0  0  0  0  0  0  0  0  0  0
  152.7007  137.8848  153.9291 H   0  0  0  0  0  0  0  0  0  0  0  0
  151.7265  135.6324  153.8712 H   0  0  0  0  0  0  0  0  0  0  0  0
  151.7487  136.2221  155.5176 H   0  0  0  0  0  0  0  0  0  0  0  0
  149.9408  134.6684  156.1356 H   0  0  0  0  0  0  0  0  0  0  0  0
  150.2653  133.9781  153.2522 H   0  0  0  0  0  0  0  0  0  0  0  0
  150.7277  133.0740  154.6914 H   0  0  0  0  0  0  0  0  0  0  0  0
  148.8420  131.7458  153.8235 H   0  0  0  0  0  0  0  0  0  0  0  0
  148.1424  133.7943  152.2039 H   0  0  0  0  0  0  0  0  0  0  0  0
  146.8271  132.8459  152.8951 H   0  0  0  0  0  0  0  0  0  0  0  0
  147.4221  135.6491  153.4958 H   0  0  0  0  0  0  0  0  0  0  0  0
  146.1228  134.6513  154.1353 H   0  0  0  0  0  0  0  0  0  0  0  0
  147.4893  135.0160  156.1569 H   0  0  0  0  0  0  0  0  0  0  0  0
  146.9645  132.5483  155.4892 H   0  0  0  0  0  0  0  0  0  0  0  0
  148.5537  132.6222  156.2840 H   0  0  0  0  0  0  0  0  0  0  0  0
  148.0671  137.1519  155.3772 H   0  0  0  0  0  0  0  0  0  0  0  0
  149.4286  137.1746  156.4801 H   0  0  0  0  0  0  0  0  0  0  0  0
  149.0388  139.4202  155.4604 H   0  0  0  0  0  0  0  0  0  0  0  0
  149.1769  138.7537  153.8615 H   0  0  0  0  0  0  0  0  0  0  0  0
  149.4432  136.2171  153.7220 H   0  0  0  0  0  0  0  0  0  0  0  0
  1  2  2  0  0  0  0
  2  3  1  0  0  0  0
  2 12  1  0  0  0  0
  3  4  1  0  0  0  0
  3 25  1  0  0  0  0
  4  5  1  0  0  0  0
  4 26  1  0  0  0  0
  4 27  1  0  0  0  0
  5  6  1  0  0  0  0
  5 28  1  0  0  0  0
  5 29  1  0  0  0  0
  6 11  1  0  0  0  0
  6  7  2  0  0  0  0
  7  8  1  0  0  0  0
  7 30  1  0  0  0  0
  8  9  2  0  0  0  0
  8 31  1  0  0  0  0
  9 10  1  0  0  0  0
  9 32  1  0  0  0  0
 10 11  2  0  0  0  0
 11 33  1  0  0  0  0
 12 24  1  0  0  0  0
 12 13  1  0  0  0  0
 13 14  1  0  0  0  0
 13 34  1  0  0  0  0
 13 35  1  0  0  0  0
 14 15  1  0  0  0  0
 14 36  1  0  0  0  0
 14 37  1  0  0  0  0
 15 16  1  0  0  0  0
 15 23  1  0  0  0  0
 15 53  1  0  0  0  0
 16 21  1  0  0  0  0
 16 17  1  0  0  0  0
 16 38  1  0  0  0  0
 17 18  1  0  0  0  0
 17 39  1  0  0  0  0
 17 40  1  0  0  0  0
 18 22  1  0  0  0  0
 18 19  1  0  0  0  0
 18 41  1  0  0  0  0
 19 20  1  0  0  0  0
 19 42  1  0  0  0  0
 19 43  1  0  0  0  0
 20 21  1  0  0  0  0
 20 44  1  0  0  0  0
 20 45  1  0  0  0  0
 21 22  1  0  0  0  0
 21 46  1  0  0  0  0
 22 47  1  0  0  0  0
 22 48  1  0  0  0  0
 23 24  1  0  0  0  0
 23 49  1  0  0  0  0
 23 50  1  0  0  0  0
 24 51  1  0  0  0  0
 24 52  1  0  0  0  0
M  CHG  1  15   1
M  END
> <s_m_source_file>
AV-unprocessed.smi

> <i_m_source_file_index>
867

> <i_lp_mmshare_version>
43012

> <i_f3d_flags>
0

> <s_epik_input>
W0NIMl0xW0NIMl1bQ0BASF0oW0NIMl0yKVtDQEBIXShbQ0gyXVtDQEhdMTIpTihbQ0gyXVtDSDJdMylbQ0gyXVtDSDJdTjNDKD1PKVtOSF1bQ0gyXVtDSDJdYzRbY0hdW2NIXVtjSF1uW2NIXTQ=

> <s_epik_cmdline>
J2VwaWtfcHl0aG9uJywgJy1waCcsICc3LjAnLCAnLXRuJywgJzgnLCAnLW1hJywgJzIwMCcsICctbWV0YWxfYmluZGluZycsICctaW1hZScsICc8aW5maWxlLm1hZT4nLCAnLW9tYWUnLCAnPG91dGZpbGUubWFlPic=

> <r_epik_Ionization_Penalty>
0.0161279

> <r_epik_Ionization_Penalty_Charging>
0.00262064

> <r_epik_Ionization_Penalty_Neutral>
0.0135072

> <r_epik_State_Penalty>
0.0104914

> <r_epik_Charging_Adjusted_Penalty>
0.013112

> <i_epik_Tot_Q>
1

> <i_epik_Tot_abs_Q>
1

> <r_epik_Metal_State_Penalty>
0.0102536

> <b_epik_Metal_Only>
0

> <s_lp_Force_Field>
OPLS_2005

> <r_lp_Energy>
96.6143

> <b_lp_Chiralities_Consistent>
1

> <s_lp_Variant>
AV-unprocessed.smi:867-1

> <Gold.Version>
5.8.1

> <Gold.Id.Protein>
6NUR|6NUR_protein|mol2

> <Gold.PLP.Fitness>
50.8043

> <Gold.PLP.PLP>
-41.6973

> <Gold.PLP.part.hbond>
-3.8005

> <Gold.PLP.part.metal>
0.0000

> <Gold.PLP.part.buried>
-0.1716

> <Gold.PLP.part.nonpolar>
-38.8507

> <Gold.PLP.part.repulsive>
0.3179

> <Gold.PLP.ligand.clash>
1.6764

> <Gold.PLP.ligand.torsion>
0.4706

> <Gold.PLP.Chemscore.Hbond>
3.0000

> <Gold.PLP.Chemscore.CHOScore>
0.8695

> <Gold.PLP.Chemscore.Metal>
0.0000

> <Gold.Chemscore.Hbonds>
donor molecule, donor type, donor heavy atom, donor atom, acceptor molecule, acceptor atom, score
      L1  H    15    53       P1  7948  2.00
      P1  H  7997  8009       L1     1  1.00
      L1  C    11    33       P1  8028  0.23
      L1  C    11    33       P1  8029  0.65

> <Gold.PLP.Chemscore.Internal.Correction>
0.1161

> <Gold.Rescore>
     Score         DG    S(hbond)    S(metal)    S(lipo)     H(rot)  DE(clash)    DE(int)     intcor
     21.68     -22.74       1.96        0.00     121.71       1.37       0.58       0.48       ----

> <Gold.Chemscore.Fitness>
21.6761

> <Gold.Chemscore.DG>
-22.7390

> <Gold.Chemscore.ZeroCoef>
-5.4800

> <Gold.Chemscore.Hbond>
1.9562

> <Gold.Chemscore.Metal>
0.0000

> <Gold.Chemscore.Lipo>
121.7121

> <Gold.Chemscore.Internal_Hbond>
0.0000

> <Gold.Chemscore.DEClash>
0.5846

> <Gold.Chemscore.DEInternal>
0.4782

> <Gold.Chemscore.Rot>
1.3731

> <Gold.Chemscore.Internal.Correction>
   9.000000E+99

> <Gold.Chemscore.Hbonds>
donor molecule, donor type, donor heavy atom, donor atom, acceptor molecule, acceptor atom, score
      L1  H    15    53       P1  7948  0.70
      P1  H  7997  8009       L1     1  1.00

> <Gold.Chemscore.Hbond.Weighted>
-6.5338

> <Gold.Chemscore.Metal.Weighted>
-0.0000

> <Gold.Chemscore.Lipo.Weighted>
-14.2403

> <Gold.Chemscore.Internal_Hbond.Weighted>
0.0000

> <Gold.Chemscore.DEClash.Weighted>
0.5846

> <Gold.Chemscore.DEInternal.Weighted>
0.4782

> <Gold.Chemscore.Rot.Weighted>
3.5152

> <Gold.Chemscore.Internal.Correction.Weighted>
   9.000000E+99

> <Gold.Protein.RotatedTorsions>
[ 6907 6896 6895 6894 ] final   97.62 input  -60.11 | X-H torsion
[ 7974 7965 7964 7962 ] final  -96.97 input  175.53 | X-H torsion
[ 8008 7997 7996 7995 ] final -151.42 input   59.86 | X-H torsion
[ 10167 10162 10161 10158 ] final -147.22 input  -65.29 | X-H torsion
[ 10718 10713 10712 10709 ] final  -78.00 input   66.30 | X-H torsion
[ 10763 10752 10751 10750 ] final   95.71 input  -60.55 | X-H torsion
[ 11005 11000 10999 10996 ] final -150.33 input  -57.11 | X-H torsion

> <Gold.Protein.ActiveResidues>
 VAL166  LYS551  ARG553  GLY616  TRP617  ASP618  TYR619  PRO620  LYS621  CYS622 
 ASP623  PHE694  ASN695  SER759  ASP760  ASP761  ALA762  ILE779  LEU786  VAL792 
 PHE793  MET794  SER795  GLU796  ALA797  LYS798  CYS799  TRP800  GLU811  SER814 

> <Gold.Protein.RotatedAtoms>
  152.5421  134.0706  159.8191 H   0  0  0  0  0  0  0  0  0  0  0  0  # atno 6907 bound_to 6896
  151.0821  133.5374  159.2627 H   0  0  0  0  0  0  0  0  0  0  0  0  # atno 6908 bound_to 6896
  151.2198  135.0522  159.8999 H   0  0  0  0  0  0  0  0  0  0  0  0  # atno 6909 bound_to 6896
  145.3398  140.9457  143.2614 H   0  0  0  0  0  0  0  0  0  0  0  0  # atno 7974 bound_to 7965
  155.6391  140.0699  157.2624 H   0  0  0  0  0  0  0  0  0  0  0  0  # atno 8008 bound_to 7997
  154.4188  140.1753  156.1603 H   0  0  0  0  0  0  0  0  0  0  0  0  # atno 8009 bound_to 7997
  155.9870  140.3348  155.6720 H   0  0  0  0  0  0  0  0  0  0  0  0  # atno 8010 bound_to 7997
  139.7642  143.8332  152.2613 H   0  0  0  0  0  0  0  0  0  0  0  0  # atno 10167 bound_to 10162
  156.0129  130.4506  150.3430 H   0  0  0  0  0  0  0  0  0  0  0  0  # atno 10718 bound_to 10713
  153.2563  135.4244  155.0849 H   0  0  0  0  0  0  0  0  0  0  0  0  # atno 10763 bound_to 10752
  154.8402  135.3438  154.6440 H   0  0  0  0  0  0  0  0  0  0  0  0  # atno 10764 bound_to 10752
  153.6861  135.7036  153.5160 H   0  0  0  0  0  0  0  0  0  0  0  0  # atno 10765 bound_to 10752
  140.7414  134.3510  157.5146 H   0  0  0  0  0  0  0  0  0  0  0  0  # atno 11005 bound_to 11000
  144.8799  139.4919  143.6728 LP  0  0  0  0  0  0  0  0  0  0  0  0  # atno 17320 bound_to 7965
  146.3012  139.7432  142.9090 LP  0  0  0  0  0  0  0  0  0  0  0  0  # atno 17321 bound_to 7965
  139.8347  144.7237  150.9406 LP  0  0  0  0  0  0  0  0  0  0  0  0  # atno 17342 bound_to 10162
  140.7809  143.4037  151.1106 LP  0  0  0  0  0  0  0  0  0  0  0  0  # atno 17343 bound_to 10162
  157.1525  131.0324  151.2878 LP  0  0  0  0  0  0  0  0  0  0  0  0  # atno 17370 bound_to 10713
  157.4380  130.7528  149.7045 LP  0  0  0  0  0  0  0  0  0  0  0  0  # atno 17371 bound_to 10713
  139.8805  134.9083  156.2964 LP  0  0  0  0  0  0  0  0  0  0  0  0  # atno 17394 bound_to 11000
  140.9833  133.7253  156.0705 LP  0  0  0  0  0  0  0  0  0  0  0  0  # atno 17395 bound_to 11000

$$$$
