AV-unprocessed.smi:102|AV-procd|sdf|945|dock1
  -GOLD-   2262017463D 1   1.00000     0.00000
 Structure written by MMmdl.
 44 45  0  0  0  0  0  0  0  0  1 V2000
  150.2345  131.5130  155.7442 C   0  0  0  0  0  0  0  0  0  0  0  0
  150.1128  132.3247  157.0273 C   0  0  0  0  0  0  0  0  0  0  0  0
  151.0943  132.5653  157.7304 O   0  0  0  0  0  0  0  0  0  0  0  0
  148.8538  132.7172  157.2706 O   0  0  0  0  0  0  0  0  0  0  0  0
  148.6201  133.9269  157.9752 C   0  0  0  0  0  0  0  0  0  0  0  0
  147.2063  133.9330  158.5700 C   0  0  2  0  0  0  0  0  0  0  0  0
  146.2292  133.8584  157.5409 O   0  0  0  0  0  0  0  0  0  0  0  0
  145.0338  134.3734  158.0273 C   0  0  1  0  0  0  0  0  0  0  0  0
  144.2112  133.2135  158.5866 N   0  0  0  0  0  0  0  0  0  0  0  0
  144.6654  131.8973  158.5902 C   0  0  0  0  0  0  0  0  0  0  0  0
  143.9145  130.8492  159.0016 C   0  0  0  0  0  0  0  0  0  0  0  0
  144.4350  129.6104  158.9774 F   0  0  0  0  0  0  0  0  0  0  0  0
  142.5401  131.0478  159.4459 C   0  0  0  0  0  0  0  0  0  0  0  0
  141.7857  130.1655  159.8505 O   0  0  0  0  0  0  0  0  0  0  0  0
  142.0984  132.3700  159.3661 N   0  0  0  0  0  0  0  0  0  0  0  0
  142.8598  133.4567  158.9325 C   0  0  0  0  0  0  0  0  0  0  0  0
  142.3401  134.5701  158.8689 O   0  0  0  0  0  0  0  0  0  0  0  0
  145.4024  135.4991  159.0204 C   0  0  1  0  0  0  0  0  0  0  0  0
  144.5054  135.6126  160.1230 O   0  0  0  0  0  0  0  0  0  0  0  0
  144.4908  136.7259  160.8742 C   0  0  0  0  0  0  0  0  0  0  0  0
  143.5178  136.6238  162.0407 C   0  0  0  0  0  0  0  0  0  0  0  0
  145.1578  137.7415  160.6777 O   0  0  0  0  0  0  0  0  0  0  0  0
  146.8558  135.1808  159.4008 C   0  0  1  0  0  0  0  0  0  0  0  0
  147.0285  134.8953  160.7855 O   0  0  0  0  0  0  0  0  0  0  0  0
  147.2799  135.8854  161.6598 C   0  0  0  0  0  0  0  0  0  0  0  0
  147.3068  135.3924  163.1001 C   0  0  0  0  0  0  0  0  0  0  0  0
  147.4630  137.0703  161.3811 O   0  0  0  0  0  0  0  0  0  0  0  0
  141.1418  132.5533  159.6322 H   0  0  0  0  0  0  0  0  0  0  0  0
  149.4498  131.7861  155.0380 H   0  0  0  0  0  0  0  0  0  0  0  0
  150.1493  130.4485  155.9630 H   0  0  0  0  0  0  0  0  0  0  0  0
  151.2004  131.6929  155.2718 H   0  0  0  0  0  0  0  0  0  0  0  0
  149.3599  134.0411  158.7686 H   0  0  0  0  0  0  0  0  0  0  0  0
  148.7356  134.7732  157.2964 H   0  0  0  0  0  0  0  0  0  0  0  0
  147.0900  133.0382  159.1825 H   0  0  0  0  0  0  0  0  0  0  0  0
  144.4456  134.7931  157.2105 H   0  0  0  0  0  0  0  0  0  0  0  0
  145.6600  131.6677  158.2470 H   0  0  0  0  0  0  0  0  0  0  0  0
  145.4180  136.4355  158.4602 H   0  0  0  0  0  0  0  0  0  0  0  0
  143.6766  135.6948  162.5891 H   0  0  0  0  0  0  0  0  0  0  0  0
  142.4904  136.6418  161.6767 H   0  0  0  0  0  0  0  0  0  0  0  0
  143.6563  137.4585  162.7284 H   0  0  0  0  0  0  0  0  0  0  0  0
  147.4897  136.0157  159.0991 H   0  0  0  0  0  0  0  0  0  0  0  0
  147.9962  134.5537  163.2012 H   0  0  0  0  0  0  0  0  0  0  0  0
  146.3131  135.0640  163.4053 H   0  0  0  0  0  0  0  0  0  0  0  0
  147.6303  136.1882  163.7717 H   0  0  0  0  0  0  0  0  0  0  0  0
  1  2  1  0  0  0  0
  1 29  1  0  0  0  0
  1 30  1  0  0  0  0
  1 31  1  0  0  0  0
  2  3  2  0  0  0  0
  2  4  1  0  0  0  0
  4  5  1  0  0  0  0
  5  6  1  0  0  0  0
  5 32  1  0  0  0  0
  5 33  1  0  0  0  0
  6 23  1  0  0  0  0
  6  7  1  0  0  0  0
  6 34  1  0  0  0  0
  7  8  1  0  0  0  0
  8  9  1  0  0  0  0
  8 18  1  0  0  0  0
  8 35  1  0  0  0  0
  9 16  1  0  0  0  0
  9 10  1  0  0  0  0
 10 11  2  0  0  0  0
 10 36  1  0  0  0  0
 11 12  1  0  0  0  0
 11 13  1  0  0  0  0
 13 14  2  0  0  0  0
 13 15  1  0  0  0  0
 15 28  1  0  0  0  0
 15 16  1  0  0  0  0
 16 17  2  0  0  0  0
 18 19  1  0  0  0  0
 18 23  1  0  0  0  0
 18 37  1  0  0  0  0
 19 20  1  0  0  0  0
 20 21  1  0  0  0  0
 20 22  2  0  0  0  0
 21 38  1  0  0  0  0
 21 39  1  0  0  0  0
 21 40  1  0  0  0  0
 23 24  1  0  0  0  0
 23 41  1  0  0  0  0
 24 25  1  0  0  0  0
 25 26  1  0  0  0  0
 25 27  2  0  0  0  0
 26 42  1  0  0  0  0
 26 43  1  0  0  0  0
 26 44  1  0  0  0  0
M  END
> <s_m_source_file>
AV-unprocessed.smi

> <i_m_source_file_index>
102

> <i_lp_mmshare_version>
43012

> <i_f3d_flags>
0

> <s_epik_input>
W0NIM11DKD1PKU9bQ0gyXVtDQEBIXTFPW0NASF0oW0NAQEhdKE9DKD1PKVtDSDNdKVtDQEhdMU9DKD1PKVtDSDNdKW4yW2NIXWMoRiljKD1PKVtuSF1jMj1P

> <s_epik_cmdline>
J2VwaWtfcHl0aG9uJywgJy1waCcsICc3LjAnLCAnLXRuJywgJzgnLCAnLW1hJywgJzIwMCcsICctbWV0YWxfYmluZGluZycsICctaW1hZScsICc8aW5maWxlLm1hZT4nLCAnLW9tYWUnLCAnPG91dGZpbGUubWFlPic=

> <r_lp_tautomer_probability>
0.999537

> <r_epik_Ionization_Penalty>
0.058267

> <r_epik_Ionization_Penalty_Charging>
0.058267

> <r_epik_Ionization_Penalty_Neutral>
6.57791e-16

> <r_epik_State_Penalty>
0.0503774

> <r_epik_Charging_Adjusted_Penalty>
0.108644

> <i_epik_Tot_Q>
0

> <i_epik_Tot_abs_Q>
0

> <r_epik_Metal_State_Penalty>
2.6644

> <b_epik_Metal_Only>
0

> <s_epik_Chemistry_Notes>
This compound has an ester and may undergo hydrolysis at high or low pH. This compound contains an acetal/aminal-like group ( X-CH(R)-Y where X, Y are N, S, or O) that may be acid/base labile, releasing an aldehyde.

> <s_lp_Force_Field>
OPLS_2005

> <r_lp_Energy>
14.9607

> <b_lp_Chiralities_Consistent>
1

> <s_lp_Variant>
AV-unprocessed.smi:102-1

> <Gold.Version>
5.8.1

> <Gold.Id.Protein>
6NUR|6NUR_protein|mol2

> <Gold.PLP.Fitness>
34.8048

> <Gold.PLP.PLP>
-24.6722

> <Gold.PLP.part.hbond>
-4.3708

> <Gold.PLP.part.metal>
0.0000

> <Gold.PLP.part.buried>
-5.6923

> <Gold.PLP.part.nonpolar>
-15.9907

> <Gold.PLP.part.repulsive>
0.0828

> <Gold.PLP.ligand.clash>
0.0000

> <Gold.PLP.ligand.torsion>
1.0637

> <Gold.PLP.Chemscore.Hbond>
3.9040

> <Gold.PLP.Chemscore.CHOScore>
0.0000

> <Gold.PLP.Chemscore.Metal>
0.0000

> <Gold.Chemscore.Hbonds>
donor molecule, donor type, donor heavy atom, donor atom, acceptor molecule, acceptor atom, score
      P1  H  6896  6907       L1     3  1.00
      P1  H  6931  6943       L1    27  0.98
      P1  H  6934  6947       L1    27  0.93
      P1  H 11000 11005       L1    17  0.98

> <Gold.PLP.Chemscore.Internal.Correction>
0.5481

> <Gold.Rescore>
     Score         DG    S(hbond)    S(metal)    S(lipo)     H(rot)  DE(clash)    DE(int)     intcor
      8.91     -10.81       3.68        0.00      29.19       4.05       0.01       1.89       ----

> <Gold.Chemscore.Fitness>
8.9124

> <Gold.Chemscore.DG>
-10.8143

> <Gold.Chemscore.ZeroCoef>
-5.4800

> <Gold.Chemscore.Hbond>
3.6803

> <Gold.Chemscore.Metal>
0.0000

> <Gold.Chemscore.Lipo>
29.1909

> <Gold.Chemscore.Internal_Hbond>
0.0000

> <Gold.Chemscore.DEClash>
0.0077

> <Gold.Chemscore.DEInternal>
1.8942

> <Gold.Chemscore.Rot>
4.0520

> <Gold.Chemscore.Internal.Correction>
   9.000000E+99

> <Gold.Chemscore.Hbonds>
donor molecule, donor type, donor heavy atom, donor atom, acceptor molecule, acceptor atom, score
      P1  H  6896  6907       L1     3  1.00
      P1  H  6931  6943       L1    27  0.87
      P1  H  6934  6947       L1    27  0.85
      P1  H 11000 11005       L1    17  0.45

> <Gold.Chemscore.Hbond.Weighted>
-12.2921

> <Gold.Chemscore.Metal.Weighted>
-0.0000

> <Gold.Chemscore.Lipo.Weighted>
-3.4153

> <Gold.Chemscore.Internal_Hbond.Weighted>
0.0000

> <Gold.Chemscore.DEClash.Weighted>
0.0077

> <Gold.Chemscore.DEInternal.Weighted>
1.8942

> <Gold.Chemscore.Rot.Weighted>
10.3732

> <Gold.Chemscore.Internal.Correction.Weighted>
   9.000000E+99

> <Gold.Protein.RotatedTorsions>
[ 6907 6896 6895 6894 ] final -158.20 input  -60.11 | X-H torsion
[ 7974 7965 7964 7962 ] final -133.90 input  175.53 | X-H torsion
[ 8008 7997 7996 7995 ] final  123.53 input   59.86 | X-H torsion
[ 10167 10162 10161 10158 ] final   82.93 input  -65.29 | X-H torsion
[ 10718 10713 10712 10709 ] final   72.52 input   66.30 | X-H torsion
[ 10763 10752 10751 10750 ] final   69.34 input  -60.55 | X-H torsion
[ 11005 11000 10999 10996 ] final -151.40 input  -57.11 | X-H torsion

> <Gold.Protein.ActiveResidues>
 VAL166  LYS551  ARG553  GLY616  TRP617  ASP618  TYR619  PRO620  LYS621  CYS622 
 ASP623  PHE694  ASN695  SER759  ASP760  ASP761  ALA762  ILE779  LEU786  VAL792 
 PHE793  MET794  SER795  GLU796  ALA797  LYS798  CYS799  TRP800  GLU811  SER814 

> <Gold.Protein.RotatedAtoms>
  151.3145  133.4066  159.2649 H   0  0  0  0  0  0  0  0  0  0  0  0  # atno 6907 bound_to 6896
  151.0086  134.9379  159.8005 H   0  0  0  0  0  0  0  0  0  0  0  0  # atno 6908 bound_to 6896
  152.5294  134.3110  159.9166 H   0  0  0  0  0  0  0  0  0  0  0  0  # atno 6909 bound_to 6896
  144.9151  140.6944  143.5000 H   0  0  0  0  0  0  0  0  0  0  0  0  # atno 7974 bound_to 7965
  156.2769  140.2760  156.1643 H   0  0  0  0  0  0  0  0  0  0  0  0  # atno 8008 bound_to 7997
  155.0721  140.0387  157.2629 H   0  0  0  0  0  0  0  0  0  0  0  0  # atno 8009 bound_to 7997
  154.7032  140.2653  155.6705 H   0  0  0  0  0  0  0  0  0  0  0  0  # atno 8010 bound_to 7997
  139.9236  144.6197  150.8415 H   0  0  0  0  0  0  0  0  0  0  0  0  # atno 10167 bound_to 10162
  157.6505  130.9583  150.0941 H   0  0  0  0  0  0  0  0  0  0  0  0  # atno 10718 bound_to 10713
  153.0282  135.5214  154.7274 H   0  0  0  0  0  0  0  0  0  0  0  0  # atno 10763 bound_to 10752
  154.6311  135.2900  155.0217 H   0  0  0  0  0  0  0  0  0  0  0  0  # atno 10764 bound_to 10752
  154.1169  135.6613  153.4948 H   0  0  0  0  0  0  0  0  0  0  0  0  # atno 10765 bound_to 10752
  140.7299  134.3632  157.5168 H   0  0  0  0  0  0  0  0  0  0  0  0  # atno 11005 bound_to 11000
  145.3389  139.1738  143.4496 LP  0  0  0  0  0  0  0  0  0  0  0  0  # atno 17320 bound_to 7965
  146.3178  140.3427  142.8649 LP  0  0  0  0  0  0  0  0  0  0  0  0  # atno 17321 bound_to 7965
  140.7656  143.3279  151.2475 LP  0  0  0  0  0  0  0  0  0  0  0  0  # atno 17342 bound_to 10162
  139.6840  143.9805  152.2824 LP  0  0  0  0  0  0  0  0  0  0  0  0  # atno 17343 bound_to 10162
  156.1881  130.3653  149.8945 LP  0  0  0  0  0  0  0  0  0  0  0  0  # atno 17370 bound_to 10713
  156.6880  130.8884  151.3584 LP  0  0  0  0  0  0  0  0  0  0  0  0  # atno 17371 bound_to 10713
  139.8828  134.9011  156.2804 LP  0  0  0  0  0  0  0  0  0  0  0  0  # atno 17394 bound_to 11000
  140.9930  133.7197  156.0842 LP  0  0  0  0  0  0  0  0  0  0  0  0  # atno 17395 bound_to 11000

$$$$
