#       Name:                AV-unprocessed.smi:2923
#       Creating user name   scv26
#       Creation time:       Fri Mar 27 16:09:59 2020


#       File generated by GOLD software.
#

@<TRIPOS>MOLECULE
AV-unprocessed.smi:2923
    51    53     1
SMALL
NO_CHARGES


@<TRIPOS>ATOM
      1 ****        -6.7802   0.2778   0.1917 C.3            1 S1                 0.0000
      2 ****        -6.0448  -0.8928   0.6572 N.pl3          1 S1                 0.0000
      3 ****        -6.7573  -2.0316   1.2214 C.3            1 S1                 0.0000
      4 ****        -4.6331  -0.8793   0.6565 C.ar           1 S1                 0.0000
      5 ****        -3.8468  -1.9585   1.1280 C.ar           1 S1                 0.0000
      6 ****        -2.4403  -1.8677   1.0959 C.ar           1 S1                 0.0000
      7 ****        -1.8197  -0.7044   0.5945 C.ar           1 S1                 0.0000
      8 ****        -0.3975  -0.6713   0.5941 N.am           1 S1                 0.0000
      9 ****         0.4336   0.2905   0.1559 C.2            1 S1                 0.0000
     10 ****         0.0918   1.3538  -0.3600 O.2            1 S1                 0.0000
     11 ****         1.7136  -0.0563   0.3452 N.am           1 S1                 0.0000
     12 ****         2.8553   0.7744  -0.0239 C.3            1 S1                 0.0000
     13 ****         4.1912   0.1802   0.4481 C.3            1 S1                 0.0000
     14 ****         5.0110   0.9055   1.4805 C.3            1 S1                 0.0000
     15 ****         6.0052   1.7009   0.6300 C.3            1 S1                 0.0000
     16 ****         5.3816   1.8064  -0.6478 O.3            1 S1                 0.0000
     17 ****         4.7438   0.5604  -0.9173 C.3            1 S1                 0.0000
     18 ****         3.3147   0.6247  -1.4968 C.3            1 S1                 0.0000
     19 ****         2.8845  -0.6423  -2.2498 C.3            1 S1                 0.0000
     20 ****         3.0176   1.8079  -2.4192 C.3            1 S1                 0.0000
     21 ****        -2.6492   0.3464   0.1335 C.ar           1 S1                 0.0000
     22 ****        -3.9926   0.2170   0.1826 N.pl3          1 S1                 1.0000
     23 ****        -6.5264   0.5041  -0.8444 H              1 S1                 0.0000
     24 ****        -6.5431   1.1475   0.8053 H              1 S1                 0.0000
     25 ****        -7.8570   0.1163   0.2425 H              1 S1                 0.0000
     26 ****        -6.4853  -2.1741   2.2677 H              1 S1                 0.0000
     27 ****        -6.5204  -2.9427   0.6715 H              1 S1                 0.0000
     28 ****        -7.8367  -1.8872   1.1746 H              1 S1                 0.0000
     29 ****        -4.2990  -2.8590   1.5157 H              1 S1                 0.0000
     30 ****        -1.8436  -2.6925   1.4574 H              1 S1                 0.0000
     31 ****         0.0495  -1.4894   0.9812 H              1 S1                 0.0000
     32 ****         1.9148  -0.9483   0.7727 H              1 S1                 0.0000
     33 ****         2.7529   1.8208   0.2731 H              1 S1                 0.0000
     34 ****         4.1504  -0.9031   0.5757 H              1 S1                 0.0000
     35 ****         4.3867   1.5740   2.0741 H              1 S1                 0.0000
     36 ****         5.5207   0.2268   2.1648 H              1 S1                 0.0000
     37 ****         6.2291   2.6816   1.0501 H              1 S1                 0.0000
     38 ****         6.9424   1.1527   0.5228 H              1 S1                 0.0000
     39 ****         5.4091  -0.1867  -1.3529 H              1 S1                 0.0000
     40 ****         3.4360  -0.7552  -3.1836 H              1 S1                 0.0000
     41 ****         1.8230  -0.6235  -2.4988 H              1 S1                 0.0000
     42 ****         3.0649  -1.5432  -1.6627 H              1 S1                 0.0000
     43 ****         3.5959   1.7508  -3.3418 H              1 S1                 0.0000
     44 ****         3.2604   2.7590  -1.9447 H              1 S1                 0.0000
     45 ****         1.9624   1.8480  -2.6914 H              1 S1                 0.0000
     46 ****        -2.3083   1.2867  -0.2704 H              1 S1                 0.0000
     47 ****        -4.5588   0.9943  -0.1573 H              1 S1                 0.0000
     48 ****        -0.8789   1.5607  -0.4830 LP             1 S1                 0.0000
     49 ****         0.7845   2.0112  -0.6564 LP             1 S1                 0.0000
     50 ****         6.0691   1.9967  -1.3486 LP             1 S1                 0.0000
     51 ****         4.7039   2.5417  -0.6374 LP             1 S1                 0.0000
@<TRIPOS>BOND
    1    1    2 1     
    2    1   23 1     
    3    1   24 1     
    4    1   25 1     
    5    2    3 1     
    6    2    4 1     
    7    3   26 1     
    8    3   27 1     
    9    3   28 1     
   10    4   22 ar    
   11    4    5 ar    
   12    5    6 ar    
   13    5   29 1     
   14    6    7 ar    
   15    6   30 1     
   16    7    8 1     
   17    7   21 ar    
   18    8    9 am    
   19    8   31 1     
   20    9   10 2     
   21    9   11 am    
   22   11   12 1     
   23   11   32 1     
   24   12   18 1     
   25   12   13 1     
   26   12   33 1     
   27   13   17 1     
   28   13   14 1     
   29   13   34 1     
   30   14   15 1     
   31   14   35 1     
   32   14   36 1     
   33   15   16 1     
   34   15   37 1     
   35   15   38 1     
   36   16   17 1     
   37   17   18 1     
   38   17   39 1     
   39   18   19 1     
   40   18   20 1     
   41   19   40 1     
   42   19   41 1     
   43   19   42 1     
   44   20   43 1     
   45   20   44 1     
   46   20   45 1     
   47   21   22 ar    
   48   21   46 1     
   49   22   47 1     
   50   10   48 1     
   51   10   49 1     
   52   16   50 1     
   53   16   51 1     
@<TRIPOS>SUBSTRUCTURE
      1 S1             1
@<TRIPOS>SET
LONE_PAIRS      STATIC     ATOMS    <user>   **** ""
4 48 49 50 51
DONOR_HYDROGENS      STATIC     ATOMS    <user>   **** ""
3 31 32 47
ATOM$BLUE        STATIC     ATOMS    COLORGROUP SYSTEM
4 48 49 50 51
ATOM$RED        STATIC     ATOMS    COLORGROUP SYSTEM
3 31 32 47
