AV-unprocessed.smi:234|AV-procd|sdf|1798|dock2
  -GOLD-   2262020363D 1   1.00000     0.00000
 Structure written by MMmdl.
 59 62  0  0  0  0  0  0  0  0  1 V2000
  152.6418  143.1191  159.4307 C   0  0  0  0  0  0  0  0  0  0  0  0
  151.7139  143.1644  158.2097 C   0  0  0  0  0  0  0  0  0  0  0  0
  150.7520  142.1180  158.2180 O   0  0  0  0  0  0  0  0  0  0  0  0
  149.8756  142.0989  157.0983 C   0  0  1  0  0  0  0  0  0  0  0  0
  150.5328  141.7545  155.7611 C   0  0  0  0  0  0  0  0  0  0  0  0
  149.2592  140.9517  155.4624 C   0  0  1  0  0  0  0  0  0  0  0  0
  149.4951  139.7072  154.7219 N   0  0  0  0  0  0  0  0  0  0  0  0
  150.8359  139.1325  154.7583 C   0  0  0  0  0  0  0  0  0  0  0  0
  148.5337  138.7513  154.7632 C   0  0  0  0  0  0  0  0  0  0  0  0
  148.4361  137.9241  155.8384 N   0  0  0  0  0  0  0  0  0  0  0  0
  147.4977  136.9734  155.8720 C   0  0  0  0  0  0  0  0  0  0  0  0
  146.5729  136.6808  154.9555 N   0  0  0  0  0  0  0  0  0  0  0  0
  146.6691  137.5061  153.8737 C   0  0  0  0  0  0  0  0  0  0  0  0
  147.6165  138.5528  153.6951 C   0  0  0  0  0  0  0  0  0  0  0  0
  147.4127  139.1744  152.4694 N   0  0  0  0  0  0  0  0  0  0  0  0
  146.3995  138.5333  151.9537 C   0  0  0  0  0  0  0  0  0  0  0  0
  145.8844  137.5222  152.7338 N   0  0  0  0  0  0  0  0  0  0  0  0
  144.7577  136.6600  152.4098 C   0  0  0  0  0  0  0  0  0  0  0  0
  145.0813  135.6107  151.3136 C   0  0  2  0  0  0  0  0  0  0  0  0
  145.4921  136.3122  150.1513 O   0  0  0  0  0  0  0  0  0  0  0  0
  143.8948  134.7304  150.9338 C   0  0  0  0  0  0  0  0  0  0  0  0
  144.5628  133.4607  150.4295 C   0  0  0  0  0  0  0  0  0  0  0  0
  145.6397  133.2971  151.3359 O   0  0  0  0  0  0  0  0  0  0  0  0
  146.1902  134.5746  151.6514 C   0  0  2  0  0  0  0  0  0  0  0  0
  146.6575  134.5191  153.1143 C   0  0  0  0  0  0  0  0  0  0  0  0
  149.0716  140.7778  156.9965 C   0  0  0  0  0  0  0  0  0  0  0  0
  149.7273  139.5501  157.6550 C   0  0  0  0  0  0  0  0  0  0  0  0
  147.6371  140.8570  157.5206 C   0  0  0  0  0  0  0  0  0  0  0  0
  153.2765  144.0047  159.4637 H   0  0  0  0  0  0  0  0  0  0  0  0
  153.2996  142.2516  159.4078 H   0  0  0  0  0  0  0  0  0  0  0  0
  152.0681  143.0861  160.3571 H   0  0  0  0  0  0  0  0  0  0  0  0
  151.1638  144.1054  158.2279 H   0  0  0  0  0  0  0  0  0  0  0  0
  152.2859  143.1619  157.2810 H   0  0  0  0  0  0  0  0  0  0  0  0
  149.2259  142.9755  157.0377 H   0  0  0  0  0  0  0  0  0  0  0  0
  150.6941  142.6054  155.0993 H   0  0  0  0  0  0  0  0  0  0  0  0
  151.4317  141.1444  155.8654 H   0  0  0  0  0  0  0  0  0  0  0  0
  148.4814  141.5803  155.0240 H   0  0  0  0  0  0  0  0  0  0  0  0
  150.8542  138.1807  155.2922 H   0  0  0  0  0  0  0  0  0  0  0  0
  151.5387  139.7981  155.2573 H   0  0  0  0  0  0  0  0  0  0  0  0
  151.1979  138.9615  153.7444 H   0  0  0  0  0  0  0  0  0  0  0  0
  147.4867  136.3590  156.7602 H   0  0  0  0  0  0  0  0  0  0  0  0
  145.9908  138.7874  150.9863 H   0  0  0  0  0  0  0  0  0  0  0  0
  144.4345  136.1647  153.3264 H   0  0  0  0  0  0  0  0  0  0  0  0
  143.9327  137.3003  152.0973 H   0  0  0  0  0  0  0  0  0  0  0  0
  144.9748  137.0997  150.0794 H   0  0  0  0  0  0  0  0  0  0  0  0
  143.3089  134.4875  151.8209 H   0  0  0  0  0  0  0  0  0  0  0  0
  143.2223  135.1838  150.2041 H   0  0  0  0  0  0  0  0  0  0  0  0
  143.8950  132.5992  150.4376 H   0  0  0  0  0  0  0  0  0  0  0  0
  144.9481  133.5926  149.4173 H   0  0  0  0  0  0  0  0  0  0  0  0
  147.0651  134.7296  151.0171 H   0  0  0  0  0  0  0  0  0  0  0  0
  147.1064  135.4623  153.4258 H   0  0  0  0  0  0  0  0  0  0  0  0
  147.4096  133.7415  153.2479 H   0  0  0  0  0  0  0  0  0  0  0  0
  145.8315  134.2929  153.7892 H   0  0  0  0  0  0  0  0  0  0  0  0
  149.1859  138.6318  157.4271 H   0  0  0  0  0  0  0  0  0  0  0  0
  149.7516  139.6468  158.7408 H   0  0  0  0  0  0  0  0  0  0  0  0
  150.7561  139.4057  157.3247 H   0  0  0  0  0  0  0  0  0  0  0  0
  147.0881  139.9317  157.3464 H   0  0  0  0  0  0  0  0  0  0  0  0
  147.0785  141.6599  157.0387 H   0  0  0  0  0  0  0  0  0  0  0  0
  147.6186  141.0508  158.5935 H   0  0  0  0  0  0  0  0  0  0  0  0
  1  2  1  0  0  0  0
  1 29  1  0  0  0  0
  1 30  1  0  0  0  0
  1 31  1  0  0  0  0
  2  3  1  0  0  0  0
  2 32  1  0  0  0  0
  2 33  1  0  0  0  0
  3  4  1  0  0  0  0
  4 26  1  0  0  0  0
  4  5  1  0  0  0  0
  4 34  1  0  0  0  0
  5  6  1  0  0  0  0
  5 35  1  0  0  0  0
  5 36  1  0  0  0  0
  6  7  1  0  0  0  0
  6 26  1  0  0  0  0
  6 37  1  0  0  0  0
  7  8  1  0  0  0  0
  7  9  1  0  0  0  0
  8 38  1  0  0  0  0
  8 39  1  0  0  0  0
  8 40  1  0  0  0  0
  9 14  1  0  0  0  0
  9 10  2  0  0  0  0
 10 11  1  0  0  0  0
 11 12  2  0  0  0  0
 11 41  1  0  0  0  0
 12 13  1  0  0  0  0
 13 17  1  0  0  0  0
 13 14  2  0  0  0  0
 14 15  1  0  0  0  0
 15 16  2  0  0  0  0
 16 17  1  0  0  0  0
 16 42  1  0  0  0  0
 17 18  1  0  0  0  0
 18 19  1  0  0  0  0
 18 43  1  0  0  0  0
 18 44  1  0  0  0  0
 19 24  1  0  0  0  0
 19 20  1  0  0  0  0
 19 21  1  0  0  0  0
 20 45  1  0  0  0  0
 21 22  1  0  0  0  0
 21 46  1  0  0  0  0
 21 47  1  0  0  0  0
 22 23  1  0  0  0  0
 22 48  1  0  0  0  0
 22 49  1  0  0  0  0
 23 24  1  0  0  0  0
 24 25  1  0  0  0  0
 24 50  1  0  0  0  0
 25 51  1  0  0  0  0
 25 52  1  0  0  0  0
 25 53  1  0  0  0  0
 26 27  1  0  0  0  0
 26 28  1  0  0  0  0
 27 54  1  0  0  0  0
 27 55  1  0  0  0  0
 27 56  1  0  0  0  0
 28 57  1  0  0  0  0
 28 58  1  0  0  0  0
 28 59  1  0  0  0  0
M  END
> <s_m_source_file>
AV-unprocessed.smi

> <i_m_source_file_index>
234

> <i_lp_mmshare_version>
43012

> <i_f3d_flags>
0

> <s_epik_input>
W0NIM11bQ0gyXU9bQ0BASF0oQzEoW0NIM10pW0NIM10pW0NIMl1bQ0BIXTFOKFtDSDNdKWMobltjSF1uMiljKGMyMyluW2NIXW4zW0NIMl1bQ0BAXTQoW09IXSlbQ0gyXVtDSDJdT1tDQEhdNFtDSDNd

> <s_epik_cmdline>
J2VwaWtfcHl0aG9uJywgJy1waCcsICc3LjAnLCAnLXRuJywgJzgnLCAnLW1hJywgJzIwMCcsICctbWV0YWxfYmluZGluZycsICctaW1hZScsICc8aW5maWxlLm1hZT4nLCAnLW9tYWUnLCAnPG91dGZpbGUubWFlPic=

> <r_lp_tautomer_probability>
1

> <r_epik_Ionization_Penalty>
0.00349132

> <r_epik_Ionization_Penalty_Charging>
0

> <r_epik_Ionization_Penalty_Neutral>
0.00349132

> <r_epik_State_Penalty>
0.00242418

> <r_epik_Charging_Adjusted_Penalty>
0.00242418

> <i_epik_Tot_Q>
0

> <i_epik_Tot_abs_Q>
0

> <r_epik_Metal_State_Penalty>
-0

> <b_epik_Metal_Only>
0

> <s_lp_Force_Field>
OPLS_2005

> <r_lp_Energy>
48.9285

> <b_lp_Chiralities_Consistent>
1

> <s_lp_Variant>
AV-unprocessed.smi:234-14

> <Gold.Version>
5.8.1

> <Gold.Id.Protein>
6NUR|6NUR_protein|mol2

> <Gold.PLP.Fitness>
42.6600

> <Gold.PLP.PLP>
-37.2687

> <Gold.PLP.part.hbond>
-2.0000

> <Gold.PLP.part.metal>
0.0000

> <Gold.PLP.part.buried>
-6.4172

> <Gold.PLP.part.nonpolar>
-33.2932

> <Gold.PLP.part.repulsive>
3.6447

> <Gold.PLP.ligand.clash>
0.0000

> <Gold.PLP.ligand.torsion>
0.9267

> <Gold.PLP.Chemscore.Hbond>
1.0000

> <Gold.PLP.Chemscore.CHOScore>
0.9797

> <Gold.PLP.Chemscore.Metal>
0.0000

> <Gold.Chemscore.Hbonds>
donor molecule, donor type, donor heavy atom, donor atom, acceptor molecule, acceptor atom, score
      L1  H    20    45       P1 10171  1.00
      L1  C    16    42       P1 10171  1.00

> <Gold.PLP.Chemscore.Internal.Correction>
1.3057

> <Gold.Rescore>
     Score         DG    S(hbond)    S(metal)    S(lipo)     H(rot)  DE(clash)    DE(int)     intcor
      8.06     -13.01       1.00        0.00      93.21       2.62       1.49       3.47       ----

> <Gold.Chemscore.Fitness>
8.0586

> <Gold.Chemscore.DG>
-13.0129

> <Gold.Chemscore.ZeroCoef>
-5.4800

> <Gold.Chemscore.Hbond>
0.9997

> <Gold.Chemscore.Metal>
0.0000

> <Gold.Chemscore.Lipo>
93.2146

> <Gold.Chemscore.Internal_Hbond>
0.0000

> <Gold.Chemscore.DEClash>
1.4860

> <Gold.Chemscore.DEInternal>
3.4683

> <Gold.Chemscore.Rot>
2.6219

> <Gold.Chemscore.Internal.Correction>
   9.000000E+99

> <Gold.Chemscore.Hbonds>
donor molecule, donor type, donor heavy atom, donor atom, acceptor molecule, acceptor atom, score
      L1  H    20    45       P1 10171  1.00

> <Gold.Chemscore.Hbond.Weighted>
-3.3389

> <Gold.Chemscore.Metal.Weighted>
-0.0000

> <Gold.Chemscore.Lipo.Weighted>
-10.9061

> <Gold.Chemscore.Internal_Hbond.Weighted>
0.0000

> <Gold.Chemscore.DEClash.Weighted>
1.4860

> <Gold.Chemscore.DEInternal.Weighted>
3.4683

> <Gold.Chemscore.Rot.Weighted>
6.7121

> <Gold.Chemscore.Internal.Correction.Weighted>
   9.000000E+99

> <Gold.Protein.RotatedTorsions>
[ 6907 6896 6895 6894 ] final  107.50 input  -60.11 | X-H torsion
[ 7974 7965 7964 7962 ] final -101.39 input  175.53 | X-H torsion
[ 8008 7997 7996 7995 ] final    0.30 input   59.86 | X-H torsion
[ 10167 10162 10161 10158 ] final    2.00 input  -65.29 | X-H torsion
[ 10718 10713 10712 10709 ] final  -89.15 input   66.30 | X-H torsion
[ 10763 10752 10751 10750 ] final  -40.52 input  -60.55 | X-H torsion
[ 11005 11000 10999 10996 ] final -157.57 input  -57.11 | X-H torsion

> <Gold.Protein.ActiveResidues>
 VAL166  LYS551  ARG553  GLY616  TRP617  ASP618  TYR619  PRO620  LYS621  CYS622 
 ASP623  PHE694  ASN695  SER759  ASP760  ASP761  ALA762  ILE779  LEU786  VAL792 
 PHE793  MET794  SER795  GLU796  ALA797  LYS798  CYS799  TRP800  GLU811  SER814 

> <Gold.Protein.RotatedAtoms>
  152.5151  133.9225  159.7540 H   0  0  0  0  0  0  0  0  0  0  0  0  # atno 6907 bound_to 6896
  150.9593  133.6454  159.2764 H   0  0  0  0  0  0  0  0  0  0  0  0  # atno 6908 bound_to 6896
  151.3704  135.0927  159.9516 H   0  0  0  0  0  0  0  0  0  0  0  0  # atno 6909 bound_to 6896
  145.2822  140.9330  143.2925 H   0  0  0  0  0  0  0  0  0  0  0  0  # atno 7974 bound_to 7965
  154.6664  140.2602  155.7053 H   0  0  0  0  0  0  0  0  0  0  0  0  # atno 8008 bound_to 7997
  156.2641  140.2838  156.1079 H   0  0  0  0  0  0  0  0  0  0  0  0  # atno 8009 bound_to 7997
  155.1232  140.0377  157.2745 H   0  0  0  0  0  0  0  0  0  0  0  0  # atno 8010 bound_to 7997
  140.6656  143.7188  150.7821 H   0  0  0  0  0  0  0  0  0  0  0  0  # atno 10167 bound_to 10162
  155.9984  130.4861  150.5127 H   0  0  0  0  0  0  0  0  0  0  0  0  # atno 10718 bound_to 10713
  153.9473  135.6754  153.4744 H   0  0  0  0  0  0  0  0  0  0  0  0  # atno 10763 bound_to 10752
  153.0902  135.4878  154.8671 H   0  0  0  0  0  0  0  0  0  0  0  0  # atno 10764 bound_to 10752
  154.7345  135.3146  154.8794 H   0  0  0  0  0  0  0  0  0  0  0  0  # atno 10765 bound_to 10752
  140.6632  134.4327  157.5234 H   0  0  0  0  0  0  0  0  0  0  0  0  # atno 11005 bound_to 11000
  144.9243  139.4374  143.6526 LP  0  0  0  0  0  0  0  0  0  0  0  0  # atno 17320 bound_to 7965
  146.3212  139.8120  142.8944 LP  0  0  0  0  0  0  0  0  0  0  0  0  # atno 17321 bound_to 7965
  140.0865  143.4918  152.2502 LP  0  0  0  0  0  0  0  0  0  0  0  0  # atno 17342 bound_to 10162
  139.5904  144.7547  151.3416 LP  0  0  0  0  0  0  0  0  0  0  0  0  # atno 17343 bound_to 10162
  157.3098  131.0661  151.2009 LP  0  0  0  0  0  0  0  0  0  0  0  0  # atno 17370 bound_to 10713
  157.2959  130.6819  149.6138 LP  0  0  0  0  0  0  0  0  0  0  0  0  # atno 17371 bound_to 10713
  139.9006  134.8565  156.1912 LP  0  0  0  0  0  0  0  0  0  0  0  0  # atno 17394 bound_to 11000
  141.0449  133.6918  156.1666 LP  0  0  0  0  0  0  0  0  0  0  0  0  # atno 17395 bound_to 11000

$$$$
