AV-unprocessed.smi:2229|AV-procd|sdf|9033|dock4
  -GOLD-   2272012243D 1   1.00000     0.00000
 Structure written by MMmdl.
 43 44  0  0  0  0  0  0  0  0  2 V2000
  152.0274  145.8926  159.9588 C   0  0  0  0  0  0  0  0  0  0  0  0
  152.0431  144.5194  159.2659 C   0  0  0  0  0  0  0  0  0  0  0  0
  150.6137  143.9715  159.1346 C   0  0  0  0  0  0  0  0  0  0  0  0
  152.9522  143.5026  159.9869 C   0  0  0  0  0  0  0  0  0  0  0  0
  152.6605  142.0344  159.6276 C   0  0  0  0  0  0  0  0  0  0  0  0
  153.5273  141.0286  160.4162 C   0  0  2  0  0  0  0  0  0  0  0  0
  154.9562  140.8704  159.8896 C   0  0  0  0  0  0  0  0  0  0  0  0
  155.4575  139.5929  160.5587 C   0  0  0  0  0  0  0  0  0  0  0  0
  154.2305  138.6796  160.6617 C   0  0  0  0  0  0  0  0  0  0  0  0
  152.9890  139.5820  160.4924 C   0  0  2  0  0  0  0  0  0  0  0  0
  152.2372  139.2122  159.2938 N   0  0  0  0  0  0  0  0  0  0  0  0
  151.9450  137.9599  158.9139 C   0  0  0  0  0  0  0  0  0  0  0  0
  152.2745  136.9645  159.5599 O   0  0  0  0  0  0  0  0  0  0  0  0
  151.1341  137.8278  157.6183 C   0  0  0  0  0  0  0  0  0  0  0  0
  151.8202  138.3764  156.4462 N   0  0  0  0  0  0  0  0  0  0  0  0
  151.3095  139.4036  155.6932 C   0  0  0  0  0  0  0  0  0  0  0  0
  152.1108  139.7093  154.7368 N   0  0  0  0  0  0  0  0  0  0  0  0
  153.2351  138.8308  154.8538 N   0  5  0  0  0  0  0  0  0  0  0  0
  152.9986  138.0366  155.9215 C   0  0  0  0  0  0  0  0  0  0  0  0
  153.7087  137.1432  156.3819 O   0  0  0  0  0  0  0  0  0  0  0  0
  151.6826  145.8118  160.9901 H   0  0  0  0  0  0  0  0  0  0  0  0
  151.3621  146.5839  159.4409 H   0  0  0  0  0  0  0  0  0  0  0  0
  153.0159  146.3510  159.9709 H   0  0  0  0  0  0  0  0  0  0  0  0
  152.4283  144.6596  158.2551 H   0  0  0  0  0  0  0  0  0  0  0  0
  150.1603  143.8078  160.1128 H   0  0  0  0  0  0  0  0  0  0  0  0
  150.6025  143.0216  158.5996 H   0  0  0  0  0  0  0  0  0  0  0  0
  149.9754  144.6635  158.5844 H   0  0  0  0  0  0  0  0  0  0  0  0
  153.9970  143.7357  159.7778 H   0  0  0  0  0  0  0  0  0  0  0  0
  152.8263  143.6230  161.0636 H   0  0  0  0  0  0  0  0  0  0  0  0
  151.6094  141.8250  159.8299 H   0  0  0  0  0  0  0  0  0  0  0  0
  152.8056  141.8834  158.5581 H   0  0  0  0  0  0  0  0  0  0  0  0
  153.6018  141.3871  161.4444 H   0  0  0  0  0  0  0  0  0  0  0  0
  154.9454  140.7401  158.8066 H   0  0  0  0  0  0  0  0  0  0  0  0
  155.5878  141.7293  160.1177 H   0  0  0  0  0  0  0  0  0  0  0  0
  156.2776  139.1298  160.0092 H   0  0  0  0  0  0  0  0  0  0  0  0
  155.8228  139.8267  161.5596 H   0  0  0  0  0  0  0  0  0  0  0  0
  154.2718  137.9108  159.8882 H   0  0  0  0  0  0  0  0  0  0  0  0
  154.2148  138.1605  161.6205 H   0  0  0  0  0  0  0  0  0  0  0  0
  152.3336  139.4945  161.3611 H   0  0  0  0  0  0  0  0  0  0  0  0
  151.9234  139.9688  158.7037 H   0  0  0  0  0  0  0  0  0  0  0  0
  150.8944  136.7743  157.4660 H   0  0  0  0  0  0  0  0  0  0  0  0
  150.1795  138.3440  157.7335 H   0  0  0  0  0  0  0  0  0  0  0  0
  150.3433  139.8437  155.9456 H   0  0  0  0  0  0  0  0  0  0  0  0
  1  2  1  0  0  0  0
  1 21  1  0  0  0  0
  1 22  1  0  0  0  0
  1 23  1  0  0  0  0
  2  3  1  0  0  0  0
  2  4  1  0  0  0  0
  2 24  1  0  0  0  0
  3 25  1  0  0  0  0
  3 26  1  0  0  0  0
  3 27  1  0  0  0  0
  4  5  1  0  0  0  0
  4 28  1  0  0  0  0
  4 29  1  0  0  0  0
  5  6  1  0  0  0  0
  5 30  1  0  0  0  0
  5 31  1  0  0  0  0
  6 10  1  0  0  0  0
  6  7  1  0  0  0  0
  6 32  1  0  0  0  0
  7  8  1  0  0  0  0
  7 33  1  0  0  0  0
  7 34  1  0  0  0  0
  8  9  1  0  0  0  0
  8 35  1  0  0  0  0
  8 36  1  0  0  0  0
  9 10  1  0  0  0  0
  9 37  1  0  0  0  0
  9 38  1  0  0  0  0
 10 11  1  0  0  0  0
 10 39  1  0  0  0  0
 11 12  1  0  0  0  0
 11 40  1  0  0  0  0
 12 13  2  0  0  0  0
 12 14  1  0  0  0  0
 14 15  1  0  0  0  0
 14 41  1  0  0  0  0
 14 42  1  0  0  0  0
 15 19  1  0  0  0  0
 15 16  1  0  0  0  0
 16 17  2  0  0  0  0
 16 43  1  0  0  0  0
 17 18  1  0  0  0  0
 18 19  1  0  0  0  0
 19 20  2  0  0  0  0
M  CHG  1  18  -1
M  END
> <s_m_source_file>
AV-unprocessed.smi

> <i_m_source_file_index>
2229

> <i_lp_mmshare_version>
43012

> <i_f3d_flags>
0

> <s_epik_input>
W0NIM11bQ0hdKFtDSDNdKVtDSDJdW0NIMl1bQ0BASF0xW0NIMl1bQ0gyXVtDSDJdW0NASF0xW05IXUMoPU8pW0NIMl1uMltjSF1uW25IXWMyPU8=

> <s_epik_cmdline>
J2VwaWtfcHl0aG9uJywgJy1waCcsICc3LjAnLCAnLXRuJywgJzgnLCAnLW1hJywgJzIwMCcsICctbWV0YWxfYmluZGluZycsICctaW1hZScsICc8aW5maWxlLm1hZT4nLCAnLW9tYWUnLCAnPG91dGZpbGUubWFlPic=

> <r_lp_tautomer_probability>
1

> <r_epik_Ionization_Penalty>
13.6733

> <r_epik_Ionization_Penalty_Charging>
13.6725

> <r_epik_Ionization_Penalty_Neutral>
0.000837689

> <r_epik_State_Penalty>
5.67062

> <r_epik_Charging_Adjusted_Penalty>
19.3431

> <i_epik_Tot_Q>
-1

> <i_epik_Tot_abs_Q>
1

> <r_epik_Metal_State_Penalty>
1.61781

> <b_epik_Metal_Only>
1

> <s_lp_Force_Field>
OPLS_2005

> <r_lp_Energy>
26.4382

> <b_lp_Chiralities_Consistent>
1

> <s_lp_Variant>
AV-unprocessed.smi:2229-7

> <Gold.Version>
5.8.1

> <Gold.Id.Protein>
6NUR|6NUR_protein|mol2

> <Gold.PLP.Fitness>
49.8558

> <Gold.PLP.PLP>
-38.3876

> <Gold.PLP.part.hbond>
-3.9846

> <Gold.PLP.part.metal>
0.0000

> <Gold.PLP.part.buried>
-5.0107

> <Gold.PLP.part.nonpolar>
-29.7843

> <Gold.PLP.part.repulsive>
0.1706

> <Gold.PLP.ligand.clash>
0.0000

> <Gold.PLP.ligand.torsion>
0.6082

> <Gold.PLP.Chemscore.Hbond>
4.2112

> <Gold.PLP.Chemscore.CHOScore>
0.0000

> <Gold.PLP.Chemscore.Metal>
0.0000

> <Gold.Chemscore.Hbonds>
donor molecule, donor type, donor heavy atom, donor atom, acceptor molecule, acceptor atom, score
      P1  H  6896  6909       L1    13  1.00
      P1  H  7989  7998       L1    17  0.83
      P1  H  7997  8009       L1    18  1.30
      P1  H 10752 10764       L1    20  0.55

> <Gold.PLP.Chemscore.Internal.Correction>
0.0511

> <Gold.Rescore>
     Score         DG    S(hbond)    S(metal)    S(lipo)     H(rot)  DE(clash)    DE(int)     intcor
     16.63     -18.64       2.47        0.00      98.66       2.59       0.22       1.79       ----

> <Gold.Chemscore.Fitness>
16.6265

> <Gold.Chemscore.DG>
-18.6376

> <Gold.Chemscore.ZeroCoef>
-5.4800

> <Gold.Chemscore.Hbond>
2.4715

> <Gold.Chemscore.Metal>
0.0000

> <Gold.Chemscore.Lipo>
98.6599

> <Gold.Chemscore.Internal_Hbond>
0.0000

> <Gold.Chemscore.DEClash>
0.2190

> <Gold.Chemscore.DEInternal>
1.7921

> <Gold.Chemscore.Rot>
2.5939

> <Gold.Chemscore.Internal.Correction>
   9.000000E+99

> <Gold.Chemscore.Hbonds>
donor molecule, donor type, donor heavy atom, donor atom, acceptor molecule, acceptor atom, score
      P1  H  6896  6909       L1    13  0.97
      P1  H  7989  7998       L1    17  0.82
      P1  H  7997  8009       L1    18  0.05
      P1  H 10752 10764       L1    20  0.49

> <Gold.Chemscore.Hbond.Weighted>
-8.2549

> <Gold.Chemscore.Metal.Weighted>
-0.0000

> <Gold.Chemscore.Lipo.Weighted>
-11.5432

> <Gold.Chemscore.Internal_Hbond.Weighted>
0.0000

> <Gold.Chemscore.DEClash.Weighted>
0.2190

> <Gold.Chemscore.DEInternal.Weighted>
1.7921

> <Gold.Chemscore.Rot.Weighted>
6.6405

> <Gold.Chemscore.Internal.Correction.Weighted>
   9.000000E+99

> <Gold.Protein.RotatedTorsions>
[ 6907 6896 6895 6894 ] final  119.67 input  -60.11 | X-H torsion
[ 7974 7965 7964 7962 ] final -149.22 input  175.53 | X-H torsion
[ 8008 7997 7996 7995 ] final -115.54 input   59.86 | X-H torsion
[ 10167 10162 10161 10158 ] final  130.41 input  -65.29 | X-H torsion
[ 10718 10713 10712 10709 ] final  146.79 input   66.30 | X-H torsion
[ 10763 10752 10751 10750 ] final   16.16 input  -60.55 | X-H torsion
[ 11005 11000 10999 10996 ] final  -48.98 input  -57.11 | X-H torsion

> <Gold.Protein.ActiveResidues>
 VAL166  LYS551  ARG553  GLY616  TRP617  ASP618  TYR619  PRO620  LYS621  CYS622 
 ASP623  PHE694  ASN695  SER759  ASP760  ASP761  ALA762  ILE779  LEU786  VAL792 
 PHE793  MET794  SER795  GLU796  ALA797  LYS798  CYS799  TRP800  GLU811  SER814 

> <Gold.Protein.RotatedAtoms>
  152.4455  133.7528  159.6703 H   0  0  0  0  0  0  0  0  0  0  0  0  # atno 6907 bound_to 6896
  150.8354  133.8012  159.3088 H   0  0  0  0  0  0  0  0  0  0  0  0  # atno 6908 bound_to 6896
  151.5653  135.1067  160.0034 H   0  0  0  0  0  0  0  0  0  0  0  0  # atno 6909 bound_to 6896
  144.7981  140.5094  143.5726 H   0  0  0  0  0  0  0  0  0  0  0  0  # atno 7974 bound_to 7965
  155.0536  140.0393  157.2552 H   0  0  0  0  0  0  0  0  0  0  0  0  # atno 8008 bound_to 7997
  154.7117  140.2694  155.6599 H   0  0  0  0  0  0  0  0  0  0  0  0  # atno 8009 bound_to 7997
  156.2791  140.2720  156.1760 H   0  0  0  0  0  0  0  0  0  0  0  0  # atno 8010 bound_to 7997
  139.5431  144.6749  151.4559 H   0  0  0  0  0  0  0  0  0  0  0  0  # atno 10167 bound_to 10162
  157.3289  131.0917  151.1179 H   0  0  0  0  0  0  0  0  0  0  0  0  # atno 10718 bound_to 10713
  153.1457  135.6769  153.8958 H   0  0  0  0  0  0  0  0  0  0  0  0  # atno 10763 bound_to 10752
  153.8401  135.3106  155.3426 H   0  0  0  0  0  0  0  0  0  0  0  0  # atno 10764 bound_to 10752
  154.7823  135.4881  153.9956 H   0  0  0  0  0  0  0  0  0  0  0  0  # atno 10765 bound_to 10752
  141.0733  133.6673  156.3519 H   0  0  0  0  0  0  0  0  0  0  0  0  # atno 11005 bound_to 11000
  145.5622  139.1480  143.3335 LP  0  0  0  0  0  0  0  0  0  0  0  0  # atno 17320 bound_to 7965
  146.2255  140.5758  142.8998 LP  0  0  0  0  0  0  0  0  0  0  0  0  # atno 17321 bound_to 7965
  140.6669  143.8377  150.6953 LP  0  0  0  0  0  0  0  0  0  0  0  0  # atno 17342 bound_to 10162
  140.1789  143.4131  152.1947 LP  0  0  0  0  0  0  0  0  0  0  0  0  # atno 17343 bound_to 10162
  157.2435  130.6580  149.5900 LP  0  0  0  0  0  0  0  0  0  0  0  0  # atno 17370 bound_to 10713
  155.9693  130.4561  150.5911 LP  0  0  0  0  0  0  0  0  0  0  0  0  # atno 17371 bound_to 10713
  140.5628  134.5917  157.5438 LP  0  0  0  0  0  0  0  0  0  0  0  0  # atno 17394 bound_to 11000
  139.9545  134.7559  156.0372 LP  0  0  0  0  0  0  0  0  0  0  0  0  # atno 17395 bound_to 11000

$$$$
