AV-unprocessed.smi:1593|AV-procd|sdf|6409|dock3
  -GOLD-   22720 7 43D 1   1.00000     0.00000
 Structure written by MMmdl.
 36 37  0  0  0  0  0  0  0  0  1 V2000
  150.7277  142.1511  156.4623 C   0  0  0  0  0  0  0  0  0  0  0  0
  150.3673  141.0175  155.5645 C   0  0  0  0  0  0  0  0  0  0  0  0
  149.1840  140.6018  155.0224 C   0  0  0  0  0  0  0  0  0  0  0  0
  149.5642  139.4538  154.2678 C   0  0  0  0  0  0  0  0  0  0  0  0
  148.7024  138.6290  153.4996 N   0  0  0  0  0  0  0  0  0  0  0  0
  147.3749  138.7416  153.3257 C   0  0  0  0  0  0  0  0  0  0  0  0
  146.6663  139.6259  153.8063 O   0  0  0  0  0  0  0  0  0  0  0  0
  146.9035  137.7540  152.5504 N   0  0  0  0  0  0  0  0  0  0  0  0
  145.5022  137.5556  152.1935 C   0  0  0  0  0  0  0  0  0  0  0  0
  144.5877  137.6261  153.4320 C   0  0  0  0  0  0  0  0  0  0  0  0
  143.2304  137.1127  153.2460 N   0  0  0  0  0  0  0  0  0  0  0  0
  142.3283  137.6199  154.2735 C   0  0  0  0  0  0  0  0  0  0  0  0
  140.8929  137.0998  154.0831 C   0  0  0  0  0  0  0  0  0  0  0  0
  140.8982  135.6757  154.0732 O   0  0  0  0  0  0  0  0  0  0  0  0
  141.7374  135.1370  153.0565 C   0  0  0  0  0  0  0  0  0  0  0  0
  143.1743  135.6524  153.2462 C   0  0  0  0  0  0  0  0  0  0  0  0
  150.8574  139.1988  154.3468 N   0  0  0  0  0  0  0  0  0  0  0  0
  151.3806  140.1972  155.1770 O   0  0  0  0  0  0  0  0  0  0  0  0
  149.9539  142.9189  156.4490 H   0  0  0  0  0  0  0  0  0  0  0  0
  151.6651  142.6117  156.1495 H   0  0  0  0  0  0  0  0  0  0  0  0
  150.8447  141.8063  157.4897 H   0  0  0  0  0  0  0  0  0  0  0  0
  148.2145  141.0568  155.1564 H   0  0  0  0  0  0  0  0  0  0  0  0
  149.1515  137.8545  153.0335 H   0  0  0  0  0  0  0  0  0  0  0  0
  147.5603  137.0732  152.1981 H   0  0  0  0  0  0  0  0  0  0  0  0
  145.1852  138.2481  151.4130 H   0  0  0  0  0  0  0  0  0  0  0  0
  145.4203  136.5620  151.7529 H   0  0  0  0  0  0  0  0  0  0  0  0
  145.0647  137.0959  154.2578 H   0  0  0  0  0  0  0  0  0  0  0  0
  144.5338  138.6701  153.7444 H   0  0  0  0  0  0  0  0  0  0  0  0
  142.6898  137.3281  155.2609 H   0  0  0  0  0  0  0  0  0  0  0  0
  142.3202  138.7103  154.2534 H   0  0  0  0  0  0  0  0  0  0  0  0
  140.2523  137.4485  154.8931 H   0  0  0  0  0  0  0  0  0  0  0  0
  140.4665  137.4751  153.1515 H   0  0  0  0  0  0  0  0  0  0  0  0
  141.7138  134.0486  153.1133 H   0  0  0  0  0  0  0  0  0  0  0  0
  141.3551  135.4154  152.0732 H   0  0  0  0  0  0  0  0  0  0  0  0
  143.7962  135.2461  152.4503 H   0  0  0  0  0  0  0  0  0  0  0  0
  143.5758  135.2663  154.1844 H   0  0  0  0  0  0  0  0  0  0  0  0
  1  2  1  0  0  0  0
  1 19  1  0  0  0  0
  1 20  1  0  0  0  0
  1 21  1  0  0  0  0
  2 18  1  0  0  0  0
  2  3  2  0  0  0  0
  3  4  1  0  0  0  0
  3 22  1  0  0  0  0
  4  5  1  0  0  0  0
  4 17  2  0  0  0  0
  5  6  1  0  0  0  0
  5 23  1  0  0  0  0
  6  7  2  0  0  0  0
  6  8  1  0  0  0  0
  8  9  1  0  0  0  0
  8 24  1  0  0  0  0
  9 10  1  0  0  0  0
  9 25  1  0  0  0  0
  9 26  1  0  0  0  0
 10 11  1  0  0  0  0
 10 27  1  0  0  0  0
 10 28  1  0  0  0  0
 11 16  1  0  0  0  0
 11 12  1  0  0  0  0
 12 13  1  0  0  0  0
 12 29  1  0  0  0  0
 12 30  1  0  0  0  0
 13 14  1  0  0  0  0
 13 31  1  0  0  0  0
 13 32  1  0  0  0  0
 14 15  1  0  0  0  0
 15 16  1  0  0  0  0
 15 33  1  0  0  0  0
 15 34  1  0  0  0  0
 16 35  1  0  0  0  0
 16 36  1  0  0  0  0
 17 18  1  0  0  0  0
M  END
> <s_m_source_file>
AV-unprocessed.smi

> <i_m_source_file_index>
1593

> <i_lp_mmshare_version>
43012

> <i_f3d_flags>
0

> <s_epik_input>
W0NIM11jMVtjSF1jKG5vMSlbTkhdQyg9TylbTkhdW0NIMl1bQ0gyXU4yW0NIMl1bQ0gyXU9bQ0gyXVtDSDJdMg==

> <s_epik_cmdline>
J2VwaWtfcHl0aG9uJywgJy1waCcsICc3LjAnLCAnLXRuJywgJzgnLCAnLW1hJywgJzIwMCcsICctbWV0YWxfYmluZGluZycsICctaW1hZScsICc8aW5maWxlLm1hZT4nLCAnLW9tYWUnLCAnPG91dGZpbGUubWFlPic=

> <r_epik_Ionization_Penalty>
0.214073

> <r_epik_Ionization_Penalty_Charging>
0

> <r_epik_Ionization_Penalty_Neutral>
0.214073

> <r_epik_State_Penalty>
0.204211

> <r_epik_Charging_Adjusted_Penalty>
0.204211

> <i_epik_Tot_Q>
0

> <i_epik_Tot_abs_Q>
0

> <r_epik_Metal_State_Penalty>
0.217151

> <b_epik_Metal_Only>
0

> <s_lp_Force_Field>
OPLS_2005

> <r_lp_Energy>
24.5673

> <b_lp_Chiralities_Consistent>
1

> <s_lp_Variant>
AV-unprocessed.smi:1593-1

> <Gold.Version>
5.8.1

> <Gold.Id.Protein>
6NUR|6NUR_protein|mol2

> <Gold.PLP.Fitness>
37.2475

> <Gold.PLP.PLP>
-29.0687

> <Gold.PLP.part.hbond>
-6.0000

> <Gold.PLP.part.metal>
0.0000

> <Gold.PLP.part.buried>
-4.5913

> <Gold.PLP.part.nonpolar>
-19.6069

> <Gold.PLP.part.repulsive>
0.6836

> <Gold.PLP.ligand.clash>
0.0000

> <Gold.PLP.ligand.torsion>
0.2699

> <Gold.PLP.Chemscore.Hbond>
2.9040

> <Gold.PLP.Chemscore.CHOScore>
0.0000

> <Gold.PLP.Chemscore.Metal>
0.0000

> <Gold.Chemscore.Hbonds>
donor molecule, donor type, donor heavy atom, donor atom, acceptor molecule, acceptor atom, score
      L1  H     5    23       P1  7948  0.98
      L1  H     8    24       P1  7948  1.00
      P1  H 11000 11005       L1    14  0.56

> <Gold.PLP.Chemscore.Internal.Correction>
0.0065

> <Gold.Rescore>
     Score         DG    S(hbond)    S(metal)    S(lipo)     H(rot)  DE(clash)    DE(int)     intcor
     14.25     -16.73       2.90        0.00      48.35       1.60       0.03       2.45       ----

> <Gold.Chemscore.Fitness>
14.2461

> <Gold.Chemscore.DG>
-16.7296

> <Gold.Chemscore.ZeroCoef>
-5.4800

> <Gold.Chemscore.Hbond>
2.9022

> <Gold.Chemscore.Metal>
0.0000

> <Gold.Chemscore.Lipo>
48.3522

> <Gold.Chemscore.Internal_Hbond>
0.0000

> <Gold.Chemscore.DEClash>
0.0335

> <Gold.Chemscore.DEInternal>
2.4500

> <Gold.Chemscore.Rot>
1.6019

> <Gold.Chemscore.Internal.Correction>
   9.000000E+99

> <Gold.Chemscore.Hbonds>
donor molecule, donor type, donor heavy atom, donor atom, acceptor molecule, acceptor atom, score
      L1  H     5    23       P1  7948  0.90
      L1  H     8    24       P1  7948  1.00
      P1  H 11000 11005       L1    14  0.51

> <Gold.Chemscore.Hbond.Weighted>
-9.6933

> <Gold.Chemscore.Metal.Weighted>
-0.0000

> <Gold.Chemscore.Lipo.Weighted>
-5.6572

> <Gold.Chemscore.Internal_Hbond.Weighted>
0.0000

> <Gold.Chemscore.DEClash.Weighted>
0.0335

> <Gold.Chemscore.DEInternal.Weighted>
2.4500

> <Gold.Chemscore.Rot.Weighted>
4.1009

> <Gold.Chemscore.Internal.Correction.Weighted>
   9.000000E+99

> <Gold.Protein.RotatedTorsions>
[ 6907 6896 6895 6894 ] final -118.81 input  -60.11 | X-H torsion
[ 7974 7965 7964 7962 ] final  -57.80 input  175.53 | X-H torsion
[ 8008 7997 7996 7995 ] final   -7.07 input   59.86 | X-H torsion
[ 10167 10162 10161 10158 ] final  -71.83 input  -65.29 | X-H torsion
[ 10718 10713 10712 10709 ] final  -53.78 input   66.30 | X-H torsion
[ 10763 10752 10751 10750 ] final   53.98 input  -60.55 | X-H torsion
[ 11005 11000 10999 10996 ] final   35.48 input  -57.11 | X-H torsion

> <Gold.Protein.ActiveResidues>
 VAL166  LYS551  ARG553  GLY616  TRP617  ASP618  TYR619  PRO620  LYS621  CYS622 
 ASP623  PHE694  ASN695  SER759  ASP760  ASP761  ALA762  ILE779  LEU786  VAL792 
 PHE793  MET794  SER795  GLU796  ALA797  LYS798  CYS799  TRP800  GLU811  SER814 

> <Gold.Protein.RotatedAtoms>
  150.8251  133.8186  159.3121 H   0  0  0  0  0  0  0  0  0  0  0  0  # atno 6907 bound_to 6896
  151.5932  135.1050  160.0053 H   0  0  0  0  0  0  0  0  0  0  0  0  # atno 6908 bound_to 6896
  152.4337  133.7281  159.6628 H   0  0  0  0  0  0  0  0  0  0  0  0  # atno 6909 bound_to 6896
  145.8468  140.8380  143.0006 H   0  0  0  0  0  0  0  0  0  0  0  0  # atno 7974 bound_to 7965
  154.5874  140.2416  155.7968 H   0  0  0  0  0  0  0  0  0  0  0  0  # atno 8008 bound_to 7997
  156.2223  140.2993  155.9937 H   0  0  0  0  0  0  0  0  0  0  0  0  # atno 8009 bound_to 7997
  155.2433  140.0408  157.2968 H   0  0  0  0  0  0  0  0  0  0  0  0  # atno 8010 bound_to 7997
  140.5241  143.2328  151.7377 H   0  0  0  0  0  0  0  0  0  0  0  0  # atno 10167 bound_to 10162
  156.1506  130.4151  149.9952 H   0  0  0  0  0  0  0  0  0  0  0  0  # atno 10718 bound_to 10713
  152.9800  135.5760  154.4830 H   0  0  0  0  0  0  0  0  0  0  0  0  # atno 10763 bound_to 10752
  154.4376  135.2775  155.1872 H   0  0  0  0  0  0  0  0  0  0  0  0  # atno 10764 bound_to 10752
  154.3553  135.6200  153.5717 H   0  0  0  0  0  0  0  0  0  0  0  0  # atno 10765 bound_to 10752
  140.2422  134.3401  155.7921 H   0  0  0  0  0  0  0  0  0  0  0  0  # atno 11005 bound_to 11000
  144.6731  140.0894  143.7466 LP  0  0  0  0  0  0  0  0  0  0  0  0  # atno 17320 bound_to 7965
  145.9403  139.2664  143.1273 LP  0  0  0  0  0  0  0  0  0  0  0  0  # atno 17321 bound_to 7965
  139.4933  144.4211  151.9977 LP  0  0  0  0  0  0  0  0  0  0  0  0  # atno 17342 bound_to 10162
  140.3309  144.3317  150.5987 LP  0  0  0  0  0  0  0  0  0  0  0  0  # atno 17343 bound_to 10162
  156.7811  130.9221  151.3646 LP  0  0  0  0  0  0  0  0  0  0  0  0  # atno 17370 bound_to 10713
  157.6653  130.9002  149.9919 LP  0  0  0  0  0  0  0  0  0  0  0  0  # atno 17371 bound_to 10713
  141.2209  133.7305  156.8904 LP  0  0  0  0  0  0  0  0  0  0  0  0  # atno 17394 bound_to 11000
  140.1642  134.9145  157.2752 LP  0  0  0  0  0  0  0  0  0  0  0  0  # atno 17395 bound_to 11000

$$$$
