#       Name:                AV-unprocessed.smi:447
#       Creating user name   scv26
#       Creation time:       Thu Mar 26 23:00:02 2020


#       File generated by GOLD software.
#

@<TRIPOS>MOLECULE
AV-unprocessed.smi:447
    50    52     1
SMALL
NO_CHARGES


@<TRIPOS>ATOM
      1 ****        -2.7206   4.2331   0.1978 C.3            1 S1                 0.0000
      2 ****        -2.0591   2.8593   0.2110 C.2            1 S1                 0.0000
      3 ****        -1.5761   2.3990  -0.8228 O.2            1 S1                 0.0000
      4 ****        -2.0449   2.2133   1.3875 N.am           1 S1                 0.0000
      5 ****        -1.4891   0.8805   1.6070 C.3            1 S1                 0.0000
      6 ****        -1.9545   0.3407   2.9655 C.3            1 S1                 0.0000
      7 ****         0.0099   0.8634   1.5195 C.2            1 S1                 0.0000
      8 ****         0.8585   1.7585   2.1024 N.pl3          1 S1                 1.0000
      9 ****         2.1790   1.4268   1.7992 C.ar           1 S1                 0.0000
     10 ****         3.3766   2.0390   2.1564 C.ar           1 S1                 0.0000
     11 ****         4.5602   1.4457   1.6705 C.ar           1 S1                 0.0000
     12 ****         4.5239   0.2907   0.8628 C.ar           1 S1                 0.0000
     13 ****         3.3037  -0.3224   0.5102 C.ar           1 S1                 0.0000
     14 ****         2.1375   0.2686   0.9965 C.ar           1 S1                 0.0000
     15 ****         0.7804  -0.0483   0.8583 N.pl3          1 S1                 0.0000
     16 ****         0.3865  -1.2286   0.0717 C.3            1 S1                 0.0000
     17 ****         0.0231  -0.8821  -1.3859 C.3            1 S1                 0.0000
     18 ****         1.1219  -0.2678  -2.0305 O.3            1 S1                 0.0000
     19 ****        -0.4710  -2.1067  -2.1381 C.ar           1 S1                 0.0000
     20 ****         0.4387  -3.0910  -2.5836 C.ar           1 S1                 0.0000
     21 ****        -0.0266  -4.2252  -3.2771 C.ar           1 S1                 0.0000
     22 ****        -1.4033  -4.3828  -3.5267 C.ar           1 S1                 0.0000
     23 ****        -2.3151  -3.4070  -3.0801 C.ar           1 S1                 0.0000
     24 ****        -1.8504  -2.2724  -2.3866 C.ar           1 S1                 0.0000
     25 ****        -2.6037   4.7361   1.1584 H              1 S1                 0.0000
     26 ****        -3.7857   4.1355  -0.0133 H              1 S1                 0.0000
     27 ****        -2.2750   4.8646  -0.5716 H              1 S1                 0.0000
     28 ****        -2.4679   2.6688   2.1834 H              1 S1                 0.0000
     29 ****        -1.8920   0.2258   0.8332 H              1 S1                 0.0000
     30 ****        -1.5945  -0.6762   3.1256 H              1 S1                 0.0000
     31 ****        -3.0429   0.3164   3.0260 H              1 S1                 0.0000
     32 ****        -1.5884   0.9568   3.7876 H              1 S1                 0.0000
     33 ****         3.4068   2.9260   2.7721 H              1 S1                 0.0000
     34 ****         5.5148   1.8863   1.9194 H              1 S1                 0.0000
     35 ****         5.4505  -0.1339   0.5046 H              1 S1                 0.0000
     36 ****         3.2892  -1.2027  -0.1151 H              1 S1                 0.0000
     37 ****         1.1797  -1.9750   0.1171 H              1 S1                 0.0000
     38 ****        -0.4723  -1.6775   0.5722 H              1 S1                 0.0000
     39 ****        -0.7797  -0.1450  -1.3784 H              1 S1                 0.0000
     40 ****         0.8387   0.0316  -2.8811 H              1 S1                 0.0000
     41 ****         1.4963  -2.9795  -2.3939 H              1 S1                 0.0000
     42 ****         0.6732  -4.9743  -3.6172 H              1 S1                 0.0000
     43 ****        -1.7598  -5.2521  -4.0593 H              1 S1                 0.0000
     44 ****        -3.3715  -3.5285  -3.2692 H              1 S1                 0.0000
     45 ****        -2.5578  -1.5301  -2.0469 H              1 S1                 0.0000
     46 ****         0.5510   2.5445   2.6603 H              1 S1                 0.0000
     47 ****        -1.6173   2.9258  -1.6717 LP             1 S1                 0.0000
     48 ****        -1.1423   1.4980  -0.8140 LP             1 S1                 0.0000
     49 ****         1.8650  -0.9288  -2.1351 LP             1 S1                 0.0000
     50 ****         1.4409   0.5091  -1.4877 LP             1 S1                 0.0000
@<TRIPOS>BOND
    1    1    2 1     
    2    1   25 1     
    3    1   26 1     
    4    1   27 1     
    5    2    3 2     
    6    2    4 am    
    7    4    5 1     
    8    4   28 1     
    9    5    6 1     
   10    5    7 1     
   11    5   29 1     
   12    6   30 1     
   13    6   31 1     
   14    6   32 1     
   15    7   15 1     
   16    7    8 2     
   17    8    9 1     
   18    8   46 1     
   19    9   14 ar    
   20    9   10 ar    
   21   10   11 ar    
   22   10   33 1     
   23   11   12 ar    
   24   11   34 1     
   25   12   13 ar    
   26   12   35 1     
   27   13   14 ar    
   28   13   36 1     
   29   14   15 1     
   30   15   16 1     
   31   16   17 1     
   32   16   37 1     
   33   16   38 1     
   34   17   18 1     
   35   17   19 1     
   36   17   39 1     
   37   18   40 1     
   38   19   24 ar    
   39   19   20 ar    
   40   20   21 ar    
   41   20   41 1     
   42   21   22 ar    
   43   21   42 1     
   44   22   23 ar    
   45   22   43 1     
   46   23   24 ar    
   47   23   44 1     
   48   24   45 1     
   49    3   47 1     
   50    3   48 1     
   51   18   49 1     
   52   18   50 1     
@<TRIPOS>SUBSTRUCTURE
      1 S1             1
@<TRIPOS>SET
LONE_PAIRS      STATIC     ATOMS    <user>   **** ""
4 47 48 49 50
DONOR_HYDROGENS      STATIC     ATOMS    <user>   **** ""
3 28 46 40
ATOM$BLUE        STATIC     ATOMS    COLORGROUP SYSTEM
4 47 48 49 50
ATOM$RED        STATIC     ATOMS    COLORGROUP SYSTEM
3 28 46 40
