#       Name:                AV-unprocessed.smi:1640
#       Creating user name   scv26
#       Creation time:       Fri Mar 27 07:23:45 2020


#       File generated by GOLD software.
#

@<TRIPOS>MOLECULE
AV-unprocessed.smi:1640
    52    53     1
SMALL
NO_CHARGES


@<TRIPOS>ATOM
      1 ****        -4.5473   0.1497  -3.3042 C.3            1 S1                 0.0000
      2 ****        -3.9969   1.3382  -2.4985 C.3            1 S1                 0.0000
      3 ****        -4.5266   2.6628  -3.0683 C.3            1 S1                 0.0000
      4 ****        -2.4561   1.3469  -2.4419 C.3            1 S1                 0.0000
      5 ****        -1.8517   0.1654  -1.6680 C.3            1 S1                 0.0000
      6 ****        -0.0233   0.3344  -1.5428 S.o2           1 S1                 0.0000
      7 ****         0.5511   0.2207  -2.8922 O.2            1 S1                 0.0000
      8 ****         0.2948   1.5026  -0.7082 O.2            1 S1                 0.0000
      9 ****         0.4286  -1.0750  -0.6624 N.3            1 S1                 0.0000
     10 ****         1.8411  -1.4497  -0.6237 C.3            1 S1                 0.0000
     11 ****         2.2129  -2.1917   0.6511 C.ar           1 S1                 0.0000
     12 ****         2.5320  -3.5648   0.5893 C.ar           1 S1                 0.0000
     13 ****         2.8638  -4.2465   1.7743 C.ar           1 S1                 0.0000
     14 ****         2.8601  -3.5249   2.9820 C.ar           1 S1                 0.0000
     15 ****         2.5562  -2.2126   3.0576 N.ar           1 S1                 0.0000
     16 ****         2.2378  -1.5512   1.9181 C.ar           1 S1                 0.0000
     17 ****         1.9495  -0.1796   2.0242 N.3            1 S1                 0.0000
     18 ****         1.0417   0.1974   3.1016 C.3            1 S1                 0.0000
     19 ****         0.6934   1.6913   2.9916 C.3            1 S1                 0.0000
     20 ****         1.8928   2.4604   3.0051 O.3            1 S1                 0.0000
     21 ****         2.7484   2.1401   1.9113 C.3            1 S1                 0.0000
     22 ****         3.1433   0.6544   1.9768 C.3            1 S1                 0.0000
     23 ****        -4.1696   0.1553  -4.3271 H              1 S1                 0.0000
     24 ****        -5.6361   0.1811  -3.3526 H              1 S1                 0.0000
     25 ****        -4.2753  -0.8038  -2.8528 H              1 S1                 0.0000
     26 ****        -4.3726   1.2530  -1.4781 H              1 S1                 0.0000
     27 ****        -4.1838   2.8196  -4.0916 H              1 S1                 0.0000
     28 ****        -4.1911   3.5113  -2.4713 H              1 S1                 0.0000
     29 ****        -5.6167   2.6801  -3.0767 H              1 S1                 0.0000
     30 ****        -2.0486   1.3695  -3.4534 H              1 S1                 0.0000
     31 ****        -2.1265   2.2709  -1.9647 H              1 S1                 0.0000
     32 ****        -2.2565   0.1161  -0.6571 H              1 S1                 0.0000
     33 ****        -2.0646  -0.7825  -2.1612 H              1 S1                 0.0000
     34 ****         0.0002  -1.1077   0.2624 H              1 S1                 0.0000
     35 ****         2.0681  -2.0556  -1.5014 H              1 S1                 0.0000
     36 ****         2.4559  -0.5525  -0.7026 H              1 S1                 0.0000
     37 ****         2.5217  -4.0929  -0.3529 H              1 S1                 0.0000
     38 ****         3.1132  -5.2971   1.7581 H              1 S1                 0.0000
     39 ****         3.1092  -4.0139   3.9121 H              1 S1                 0.0000
     40 ****         0.1344  -0.4054   3.0480 H              1 S1                 0.0000
     41 ****         1.5073   0.0007   4.0682 H              1 S1                 0.0000
     42 ****         0.1266   1.8941   2.0817 H              1 S1                 0.0000
     43 ****         0.0679   1.9943   3.8312 H              1 S1                 0.0000
     44 ****         2.2513   2.3698   0.9681 H              1 S1                 0.0000
     45 ****         3.6382   2.7677   1.9616 H              1 S1                 0.0000
     46 ****         3.7488   0.4685   2.8652 H              1 S1                 0.0000
     47 ****         3.7533   0.3916   1.1119 H              1 S1                 0.0000
     48 ****         0.0424  -1.7965  -1.2370 LP             1 S1                 0.0000
     49 ****         2.5657  -1.7371   3.9373 LP             1 S1                 0.0000
     50 ****         1.4218   0.0106   1.1964 LP             1 S1                 0.0000
     51 ****         2.3809   2.2813   3.8593 LP             1 S1                 0.0000
     52 ****         1.6543   3.4302   2.9546 LP             1 S1                 0.0000
@<TRIPOS>BOND
    1    1    2 1     
    2    1   23 1     
    3    1   24 1     
    4    1   25 1     
    5    2    3 1     
    6    2    4 1     
    7    2   26 1     
    8    3   27 1     
    9    3   28 1     
   10    3   29 1     
   11    4    5 1     
   12    4   30 1     
   13    4   31 1     
   14    5    6 1     
   15    5   32 1     
   16    5   33 1     
   17    6    7 2     
   18    6    8 2     
   19    6    9 1     
   20    9   10 1     
   21    9   34 1     
   22   10   11 1     
   23   10   35 1     
   24   10   36 1     
   25   11   16 ar    
   26   11   12 ar    
   27   12   13 ar    
   28   12   37 1     
   29   13   14 ar    
   30   13   38 1     
   31   14   15 ar    
   32   14   39 1     
   33   15   16 ar    
   34   16   17 1     
   35   17   22 1     
   36   17   18 1     
   37   18   19 1     
   38   18   40 1     
   39   18   41 1     
   40   19   20 1     
   41   19   42 1     
   42   19   43 1     
   43   20   21 1     
   44   21   22 1     
   45   21   44 1     
   46   21   45 1     
   47   22   46 1     
   48   22   47 1     
   49    9   48 1     
   50   15   49 1     
   51   17   50 1     
   52   20   51 1     
   53   20   52 1     
@<TRIPOS>SUBSTRUCTURE
      1 S1             1
@<TRIPOS>SET
LONE_PAIRS      STATIC     ATOMS    <user>   **** ""
7 7 8 48 49 50 51 52
DONOR_HYDROGENS      STATIC     ATOMS    <user>   **** ""
1 34
ATOM$BLUE        STATIC     ATOMS    COLORGROUP SYSTEM
7 7 8 48 49 50 51 52
ATOM$RED        STATIC     ATOMS    COLORGROUP SYSTEM
1 34
