AV-unprocessed.smi:836|AV-procd|sdf|3891|dock4
  -GOLD-   22720 1343D 1   1.00000     0.00000
 Structure written by MMmdl.
 38 39  0  0  0  0  0  0  0  0  1 V2000
  146.2983  130.4898  152.3311 C   0  0  0  0  0  0  0  0  0  0  0  0
  145.8998  131.6820  151.4499 C   0  0  2  0  0  0  0  0  0  0  0  0
  145.9125  133.0007  152.2465 C   0  0  0  0  0  0  0  0  0  0  0  0
  145.5116  134.1991  151.3677 C   0  0  0  0  0  0  0  0  0  0  0  0
  144.1455  133.9889  150.6828 C   0  0  2  0  0  0  0  0  0  0  0  0
  143.0559  134.0267  151.6547 N   0  0  0  0  0  0  0  0  0  0  0  0
  142.8700  134.9682  152.5933 C   0  0  0  0  0  0  0  0  0  0  0  0
  143.6296  135.9225  152.7578 O   0  0  0  0  0  0  0  0  0  0  0  0
  141.6427  134.8037  153.4934 C   0  0  0  0  0  0  0  0  0  0  0  0
  140.9522  136.0671  153.6919 N   0  0  0  0  0  0  0  0  0  0  0  0
  141.2741  137.3085  153.1869 C   0  0  0  0  0  0  0  0  0  0  0  0
  140.3254  138.1847  153.6300 C   0  0  0  0  0  0  0  0  0  0  0  0
  139.4473  137.3795  154.4124 C   0  0  0  0  0  0  0  0  0  0  0  0
  138.2066  137.7992  155.1559 C   0  0  0  0  0  0  0  0  0  0  0  0
  137.1363  137.1822  154.6556 F   0  0  0  0  0  0  0  0  0  0  0  0
  138.3206  137.4826  156.4458 F   0  0  0  0  0  0  0  0  0  0  0  0
  138.0343  139.1162  155.0446 F   0  0  0  0  0  0  0  0  0  0  0  0
  139.8329  136.1111  154.4466 N   0  0  0  0  0  0  0  0  0  0  0  0
  144.1182  132.6562  149.9104 C   0  0  0  0  0  0  0  0  0  0  0  0
  144.5233  131.4623  150.7936 C   0  0  0  0  0  0  0  0  0  0  0  0
  145.5937  130.3502  153.1516 H   0  0  0  0  0  0  0  0  0  0  0  0
  147.2889  130.6343  152.7631 H   0  0  0  0  0  0  0  0  0  0  0  0
  146.3239  129.5655  151.7530 H   0  0  0  0  0  0  0  0  0  0  0  0
  146.6417  131.7637  150.6540 H   0  0  0  0  0  0  0  0  0  0  0  0
  145.2332  132.9259  153.0970 H   0  0  0  0  0  0  0  0  0  0  0  0
  146.9052  133.1737  152.6635 H   0  0  0  0  0  0  0  0  0  0  0  0
  145.5029  135.1128  151.9631 H   0  0  0  0  0  0  0  0  0  0  0  0
  146.2739  134.3468  150.6015 H   0  0  0  0  0  0  0  0  0  0  0  0
  143.9896  134.7939  149.9623 H   0  0  0  0  0  0  0  0  0  0  0  0
  142.3784  133.2792  151.6028 H   0  0  0  0  0  0  0  0  0  0  0  0
  140.9593  134.0769  153.0516 H   0  0  0  0  0  0  0  0  0  0  0  0
  141.9418  134.4141  154.4673 H   0  0  0  0  0  0  0  0  0  0  0  0
  142.1387  137.4613  152.5577 H   0  0  0  0  0  0  0  0  0  0  0  0
  140.2655  139.2431  153.4239 H   0  0  0  0  0  0  0  0  0  0  0  0
  143.1281  132.4869  149.4853 H   0  0  0  0  0  0  0  0  0  0  0  0
  144.8031  132.7205  149.0640 H   0  0  0  0  0  0  0  0  0  0  0  0
  144.5397  130.5540  150.1903 H   0  0  0  0  0  0  0  0  0  0  0  0
  143.7678  131.3027  151.5641 H   0  0  0  0  0  0  0  0  0  0  0  0
  1  2  1  0  0  0  0
  1 21  1  0  0  0  0
  1 22  1  0  0  0  0
  1 23  1  0  0  0  0
  2 20  1  0  0  0  0
  2  3  1  0  0  0  0
  2 24  1  0  0  0  0
  3  4  1  0  0  0  0
  3 25  1  0  0  0  0
  3 26  1  0  0  0  0
  4  5  1  0  0  0  0
  4 27  1  0  0  0  0
  4 28  1  0  0  0  0
  5  6  1  0  0  0  0
  5 19  1  0  0  0  0
  5 29  1  0  0  0  0
  6  7  1  0  0  0  0
  6 30  1  0  0  0  0
  7  8  2  0  0  0  0
  7  9  1  0  0  0  0
  9 10  1  0  0  0  0
  9 31  1  0  0  0  0
  9 32  1  0  0  0  0
 10 18  1  0  0  0  0
 10 11  1  0  0  0  0
 11 12  2  0  0  0  0
 11 33  1  0  0  0  0
 12 13  1  0  0  0  0
 12 34  1  0  0  0  0
 13 14  1  0  0  0  0
 13 18  2  0  0  0  0
 14 15  1  0  0  0  0
 14 16  1  0  0  0  0
 14 17  1  0  0  0  0
 19 20  1  0  0  0  0
 19 35  1  0  0  0  0
 19 36  1  0  0  0  0
 20 37  1  0  0  0  0
 20 38  1  0  0  0  0
M  END
> <s_m_source_file>
AV-unprocessed.smi

> <i_m_source_file_index>
836

> <i_lp_mmshare_version>
43012

> <i_f3d_flags>
0

> <s_epik_input>
W0NIM11bQ0BASF0xW0NIMl1bQ0gyXVtDQEhdKFtDSDJdW0NIMl0xKVtOSF1DKD1PKVtDSDJdbjJbY0hdW2NIXWMobjIpQyhGKShGKUY=

> <s_epik_cmdline>
J2VwaWtfcHl0aG9uJywgJy1waCcsICc3LjAnLCAnLXRuJywgJzgnLCAnLW1hJywgJzIwMCcsICctbWV0YWxfYmluZGluZycsICctaW1hZScsICc8aW5maWxlLm1hZT4nLCAnLW9tYWUnLCAnPG91dGZpbGUubWFlPic=

> <r_lp_tautomer_probability>
1

> <r_epik_Ionization_Penalty>
8.28749e-08

> <r_epik_Ionization_Penalty_Charging>
0

> <r_epik_Ionization_Penalty_Neutral>
8.28749e-08

> <r_epik_State_Penalty>
-0

> <r_epik_Charging_Adjusted_Penalty>
0

> <i_epik_Tot_Q>
0

> <i_epik_Tot_abs_Q>
0

> <r_epik_Metal_State_Penalty>
-0

> <b_epik_Metal_Only>
0

> <s_lp_Force_Field>
OPLS_2005

> <r_lp_Energy>
10.0253

> <b_lp_Chiralities_Consistent>
1

> <s_lp_Variant>
AV-unprocessed.smi:836-2

> <Gold.Version>
5.8.1

> <Gold.Id.Protein>
6NUR|6NUR_protein|mol2

> <Gold.PLP.Fitness>
42.5766

> <Gold.PLP.PLP>
-40.4389

> <Gold.PLP.part.hbond>
-2.0000

> <Gold.PLP.part.metal>
0.0000

> <Gold.PLP.part.buried>
-8.7040

> <Gold.PLP.part.nonpolar>
-30.6554

> <Gold.PLP.part.repulsive>
0.2183

> <Gold.PLP.ligand.clash>
0.0000

> <Gold.PLP.ligand.torsion>
0.3312

> <Gold.PLP.Chemscore.Hbond>
0.9263

> <Gold.PLP.Chemscore.CHOScore>
0.0000

> <Gold.PLP.Chemscore.Metal>
0.0000

> <Gold.Chemscore.Hbonds>
donor molecule, donor type, donor heavy atom, donor atom, acceptor molecule, acceptor atom, score
      P1  H 11000 11005       L1    18  0.91

> <Gold.PLP.Chemscore.Internal.Correction>
0.0212

> <Gold.Rescore>
     Score         DG    S(hbond)    S(metal)    S(lipo)     H(rot)  DE(clash)    DE(int)     intcor
     12.04     -14.72       0.90        0.00      86.94       1.54       0.05       2.63       ----

> <Gold.Chemscore.Fitness>
12.0353

> <Gold.Chemscore.DG>
-14.7231

> <Gold.Chemscore.ZeroCoef>
-5.4800

> <Gold.Chemscore.Hbond>
0.9040

> <Gold.Chemscore.Metal>
0.0000

> <Gold.Chemscore.Lipo>
86.9384

> <Gold.Chemscore.Internal_Hbond>
0.0000

> <Gold.Chemscore.DEClash>
0.0529

> <Gold.Chemscore.DEInternal>
2.6349

> <Gold.Chemscore.Rot>
1.5422

> <Gold.Chemscore.Internal.Correction>
   9.000000E+99

> <Gold.Chemscore.Hbonds>
donor molecule, donor type, donor heavy atom, donor atom, acceptor molecule, acceptor atom, score
      P1  H 11000 11005       L1    18  0.57

> <Gold.Chemscore.Hbond.Weighted>
-3.0193

> <Gold.Chemscore.Metal.Weighted>
-0.0000

> <Gold.Chemscore.Lipo.Weighted>
-10.1718

> <Gold.Chemscore.Internal_Hbond.Weighted>
0.0000

> <Gold.Chemscore.DEClash.Weighted>
0.0529

> <Gold.Chemscore.DEInternal.Weighted>
2.6349

> <Gold.Chemscore.Rot.Weighted>
3.9479

> <Gold.Chemscore.Internal.Correction.Weighted>
   9.000000E+99

> <Gold.Protein.RotatedTorsions>
[ 6907 6896 6895 6894 ] final  -82.49 input  -60.11 | X-H torsion
[ 7974 7965 7964 7962 ] final -178.31 input  175.53 | X-H torsion
[ 8008 7997 7996 7995 ] final  -28.62 input   59.86 | X-H torsion
[ 10167 10162 10161 10158 ] final  150.29 input  -65.29 | X-H torsion
[ 10718 10713 10712 10709 ] final   78.63 input   66.30 | X-H torsion
[ 10763 10752 10751 10750 ] final  -97.94 input  -60.55 | X-H torsion
[ 11005 11000 10999 10996 ] final   62.06 input  -57.11 | X-H torsion

> <Gold.Protein.ActiveResidues>
 VAL166  LYS551  ARG553  GLY616  TRP617  ASP618  TYR619  PRO620  LYS621  CYS622 
 ASP623  PHE694  ASN695  SER759  ASP760  ASP761  ALA762  ILE779  LEU786  VAL792 
 PHE793  MET794  SER795  GLU796  ALA797  LYS798  CYS799  TRP800  GLU811  SER814 

> <Gold.Protein.RotatedAtoms>
  150.6897  134.3656  159.4969 H   0  0  0  0  0  0  0  0  0  0  0  0  # atno 6907 bound_to 6896
  152.1479  134.9009  160.0559 H   0  0  0  0  0  0  0  0  0  0  0  0  # atno 6908 bound_to 6896
  152.0117  133.3829  159.4259 H   0  0  0  0  0  0  0  0  0  0  0  0  # atno 6909 bound_to 6896
  144.7130  140.0887  143.6422 H   0  0  0  0  0  0  0  0  0  0  0  0  # atno 7974 bound_to 7965
  154.4324  140.1840  156.1118 H   0  0  0  0  0  0  0  0  0  0  0  0  # atno 8008 bound_to 7997
  156.0212  140.3340  155.7015 H   0  0  0  0  0  0  0  0  0  0  0  0  # atno 8009 bound_to 7997
  155.5974  140.0637  157.2733 H   0  0  0  0  0  0  0  0  0  0  0  0  # atno 8010 bound_to 7997
  139.4852  144.5534  151.7360 H   0  0  0  0  0  0  0  0  0  0  0  0  # atno 10167 bound_to 10162
  157.6751  130.9877  150.1814 H   0  0  0  0  0  0  0  0  0  0  0  0  # atno 10718 bound_to 10713
  154.7372  135.5028  153.9061 H   0  0  0  0  0  0  0  0  0  0  0  0  # atno 10763 bound_to 10752
  153.1007  135.6684  153.9687 H   0  0  0  0  0  0  0  0  0  0  0  0  # atno 10764 bound_to 10752
  153.9474  135.3061  155.3419 H   0  0  0  0  0  0  0  0  0  0  0  0  # atno 10765 bound_to 10752
  140.0118  134.6285  155.9769 H   0  0  0  0  0  0  0  0  0  0  0  0  # atno 11005 bound_to 11000
  145.9639  139.2820  143.1139 LP  0  0  0  0  0  0  0  0  0  0  0  0  # atno 17320 bound_to 7965
  145.9191  140.9128  143.0414 LP  0  0  0  0  0  0  0  0  0  0  0  0  # atno 17321 bound_to 7965
  140.5092  144.1051  150.5990 LP  0  0  0  0  0  0  0  0  0  0  0  0  # atno 17342 bound_to 10162
  140.3971  143.2722  151.9992 LP  0  0  0  0  0  0  0  0  0  0  0  0  # atno 17343 bound_to 10162
  156.2546  130.3704  149.8196 LP  0  0  0  0  0  0  0  0  0  0  0  0  # atno 17370 bound_to 10713
  156.5959  130.8526  151.3420 LP  0  0  0  0  0  0  0  0  0  0  0  0  # atno 17371 bound_to 10713
  141.1716  133.6537  156.4672 LP  0  0  0  0  0  0  0  0  0  0  0  0  # atno 17394 bound_to 11000
  140.4541  134.6902  157.5054 LP  0  0  0  0  0  0  0  0  0  0  0  0  # atno 17395 bound_to 11000

$$$$
