AV-unprocessed.smi:1809|AV-procd|sdf|7325|dock7
  -GOLD-   22720 8583D 1   1.00000     0.00000
 Structure written by MMmdl.
 39 41  0  0  0  0  0  0  0  0  3 V2000
  148.7705  140.9495  154.7518 C   0  0  0  0  0  0  0  0  0  0  0  0
  149.6140  139.7237  154.6735 C   0  0  0  0  0  0  0  0  0  0  0  0
  150.9448  139.7677  154.5740 N   0  0  0  0  0  0  0  0  0  0  0  0
  151.5066  138.5006  154.5151 N   0  0  0  0  0  0  0  0  0  0  0  0
  150.5946  137.5188  154.5576 C   0  0  0  0  0  0  0  0  0  0  0  0
  150.9320  136.2192  154.5135 N   0  5  0  0  0  0  0  0  0  0  0  0
  150.1225  135.2923  155.0732 C   0  0  0  0  0  0  0  0  0  0  0  0
  150.2481  134.7878  156.1913 O   0  0  0  0  0  0  0  0  0  0  0  0
  149.1022  134.9252  154.2882 N   0  0  0  0  0  0  0  0  0  0  0  0
  148.0824  133.9480  154.6435 C   0  0  0  0  0  0  0  0  0  0  0  0
  147.9596  132.8743  153.5542 C   0  0  2  0  0  0  0  0  0  0  0  0
  147.2454  133.4089  152.3024 C   0  0  0  0  0  0  0  0  0  0  0  0
  147.0853  132.3502  151.2737 N   0  3  2  0  0  0  0  0  0  0  0  0
  146.1532  132.7509  150.1975 C   0  0  0  0  0  0  0  0  0  0  0  0
  144.7775  132.1674  150.5678 C   0  0  0  0  0  0  0  0  0  0  0  0
  145.0171  131.2887  151.8017 C   0  0  0  0  0  0  0  0  0  0  0  0
  146.5338  131.0909  151.8194 C   0  0  2  0  0  0  0  0  0  0  0  0
  147.1487  130.6955  153.1775 C   0  0  0  0  0  0  0  0  0  0  0  0
  147.1790  131.8017  154.0670 O   0  0  0  0  0  0  0  0  0  0  0  0
  148.9373  138.1041  154.7004 S   0  0  0  0  0  0  0  0  0  0  0  0
  148.6349  141.3720  153.7561 H   0  0  0  0  0  0  0  0  0  0  0  0
  149.2461  141.6953  155.3893 H   0  0  0  0  0  0  0  0  0  0  0  0
  147.7914  140.7096  155.1667 H   0  0  0  0  0  0  0  0  0  0  0  0
  149.0339  135.3568  153.3785 H   0  0  0  0  0  0  0  0  0  0  0  0
  148.3270  133.4891  155.6030 H   0  0  0  0  0  0  0  0  0  0  0  0
  147.1296  134.4653  154.7656 H   0  0  0  0  0  0  0  0  0  0  0  0
  148.9582  132.5210  153.2885 H   0  0  0  0  0  0  0  0  0  0  0  0
  146.2671  133.8014  152.5854 H   0  0  0  0  0  0  0  0  0  0  0  0
  147.8058  134.2397  151.8719 H   0  0  0  0  0  0  0  0  0  0  0  0
  146.1244  133.8311  150.0471 H   0  0  0  0  0  0  0  0  0  0  0  0
  146.4992  132.3041  149.2646 H   0  0  0  0  0  0  0  0  0  0  0  0
  144.0555  132.9545  150.7884 H   0  0  0  0  0  0  0  0  0  0  0  0
  144.3798  131.5800  149.7396 H   0  0  0  0  0  0  0  0  0  0  0  0
  144.6946  131.8174  152.6999 H   0  0  0  0  0  0  0  0  0  0  0  0
  144.4719  130.3453  151.7585 H   0  0  0  0  0  0  0  0  0  0  0  0
  146.7665  130.3029  151.1009 H   0  0  0  0  0  0  0  0  0  0  0  0
  146.5767  129.8859  153.6311 H   0  0  0  0  0  0  0  0  0  0  0  0
  148.1631  130.3183  153.0384 H   0  0  0  0  0  0  0  0  0  0  0  0
  147.9984  132.1663  150.8826 H   0  0  0  0  0  0  0  0  0  0  0  0
  1  2  1  0  0  0  0
  1 21  1  0  0  0  0
  1 22  1  0  0  0  0
  1 23  1  0  0  0  0
  2 20  1  0  0  0  0
  2  3  2  0  0  0  0
  3  4  1  0  0  0  0
  4  5  2  0  0  0  0
  5  6  1  0  0  0  0
  5 20  1  0  0  0  0
  6  7  1  0  0  0  0
  7  8  2  0  0  0  0
  7  9  1  0  0  0  0
  9 10  1  0  0  0  0
  9 24  1  0  0  0  0
 10 11  1  0  0  0  0
 10 25  1  0  0  0  0
 10 26  1  0  0  0  0
 11 19  1  0  0  0  0
 11 12  1  0  0  0  0
 11 27  1  0  0  0  0
 12 13  1  0  0  0  0
 12 28  1  0  0  0  0
 12 29  1  0  0  0  0
 13 17  1  0  0  0  0
 13 14  1  0  0  0  0
 13 39  1  0  0  0  0
 14 15  1  0  0  0  0
 14 30  1  0  0  0  0
 14 31  1  0  0  0  0
 15 16  1  0  0  0  0
 15 32  1  0  0  0  0
 15 33  1  0  0  0  0
 16 17  1  0  0  0  0
 16 34  1  0  0  0  0
 16 35  1  0  0  0  0
 17 18  1  0  0  0  0
 17 36  1  0  0  0  0
 18 19  1  0  0  0  0
 18 37  1  0  0  0  0
 18 38  1  0  0  0  0
M  CHG  1   6  -1
M  CHG  1  13   1
M  END
> <s_m_source_file>
AV-unprocessed.smi

> <i_m_source_file_index>
1809

> <i_lp_mmshare_version>
43012

> <i_f3d_flags>
0

> <s_epik_input>
W0NIM11jMW5uYyhzMSlbTkhdQyg9TylbTkhdW0NIMl1bQ0BIXShbQ0gyXTIpT1tDSDJdW0NAQEhdKE4yMylbQ0gyXVtDSDJdW0NIMl0z

> <s_epik_cmdline>
J2VwaWtfcHl0aG9uJywgJy1waCcsICc3LjAnLCAnLXRuJywgJzgnLCAnLW1hJywgJzIwMCcsICctbWV0YWxfYmluZGluZycsICctaW1hZScsICc8aW5maWxlLm1hZT4nLCAnLW9tYWUnLCAnPG91dGZpbGUubWFlPic=

> <r_lp_tautomer_probability>
1

> <r_epik_Ionization_Penalty>
3.2601

> <r_epik_Ionization_Penalty_Charging>
3.1406

> <r_epik_Ionization_Penalty_Neutral>
0.119497

> <r_epik_State_Penalty>
3.08894

> <r_epik_Charging_Adjusted_Penalty>
6.22954

> <i_epik_Tot_Q>
0

> <i_epik_Tot_abs_Q>
2

> <r_epik_Metal_State_Penalty>
0.510807

> <b_epik_Metal_Only>
1

> <s_lp_Force_Field>
OPLS_2005

> <r_lp_Energy>
31.3106

> <b_lp_Chiralities_Consistent>
1

> <s_lp_Variant>
AV-unprocessed.smi:1809-17

> <Gold.Version>
5.8.1

> <Gold.Id.Protein>
6NUR|6NUR_protein|mol2

> <Gold.PLP.Fitness>
45.4277

> <Gold.PLP.PLP>
-32.5221

> <Gold.PLP.part.hbond>
-4.0000

> <Gold.PLP.part.metal>
0.0000

> <Gold.PLP.part.buried>
-5.3000

> <Gold.PLP.part.nonpolar>
-25.6865

> <Gold.PLP.part.repulsive>
0.8624

> <Gold.PLP.ligand.clash>
0.0000

> <Gold.PLP.ligand.torsion>
0.9946

> <Gold.PLP.Chemscore.Hbond>
4.9600

> <Gold.PLP.Chemscore.CHOScore>
0.0000

> <Gold.PLP.Chemscore.Metal>
0.0000

> <Gold.Chemscore.Hbonds>
donor molecule, donor type, donor heavy atom, donor atom, acceptor molecule, acceptor atom, score
      L1  H     9    24       P1  7948  1.00
      L1  H    13    39       P1 10747  0.85
      P1  H  7989  7998       L1     3  1.00
      P1  H 10752 10764       L1     6  1.69

> <Gold.PLP.Chemscore.Internal.Correction>
0.0149

> <Gold.Rescore>
     Score         DG    S(hbond)    S(metal)    S(lipo)     H(rot)  DE(clash)    DE(int)     intcor
     20.05     -21.16       3.33        0.00      68.06       1.32       0.15       0.96       ----

> <Gold.Chemscore.Fitness>
20.0526

> <Gold.Chemscore.DG>
-21.1579

> <Gold.Chemscore.ZeroCoef>
-5.4800

> <Gold.Chemscore.Hbond>
3.3251

> <Gold.Chemscore.Metal>
0.0000

> <Gold.Chemscore.Lipo>
68.0609

> <Gold.Chemscore.Internal_Hbond>
0.0000

> <Gold.Chemscore.DEClash>
0.1500

> <Gold.Chemscore.DEInternal>
0.9552

> <Gold.Chemscore.Rot>
1.3246

> <Gold.Chemscore.Internal.Correction>
   9.000000E+99

> <Gold.Chemscore.Hbonds>
donor molecule, donor type, donor heavy atom, donor atom, acceptor molecule, acceptor atom, score
      L1  H     9    24       P1  7948  0.50
      L1  H    13    39       P1 10747  0.83
      P1  H  7989  7998       L1     3  0.83
      P1  H 10752 10764       L1     6  0.75

> <Gold.Chemscore.Hbond.Weighted>
-11.1057

> <Gold.Chemscore.Metal.Weighted>
-0.0000

> <Gold.Chemscore.Lipo.Weighted>
-7.9631

> <Gold.Chemscore.Internal_Hbond.Weighted>
0.0000

> <Gold.Chemscore.DEClash.Weighted>
0.1500

> <Gold.Chemscore.DEInternal.Weighted>
0.9552

> <Gold.Chemscore.Rot.Weighted>
3.3910

> <Gold.Chemscore.Internal.Correction.Weighted>
   9.000000E+99

> <Gold.Protein.RotatedTorsions>
[ 6907 6896 6895 6894 ] final   41.64 input  -60.11 | X-H torsion
[ 7974 7965 7964 7962 ] final   60.42 input  175.53 | X-H torsion
[ 8008 7997 7996 7995 ] final  154.12 input   59.86 | X-H torsion
[ 10167 10162 10161 10158 ] final   28.49 input  -65.29 | X-H torsion
[ 10718 10713 10712 10709 ] final  -67.68 input   66.30 | X-H torsion
[ 10763 10752 10751 10750 ] final  -78.14 input  -60.55 | X-H torsion
[ 11005 11000 10999 10996 ] final  139.01 input  -57.11 | X-H torsion

> <Gold.Protein.ActiveResidues>
 VAL166  LYS551  ARG553  GLY616  TRP617  ASP618  TYR619  PRO620  LYS621  CYS622 
 ASP623  PHE694  ASN695  SER759  ASP760  ASP761  ALA762  ILE779  LEU786  VAL792 
 PHE793  MET794  SER795  GLU796  ALA797  LYS798  CYS799  TRP800  GLU811  SER814 

> <Gold.Protein.RotatedAtoms>
  152.1979  134.8614  160.0510 H   0  0  0  0  0  0  0  0  0  0  0  0  # atno 6907 bound_to 6896
  151.9479  133.3652  159.3997 H   0  0  0  0  0  0  0  0  0  0  0  0  # atno 6908 bound_to 6896
  150.6948  134.4295  159.5286 H   0  0  0  0  0  0  0  0  0  0  0  0  # atno 6909 bound_to 6896
  145.8962  139.3547  143.0619 H   0  0  0  0  0  0  0  0  0  0  0  0  # atno 7974 bound_to 7965
  156.2547  140.1975  156.6596 H   0  0  0  0  0  0  0  0  0  0  0  0  # atno 8008 bound_to 7997
  154.6474  140.0576  156.9942 H   0  0  0  0  0  0  0  0  0  0  0  0  # atno 8009 bound_to 7997
  155.1469  140.3248  155.4442 H   0  0  0  0  0  0  0  0  0  0  0  0  # atno 8010 bound_to 7997
  140.4848  144.0559  150.6277 H   0  0  0  0  0  0  0  0  0  0  0  0  # atno 10167 bound_to 10162
  156.0545  130.4282  150.1889 H   0  0  0  0  0  0  0  0  0  0  0  0  # atno 10718 bound_to 10713
  154.5220  135.5740  153.6689 H   0  0  0  0  0  0  0  0  0  0  0  0  # atno 10763 bound_to 10752
  152.9919  135.6184  154.2742 H   0  0  0  0  0  0  0  0  0  0  0  0  # atno 10764 bound_to 10752
  154.2663  135.2854  155.2736 H   0  0  0  0  0  0  0  0  0  0  0  0  # atno 10765 bound_to 10752
  140.0224  134.9390  157.0500 H   0  0  0  0  0  0  0  0  0  0  0  0  # atno 11005 bound_to 11000
  145.8847  140.9341  143.0583 LP  0  0  0  0  0  0  0  0  0  0  0  0  # atno 17320 bound_to 7965
  144.6733  140.0826  143.7468 LP  0  0  0  0  0  0  0  0  0  0  0  0  # atno 17321 bound_to 7965
  140.3812  143.2802  152.0168 LP  0  0  0  0  0  0  0  0  0  0  0  0  # atno 17342 bound_to 10162
  139.4840  144.6153  151.7357 LP  0  0  0  0  0  0  0  0  0  0  0  0  # atno 17343 bound_to 10162
  156.9968  130.9910  151.3401 LP  0  0  0  0  0  0  0  0  0  0  0  0  # atno 17370 bound_to 10713
  157.5502  130.8177  149.8136 LP  0  0  0  0  0  0  0  0  0  0  0  0  # atno 17371 bound_to 10713
  140.4364  134.1726  155.7171 LP  0  0  0  0  0  0  0  0  0  0  0  0  # atno 17394 bound_to 11000
  141.1782  133.8470  157.1350 LP  0  0  0  0  0  0  0  0  0  0  0  0  # atno 17395 bound_to 11000

$$$$
