AV-unprocessed.smi:232|AV-procd|sdf|1769|dock3
  -GOLD-   2262020303D 1   1.00000     0.00000
 Structure written by MMmdl.
 52 55  0  0  0  0  0  0  0  0  1 V2000
  147.2419  142.1258  154.3411 C   0  0  0  0  0  0  0  0  0  0  0  0
  147.3594  141.5436  155.7549 C   0  0  0  0  0  0  0  0  0  0  0  0
  148.6885  140.7979  155.9925 C   0  0  2  0  0  0  0  0  0  0  0  0
  149.9232  141.7086  155.9905 C   0  0  0  0  0  0  0  0  0  0  0  0
  151.0603  140.8201  155.4732 C   0  0  0  0  0  0  0  0  0  0  0  0
  150.3888  139.4839  155.1295 C   0  0  2  0  0  0  0  0  0  0  0  0
  151.0119  138.7876  153.9075 C   0  0  0  0  0  0  0  0  0  0  0  0
  148.9755  139.8033  154.9633 N   0  0  0  0  0  0  0  0  0  0  0  0
  148.1612  138.7217  154.9106 C   0  0  0  0  0  0  0  0  0  0  0  0
  148.1236  137.8336  155.9398 N   0  0  0  0  0  0  0  0  0  0  0  0
  147.3287  136.7615  155.8692 C   0  0  0  0  0  0  0  0  0  0  0  0
  146.5114  136.3910  154.8806 N   0  0  0  0  0  0  0  0  0  0  0  0
  146.5521  137.2799  153.8467 C   0  0  0  0  0  0  0  0  0  0  0  0
  147.3406  138.4618  153.7817 C   0  0  0  0  0  0  0  0  0  0  0  0
  147.1220  139.1167  152.5762 N   0  0  0  0  0  0  0  0  0  0  0  0
  146.2551  138.3601  151.9591 C   0  0  0  0  0  0  0  0  0  0  0  0
  145.8616  137.2356  152.6493 N   0  0  0  0  0  0  0  0  0  0  0  0
  144.9236  136.2212  152.2030 C   0  0  0  0  0  0  0  0  0  0  0  0
  145.3875  135.5285  150.9071 C   0  0  2  0  0  0  0  0  0  0  0  0
  144.7735  136.1219  149.7781 O   0  0  0  0  0  0  0  0  0  0  0  0
  145.1460  134.0055  150.9233 C   0  0  2  0  0  0  0  0  0  0  0  0
  146.0319  133.1638  150.0006 C   0  0  0  0  0  0  0  0  0  0  0  0
  145.1835  131.9233  149.8317 C   0  0  0  0  0  0  0  0  0  0  0  0
  143.7779  132.5158  149.7615 C   0  0  0  0  0  0  0  0  0  0  0  0
  143.7992  133.6708  150.5960 O   0  0  0  0  0  0  0  0  0  0  0  0
  146.3045  142.6696  154.2229 H   0  0  0  0  0  0  0  0  0  0  0  0
  147.2661  141.3425  153.5832 H   0  0  0  0  0  0  0  0  0  0  0  0
  148.0569  142.8196  154.1338 H   0  0  0  0  0  0  0  0  0  0  0  0
  147.2636  142.3623  156.4688 H   0  0  0  0  0  0  0  0  0  0  0  0
  146.5191  140.8752  155.9462 H   0  0  0  0  0  0  0  0  0  0  0  0
  148.6450  140.2966  156.9609 H   0  0  0  0  0  0  0  0  0  0  0  0
  149.7827  142.5497  155.3103 H   0  0  0  0  0  0  0  0  0  0  0  0
  150.1297  142.1140  156.9814 H   0  0  0  0  0  0  0  0  0  0  0  0
  151.5097  141.2765  154.5900 H   0  0  0  0  0  0  0  0  0  0  0  0
  151.8488  140.6867  156.2143 H   0  0  0  0  0  0  0  0  0  0  0  0
  150.4863  138.8227  155.9927 H   0  0  0  0  0  0  0  0  0  0  0  0
  152.0789  138.6225  154.0583 H   0  0  0  0  0  0  0  0  0  0  0  0
  150.8915  139.3880  153.0053 H   0  0  0  0  0  0  0  0  0  0  0  0
  150.5554  137.8148  153.7242 H   0  0  0  0  0  0  0  0  0  0  0  0
  147.3543  136.1043  156.7259 H   0  0  0  0  0  0  0  0  0  0  0  0
  145.8801  138.5994  150.9744 H   0  0  0  0  0  0  0  0  0  0  0  0
  144.8077  135.4894  153.0034 H   0  0  0  0  0  0  0  0  0  0  0  0
  143.9474  136.6870  152.0614 H   0  0  0  0  0  0  0  0  0  0  0  0
  146.4601  135.6912  150.7945 H   0  0  0  0  0  0  0  0  0  0  0  0
  144.6541  137.0429  149.9520 H   0  0  0  0  0  0  0  0  0  0  0  0
  145.2996  133.6486  151.9429 H   0  0  0  0  0  0  0  0  0  0  0  0
  146.1752  133.6411  149.0307 H   0  0  0  0  0  0  0  0  0  0  0  0
  147.0137  132.9562  150.4270 H   0  0  0  0  0  0  0  0  0  0  0  0
  145.4451  131.3389  148.9491 H   0  0  0  0  0  0  0  0  0  0  0  0
  145.2784  131.2816  150.7088 H   0  0  0  0  0  0  0  0  0  0  0  0
  143.5505  132.8311  148.7424 H   0  0  0  0  0  0  0  0  0  0  0  0
  143.0102  131.8088  150.0764 H   0  0  0  0  0  0  0  0  0  0  0  0
  1  2  1  0  0  0  0
  1 26  1  0  0  0  0
  1 27  1  0  0  0  0
  1 28  1  0  0  0  0
  2  3  1  0  0  0  0
  2 29  1  0  0  0  0
  2 30  1  0  0  0  0
  3  8  1  0  0  0  0
  3  4  1  0  0  0  0
  3 31  1  0  0  0  0
  4  5  1  0  0  0  0
  4 32  1  0  0  0  0
  4 33  1  0  0  0  0
  5  6  1  0  0  0  0
  5 34  1  0  0  0  0
  5 35  1  0  0  0  0
  6  7  1  0  0  0  0
  6  8  1  0  0  0  0
  6 36  1  0  0  0  0
  7 37  1  0  0  0  0
  7 38  1  0  0  0  0
  7 39  1  0  0  0  0
  8  9  1  0  0  0  0
  9 14  1  0  0  0  0
  9 10  2  0  0  0  0
 10 11  1  0  0  0  0
 11 12  2  0  0  0  0
 11 40  1  0  0  0  0
 12 13  1  0  0  0  0
 13 17  1  0  0  0  0
 13 14  2  0  0  0  0
 14 15  1  0  0  0  0
 15 16  2  0  0  0  0
 16 17  1  0  0  0  0
 16 41  1  0  0  0  0
 17 18  1  0  0  0  0
 18 19  1  0  0  0  0
 18 42  1  0  0  0  0
 18 43  1  0  0  0  0
 19 20  1  0  0  0  0
 19 21  1  0  0  0  0
 19 44  1  0  0  0  0
 20 45  1  0  0  0  0
 21 25  1  0  0  0  0
 21 22  1  0  0  0  0
 21 46  1  0  0  0  0
 22 23  1  0  0  0  0
 22 47  1  0  0  0  0
 22 48  1  0  0  0  0
 23 24  1  0  0  0  0
 23 49  1  0  0  0  0
 23 50  1  0  0  0  0
 24 25  1  0  0  0  0
 24 51  1  0  0  0  0
 24 52  1  0  0  0  0
M  END
> <s_m_source_file>
AV-unprocessed.smi

> <i_m_source_file_index>
232

> <i_lp_mmshare_version>
43012

> <i_f3d_flags>
0

> <s_epik_input>
W0NIM11bQ0gyXVtDQEBIXTFbQ0gyXVtDSDJdW0NAQEhdKFtDSDNdKU4xYyhuW2NIXW4yKWMoYzIzKW5bY0hdbjNbQ0gyXVtDQEhdKFtPSF0pW0NAQEhdNFtDSDJdW0NIMl1bQ0gyXU80

> <s_epik_cmdline>
J2VwaWtfcHl0aG9uJywgJy1waCcsICc3LjAnLCAnLXRuJywgJzgnLCAnLW1hJywgJzIwMCcsICctbWV0YWxfYmluZGluZycsICctaW1hZScsICc8aW5maWxlLm1hZT4nLCAnLW9tYWUnLCAnPG91dGZpbGUubWFlPic=

> <r_lp_tautomer_probability>
1

> <r_epik_Ionization_Penalty>
0.00258048

> <r_epik_Ionization_Penalty_Charging>
0

> <r_epik_Ionization_Penalty_Neutral>
0.00258048

> <r_epik_State_Penalty>
0.00168551

> <r_epik_Charging_Adjusted_Penalty>
0.00168551

> <i_epik_Tot_Q>
0

> <i_epik_Tot_abs_Q>
0

> <r_epik_Metal_State_Penalty>
-0

> <b_epik_Metal_Only>
0

> <s_lp_Force_Field>
OPLS_2005

> <r_lp_Energy>
54.2743

> <b_lp_Chiralities_Consistent>
1

> <s_lp_Variant>
AV-unprocessed.smi:232-3

> <Gold.Version>
5.8.1

> <Gold.Id.Protein>
6NUR|6NUR_protein|mol2

> <Gold.PLP.Fitness>
44.1522

> <Gold.PLP.PLP>
-39.9967

> <Gold.PLP.part.hbond>
-2.0000

> <Gold.PLP.part.metal>
0.0000

> <Gold.PLP.part.buried>
-5.7002

> <Gold.PLP.part.nonpolar>
-34.7404

> <Gold.PLP.part.repulsive>
2.5293

> <Gold.PLP.ligand.clash>
0.0000

> <Gold.PLP.ligand.torsion>
0.9775

> <Gold.PLP.Chemscore.Hbond>
1.0000

> <Gold.PLP.Chemscore.CHOScore>
0.9851

> <Gold.PLP.Chemscore.Metal>
0.0000

> <Gold.Chemscore.Hbonds>
donor molecule, donor type, donor heavy atom, donor atom, acceptor molecule, acceptor atom, score
      L1  H    20    45       P1 10171  1.00
      L1  C    16    41       P1 10171  1.00

> <Gold.PLP.Chemscore.Internal.Correction>
0.1552

> <Gold.Rescore>
     Score         DG    S(hbond)    S(metal)    S(lipo)     H(rot)  DE(clash)    DE(int)     intcor
     10.74     -13.94       0.99        0.00      97.10       2.43       2.53       0.68       ----

> <Gold.Chemscore.Fitness>
10.7367

> <Gold.Chemscore.DG>
-13.9397

> <Gold.Chemscore.ZeroCoef>
-5.4800

> <Gold.Chemscore.Hbond>
0.9908

> <Gold.Chemscore.Metal>
0.0000

> <Gold.Chemscore.Lipo>
97.1024

> <Gold.Chemscore.Internal_Hbond>
0.0000

> <Gold.Chemscore.DEClash>
2.5253

> <Gold.Chemscore.DEInternal>
0.6777

> <Gold.Chemscore.Rot>
2.4260

> <Gold.Chemscore.Internal.Correction>
   9.000000E+99

> <Gold.Chemscore.Hbonds>
donor molecule, donor type, donor heavy atom, donor atom, acceptor molecule, acceptor atom, score
      L1  H    20    45       P1 10171  0.98

> <Gold.Chemscore.Hbond.Weighted>
-3.3094

> <Gold.Chemscore.Metal.Weighted>
-0.0000

> <Gold.Chemscore.Lipo.Weighted>
-11.3610

> <Gold.Chemscore.Internal_Hbond.Weighted>
0.0000

> <Gold.Chemscore.DEClash.Weighted>
2.5253

> <Gold.Chemscore.DEInternal.Weighted>
0.6777

> <Gold.Chemscore.Rot.Weighted>
6.2107

> <Gold.Chemscore.Internal.Correction.Weighted>
   9.000000E+99

> <Gold.Protein.RotatedTorsions>
[ 6907 6896 6895 6894 ] final   94.53 input  -60.11 | X-H torsion
[ 7974 7965 7964 7962 ] final  165.74 input  175.53 | X-H torsion
[ 8008 7997 7996 7995 ] final  113.96 input   59.86 | X-H torsion
[ 10167 10162 10161 10158 ] final -154.53 input  -65.29 | X-H torsion
[ 10718 10713 10712 10709 ] final   25.35 input   66.30 | X-H torsion
[ 10763 10752 10751 10750 ] final    4.81 input  -60.55 | X-H torsion
[ 11005 11000 10999 10996 ] final -171.76 input  -57.11 | X-H torsion

> <Gold.Protein.ActiveResidues>
 VAL166  LYS551  ARG553  GLY616  TRP617  ASP618  TYR619  PRO620  LYS621  CYS622 
 ASP623  PHE694  ASN695  SER759  ASP760  ASP761  ALA762  ILE779  LEU786  VAL792 
 PHE793  MET794  SER795  GLU796  ALA797  LYS798  CYS799  TRP800  GLU811  SER814 

> <Gold.Protein.RotatedAtoms>
  152.5449  134.1179  159.8386 H   0  0  0  0  0  0  0  0  0  0  0  0  # atno 6907 bound_to 6896
  151.1238  133.5078  159.2608 H   0  0  0  0  0  0  0  0  0  0  0  0  # atno 6908 bound_to 6896
  151.1750  135.0345  159.8822 H   0  0  0  0  0  0  0  0  0  0  0  0  # atno 6909 bound_to 6896
  144.7490  139.8514  143.6372 H   0  0  0  0  0  0  0  0  0  0  0  0  # atno 7974 bound_to 7965
  156.2291  140.2969  156.0143 H   0  0  0  0  0  0  0  0  0  0  0  0  # atno 8008 bound_to 7997
  155.2274  140.0418  157.2974 H   0  0  0  0  0  0  0  0  0  0  0  0  # atno 8009 bound_to 7997
  154.5966  140.2415  155.7857 H   0  0  0  0  0  0  0  0  0  0  0  0  # atno 8010 bound_to 7997
  139.7006  143.9269  152.2427 H   0  0  0  0  0  0  0  0  0  0  0  0  # atno 10167 bound_to 10162
  157.1922  130.6851  149.6154 H   0  0  0  0  0  0  0  0  0  0  0  0  # atno 10718 bound_to 10713
  153.2669  135.6928  153.7521 H   0  0  0  0  0  0  0  0  0  0  0  0  # atno 10763 bound_to 10752
  153.6559  135.3369  155.3114 H   0  0  0  0  0  0  0  0  0  0  0  0  # atno 10764 bound_to 10752
  154.8450  135.4465  154.1678 H   0  0  0  0  0  0  0  0  0  0  0  0  # atno 10765 bound_to 10752
  140.5046  134.5860  157.4999 H   0  0  0  0  0  0  0  0  0  0  0  0  # atno 11005 bound_to 11000
  146.1413  139.4471  143.0107 LP  0  0  0  0  0  0  0  0  0  0  0  0  # atno 17320 bound_to 7965
  145.7014  141.0135  143.1502 LP  0  0  0  0  0  0  0  0  0  0  0  0  # atno 17321 bound_to 7965
  139.9111  144.6856  150.8562 LP  0  0  0  0  0  0  0  0  0  0  0  0  # atno 17342 bound_to 10162
  140.7708  143.3443  151.2144 LP  0  0  0  0  0  0  0  0  0  0  0  0  # atno 17343 bound_to 10162
  155.9710  130.4611  150.6096 LP  0  0  0  0  0  0  0  0  0  0  0  0  # atno 17370 bound_to 10713
  157.3849  131.0786  151.1444 LP  0  0  0  0  0  0  0  0  0  0  0  0  # atno 17371 bound_to 10713
  139.9693  134.7319  156.0073 LP  0  0  0  0  0  0  0  0  0  0  0  0  # atno 17394 bound_to 11000
  141.1417  133.6563  156.3750 LP  0  0  0  0  0  0  0  0  0  0  0  0  # atno 17395 bound_to 11000

$$$$
