AV-unprocessed.smi:1311|AV-procd|sdf|5446|dock7
  -GOLD-   22720 5 13D 1   1.00000     0.00000
 Structure written by MMmdl.
 46 47  0  0  0  0  0  0  0  0  2 V2000
  144.9178  134.4257  155.9035 C   0  0  0  0  0  0  0  0  0  0  0  0
  145.0375  134.4889  154.3720 C   0  0  0  0  0  0  0  0  0  0  0  0
  146.3708  135.0890  153.8476 C   0  0  2  0  0  0  0  0  0  0  0  0
  146.5128  136.6015  154.1669 C   0  0  0  0  0  0  0  0  0  0  0  0
  147.8900  137.0720  154.0387 N   0  0  0  0  0  0  0  0  0  0  0  0
  148.4436  138.0822  154.7279 C   0  0  0  0  0  0  0  0  0  0  0  0
  147.8408  138.7408  155.5746 O   0  0  0  0  0  0  0  0  0  0  0  0
  149.9042  138.4021  154.4109 C   0  0  0  0  0  0  0  0  0  0  0  0
  150.3723  139.5405  155.2790 C   0  0  0  0  0  0  0  0  0  0  0  0
  151.4642  139.5524  156.1937 C   0  0  0  0  0  0  0  0  0  0  0  0
  152.4190  138.4399  156.5202 C   0  0  0  0  0  0  0  0  0  0  0  0
  151.5938  140.7242  156.7933 N   0  0  0  0  0  0  0  0  0  0  0  0
  150.5729  141.5310  156.2818 O   0  0  0  0  0  0  0  0  0  0  0  0
  149.8608  140.8047  155.3831 C   0  0  0  0  0  0  0  0  0  0  0  0
  148.7163  141.4929  154.7194 C   0  0  0  0  0  0  0  0  0  0  0  0
  146.5501  134.8064  152.3920 N   0  3  0  0  0  0  0  0  0  0  0  0
  146.6845  133.3808  152.0197 C   0  0  0  0  0  0  0  0  0  0  0  0
  146.3614  133.3283  150.5311 C   0  0  0  0  0  0  0  0  0  0  0  0
  145.2462  134.3567  150.3869 C   0  0  0  0  0  0  0  0  0  0  0  0
  145.5091  135.3799  151.5004 C   0  0  0  0  0  0  0  0  0  0  0  0
  143.9637  133.9860  156.1943 H   0  0  0  0  0  0  0  0  0  0  0  0
  144.9697  135.4179  156.3515 H   0  0  0  0  0  0  0  0  0  0  0  0
  145.7041  133.8172  156.3479 H   0  0  0  0  0  0  0  0  0  0  0  0
  144.8995  133.4860  153.9682 H   0  0  0  0  0  0  0  0  0  0  0  0
  144.1924  135.0560  153.9827 H   0  0  0  0  0  0  0  0  0  0  0  0
  147.1820  134.5782  154.3692 H   0  0  0  0  0  0  0  0  0  0  0  0
  145.9326  137.1974  153.4630 H   0  0  0  0  0  0  0  0  0  0  0  0
  146.1045  136.8250  155.1536 H   0  0  0  0  0  0  0  0  0  0  0  0
  148.4696  136.5973  153.3614 H   0  0  0  0  0  0  0  0  0  0  0  0
  150.5022  137.5053  154.5760 H   0  0  0  0  0  0  0  0  0  0  0  0
  150.0071  138.6409  153.3514 H   0  0  0  0  0  0  0  0  0  0  0  0
  153.0414  138.1973  155.6588 H   0  0  0  0  0  0  0  0  0  0  0  0
  151.8810  137.5358  156.8050 H   0  0  0  0  0  0  0  0  0  0  0  0
  153.0820  138.7031  157.3452 H   0  0  0  0  0  0  0  0  0  0  0  0
  147.7922  140.9341  154.8663 H   0  0  0  0  0  0  0  0  0  0  0  0
  148.8908  141.5825  153.6475 H   0  0  0  0  0  0  0  0  0  0  0  0
  148.5714  142.4952  155.1230 H   0  0  0  0  0  0  0  0  0  0  0  0
  147.6816  132.9946  152.2325 H   0  0  0  0  0  0  0  0  0  0  0  0
  145.9583  132.7839  152.5743 H   0  0  0  0  0  0  0  0  0  0  0  0
  147.2310  133.6393  149.9507 H   0  0  0  0  0  0  0  0  0  0  0  0
  146.0687  132.3333  150.1944 H   0  0  0  0  0  0  0  0  0  0  0  0
  145.2240  134.8107  149.3958 H   0  0  0  0  0  0  0  0  0  0  0  0
  144.2814  133.8757  150.5521 H   0  0  0  0  0  0  0  0  0  0  0  0
  144.5807  135.5795  152.0370 H   0  0  0  0  0  0  0  0  0  0  0  0
  145.8679  136.3258  151.0934 H   0  0  0  0  0  0  0  0  0  0  0  0
  147.4192  135.2410  152.1159 H   0  0  0  0  0  0  0  0  0  0  0  0
  1  2  1  0  0  0  0
  1 21  1  0  0  0  0
  1 22  1  0  0  0  0
  1 23  1  0  0  0  0
  2  3  1  0  0  0  0
  2 24  1  0  0  0  0
  2 25  1  0  0  0  0
  3  4  1  0  0  0  0
  3 16  1  0  0  0  0
  3 26  1  0  0  0  0
  4  5  1  0  0  0  0
  4 27  1  0  0  0  0
  4 28  1  0  0  0  0
  5  6  1  0  0  0  0
  5 29  1  0  0  0  0
  6  7  2  0  0  0  0
  6  8  1  0  0  0  0
  8  9  1  0  0  0  0
  8 30  1  0  0  0  0
  8 31  1  0  0  0  0
  9 14  2  0  0  0  0
  9 10  1  0  0  0  0
 10 11  1  0  0  0  0
 10 12  2  0  0  0  0
 11 32  1  0  0  0  0
 11 33  1  0  0  0  0
 11 34  1  0  0  0  0
 12 13  1  0  0  0  0
 13 14  1  0  0  0  0
 14 15  1  0  0  0  0
 15 35  1  0  0  0  0
 15 36  1  0  0  0  0
 15 37  1  0  0  0  0
 16 20  1  0  0  0  0
 16 17  1  0  0  0  0
 16 46  1  0  0  0  0
 17 18  1  0  0  0  0
 17 38  1  0  0  0  0
 17 39  1  0  0  0  0
 18 19  1  0  0  0  0
 18 40  1  0  0  0  0
 18 41  1  0  0  0  0
 19 20  1  0  0  0  0
 19 42  1  0  0  0  0
 19 43  1  0  0  0  0
 20 44  1  0  0  0  0
 20 45  1  0  0  0  0
M  CHG  1  16   1
M  END
> <s_m_source_file>
AV-unprocessed.smi

> <i_m_source_file_index>
1311

> <i_lp_mmshare_version>
43012

> <i_f3d_flags>
0

> <s_epik_input>
W0NIMl0xW0NIMl1bQ0gyXVtDSDJdTjFbQ0BIXShbQ0gyXVtDSDNdKVtDSDJdW05IXUMoPU8pW0NIMl1jMmMoW0NIM10pbm9jMltDSDNd

> <s_epik_cmdline>
J2VwaWtfcHl0aG9uJywgJy1waCcsICc3LjAnLCAnLXRuJywgJzgnLCAnLW1hJywgJzIwMCcsICctbWV0YWxfYmluZGluZycsICctaW1hZScsICc8aW5maWxlLm1hZT4nLCAnLW9tYWUnLCAnPG91dGZpbGUubWFlPic=

> <r_epik_Ionization_Penalty>
0.00366311

> <r_epik_Ionization_Penalty_Charging>
0.00366302

> <r_epik_Ionization_Penalty_Neutral>
9.25085e-08

> <r_epik_State_Penalty>
0.00260703

> <r_epik_Charging_Adjusted_Penalty>
0.00627005

> <i_epik_Tot_Q>
1

> <i_epik_Tot_abs_Q>
1

> <r_epik_Metal_State_Penalty>
-0

> <b_epik_Metal_Only>
0

> <s_lp_Force_Field>
OPLS_2005

> <r_lp_Energy>
28.3188

> <b_lp_Chiralities_Consistent>
1

> <s_lp_Variant>
AV-unprocessed.smi:1311-1

> <Gold.Version>
5.8.1

> <Gold.Id.Protein>
6NUR|6NUR_protein|mol2

> <Gold.PLP.Fitness>
38.5483

> <Gold.PLP.PLP>
-30.2122

> <Gold.PLP.part.hbond>
-2.0000

> <Gold.PLP.part.metal>
0.0000

> <Gold.PLP.part.buried>
-1.8370

> <Gold.PLP.part.nonpolar>
-26.6674

> <Gold.PLP.part.repulsive>
0.4875

> <Gold.PLP.ligand.clash>
0.0000

> <Gold.PLP.ligand.torsion>
0.3955

> <Gold.PLP.Chemscore.Hbond>
3.0000

> <Gold.PLP.Chemscore.CHOScore>
0.0000

> <Gold.PLP.Chemscore.Metal>
0.0000

> <Gold.Chemscore.Hbonds>
donor molecule, donor type, donor heavy atom, donor atom, acceptor molecule, acceptor atom, score
      L1  H     5    29       P1  7948  1.00
      L1  H    16    46       P1  7948  2.00

> <Gold.PLP.Chemscore.Internal.Correction>
0.1271

> <Gold.Rescore>
     Score         DG    S(hbond)    S(metal)    S(lipo)     H(rot)  DE(clash)    DE(int)     intcor
     14.35     -15.84       1.97        0.00      71.57       1.80       0.03       1.46       ----

> <Gold.Chemscore.Fitness>
14.3452

> <Gold.Chemscore.DG>
-15.8392

> <Gold.Chemscore.ZeroCoef>
-5.4800

> <Gold.Chemscore.Hbond>
1.9745

> <Gold.Chemscore.Metal>
0.0000

> <Gold.Chemscore.Lipo>
71.5678

> <Gold.Chemscore.Internal_Hbond>
0.0000

> <Gold.Chemscore.DEClash>
0.0300

> <Gold.Chemscore.DEInternal>
1.4640

> <Gold.Chemscore.Rot>
1.8004

> <Gold.Chemscore.Internal.Correction>
   9.000000E+99

> <Gold.Chemscore.Hbonds>
donor molecule, donor type, donor heavy atom, donor atom, acceptor molecule, acceptor atom, score
      L1  H     5    29       P1  7948  0.97
      L1  H    16    46       P1  7948  0.99

> <Gold.Chemscore.Hbond.Weighted>
-6.5947

> <Gold.Chemscore.Metal.Weighted>
-0.0000

> <Gold.Chemscore.Lipo.Weighted>
-8.3734

> <Gold.Chemscore.Internal_Hbond.Weighted>
0.0000

> <Gold.Chemscore.DEClash.Weighted>
0.0300

> <Gold.Chemscore.DEInternal.Weighted>
1.4640

> <Gold.Chemscore.Rot.Weighted>
4.6090

> <Gold.Chemscore.Internal.Correction.Weighted>
   9.000000E+99

> <Gold.Protein.RotatedTorsions>
[ 6907 6896 6895 6894 ] final   83.53 input  -60.11 | X-H torsion
[ 7974 7965 7964 7962 ] final  -22.83 input  175.53 | X-H torsion
[ 8008 7997 7996 7995 ] final  154.33 input   59.86 | X-H torsion
[ 10167 10162 10161 10158 ] final -104.11 input  -65.29 | X-H torsion
[ 10718 10713 10712 10709 ] final -105.98 input   66.30 | X-H torsion
[ 10763 10752 10751 10750 ] final  -22.21 input  -60.55 | X-H torsion
[ 11005 11000 10999 10996 ] final -139.25 input  -57.11 | X-H torsion

> <Gold.Protein.ActiveResidues>
 VAL166  LYS551  ARG553  GLY616  TRP617  ASP618  TYR619  PRO620  LYS621  CYS622 
 ASP623  PHE694  ASN695  SER759  ASP760  ASP761  ALA762  ILE779  LEU786  VAL792 
 PHE793  MET794  SER795  GLU796  ALA797  LYS798  CYS799  TRP800  GLU811  SER814 

> <Gold.Protein.RotatedAtoms>
  152.5329  134.2881  159.9032 H   0  0  0  0  0  0  0  0  0  0  0  0  # atno 6907 bound_to 6896
  151.2833  133.4192  159.2636 H   0  0  0  0  0  0  0  0  0  0  0  0  # atno 6908 bound_to 6896
  151.0264  134.9523  159.8144 H   0  0  0  0  0  0  0  0  0  0  0  0  # atno 6909 bound_to 6896
  146.1652  140.4533  142.8555 H   0  0  0  0  0  0  0  0  0  0  0  0  # atno 7974 bound_to 7965
  156.2536  140.1969  156.6630 H   0  0  0  0  0  0  0  0  0  0  0  0  # atno 8008 bound_to 7997
  154.6450  140.0579  156.9915 H   0  0  0  0  0  0  0  0  0  0  0  0  # atno 8009 bound_to 7997
  155.1504  140.3251  155.4435 H   0  0  0  0  0  0  0  0  0  0  0  0  # atno 8010 bound_to 7997
  140.2128  143.3734  152.1036 H   0  0  0  0  0  0  0  0  0  0  0  0  # atno 10167 bound_to 10162
  156.0370  130.5590  150.7616 H   0  0  0  0  0  0  0  0  0  0  0  0  # atno 10718 bound_to 10713
  153.6484  135.6982  153.5217 H   0  0  0  0  0  0  0  0  0  0  0  0  # atno 10763 bound_to 10752
  153.2726  135.4210  155.1002 H   0  0  0  0  0  0  0  0  0  0  0  0  # atno 10764 bound_to 10752
  154.8482  135.3582  154.6028 H   0  0  0  0  0  0  0  0  0  0  0  0  # atno 10765 bound_to 10752
  140.8538  134.2253  157.4746 H   0  0  0  0  0  0  0  0  0  0  0  0  # atno 11005 bound_to 11000
  144.8083  140.6339  143.6432 LP  0  0  0  0  0  0  0  0  0  0  0  0  # atno 17320 bound_to 7965
  145.4485  139.1526  143.3931 LP  0  0  0  0  0  0  0  0  0  0  0  0  # atno 17321 bound_to 7965
  139.5173  144.6990  151.5547 LP  0  0  0  0  0  0  0  0  0  0  0  0  # atno 17342 bound_to 10162
  140.6311  143.9074  150.6606 LP  0  0  0  0  0  0  0  0  0  0  0  0  # atno 17343 bound_to 10162
  157.5134  131.0927  151.0170 LP  0  0  0  0  0  0  0  0  0  0  0  0  # atno 17370 bound_to 10713
  157.0519  130.5790  149.5372 LP  0  0  0  0  0  0  0  0  0  0  0  0  # atno 17371 bound_to 10713
  139.8704  134.9696  156.4672 LP  0  0  0  0  0  0  0  0  0  0  0  0  # atno 17394 bound_to 11000
  140.8760  133.7953  155.9415 LP  0  0  0  0  0  0  0  0  0  0  0  0  # atno 17395 bound_to 11000

$$$$
