AV-unprocessed.smi:3308|AV-procd|sdf|12711|dock1
  -GOLD-   2272019 43D 1   1.00000     0.00000
 Structure written by MMmdl.
 41 42  0  0  0  0  0  0  0  0  2 V2000
  149.7820  143.7544  158.9016 C   0  0  0  0  0  0  0  0  0  0  0  0
  150.7917  142.7673  158.2837 C   0  0  1  0  0  0  0  0  0  0  0  0
  150.5576  142.6117  156.8284 N   0  3  0  0  0  0  0  0  0  0  0  0
  150.0079  141.3062  156.4025 C   0  0  0  0  0  0  0  0  0  0  0  0
  149.1980  141.4130  155.1026 C   0  0  0  0  0  0  0  0  0  0  0  0
  149.7359  141.1518  154.0255 O   0  0  0  0  0  0  0  0  0  0  0  0
  147.9076  141.7977  155.1860 N   0  0  0  0  0  0  0  0  0  0  0  0
  147.2402  142.1201  156.4459 C   0  0  0  0  0  0  0  0  0  0  0  0
  145.9019  142.7485  156.0571 C   0  0  0  0  0  0  0  0  0  0  0  0
  145.6085  142.1765  154.6770 C   0  0  0  0  0  0  0  0  0  0  0  0
  146.9898  141.9586  154.0582 C   0  0  0  0  0  0  0  0  0  0  0  0
  152.2595  143.1804  158.5709 C   0  0  1  0  0  0  0  0  0  0  0  0
  152.5712  144.6305  158.1547 C   0  0  0  0  0  0  0  0  0  0  0  0
  152.6726  142.9098  159.9449 N   0  0  0  0  0  0  0  0  0  0  0  0
  153.6200  142.0080  160.3862 C   0  0  0  0  0  0  0  0  0  0  0  0
  153.6585  142.0867  161.7487 C   0  0  0  0  0  0  0  0  0  0  0  0
  152.6833  143.0748  162.0579 C   0  0  0  0  0  0  0  0  0  0  0  0
  152.0922  143.5611  160.9789 N   0  0  0  0  0  0  0  0  0  0  0  0
  149.9938  143.9167  159.9588 H   0  0  0  0  0  0  0  0  0  0  0  0
  148.7601  143.3812  158.8366 H   0  0  0  0  0  0  0  0  0  0  0  0
  149.8113  144.7250  158.4053 H   0  0  0  0  0  0  0  0  0  0  0  0
  150.6373  141.7923  158.7484 H   0  0  0  0  0  0  0  0  0  0  0  0
  149.9429  143.3500  156.5151 H   0  0  0  0  0  0  0  0  0  0  0  0
  150.8297  140.6037  156.2582 H   0  0  0  0  0  0  0  0  0  0  0  0
  149.3609  140.9084  157.1839 H   0  0  0  0  0  0  0  0  0  0  0  0
  147.0815  141.1992  157.0090 H   0  0  0  0  0  0  0  0  0  0  0  0
  147.8311  142.7979  157.0641 H   0  0  0  0  0  0  0  0  0  0  0  0
  145.1112  142.5400  156.7785 H   0  0  0  0  0  0  0  0  0  0  0  0
  146.0128  143.8315  155.9875 H   0  0  0  0  0  0  0  0  0  0  0  0
  145.0996  141.2173  154.7817 H   0  0  0  0  0  0  0  0  0  0  0  0
  144.9731  142.8274  154.0755 H   0  0  0  0  0  0  0  0  0  0  0  0
  147.2880  142.8326  153.4772 H   0  0  0  0  0  0  0  0  0  0  0  0
  146.9864  141.0921  153.3958 H   0  0  0  0  0  0  0  0  0  0  0  0
  152.8873  142.5494  157.9396 H   0  0  0  0  0  0  0  0  0  0  0  0
  152.3423  144.7927  157.1011 H   0  0  0  0  0  0  0  0  0  0  0  0
  153.6282  144.8575  158.2979 H   0  0  0  0  0  0  0  0  0  0  0  0
  151.9981  145.3559  158.7327 H   0  0  0  0  0  0  0  0  0  0  0  0
  154.1827  141.3904  159.7016 H   0  0  0  0  0  0  0  0  0  0  0  0
  154.2875  141.5238  162.4225 H   0  0  0  0  0  0  0  0  0  0  0  0
  152.3877  143.4484  163.0273 H   0  0  0  0  0  0  0  0  0  0  0  0
  151.4456  142.7277  156.3609 H   0  0  0  0  0  0  0  0  0  0  0  0
  1  2  1  0  0  0  0
  1 19  1  0  0  0  0
  1 20  1  0  0  0  0
  1 21  1  0  0  0  0
  2  3  1  0  0  0  0
  2 12  1  0  0  0  0
  2 22  1  0  0  0  0
  3  4  1  0  0  0  0
  3 23  1  0  0  0  0
  3 41  1  0  0  0  0
  4  5  1  0  0  0  0
  4 24  1  0  0  0  0
  4 25  1  0  0  0  0
  5  6  2  0  0  0  0
  5  7  1  0  0  0  0
  7 11  1  0  0  0  0
  7  8  1  0  0  0  0
  8  9  1  0  0  0  0
  8 26  1  0  0  0  0
  8 27  1  0  0  0  0
  9 10  1  0  0  0  0
  9 28  1  0  0  0  0
  9 29  1  0  0  0  0
 10 11  1  0  0  0  0
 10 30  1  0  0  0  0
 10 31  1  0  0  0  0
 11 32  1  0  0  0  0
 11 33  1  0  0  0  0
 12 13  1  0  0  0  0
 12 14  1  0  0  0  0
 12 34  1  0  0  0  0
 13 35  1  0  0  0  0
 13 36  1  0  0  0  0
 13 37  1  0  0  0  0
 14 18  1  0  0  0  0
 14 15  1  0  0  0  0
 15 16  2  0  0  0  0
 15 38  1  0  0  0  0
 16 17  1  0  0  0  0
 16 39  1  0  0  0  0
 17 18  2  0  0  0  0
 17 40  1  0  0  0  0
M  CHG  1   3   1
M  END
> <s_m_source_file>
AV-unprocessed.smi

> <i_m_source_file_index>
3308

> <i_lp_mmshare_version>
43012

> <i_f3d_flags>
0

> <s_epik_input>
bjFbY0hdW2NIXVtjSF1uMVtDQEBIXShbQ0gzXSlbQ0BIXShbQ0gzXSlbTkhdW0NIMl1DKD1PKU4yW0NIMl1bQ0gyXVtDSDJdW0NIMl0y

> <s_epik_cmdline>
J2VwaWtfcHl0aG9uJywgJy1waCcsICc3LjAnLCAnLXRuJywgJzgnLCAnLW1hJywgJzIwMCcsICctbWV0YWxfYmluZGluZycsICctaW1hZScsICc8aW5maWxlLm1hZT4nLCAnLW9tYWUnLCAnPG91dGZpbGUubWFlPic=

> <r_lp_tautomer_probability>
1

> <r_epik_Ionization_Penalty>
0.141739

> <r_epik_Ionization_Penalty_Charging>
0.141731

> <r_epik_Ionization_Penalty_Neutral>
8.82171e-06

> <r_epik_State_Penalty>
0.131043

> <r_epik_Charging_Adjusted_Penalty>
0.272773

> <i_epik_Tot_Q>
1

> <i_epik_Tot_abs_Q>
1

> <r_epik_Metal_State_Penalty>
0.131385

> <b_epik_Metal_Only>
0

> <s_lp_Force_Field>
OPLS_2005

> <r_lp_Energy>
32.7398

> <b_lp_Chiralities_Consistent>
1

> <s_lp_Variant>
AV-unprocessed.smi:3308-4

> <Gold.Version>
5.8.1

> <Gold.Id.Protein>
6NUR|6NUR_protein|mol2

> <Gold.PLP.Fitness>
51.8073

> <Gold.PLP.PLP>
-45.2331

> <Gold.PLP.part.hbond>
-3.0000

> <Gold.PLP.part.metal>
0.0000

> <Gold.PLP.part.buried>
-3.4364

> <Gold.PLP.part.nonpolar>
-39.6545

> <Gold.PLP.part.repulsive>
0.7796

> <Gold.PLP.ligand.clash>
0.0000

> <Gold.PLP.ligand.torsion>
1.4407

> <Gold.PLP.Chemscore.Hbond>
3.0687

> <Gold.PLP.Chemscore.CHOScore>
0.0000

> <Gold.PLP.Chemscore.Metal>
0.0000

> <Gold.Chemscore.Hbonds>
donor molecule, donor type, donor heavy atom, donor atom, acceptor molecule, acceptor atom, score
      L1  H     3    23       P1  8028  2.00
      P1  H  7989  7998       L1     6  0.38
      P1  H  8011  8017       L1     6  0.64

> <Gold.PLP.Chemscore.Internal.Correction>
0.2494

> <Gold.Rescore>
     Score         DG    S(hbond)    S(metal)    S(lipo)     H(rot)  DE(clash)    DE(int)     intcor
     16.94     -18.50       1.83        0.00      98.02       1.78       0.11       1.45       ----

> <Gold.Chemscore.Fitness>
16.9425

> <Gold.Chemscore.DG>
-18.4963

> <Gold.Chemscore.ZeroCoef>
-5.4800

> <Gold.Chemscore.Hbond>
1.8304

> <Gold.Chemscore.Metal>
0.0000

> <Gold.Chemscore.Lipo>
98.0225

> <Gold.Chemscore.Internal_Hbond>
0.0000

> <Gold.Chemscore.DEClash>
0.1080

> <Gold.Chemscore.DEInternal>
1.4457

> <Gold.Chemscore.Rot>
1.7836

> <Gold.Chemscore.Internal.Correction>
   9.000000E+99

> <Gold.Chemscore.Hbonds>
donor molecule, donor type, donor heavy atom, donor atom, acceptor molecule, acceptor atom, score
      L1  H     3    23       P1  8028  1.00
      P1  H  7989  7998       L1     6  0.37
      P1  H  8011  8017       L1     6  0.62

> <Gold.Chemscore.Hbond.Weighted>
-6.1136

> <Gold.Chemscore.Metal.Weighted>
-0.0000

> <Gold.Chemscore.Lipo.Weighted>
-11.4686

> <Gold.Chemscore.Internal_Hbond.Weighted>
0.0000

> <Gold.Chemscore.DEClash.Weighted>
0.1080

> <Gold.Chemscore.DEInternal.Weighted>
1.4457

> <Gold.Chemscore.Rot.Weighted>
4.5660

> <Gold.Chemscore.Internal.Correction.Weighted>
   9.000000E+99

> <Gold.Protein.RotatedTorsions>
[ 6907 6896 6895 6894 ] final  123.34 input  -60.11 | X-H torsion
[ 7974 7965 7964 7962 ] final  167.57 input  175.53 | X-H torsion
[ 8008 7997 7996 7995 ] final   15.25 input   59.86 | X-H torsion
[ 10167 10162 10161 10158 ] final  -15.73 input  -65.29 | X-H torsion
[ 10718 10713 10712 10709 ] final  -72.45 input   66.30 | X-H torsion
[ 10763 10752 10751 10750 ] final   94.48 input  -60.55 | X-H torsion
[ 11005 11000 10999 10996 ] final -162.97 input  -57.11 | X-H torsion

> <Gold.Protein.ActiveResidues>
 VAL166  LYS551  ARG553  GLY616  TRP617  ASP618  TYR619  PRO620  LYS621  CYS622 
 ASP623  PHE694  ASN695  SER759  ASP760  ASP761  ALA762  ILE779  LEU786  VAL792 
 PHE793  MET794  SER795  GLU796  ALA797  LYS798  CYS799  TRP800  GLU811  SER814 

> <Gold.Protein.RotatedAtoms>
  152.4170  133.7054  159.6447 H   0  0  0  0  0  0  0  0  0  0  0  0  # atno 6907 bound_to 6896
  150.8047  133.8522  159.3217 H   0  0  0  0  0  0  0  0  0  0  0  0  # atno 6908 bound_to 6896
  151.6249  135.1030  160.0161 H   0  0  0  0  0  0  0  0  0  0  0  0  # atno 6909 bound_to 6896
  144.7419  139.8780  143.6394 H   0  0  0  0  0  0  0  0  0  0  0  0  # atno 7974 bound_to 7965
  154.8600  140.2943  155.5545 H   0  0  0  0  0  0  0  0  0  0  0  0  # atno 8008 bound_to 7997
  156.3019  140.2480  156.3505 H   0  0  0  0  0  0  0  0  0  0  0  0  # atno 8009 bound_to 7997
  154.8929  140.0394  157.1838 H   0  0  0  0  0  0  0  0  0  0  0  0  # atno 8010 bound_to 7997
  140.7223  143.5188  150.9658 H   0  0  0  0  0  0  0  0  0  0  0  0  # atno 10167 bound_to 10162
  156.0320  130.4372  150.2595 H   0  0  0  0  0  0  0  0  0  0  0  0  # atno 10718 bound_to 10713
  153.2422  135.4288  155.0709 H   0  0  0  0  0  0  0  0  0  0  0  0  # atno 10763 bound_to 10752
  154.8345  135.3405  154.6633 H   0  0  0  0  0  0  0  0  0  0  0  0  # atno 10764 bound_to 10752
  153.7057  135.7026  153.5107 H   0  0  0  0  0  0  0  0  0  0  0  0  # atno 10765 bound_to 10752
  140.6033  134.4925  157.5207 H   0  0  0  0  0  0  0  0  0  0  0  0  # atno 11005 bound_to 11000
  146.1232  139.4253  143.0215 LP  0  0  0  0  0  0  0  0  0  0  0  0  # atno 17320 bound_to 7965
  145.7274  141.0054  143.1370 LP  0  0  0  0  0  0  0  0  0  0  0  0  # atno 17321 bound_to 7965
  139.8905  143.6959  152.3146 LP  0  0  0  0  0  0  0  0  0  0  0  0  # atno 17342 bound_to 10162
  139.7273  144.7590  151.0858 LP  0  0  0  0  0  0  0  0  0  0  0  0  # atno 17343 bound_to 10162
  157.0696  131.0113  151.3194 LP  0  0  0  0  0  0  0  0  0  0  0  0  # atno 17370 bound_to 10713
  157.5009  130.7879  149.7604 LP  0  0  0  0  0  0  0  0  0  0  0  0  # atno 17371 bound_to 10713
  139.9223  134.8124  156.1174 LP  0  0  0  0  0  0  0  0  0  0  0  0  # atno 17394 bound_to 11000
  141.0857  133.6735  156.2432 LP  0  0  0  0  0  0  0  0  0  0  0  0  # atno 17395 bound_to 11000

$$$$
