AV-unprocessed.smi:1588|AV-procd|sdf|6391|dock3
  -GOLD-   22720 7 23D 1   1.00000     0.00000
 Structure written by MMmdl.
 37 38  0  0  0  0  0  0  0  0  2 V2000
  147.2499  123.5856  151.0110 C   0  0  0  0  0  0  0  0  0  0  0  0
  148.5314  123.6595  151.8523 C   0  0  0  0  0  0  0  0  0  0  0  0
  149.0429  125.0456  151.9739 N   0  3  1  0  0  0  0  0  0  0  0  0
  149.2753  125.7403  150.6871 C   0  0  0  0  0  0  0  0  0  0  0  0
  149.0434  127.2209  150.9751 C   0  0  0  0  0  0  0  0  0  0  0  0
  147.8992  127.1836  151.9854 C   0  0  2  0  0  0  0  0  0  0  0  0
  147.7303  128.4657  152.8236 C   0  0  0  0  0  0  0  0  0  0  0  0
  147.4460  129.6340  151.9967 N   0  0  0  0  0  0  0  0  0  0  0  0
  146.2530  130.2391  151.9061 C   0  0  0  0  0  0  0  0  0  0  0  0
  145.2510  129.8581  152.5117 O   0  0  0  0  0  0  0  0  0  0  0  0
  146.3013  131.2955  151.0782 N   0  0  0  0  0  0  0  0  0  0  0  0
  145.2401  132.1735  150.7409 C   0  0  0  0  0  0  0  0  0  0  0  0
  145.4078  133.5155  150.3034 C   0  0  0  0  0  0  0  0  0  0  0  0
  144.2405  134.0946  150.0604 N   0  0  0  0  0  0  0  0  0  0  0  0
  143.3294  133.1349  150.3387 N   0  0  0  0  0  0  0  0  0  0  0  0
  143.8920  131.9489  150.7564 C   0  0  0  0  0  0  0  0  0  0  0  0
  148.2057  125.9315  152.8189 C   0  0  0  0  0  0  0  0  0  0  0  0
  142.3381  133.3027  150.2403 H   0  0  0  0  0  0  0  0  0  0  0  0
  146.9264  122.5510  150.8925 H   0  0  0  0  0  0  0  0  0  0  0  0
  147.4083  123.9987  150.0142 H   0  0  0  0  0  0  0  0  0  0  0  0
  146.4301  124.1329  151.4767 H   0  0  0  0  0  0  0  0  0  0  0  0
  148.3617  123.2356  152.8434 H   0  0  0  0  0  0  0  0  0  0  0  0
  149.2962  123.0455  151.3747 H   0  0  0  0  0  0  0  0  0  0  0  0
  150.2746  125.5429  150.2982 H   0  0  0  0  0  0  0  0  0  0  0  0
  148.5523  125.4003  149.9436 H   0  0  0  0  0  0  0  0  0  0  0  0
  149.9357  127.6588  151.4250 H   0  0  0  0  0  0  0  0  0  0  0  0
  148.8008  127.7911  150.0777 H   0  0  0  0  0  0  0  0  0  0  0  0
  146.9761  126.9928  151.4350 H   0  0  0  0  0  0  0  0  0  0  0  0
  146.9355  128.3341  153.5598 H   0  0  0  0  0  0  0  0  0  0  0  0
  148.6413  128.6674  153.3879 H   0  0  0  0  0  0  0  0  0  0  0  0
  148.2152  130.0163  151.4658 H   0  0  0  0  0  0  0  0  0  0  0  0
  147.1915  131.4978  150.6475 H   0  0  0  0  0  0  0  0  0  0  0  0
  146.3187  134.0773  150.1572 H   0  0  0  0  0  0  0  0  0  0  0  0
  143.2963  131.0864  151.0163 H   0  0  0  0  0  0  0  0  0  0  0  0
  147.2856  125.4498  153.1535 H   0  0  0  0  0  0  0  0  0  0  0  0
  148.7828  126.1859  153.7088 H   0  0  0  0  0  0  0  0  0  0  0  0
  149.9377  124.9903  152.4390 H   0  0  0  0  0  0  0  0  0  0  0  0
  1  2  1  0  0  0  0
  1 19  1  0  0  0  0
  1 20  1  0  0  0  0
  1 21  1  0  0  0  0
  2  3  1  0  0  0  0
  2 22  1  0  0  0  0
  2 23  1  0  0  0  0
  3 17  1  0  0  0  0
  3  4  1  0  0  0  0
  3 37  1  0  0  0  0
  4  5  1  0  0  0  0
  4 24  1  0  0  0  0
  4 25  1  0  0  0  0
  5  6  1  0  0  0  0
  5 26  1  0  0  0  0
  5 27  1  0  0  0  0
  6  7  1  0  0  0  0
  6 17  1  0  0  0  0
  6 28  1  0  0  0  0
  7  8  1  0  0  0  0
  7 29  1  0  0  0  0
  7 30  1  0  0  0  0
  8  9  1  0  0  0  0
  8 31  1  0  0  0  0
  9 10  2  0  0  0  0
  9 11  1  0  0  0  0
 11 12  1  0  0  0  0
 11 32  1  0  0  0  0
 12 16  2  0  0  0  0
 12 13  1  0  0  0  0
 13 14  2  0  0  0  0
 13 33  1  0  0  0  0
 14 15  1  0  0  0  0
 15 18  1  0  0  0  0
 15 16  1  0  0  0  0
 16 34  1  0  0  0  0
 17 35  1  0  0  0  0
 17 36  1  0  0  0  0
M  CHG  1   3   1
M  END
> <s_m_source_file>
AV-unprocessed.smi

> <i_m_source_file_index>
1588

> <i_lp_mmshare_version>
43012

> <i_f3d_flags>
0

> <s_epik_input>
W0NIM11bQ0gyXU4xW0NIMl1bQ0gyXVtDQEhdKFtDSDJdMSlbQ0gyXVtOSF1DKD1PKVtOSF1jMltjSF1uW25IXVtjSF0y

> <s_epik_cmdline>
J2VwaWtfcHl0aG9uJywgJy1waCcsICc3LjAnLCAnLXRuJywgJzgnLCAnLW1hJywgJzIwMCcsICctbWV0YWxfYmluZGluZycsICctaW1hZScsICc8aW5maWxlLm1hZT4nLCAnLW9tYWUnLCAnPG91dGZpbGUubWFlPic=

> <r_lp_tautomer_probability>
0.5

> <r_epik_Ionization_Penalty>
0.000628417

> <r_epik_Ionization_Penalty_Charging>
0.000582718

> <r_epik_Ionization_Penalty_Neutral>
4.56984e-05

> <r_epik_State_Penalty>
0.000366292

> <r_epik_Charging_Adjusted_Penalty>
0.00094901

> <i_epik_Tot_Q>
1

> <i_epik_Tot_abs_Q>
1

> <r_epik_Metal_State_Penalty>
-0

> <b_epik_Metal_Only>
0

> <s_lp_Force_Field>
OPLS_2005

> <r_lp_Energy>
31.1472

> <b_lp_Chiralities_Consistent>
1

> <s_lp_Variant>
AV-unprocessed.smi:1588-3

> <Gold.Version>
5.8.1

> <Gold.Id.Protein>
6NUR|6NUR_protein|mol2

> <Gold.PLP.Fitness>
42.6336

> <Gold.PLP.PLP>
-32.6456

> <Gold.PLP.part.hbond>
-3.0000

> <Gold.PLP.part.metal>
0.0000

> <Gold.PLP.part.buried>
-3.4350

> <Gold.PLP.part.nonpolar>
-26.5537

> <Gold.PLP.part.repulsive>
0.5463

> <Gold.PLP.ligand.clash>
0.0000

> <Gold.PLP.ligand.torsion>
0.2479

> <Gold.PLP.Chemscore.Hbond>
2.8400

> <Gold.PLP.Chemscore.CHOScore>
0.6512

> <Gold.PLP.Chemscore.Metal>
0.0000

> <Gold.Chemscore.Hbonds>
donor molecule, donor type, donor heavy atom, donor atom, acceptor molecule, acceptor atom, score
      L1  H     8    31       P1 10747  1.00
      L1  H    11    32       P1 10747  0.93
      L1  H    15    18       P1 10186  0.94
      L1  C    13    33       P1  7921  0.27

> <Gold.PLP.Chemscore.Internal.Correction>
0.0101

> <Gold.Rescore>
     Score         DG    S(hbond)    S(metal)    S(lipo)     H(rot)  DE(clash)    DE(int)     intcor
     17.69     -19.83       2.80        0.00      77.27       1.58       1.03       1.11       ----

> <Gold.Chemscore.Fitness>
17.6892

> <Gold.Chemscore.DG>
-19.8321

> <Gold.Chemscore.ZeroCoef>
-5.4800

> <Gold.Chemscore.Hbond>
2.7977

> <Gold.Chemscore.Metal>
0.0000

> <Gold.Chemscore.Lipo>
77.2703

> <Gold.Chemscore.Internal_Hbond>
0.0000

> <Gold.Chemscore.DEClash>
1.0287

> <Gold.Chemscore.DEInternal>
1.1143

> <Gold.Chemscore.Rot>
1.5753

> <Gold.Chemscore.Internal.Correction>
   9.000000E+99

> <Gold.Chemscore.Hbonds>
donor molecule, donor type, donor heavy atom, donor atom, acceptor molecule, acceptor atom, score
      L1  H     8    31       P1 10747  0.87
      L1  H    11    32       P1 10747  0.89
      L1  H    15    18       P1 10186  0.91

> <Gold.Chemscore.Hbond.Weighted>
-9.3442

> <Gold.Chemscore.Metal.Weighted>
-0.0000

> <Gold.Chemscore.Lipo.Weighted>
-9.0406

> <Gold.Chemscore.Internal_Hbond.Weighted>
0.0000

> <Gold.Chemscore.DEClash.Weighted>
1.0287

> <Gold.Chemscore.DEInternal.Weighted>
1.1143

> <Gold.Chemscore.Rot.Weighted>
4.0328

> <Gold.Chemscore.Internal.Correction.Weighted>
   9.000000E+99

> <Gold.Protein.RotatedTorsions>
[ 6907 6896 6895 6894 ] final  -49.96 input  -60.11 | X-H torsion
[ 7974 7965 7964 7962 ] final -132.77 input  175.53 | X-H torsion
[ 8008 7997 7996 7995 ] final  -85.33 input   59.86 | X-H torsion
[ 10167 10162 10161 10158 ] final  129.92 input  -65.29 | X-H torsion
[ 10718 10713 10712 10709 ] final  -44.53 input   66.30 | X-H torsion
[ 10763 10752 10751 10750 ] final  -79.66 input  -60.55 | X-H torsion
[ 11005 11000 10999 10996 ] final -141.86 input  -57.11 | X-H torsion

> <Gold.Protein.ActiveResidues>
 VAL166  LYS551  ARG553  GLY616  TRP617  ASP618  TYR619  PRO620  LYS621  CYS622 
 ASP623  PHE694  ASN695  SER759  ASP760  ASP761  ALA762  ILE779  LEU786  VAL792 
 PHE793  MET794  SER795  GLU796  ALA797  LYS798  CYS799  TRP800  GLU811  SER814 

> <Gold.Protein.RotatedAtoms>
  150.8753  134.8135  159.7185 H   0  0  0  0  0  0  0  0  0  0  0  0  # atno 6907 bound_to 6896
  152.4742  134.4881  159.9696 H   0  0  0  0  0  0  0  0  0  0  0  0  # atno 6908 bound_to 6896
  151.4963  133.3475  159.2897 H   0  0  0  0  0  0  0  0  0  0  0  0  # atno 6909 bound_to 6896
  144.9254  140.7065  143.4939 H   0  0  0  0  0  0  0  0  0  0  0  0  # atno 7974 bound_to 7965
  154.6396  140.0593  156.9829 H   0  0  0  0  0  0  0  0  0  0  0  0  # atno 8008 bound_to 7997
  155.1538  140.3276  155.4407 H   0  0  0  0  0  0  0  0  0  0  0  0  # atno 8009 bound_to 7997
  156.2524  140.1943  156.6648 H   0  0  0  0  0  0  0  0  0  0  0  0  # atno 8010 bound_to 7997
  139.5454  144.6769  151.4488 H   0  0  0  0  0  0  0  0  0  0  0  0  # atno 10167 bound_to 10162
  156.2376  130.4177  149.8799 H   0  0  0  0  0  0  0  0  0  0  0  0  # atno 10718 bound_to 10713
  154.5414  135.5688  153.6843 H   0  0  0  0  0  0  0  0  0  0  0  0  # atno 10763 bound_to 10752
  152.9964  135.6228  154.2497 H   0  0  0  0  0  0  0  0  0  0  0  0  # atno 10764 bound_to 10752
  154.2428  135.2862  155.2827 H   0  0  0  0  0  0  0  0  0  0  0  0  # atno 10765 bound_to 10752
  140.8283  134.2548  157.4869 H   0  0  0  0  0  0  0  0  0  0  0  0  # atno 11005 bound_to 11000
  145.3227  139.1783  143.4579 LP  0  0  0  0  0  0  0  0  0  0  0  0  # atno 17320 bound_to 7965
  146.3224  140.3247  142.8636 LP  0  0  0  0  0  0  0  0  0  0  0  0  # atno 17321 bound_to 7965
  140.6701  143.8313  150.6989 LP  0  0  0  0  0  0  0  0  0  0  0  0  # atno 17342 bound_to 10162
  140.1734  143.4175  152.1984 LP  0  0  0  0  0  0  0  0  0  0  0  0  # atno 17343 bound_to 10162
  156.6392  130.8698  151.3510 LP  0  0  0  0  0  0  0  0  0  0  0  0  # atno 17370 bound_to 10713
  157.7161  130.9499  150.1261 LP  0  0  0  0  0  0  0  0  0  0  0  0  # atno 17371 bound_to 10713
  139.8706  134.9572  156.4262 LP  0  0  0  0  0  0  0  0  0  0  0  0  # atno 17394 bound_to 11000
  140.9026  133.7769  155.9697 LP  0  0  0  0  0  0  0  0  0  0  0  0  # atno 17395 bound_to 11000

$$$$
