AV-unprocessed.smi:287|AV-procd|sdf|2180|dock5
  -GOLD-   2262021553D 1   1.00000     0.00000
 Structure written by MMmdl.
 55 58  0  0  0  0  0  0  0  0  1 V2000
  153.8103  143.5417  164.0683 C   0  0  0  0  0  0  0  0  0  0  0  0
  153.5211  143.0216  162.7021 C   0  0  0  0  0  0  0  0  0  0  0  0
  153.8266  141.8637  162.0486 C   0  0  0  0  0  0  0  0  0  0  0  0
  153.2611  141.9494  160.7415 C   0  0  0  0  0  0  0  0  0  0  0  0
  153.3531  140.8848  159.6564 C   0  0  2  0  0  0  0  0  0  0  0  0
  154.1102  139.6593  160.1940 C   0  0  0  0  0  0  0  0  0  0  0  0
  154.0883  141.3132  158.5263 O   0  0  0  0  0  0  0  0  0  0  0  0
  151.9646  140.4611  159.1252 C   0  0  0  0  0  0  0  0  0  0  0  0
  151.8451  140.5951  157.6769 N   0  0  0  0  0  0  0  0  0  0  0  0
  151.9648  139.5109  156.8827 C   0  0  0  0  0  0  0  0  0  0  0  0
  152.6076  139.5853  155.6875 N   0  0  0  0  0  0  0  0  0  0  0  0
  152.7159  138.4966  154.9191 C   0  0  0  0  0  0  0  0  0  0  0  0
  152.2651  137.2614  155.1518 N   0  0  0  0  0  0  0  0  0  0  0  0
  151.6181  137.1861  156.3508 C   0  0  0  0  0  0  0  0  0  0  0  0
  151.4261  138.2562  157.2668 C   0  0  0  0  0  0  0  0  0  0  0  0
  150.7251  137.8038  158.3773 N   0  0  0  0  0  0  0  0  0  0  0  0
  150.5168  136.5387  158.1263 C   0  0  0  0  0  0  0  0  0  0  0  0
  151.0172  136.0866  156.9225 N   0  0  0  0  0  0  0  0  0  0  0  0
  150.9645  134.7141  156.3213 C   0  0  1  0  0  0  0  0  0  0  0  0
  150.4501  133.8353  157.2775 O   0  0  0  0  0  0  0  0  0  0  0  0
  149.0852  133.5535  156.9880 C   0  0  2  0  0  0  0  0  0  0  0  0
  148.6652  132.2437  157.6715 C   0  0  0  0  0  0  0  0  0  0  0  0
  148.8188  132.3609  159.0698 O   0  0  0  0  0  0  0  0  0  0  0  0
  149.1192  133.4725  155.4622 C   0  0  1  0  0  0  0  0  0  0  0  0
  147.8325  133.5501  154.8768 O   0  0  0  0  0  0  0  0  0  0  0  0
  150.0320  134.6382  155.0873 C   0  0  1  0  0  0  0  0  0  0  0  0
  149.3033  135.8320  154.8388 O   0  0  0  0  0  0  0  0  0  0  0  0
  152.6534  143.1816  160.7030 C   0  0  0  0  0  0  0  0  0  0  0  0
  151.8878  143.9293  159.6612 C   0  0  0  0  0  0  0  0  0  0  0  0
  152.8039  143.8362  161.8884 O   0  0  0  0  0  0  0  0  0  0  0  0
  152.0047  134.4682  156.1041 H   0  0  0  0  0  0  0  0  0  0  0  0
  148.4511  134.3857  157.3007 H   0  0  0  0  0  0  0  0  0  0  0  0
  149.5909  132.5370  155.1577 H   0  0  0  0  0  0  0  0  0  0  0  0
  150.6221  134.4051  154.2006 H   0  0  0  0  0  0  0  0  0  0  0  0
  154.2566  142.7675  164.6928 H   0  0  0  0  0  0  0  0  0  0  0  0
  152.8962  143.8825  164.5550 H   0  0  0  0  0  0  0  0  0  0  0  0
  154.5041  144.3812  164.0230 H   0  0  0  0  0  0  0  0  0  0  0  0
  154.3909  141.0413  162.4629 H   0  0  0  0  0  0  0  0  0  0  0  0
  153.5991  139.2253  161.0543 H   0  0  0  0  0  0  0  0  0  0  0  0
  155.1192  139.9251  160.5128 H   0  0  0  0  0  0  0  0  0  0  0  0
  154.1971  138.8780  159.4379 H   0  0  0  0  0  0  0  0  0  0  0  0
  153.4840  141.6704  157.8940 H   0  0  0  0  0  0  0  0  0  0  0  0
  151.7232  139.4431  159.4356 H   0  0  0  0  0  0  0  0  0  0  0  0
  151.2087  141.1101  159.5699 H   0  0  0  0  0  0  0  0  0  0  0  0
  151.6329  141.5204  157.3312 H   0  0  0  0  0  0  0  0  0  0  0  0
  153.2376  138.6354  153.9838 H   0  0  0  0  0  0  0  0  0  0  0  0
  149.9902  135.9020  158.8222 H   0  0  0  0  0  0  0  0  0  0  0  0
  147.6126  132.0379  157.4749 H   0  0  0  0  0  0  0  0  0  0  0  0
  149.2377  131.3956  157.2948 H   0  0  0  0  0  0  0  0  0  0  0  0
  149.6738  132.0354  159.3068 H   0  0  0  0  0  0  0  0  0  0  0  0
  147.5399  134.4479  154.9152 H   0  0  0  0  0  0  0  0  0  0  0  0
  149.2161  135.9385  153.9037 H   0  0  0  0  0  0  0  0  0  0  0  0
  152.4768  144.0342  158.7501 H   0  0  0  0  0  0  0  0  0  0  0  0
  151.6233  144.9292  160.0060 H   0  0  0  0  0  0  0  0  0  0  0  0
  150.9652  143.4060  159.4107 H   0  0  0  0  0  0  0  0  0  0  0  0
  1  2  1  0  0  0  0
  1 35  1  0  0  0  0
  1 36  1  0  0  0  0
  1 37  1  0  0  0  0
  2 30  1  0  0  0  0
  2  3  2  0  0  0  0
  3  4  1  0  0  0  0
  3 38  1  0  0  0  0
  4  5  1  0  0  0  0
  4 28  2  0  0  0  0
  5  6  1  0  0  0  0
  5  7  1  0  0  0  0
  5  8  1  0  0  0  0
  6 39  1  0  0  0  0
  6 40  1  0  0  0  0
  6 41  1  0  0  0  0
  7 42  1  0  0  0  0
  8  9  1  0  0  0  0
  8 43  1  0  0  0  0
  8 44  1  0  0  0  0
  9 10  1  0  0  0  0
  9 45  1  0  0  0  0
 10 15  1  0  0  0  0
 10 11  2  0  0  0  0
 11 12  1  0  0  0  0
 12 13  2  0  0  0  0
 12 46  1  0  0  0  0
 13 14  1  0  0  0  0
 14 18  1  0  0  0  0
 14 15  2  0  0  0  0
 15 16  1  0  0  0  0
 16 17  2  0  0  0  0
 17 18  1  0  0  0  0
 17 47  1  0  0  0  0
 18 19  1  0  0  0  0
 19 31  1  0  0  0  0
 19 26  1  0  0  0  0
 19 20  1  0  0  0  0
 20 21  1  0  0  0  0
 21 32  1  0  0  0  0
 21 22  1  0  0  0  0
 21 24  1  0  0  0  0
 22 23  1  0  0  0  0
 22 48  1  0  0  0  0
 22 49  1  0  0  0  0
 23 50  1  0  0  0  0
 24 33  1  0  0  0  0
 24 25  1  0  0  0  0
 24 26  1  0  0  0  0
 25 51  1  0  0  0  0
 26 34  1  0  0  0  0
 26 27  1  0  0  0  0
 27 52  1  0  0  0  0
 28 29  1  0  0  0  0
 28 30  1  0  0  0  0
 29 53  1  0  0  0  0
 29 54  1  0  0  0  0
 29 55  1  0  0  0  0
M  END
> <s_m_source_file>
AV-unprocessed.smi

> <i_m_source_file_index>
287

> <i_lp_mmshare_version>
43012

> <i_f3d_flags>
0

> <s_epik_input>
W0NIM11jMVtjSF1jKGMobzEpW0NIM10pW0NAQF0oW0NIM10pKFtPSF0pW0NIMl1bTkhdYyhuW2NIXW4yKWMoYzIzKW5bY0hdbjNbQ0BASF00T1tDQEhdKFtDSDJdW09IXSlbQ0BASF0oW09IXSlbQ0BIXTRbT0hd

> <s_epik_cmdline>
J2VwaWtfcHl0aG9uJywgJy1waCcsICc3LjAnLCAnLXRuJywgJzgnLCAnLW1hJywgJzIwMCcsICctbWV0YWxfYmluZGluZycsICctaW1hZScsICc8aW5maWxlLm1hZT4nLCAnLW9tYWUnLCAnPG91dGZpbGUubWFlPic=

> <r_lp_tautomer_probability>
1

> <r_epik_Ionization_Penalty>
0.000992612

> <r_epik_Ionization_Penalty_Charging>
0

> <r_epik_Ionization_Penalty_Neutral>
0.000992612

> <r_epik_State_Penalty>
-0

> <r_epik_Charging_Adjusted_Penalty>
0

> <i_epik_Tot_Q>
0

> <i_epik_Tot_abs_Q>
0

> <r_epik_Metal_State_Penalty>
-0

> <b_epik_Metal_Only>
0

> <s_epik_Chemistry_Notes>
This compound contains an acetal/aminal-like group ( X-CH(R)-Y where X, Y are N, S, or O) that may be acid/base labile, releasing an aldehyde.

> <s_lp_Force_Field>
OPLS_2005

> <r_lp_Energy>
46.7929

> <b_lp_Chiralities_Consistent>
1

> <s_lp_Variant>
AV-unprocessed.smi:287-4

> <Gold.Version>
5.8.1

> <Gold.Id.Protein>
6NUR|6NUR_protein|mol2

> <Gold.PLP.Fitness>
48.2978

> <Gold.PLP.PLP>
-41.4150

> <Gold.PLP.part.hbond>
-4.9404

> <Gold.PLP.part.metal>
0.0000

> <Gold.PLP.part.buried>
1.7073

> <Gold.PLP.part.nonpolar>
-37.6509

> <Gold.PLP.part.repulsive>
0.2733

> <Gold.PLP.ligand.clash>
0.0000

> <Gold.PLP.ligand.torsion>
1.7511

> <Gold.PLP.Chemscore.Hbond>
3.4010

> <Gold.PLP.Chemscore.CHOScore>
0.0000

> <Gold.PLP.Chemscore.Metal>
0.0000

> <Gold.Chemscore.Hbonds>
donor molecule, donor type, donor heavy atom, donor atom, acceptor molecule, acceptor atom, score
      L1  H    27    52       P1  7948  0.94
      P1  H  6896  6908       L1    20  0.80
      P1  H  7997  8008       L1    11  1.00
      P1  H  7997  8010       L1     7  0.01
      P1  H 10752 10763       L1    13  0.69

> <Gold.PLP.Chemscore.Internal.Correction>
0.1819

> <Gold.Rescore>
     Score         DG    S(hbond)    S(metal)    S(lipo)     H(rot)  DE(clash)    DE(int)     intcor
      9.97     -15.00       3.05        0.00     109.50       5.27       2.27       2.76       ----

> <Gold.Chemscore.Fitness>
9.9669

> <Gold.Chemscore.DG>
-14.9952

> <Gold.Chemscore.ZeroCoef>
-5.4800

> <Gold.Chemscore.Hbond>
3.0503

> <Gold.Chemscore.Metal>
0.0000

> <Gold.Chemscore.Lipo>
109.4980

> <Gold.Chemscore.Internal_Hbond>
0.0000

> <Gold.Chemscore.DEClash>
2.2729

> <Gold.Chemscore.DEInternal>
2.7554

> <Gold.Chemscore.Rot>
5.2672

> <Gold.Chemscore.Internal.Correction>
   9.000000E+99

> <Gold.Chemscore.Hbonds>
donor molecule, donor type, donor heavy atom, donor atom, acceptor molecule, acceptor atom, score
      L1  H    27    52       P1  7948  0.77
      P1  H  6896  6908       L1    20  0.68
      P1  H  7997  8008       L1    11  0.36
      P1  H  7997  8010       L1     7  0.02
      P1  H 10752 10763       L1    13  0.37

> <Gold.Chemscore.Hbond.Weighted>
-10.1879

> <Gold.Chemscore.Metal.Weighted>
-0.0000

> <Gold.Chemscore.Lipo.Weighted>
-12.8113

> <Gold.Chemscore.Internal_Hbond.Weighted>
0.0000

> <Gold.Chemscore.DEClash.Weighted>
2.2729

> <Gold.Chemscore.DEInternal.Weighted>
2.7554

> <Gold.Chemscore.Rot.Weighted>
13.4839

> <Gold.Chemscore.Internal.Correction.Weighted>
   9.000000E+99

> <Gold.Protein.RotatedTorsions>
[ 6907 6896 6895 6894 ] final  110.67 input  -60.11 | X-H torsion
[ 7974 7965 7964 7962 ] final  134.23 input  175.53 | X-H torsion
[ 8008 7997 7996 7995 ] final  -15.10 input   59.86 | X-H torsion
[ 10167 10162 10161 10158 ] final  -56.96 input  -65.29 | X-H torsion
[ 10718 10713 10712 10709 ] final -122.15 input   66.30 | X-H torsion
[ 10763 10752 10751 10750 ] final   78.11 input  -60.55 | X-H torsion
[ 11005 11000 10999 10996 ] final  121.33 input  -57.11 | X-H torsion

> <Gold.Protein.ActiveResidues>
 VAL166  LYS551  ARG553  GLY616  TRP617  ASP618  TYR619  PRO620  LYS621  CYS622 
 ASP623  PHE694  ASN695  SER759  ASP760  ASP761  ALA762  ILE779  LEU786  VAL792 
 PHE793  MET794  SER795  GLU796  ALA797  LYS798  CYS799  TRP800  GLU811  SER814 

> <Gold.Protein.RotatedAtoms>
  152.5008  133.8768  159.7325 H   0  0  0  0  0  0  0  0  0  0  0  0  # atno 6907 bound_to 6896
  150.9240  133.6837  159.2832 H   0  0  0  0  0  0  0  0  0  0  0  0  # atno 6908 bound_to 6896
  151.4204  135.1001  159.9664 H   0  0  0  0  0  0  0  0  0  0  0  0  # atno 6909 bound_to 6896
  144.9785  139.4529  143.5398 H   0  0  0  0  0  0  0  0  0  0  0  0  # atno 7974 bound_to 7965
  154.5157  140.2205  155.9070 H   0  0  0  0  0  0  0  0  0  0  0  0  # atno 8008 bound_to 7997
  156.1605  140.3143  155.8764 H   0  0  0  0  0  0  0  0  0  0  0  0  # atno 8009 bound_to 7997
  155.3761  140.0469  157.3035 H   0  0  0  0  0  0  0  0  0  0  0  0  # atno 8010 bound_to 7997
  140.6286  143.2449  151.5299 H   0  0  0  0  0  0  0  0  0  0  0  0  # atno 10167 bound_to 10162
  156.1395  130.6455  150.9748 H   0  0  0  0  0  0  0  0  0  0  0  0  # atno 10718 bound_to 10713
  153.0849  135.4889  154.8576 H   0  0  0  0  0  0  0  0  0  0  0  0  # atno 10763 bound_to 10752
  154.7198  135.3037  154.9068 H   0  0  0  0  0  0  0  0  0  0  0  0  # atno 10764 bound_to 10752
  153.9736  135.6798  153.4801 H   0  0  0  0  0  0  0  0  0  0  0  0  # atno 10765 bound_to 10752
  139.9221  134.9638  156.7941 H   0  0  0  0  0  0  0  0  0  0  0  0  # atno 11005 bound_to 11000
  146.3402  139.9043  142.8790 LP  0  0  0  0  0  0  0  0  0  0  0  0  # atno 17320 bound_to 7965
  145.2455  141.0025  143.3911 LP  0  0  0  0  0  0  0  0  0  0  0  0  # atno 17321 bound_to 7965
  139.5503  144.2413  152.1518 LP  0  0  0  0  0  0  0  0  0  0  0  0  # atno 17342 bound_to 10162
  140.1650  144.4989  150.6611 LP  0  0  0  0  0  0  0  0  0  0  0  0  # atno 17343 bound_to 10162
  157.6562  131.0889  150.7941 LP  0  0  0  0  0  0  0  0  0  0  0  0  # atno 17370 bound_to 10713
  156.8018  130.4923  149.5368 LP  0  0  0  0  0  0  0  0  0  0  0  0  # atno 17371 bound_to 10713
  140.6443  133.9790  155.7723 LP  0  0  0  0  0  0  0  0  0  0  0  0  # atno 17394 bound_to 11000
  141.0750  134.0148  157.3470 LP  0  0  0  0  0  0  0  0  0  0  0  0  # atno 17395 bound_to 11000

$$$$
