#       Name:                AV-unprocessed.smi:2126
#       Creating user name   scv26
#       Creation time:       Fri Mar 27 11:43:15 2020


#       File generated by GOLD software.
#

@<TRIPOS>MOLECULE
AV-unprocessed.smi:2126
    47    49     1
SMALL
NO_CHARGES


@<TRIPOS>ATOM
      1 ****        -4.2073   6.0489  -0.3073 C.3            1 S1                 0.0000
      2 ****        -2.7891   6.0151  -0.3707 O.3            1 S1                 0.0000
      3 ****        -2.1690   4.7843  -0.3589 C.ar           1 S1                 0.0000
      4 ****        -2.8547   3.5464  -0.2991 C.ar           1 S1                 0.0000
      5 ****        -2.1375   2.3346  -0.2946 C.ar           1 S1                 0.0000
      6 ****        -0.7297   2.3248  -0.3462 C.ar           1 S1                 0.0000
      7 ****        -0.1106   1.0933  -0.3383 O.3            1 S1                 0.0000
      8 ****         1.3105   1.0534  -0.3404 C.3            1 S1                 0.0000
      9 ****         1.7632  -0.4130  -0.2949 C.3            1 S1                 0.0000
     10 ****         3.1648  -0.4614  -0.4766 O.3            1 S1                 0.0000
     11 ****         1.3890  -1.1012   1.0331 C.3            1 S1                 0.0000
     12 ****         1.8207  -2.5033   1.0909 N.pl3          1 S1                 0.0000
     13 ****         2.9037  -3.0614   1.6964 C.2            1 S1                 0.0000
     14 ****         2.8598  -4.4023   1.4617 N.pl3          1 S1                 1.0000
     15 ****         1.7329  -4.7047   0.6940 C.ar           1 S1                 0.0000
     16 ****         1.2614  -5.9187   0.2040 C.ar           1 S1                 0.0000
     17 ****         0.0719  -5.8766  -0.5530 C.ar           1 S1                 0.0000
     18 ****        -0.6016  -4.6617  -0.7969 C.ar           1 S1                 0.0000
     19 ****        -0.1155  -3.4368  -0.2940 C.ar           1 S1                 0.0000
     20 ****         1.0609  -3.4879   0.4523 C.ar           1 S1                 0.0000
     21 ****        -0.0439   3.5627  -0.4039 C.ar           1 S1                 0.0000
     22 ****        -0.7612   4.7744  -0.4111 C.ar           1 S1                 0.0000
     23 ****        -4.5443   7.0851  -0.3314 H              1 S1                 0.0000
     24 ****        -4.5749   5.6037   0.6182 H              1 S1                 0.0000
     25 ****        -4.6574   5.5370  -1.1588 H              1 S1                 0.0000
     26 ****        -3.9321   3.4984  -0.2570 H              1 S1                 0.0000
     27 ****        -2.6767   1.3996  -0.2501 H              1 S1                 0.0000
     28 ****         1.6856   1.5248  -1.2507 H              1 S1                 0.0000
     29 ****         1.7141   1.5974   0.5155 H              1 S1                 0.0000
     30 ****         1.3079  -0.9481  -1.1287 H              1 S1                 0.0000
     31 ****         3.3741  -0.0587  -1.3058 H              1 S1                 0.0000
     32 ****         1.8520  -0.5811   1.8729 H              1 S1                 0.0000
     33 ****         0.3122  -1.0674   1.2044 H              1 S1                 0.0000
     34 ****         3.6615  -2.5351   2.2587 H              1 S1                 0.0000
     35 ****         1.7752  -6.8506   0.3892 H              1 S1                 0.0000
     36 ****        -0.3319  -6.7946  -0.9547 H              1 S1                 0.0000
     37 ****        -1.5100  -4.6690  -1.3818 H              1 S1                 0.0000
     38 ****        -0.6370  -2.5105  -0.4858 H              1 S1                 0.0000
     39 ****         1.0334   3.6115  -0.4459 H              1 S1                 0.0000
     40 ****        -0.2227   5.7096  -0.4574 H              1 S1                 0.0000
     41 ****         3.5503  -5.0596   1.8011 H              1 S1                 0.0000
     42 ****        -2.4442   6.5291   0.4147 LP             1 S1                 0.0000
     43 ****        -2.5183   6.4761  -1.2157 LP             1 S1                 0.0000
     44 ****        -0.4218   0.6002  -1.1507 LP             1 S1                 0.0000
     45 ****        -0.4190   0.6121   0.4823 LP             1 S1                 0.0000
     46 ****         3.4723  -1.4130  -0.4766 LP             1 S1                 0.0000
     47 ****         3.6182   0.0352   0.2636 LP             1 S1                 0.0000
@<TRIPOS>BOND
    1    1    2 1     
    2    1   23 1     
    3    1   24 1     
    4    1   25 1     
    5    2    3 1     
    6    3   22 ar    
    7    3    4 ar    
    8    4    5 ar    
    9    4   26 1     
   10    5    6 ar    
   11    5   27 1     
   12    6    7 1     
   13    6   21 ar    
   14    7    8 1     
   15    8    9 1     
   16    8   28 1     
   17    8   29 1     
   18    9   10 1     
   19    9   11 1     
   20    9   30 1     
   21   10   31 1     
   22   11   12 1     
   23   11   32 1     
   24   11   33 1     
   25   12   20 1     
   26   12   13 1     
   27   13   14 2     
   28   13   34 1     
   29   14   15 1     
   30   14   41 1     
   31   15   20 ar    
   32   15   16 ar    
   33   16   17 ar    
   34   16   35 1     
   35   17   18 ar    
   36   17   36 1     
   37   18   19 ar    
   38   18   37 1     
   39   19   20 ar    
   40   19   38 1     
   41   21   22 ar    
   42   21   39 1     
   43   22   40 1     
   44    2   42 1     
   45    2   43 1     
   46    7   44 1     
   47    7   45 1     
   48   10   46 1     
   49   10   47 1     
@<TRIPOS>SUBSTRUCTURE
      1 S1             1
@<TRIPOS>SET
LONE_PAIRS      STATIC     ATOMS    <user>   **** ""
6 42 43 44 45 46 47
DONOR_HYDROGENS      STATIC     ATOMS    <user>   **** ""
2 31 41
ATOM$BLUE        STATIC     ATOMS    COLORGROUP SYSTEM
6 42 43 44 45 46 47
ATOM$RED        STATIC     ATOMS    COLORGROUP SYSTEM
2 31 41
