AV-unprocessed.smi:532|AV-procd|sdf|2853|dock10
  -GOLD-   2262023343D 1   1.00000     0.00000
 Structure written by MMmdl.
 48 50  0  0  0  0  0  0  0  0  2 V2000
  151.2532  137.2999  154.7615 C   0  0  0  0  0  0  0  0  0  0  0  0
  151.4769  136.1399  155.5432 O   0  0  0  0  0  0  0  0  0  0  0  0
  150.7647  136.1686  156.7682 C   0  0  0  0  0  0  0  0  0  0  0  0
  149.2774  136.3982  156.4753 C   0  0  0  0  0  0  0  0  0  0  0  0
  148.5455  136.7623  157.6812 N   0  0  0  0  0  0  0  0  0  0  0  0
  148.0216  137.9735  157.9976 C   0  0  0  0  0  0  0  0  0  0  0  0
  148.1541  139.0659  157.1445 N   0  0  0  0  0  0  0  0  0  0  0  0
  148.6160  140.3749  157.6079 C   0  0  0  0  0  0  0  0  0  0  0  0
  149.4040  141.1724  156.5442 C   0  0  1  0  0  0  0  0  0  0  0  0
  150.8362  140.6532  156.3373 C   0  0  0  0  0  0  0  0  0  0  0  0
  148.6085  141.2592  155.2303 C   0  0  0  0  0  0  0  0  0  0  0  0
  148.1167  139.8723  154.7854 C   0  0  2  0  0  0  0  0  0  0  0  0
  147.2594  139.9620  153.5157 C   0  0  0  0  0  0  0  0  0  0  0  0
  147.3445  139.2037  155.9369 C   0  0  0  0  0  0  0  0  0  0  0  0
  147.3797  138.0208  159.1664 N   0  0  0  0  0  0  0  0  0  0  0  0
  147.5233  136.7256  159.6426 C   0  0  0  0  0  0  0  0  0  0  0  0
  148.2247  135.9514  158.7724 C   0  0  0  0  0  0  0  0  0  0  0  0
  148.5467  134.5291  159.0109 C   0  0  0  0  0  0  0  0  0  0  0  0
  149.1998  133.8815  158.1950 O   0  0  0  0  0  0  0  0  0  0  0  0
  148.0415  134.0801  160.2035 N   0  5  0  0  0  0  0  0  0  0  0  0
  147.3230  134.8268  161.1140 C   0  0  0  0  0  0  0  0  0  0  0  0
  146.9091  134.3366  162.1648 O   0  0  0  0  0  0  0  0  0  0  0  0
  147.0579  136.1476  160.8529 N   0  0  0  0  0  0  0  0  0  0  0  0
  146.3054  137.0103  161.7688 C   0  0  0  0  0  0  0  0  0  0  0  0
  151.8207  137.2325  153.8335 H   0  0  0  0  0  0  0  0  0  0  0  0
  151.5758  138.1986  155.2891 H   0  0  0  0  0  0  0  0  0  0  0  0
  150.1986  137.4040  154.5036 H   0  0  0  0  0  0  0  0  0  0  0  0
  150.9035  135.2306  157.3074 H   0  0  0  0  0  0  0  0  0  0  0  0
  151.1492  136.9677  157.4028 H   0  0  0  0  0  0  0  0  0  0  0  0
  149.1502  137.1842  155.7323 H   0  0  0  0  0  0  0  0  0  0  0  0
  148.8282  135.5098  156.0330 H   0  0  0  0  0  0  0  0  0  0  0  0
  147.7408  140.9481  157.9164 H   0  0  0  0  0  0  0  0  0  0  0  0
  149.2245  140.2474  158.5039 H   0  0  0  0  0  0  0  0  0  0  0  0
  149.5099  142.1894  156.9237 H   0  0  0  0  0  0  0  0  0  0  0  0
  150.8512  139.6381  155.9458 H   0  0  0  0  0  0  0  0  0  0  0  0
  151.3937  140.6579  157.2738 H   0  0  0  0  0  0  0  0  0  0  0  0
  151.3809  141.2820  155.6328 H   0  0  0  0  0  0  0  0  0  0  0  0
  147.7475  141.9123  155.3803 H   0  0  0  0  0  0  0  0  0  0  0  0
  149.2110  141.7233  154.4485 H   0  0  0  0  0  0  0  0  0  0  0  0
  148.9829  139.2522  154.5510 H   0  0  0  0  0  0  0  0  0  0  0  0
  146.3621  140.5586  153.6835 H   0  0  0  0  0  0  0  0  0  0  0  0
  146.9445  138.9718  153.1852 H   0  0  0  0  0  0  0  0  0  0  0  0
  147.8163  140.4201  152.6979 H   0  0  0  0  0  0  0  0  0  0  0  0
  147.0072  138.2139  155.6258 H   0  0  0  0  0  0  0  0  0  0  0  0
  146.4469  139.7760  156.1757 H   0  0  0  0  0  0  0  0  0  0  0  0
  145.9648  136.5151  162.6783 H   0  0  0  0  0  0  0  0  0  0  0  0
  145.4225  137.4040  161.2644 H   0  0  0  0  0  0  0  0  0  0  0  0
  146.9232  137.8561  162.0717 H   0  0  0  0  0  0  0  0  0  0  0  0
  1  2  1  0  0  0  0
  1 25  1  0  0  0  0
  1 26  1  0  0  0  0
  1 27  1  0  0  0  0
  2  3  1  0  0  0  0
  3  4  1  0  0  0  0
  3 28  1  0  0  0  0
  3 29  1  0  0  0  0
  4  5  1  0  0  0  0
  4 30  1  0  0  0  0
  4 31  1  0  0  0  0
  5 17  1  0  0  0  0
  5  6  1  0  0  0  0
  6  7  1  0  0  0  0
  6 15  2  0  0  0  0
  7 14  1  0  0  0  0
  7  8  1  0  0  0  0
  8  9  1  0  0  0  0
  8 32  1  0  0  0  0
  8 33  1  0  0  0  0
  9 10  1  0  0  0  0
  9 11  1  0  0  0  0
  9 34  1  0  0  0  0
 10 35  1  0  0  0  0
 10 36  1  0  0  0  0
 10 37  1  0  0  0  0
 11 12  1  0  0  0  0
 11 38  1  0  0  0  0
 11 39  1  0  0  0  0
 12 13  1  0  0  0  0
 12 14  1  0  0  0  0
 12 40  1  0  0  0  0
 13 41  1  0  0  0  0
 13 42  1  0  0  0  0
 13 43  1  0  0  0  0
 14 44  1  0  0  0  0
 14 45  1  0  0  0  0
 15 16  1  0  0  0  0
 16 23  1  0  0  0  0
 16 17  2  0  0  0  0
 17 18  1  0  0  0  0
 18 19  2  0  0  0  0
 18 20  1  0  0  0  0
 20 21  1  0  0  0  0
 21 22  2  0  0  0  0
 21 23  1  0  0  0  0
 23 24  1  0  0  0  0
 24 46  1  0  0  0  0
 24 47  1  0  0  0  0
 24 48  1  0  0  0  0
M  CHG  1  20  -1
M  END
> <s_m_source_file>
AV-unprocessed.smi

> <i_m_source_file_index>
532

> <i_lp_mmshare_version>
43012

> <i_f3d_flags>
0

> <s_epik_input>
W0NIM11uMWMoPU8pW25IXWMoPU8pYyhjMTIpbihbQ0gyXVtDSDJdT1tDSDNdKWMobjIpTjNbQ0gyXVtDQEBIXShbQ0gzXSlbQ0gyXVtDQEBIXShbQ0gzXSlbQ0gyXTM=

> <s_epik_cmdline>
J2VwaWtfcHl0aG9uJywgJy1waCcsICc3LjAnLCAnLXRuJywgJzgnLCAnLW1hJywgJzIwMCcsICctbWV0YWxfYmluZGluZycsICctaW1hZScsICc8aW5maWxlLm1hZT4nLCAnLW9tYWUnLCAnPG91dGZpbGUubWFlPic=

> <r_lp_tautomer_probability>
1

> <r_epik_Ionization_Penalty>
5.12128

> <r_epik_Ionization_Penalty_Charging>
0.0789629

> <r_epik_Ionization_Penalty_Neutral>
5.04232

> <r_epik_State_Penalty>
5.03111

> <r_epik_Charging_Adjusted_Penalty>
5.11007

> <i_epik_Tot_Q>
-1

> <i_epik_Tot_abs_Q>
1

> <r_epik_Metal_State_Penalty>
1.14201

> <b_epik_Metal_Only>
1

> <s_lp_Force_Field>
OPLS_2005

> <r_lp_Energy>
48.0239

> <b_lp_Chiralities_Consistent>
1

> <s_lp_Variant>
AV-unprocessed.smi:532-6

> <Gold.Version>
5.8.1

> <Gold.Id.Protein>
6NUR|6NUR_protein|mol2

> <Gold.PLP.Fitness>
31.0326

> <Gold.PLP.PLP>
-25.5349

> <Gold.PLP.part.hbond>
-3.0000

> <Gold.PLP.part.metal>
0.0000

> <Gold.PLP.part.buried>
-4.5282

> <Gold.PLP.part.nonpolar>
-18.6862

> <Gold.PLP.part.repulsive>
0.0566

> <Gold.PLP.ligand.clash>
0.0000

> <Gold.PLP.ligand.torsion>
1.3054

> <Gold.PLP.Chemscore.Hbond>
2.4176

> <Gold.PLP.Chemscore.CHOScore>
0.0000

> <Gold.PLP.Chemscore.Metal>
0.0000

> <Gold.Chemscore.Hbonds>
donor molecule, donor type, donor heavy atom, donor atom, acceptor molecule, acceptor atom, score
      P1  H  6896  6907       L1    19  0.70
      P1  H  6934  6947       L1    15  0.50
      P1  H 10752 10765       L1     2  1.00

> <Gold.PLP.Chemscore.Internal.Correction>
0.8557

> <Gold.Rescore>
     Score         DG    S(hbond)    S(metal)    S(lipo)     H(rot)  DE(clash)    DE(int)     intcor
     11.12     -12.70       1.51        0.00      49.41       1.41       0.08       1.50       ----

> <Gold.Chemscore.Fitness>
11.1189

> <Gold.Chemscore.DG>
-12.6992

> <Gold.Chemscore.ZeroCoef>
-5.4800

> <Gold.Chemscore.Hbond>
1.5147

> <Gold.Chemscore.Metal>
0.0000

> <Gold.Chemscore.Lipo>
49.4149

> <Gold.Chemscore.Internal_Hbond>
0.0000

> <Gold.Chemscore.DEClash>
0.0845

> <Gold.Chemscore.DEInternal>
1.4958

> <Gold.Chemscore.Rot>
1.4147

> <Gold.Chemscore.Internal.Correction>
   9.000000E+99

> <Gold.Chemscore.Hbonds>
donor molecule, donor type, donor heavy atom, donor atom, acceptor molecule, acceptor atom, score
      P1  H  6896  6907       L1    19  0.07
      P1  H  6934  6947       L1    15  0.14
      P1  H 10752 10765       L1     2  0.55

> <Gold.Chemscore.Hbond.Weighted>
-5.0593

> <Gold.Chemscore.Metal.Weighted>
-0.0000

> <Gold.Chemscore.Lipo.Weighted>
-5.7815

> <Gold.Chemscore.Internal_Hbond.Weighted>
0.0000

> <Gold.Chemscore.DEClash.Weighted>
0.0845

> <Gold.Chemscore.DEInternal.Weighted>
1.4958

> <Gold.Chemscore.Rot.Weighted>
3.6216

> <Gold.Chemscore.Internal.Correction.Weighted>
   9.000000E+99

> <Gold.Protein.RotatedTorsions>
[ 6907 6896 6895 6894 ] final -117.15 input  -60.11 | X-H torsion
[ 7974 7965 7964 7962 ] final  -85.79 input  175.53 | X-H torsion
[ 8008 7997 7996 7995 ] final  126.53 input   59.86 | X-H torsion
[ 10167 10162 10161 10158 ] final  130.60 input  -65.29 | X-H torsion
[ 10718 10713 10712 10709 ] final   -9.23 input   66.30 | X-H torsion
[ 10763 10752 10751 10750 ] final -151.91 input  -60.55 | X-H torsion
[ 11005 11000 10999 10996 ] final   38.73 input  -57.11 | X-H torsion

> <Gold.Protein.ActiveResidues>
 VAL166  LYS551  ARG553  GLY616  TRP617  ASP618  TYR619  PRO620  LYS621  CYS622 
 ASP623  PHE694  ASN695  SER759  ASP760  ASP761  ALA762  ILE779  LEU786  VAL792 
 PHE793  MET794  SER795  GLU796  ALA797  LYS798  CYS799  TRP800  GLU811  SER814 

> <Gold.Protein.RotatedAtoms>
  150.8113  133.8416  159.3180 H   0  0  0  0  0  0  0  0  0  0  0  0  # atno 6907 bound_to 6896
  151.6201  135.1031  160.0109 H   0  0  0  0  0  0  0  0  0  0  0  0  # atno 6908 bound_to 6896
  152.4205  133.7068  159.6513 H   0  0  0  0  0  0  0  0  0  0  0  0  # atno 6909 bound_to 6896
  145.4885  140.9554  143.1825 H   0  0  0  0  0  0  0  0  0  0  0  0  # atno 7974 bound_to 7965
  156.2866  140.2690  156.2127 H   0  0  0  0  0  0  0  0  0  0  0  0  # atno 8008 bound_to 7997
  155.0248  140.0386  157.2469 H   0  0  0  0  0  0  0  0  0  0  0  0  # atno 8009 bound_to 7997
  154.7405  140.2724  155.6383 H   0  0  0  0  0  0  0  0  0  0  0  0  # atno 8010 bound_to 7997
  139.5422  144.6741  151.4587 H   0  0  0  0  0  0  0  0  0  0  0  0  # atno 10167 bound_to 10162
  156.6910  130.5065  149.5943 H   0  0  0  0  0  0  0  0  0  0  0  0  # atno 10718 bound_to 10713
  154.8028  135.3249  154.7507 H   0  0  0  0  0  0  0  0  0  0  0  0  # atno 10763 bound_to 10752
  153.8172  135.6890  153.4836 H   0  0  0  0  0  0  0  0  0  0  0  0  # atno 10764 bound_to 10752
  153.1755  135.4607  154.9903 H   0  0  0  0  0  0  0  0  0  0  0  0  # atno 10765 bound_to 10752
  140.2097  134.3770  155.8055 H   0  0  0  0  0  0  0  0  0  0  0  0  # atno 11005 bound_to 11000
  144.7847  139.6451  143.7139 LP  0  0  0  0  0  0  0  0  0  0  0  0  # atno 17320 bound_to 7965
  146.2298  139.5792  142.9563 LP  0  0  0  0  0  0  0  0  0  0  0  0  # atno 17321 bound_to 7965
  140.6657  143.8403  150.6939 LP  0  0  0  0  0  0  0  0  0  0  0  0  # atno 17342 bound_to 10162
  140.1812  143.4113  152.1932 LP  0  0  0  0  0  0  0  0  0  0  0  0  # atno 17343 bound_to 10162
  156.1797  130.6491  151.0937 LP  0  0  0  0  0  0  0  0  0  0  0  0  # atno 17370 bound_to 10713
  157.7009  131.0776  150.6824 LP  0  0  0  0  0  0  0  0  0  0  0  0  # atno 17371 bound_to 10713
  141.2226  133.7136  156.8397 LP  0  0  0  0  0  0  0  0  0  0  0  0  # atno 17394 bound_to 11000
  140.1964  134.8928  157.3119 LP  0  0  0  0  0  0  0  0  0  0  0  0  # atno 17395 bound_to 11000

$$$$
