AV-unprocessed.smi:1728|AV-procd|sdf|6967|dock4
  -GOLD-   22720 8183D 1   1.00000     0.00000
 Structure written by MMmdl.
 46 47  0  0  0  0  0  0  0  0  1 V2000
  149.1402  144.9952  160.5029 C   0  0  0  0  0  0  0  0  0  0  0  0
  149.7191  144.4281  159.3327 O   0  0  0  0  0  0  0  0  0  0  0  0
  150.8802  143.6893  159.4610 C   0  0  0  0  0  0  0  0  0  0  0  0
  151.5837  143.7906  160.6169 N   0  0  0  0  0  0  0  0  0  0  0  0
  152.7146  143.0674  160.7465 C   0  0  0  0  0  0  0  0  0  0  0  0
  153.1973  142.2073  159.7437 C   0  0  0  0  0  0  0  0  0  0  0  0
  152.4693  142.0995  158.5443 C   0  0  0  0  0  0  0  0  0  0  0  0
  151.2859  142.8625  158.3867 C   0  0  0  0  0  0  0  0  0  0  0  0
  150.4605  142.8280  157.2274 N   0  0  0  0  0  0  0  0  0  0  0  0
  150.2700  141.8320  156.3455 C   0  0  0  0  0  0  0  0  0  0  0  0
  150.8066  140.7253  156.3842 O   0  0  0  0  0  0  0  0  0  0  0  0
  149.4119  142.1987  155.3861 N   0  0  0  0  0  0  0  0  0  0  0  0
  148.9800  141.3418  154.2861 C   0  0  0  0  0  0  0  0  0  0  0  0
  147.4343  141.1732  154.2452 C   0  0  0  0  0  0  0  0  0  0  0  0
  146.8470  142.6021  154.1174 C   0  0  0  0  0  0  0  0  0  0  0  0
  147.0885  140.4165  152.9402 C   0  0  0  0  0  0  0  0  0  0  0  0
  146.9236  140.4917  155.4678 N   0  0  0  0  0  0  0  0  0  0  0  0
  147.6336  139.2607  155.8332 C   0  0  0  0  0  0  0  0  0  0  0  0
  146.9772  138.5472  157.0278 C   0  0  0  0  0  0  0  0  0  0  0  0
  146.9080  139.4336  158.1380 O   0  0  0  0  0  0  0  0  0  0  0  0
  146.1762  140.6170  157.8425 C   0  0  0  0  0  0  0  0  0  0  0  0
  146.8285  141.3471  156.6567 C   0  0  0  0  0  0  0  0  0  0  0  0
  148.2372  145.5404  160.2292 H   0  0  0  0  0  0  0  0  0  0  0  0
  149.8188  145.7008  160.9843 H   0  0  0  0  0  0  0  0  0  0  0  0
  148.8560  144.2242  161.2203 H   0  0  0  0  0  0  0  0  0  0  0  0
  153.2481  143.1735  161.6793 H   0  0  0  0  0  0  0  0  0  0  0  0
  154.1039  141.6398  159.8925 H   0  0  0  0  0  0  0  0  0  0  0  0
  152.8303  141.4268  157.7830 H   0  0  0  0  0  0  0  0  0  0  0  0
  149.9856  143.6945  157.0190 H   0  0  0  0  0  0  0  0  0  0  0  0
  149.0141  143.1261  155.4225 H   0  0  0  0  0  0  0  0  0  0  0  0
  149.3354  141.7685  153.3461 H   0  0  0  0  0  0  0  0  0  0  0  0
  149.4818  140.3771  154.3696 H   0  0  0  0  0  0  0  0  0  0  0  0
  147.3415  143.1696  153.3281 H   0  0  0  0  0  0  0  0  0  0  0  0
  146.9594  143.1687  155.0425 H   0  0  0  0  0  0  0  0  0  0  0  0
  145.7873  142.5925  153.8627 H   0  0  0  0  0  0  0  0  0  0  0  0
  147.4736  140.9456  152.0676 H   0  0  0  0  0  0  0  0  0  0  0  0
  146.0134  140.3146  152.7949 H   0  0  0  0  0  0  0  0  0  0  0  0
  147.5221  139.4170  152.9172 H   0  0  0  0  0  0  0  0  0  0  0  0
  147.6538  138.5607  155.0000 H   0  0  0  0  0  0  0  0  0  0  0  0
  148.6702  139.4844  156.0851 H   0  0  0  0  0  0  0  0  0  0  0  0
  145.9763  138.1989  156.7676 H   0  0  0  0  0  0  0  0  0  0  0  0
  147.5586  137.6692  157.3097 H   0  0  0  0  0  0  0  0  0  0  0  0
  145.1384  140.3665  157.6172 H   0  0  0  0  0  0  0  0  0  0  0  0
  146.1664  141.2592  158.7232 H   0  0  0  0  0  0  0  0  0  0  0  0
  147.8194  141.6883  156.9563 H   0  0  0  0  0  0  0  0  0  0  0  0
  146.2360  142.2367  156.4510 H   0  0  0  0  0  0  0  0  0  0  0  0
  1  2  1  0  0  0  0
  1 23  1  0  0  0  0
  1 24  1  0  0  0  0
  1 25  1  0  0  0  0
  2  3  1  0  0  0  0
  3  8  1  0  0  0  0
  3  4  2  0  0  0  0
  4  5  1  0  0  0  0
  5  6  2  0  0  0  0
  5 26  1  0  0  0  0
  6  7  1  0  0  0  0
  6 27  1  0  0  0  0
  7  8  2  0  0  0  0
  7 28  1  0  0  0  0
  8  9  1  0  0  0  0
  9 10  1  0  0  0  0
  9 29  1  0  0  0  0
 10 11  2  0  0  0  0
 10 12  1  0  0  0  0
 12 13  1  0  0  0  0
 12 30  1  0  0  0  0
 13 14  1  0  0  0  0
 13 31  1  0  0  0  0
 13 32  1  0  0  0  0
 14 15  1  0  0  0  0
 14 16  1  0  0  0  0
 14 17  1  0  0  0  0
 15 33  1  0  0  0  0
 15 34  1  0  0  0  0
 15 35  1  0  0  0  0
 16 36  1  0  0  0  0
 16 37  1  0  0  0  0
 16 38  1  0  0  0  0
 17 22  1  0  0  0  0
 17 18  1  0  0  0  0
 18 19  1  0  0  0  0
 18 39  1  0  0  0  0
 18 40  1  0  0  0  0
 19 20  1  0  0  0  0
 19 41  1  0  0  0  0
 19 42  1  0  0  0  0
 20 21  1  0  0  0  0
 21 22  1  0  0  0  0
 21 43  1  0  0  0  0
 21 44  1  0  0  0  0
 22 45  1  0  0  0  0
 22 46  1  0  0  0  0
M  END
> <s_m_source_file>
AV-unprocessed.smi

> <i_m_source_file_index>
1728

> <i_lp_mmshare_version>
43012

> <i_f3d_flags>
0

> <s_epik_input>
W0NIM11PYzFuW2NIXVtjSF1bY0hdYzFbTkhdQyg9TylbTkhdW0NIMl1DKFtDSDNdKShbQ0gzXSlOMltDSDJdW0NIMl1PW0NIMl1bQ0gyXTI=

> <s_epik_cmdline>
J2VwaWtfcHl0aG9uJywgJy1waCcsICc3LjAnLCAnLXRuJywgJzgnLCAnLW1hJywgJzIwMCcsICctbWV0YWxfYmluZGluZycsICctaW1hZScsICc8aW5maWxlLm1hZT4nLCAnLW9tYWUnLCAnPG91dGZpbGUubWFlPic=

> <r_lp_tautomer_probability>
1

> <r_epik_Ionization_Penalty>
0.266086

> <r_epik_Ionization_Penalty_Charging>
0

> <r_epik_Ionization_Penalty_Neutral>
0.266086

> <r_epik_State_Penalty>
0.257924

> <r_epik_Charging_Adjusted_Penalty>
0.257924

> <i_epik_Tot_Q>
0

> <i_epik_Tot_abs_Q>
0

> <r_epik_Metal_State_Penalty>
0.257921

> <b_epik_Metal_Only>
0

> <s_lp_Force_Field>
OPLS_2005

> <r_lp_Energy>
44.4816

> <b_lp_Chiralities_Consistent>
1

> <s_lp_Variant>
AV-unprocessed.smi:1728-1

> <Gold.Version>
5.8.1

> <Gold.Id.Protein>
6NUR|6NUR_protein|mol2

> <Gold.PLP.Fitness>
40.4333

> <Gold.PLP.PLP>
-36.0106

> <Gold.PLP.part.hbond>
-3.0000

> <Gold.PLP.part.metal>
0.0000

> <Gold.PLP.part.buried>
-5.8316

> <Gold.PLP.part.nonpolar>
-28.2001

> <Gold.PLP.part.repulsive>
0.5791

> <Gold.PLP.ligand.clash>
0.0000

> <Gold.PLP.ligand.torsion>
0.7428

> <Gold.PLP.Chemscore.Hbond>
1.9516

> <Gold.PLP.Chemscore.CHOScore>
0.0000

> <Gold.PLP.Chemscore.Metal>
0.0000

> <Gold.Chemscore.Hbonds>
donor molecule, donor type, donor heavy atom, donor atom, acceptor molecule, acceptor atom, score
      L1  H     9    29       P1  8028  0.94
      L1  H    12    30       P1  8028  1.00

> <Gold.PLP.Chemscore.Internal.Correction>
0.0534

> <Gold.Rescore>
     Score         DG    S(hbond)    S(metal)    S(lipo)     H(rot)  DE(clash)    DE(int)     intcor
     15.70     -16.85       1.92        0.00      79.73       1.70       0.31       0.85       ----

> <Gold.Chemscore.Fitness>
15.6977

> <Gold.Chemscore.DG>
-16.8540

> <Gold.Chemscore.ZeroCoef>
-5.4800

> <Gold.Chemscore.Hbond>
1.9172

> <Gold.Chemscore.Metal>
0.0000

> <Gold.Chemscore.Lipo>
79.7328

> <Gold.Chemscore.Internal_Hbond>
0.0000

> <Gold.Chemscore.DEClash>
0.3065

> <Gold.Chemscore.DEInternal>
0.8498

> <Gold.Chemscore.Rot>
1.7024

> <Gold.Chemscore.Internal.Correction>
   9.000000E+99

> <Gold.Chemscore.Hbonds>
donor molecule, donor type, donor heavy atom, donor atom, acceptor molecule, acceptor atom, score
      L1  H     9    29       P1  8028  0.85
      L1  H    12    30       P1  8028  0.99

> <Gold.Chemscore.Hbond.Weighted>
-6.4035

> <Gold.Chemscore.Metal.Weighted>
-0.0000

> <Gold.Chemscore.Lipo.Weighted>
-9.3287

> <Gold.Chemscore.Internal_Hbond.Weighted>
0.0000

> <Gold.Chemscore.DEClash.Weighted>
0.3065

> <Gold.Chemscore.DEInternal.Weighted>
0.8498

> <Gold.Chemscore.Rot.Weighted>
4.3583

> <Gold.Chemscore.Internal.Correction.Weighted>
   9.000000E+99

> <Gold.Protein.RotatedTorsions>
[ 6907 6896 6895 6894 ] final -111.99 input  -60.11 | X-H torsion
[ 7974 7965 7964 7962 ] final  -51.53 input  175.53 | X-H torsion
[ 8008 7997 7996 7995 ] final -137.52 input   59.86 | X-H torsion
[ 10167 10162 10161 10158 ] final  -27.15 input  -65.29 | X-H torsion
[ 10718 10713 10712 10709 ] final  169.65 input   66.30 | X-H torsion
[ 10763 10752 10751 10750 ] final   59.51 input  -60.55 | X-H torsion
[ 11005 11000 10999 10996 ] final   96.05 input  -57.11 | X-H torsion

> <Gold.Protein.ActiveResidues>
 VAL166  LYS551  ARG553  GLY616  TRP617  ASP618  TYR619  PRO620  LYS621  CYS622 
 ASP623  PHE694  ASN695  SER759  ASP760  ASP761  ALA762  ILE779  LEU786  VAL792 
 PHE793  MET794  SER795  GLU796  ALA797  LYS798  CYS799  TRP800  GLU811  SER814 

> <Gold.Protein.RotatedAtoms>
  150.7727  133.9155  159.3382 H   0  0  0  0  0  0  0  0  0  0  0  0  # atno 6907 bound_to 6896
  151.7037  135.0923  160.0265 H   0  0  0  0  0  0  0  0  0  0  0  0  # atno 6908 bound_to 6896
  152.3752  133.6433  159.6153 H   0  0  0  0  0  0  0  0  0  0  0  0  # atno 6909 bound_to 6896
  145.9179  140.7859  142.9662 H   0  0  0  0  0  0  0  0  0  0  0  0  # atno 7974 bound_to 7965
  155.4131  140.0513  157.3030 H   0  0  0  0  0  0  0  0  0  0  0  0  # atno 8008 bound_to 7997
  154.4937  140.2130  155.9453 H   0  0  0  0  0  0  0  0  0  0  0  0  # atno 8009 bound_to 7997
  156.1376  140.3160  155.8451 H   0  0  0  0  0  0  0  0  0  0  0  0  # atno 8010 bound_to 7997
  140.7279  143.4118  151.1093 H   0  0  0  0  0  0  0  0  0  0  0  0  # atno 10167 bound_to 10162
  157.0196  131.0228  151.2779 H   0  0  0  0  0  0  0  0  0  0  0  0  # atno 10718 bound_to 10713
  152.9896  135.5569  154.5724 H   0  0  0  0  0  0  0  0  0  0  0  0  # atno 10763 bound_to 10752
  154.5122  135.2803  155.1335 H   0  0  0  0  0  0  0  0  0  0  0  0  # atno 10764 bound_to 10752
  154.2722  135.6361  153.5367 H   0  0  0  0  0  0  0  0  0  0  0  0  # atno 10765 bound_to 10752
  139.8784  134.8931  156.4102 H   0  0  0  0  0  0  0  0  0  0  0  0  # atno 11005 bound_to 11000
  144.6750  140.1929  143.7395 LP  0  0  0  0  0  0  0  0  0  0  0  0  # atno 17320 bound_to 7965
  145.8588  139.2212  143.1729 LP  0  0  0  0  0  0  0  0  0  0  0  0  # atno 17321 bound_to 7965
  139.7752  143.8436  152.3128 LP  0  0  0  0  0  0  0  0  0  0  0  0  # atno 17342 bound_to 10162
  139.8368  144.7228  150.9381 LP  0  0  0  0  0  0  0  0  0  0  0  0  # atno 17343 bound_to 10162
  157.5260  130.8028  149.7862 LP  0  0  0  0  0  0  0  0  0  0  0  0  # atno 17370 bound_to 10713
  156.0107  130.3834  150.2275 LP  0  0  0  0  0  0  0  0  0  0  0  0  # atno 17371 bound_to 10713
  140.9206  133.7648  155.9901 LP  0  0  0  0  0  0  0  0  0  0  0  0  # atno 17394 bound_to 11000
  140.8444  134.3028  157.5300 LP  0  0  0  0  0  0  0  0  0  0  0  0  # atno 17395 bound_to 11000

$$$$
