AV-unprocessed.smi:72|AV-procd|sdf|736|dock3
  -GOLD-   2262017 63D 1   1.00000     0.00000
 Structure written by MMmdl.
 28 29  0  0  0  0  0  0  0  0  2 V2000
  148.6922  136.7274  160.8015 N   0  0  0  0  0  0  0  0  0  0  0  0
  148.8230  136.7668  159.5479 C   0  0  0  0  0  0  0  0  0  0  0  0
  148.5843  138.0018  158.8344 N   0  0  0  0  0  0  0  0  0  0  0  0
  148.7603  138.0021  157.5487 C   0  0  0  0  0  0  0  0  0  0  0  0
  149.2074  136.8137  156.8297 N   0  0  0  0  0  0  0  0  0  0  0  0
  149.4066  136.7938  155.3205 C   0  0  1  0  0  0  0  0  0  0  0  0
  148.2623  137.2666  154.6708 O   0  0  0  0  0  0  0  0  0  0  0  0
  148.4398  138.6381  154.3495 C   0  0  2  0  0  0  0  0  0  0  0  0
  147.4191  139.0916  153.2902 C   0  0  0  0  0  0  0  0  0  0  0  0
  147.6247  138.4617  152.0425 O   0  0  0  0  0  0  0  0  0  0  0  0
  149.9224  138.7537  153.9890 C   0  0  1  0  0  0  0  0  0  0  0  0
  150.3974  140.0515  154.2874 O   0  0  0  0  0  0  0  0  0  0  0  0
  150.5784  137.7153  154.8989 C   0  0  2  0  0  0  0  0  0  0  0  0
  151.5680  137.0009  154.1868 O   0  0  0  0  0  0  0  0  0  0  0  0
  149.3816  135.6023  157.5534 C   0  0  0  0  0  0  0  0  0  0  0  0
  149.6975  134.5917  156.9249 O   0  0  0  0  0  0  0  0  0  0  0  0
  149.1908  135.6079  158.9021 N   0  5  0  0  0  0  0  0  0  0  0  0
  149.5501  135.7396  155.0761 H   0  0  0  0  0  0  0  0  0  0  0  0
  148.2520  139.2040  155.2636 H   0  0  0  0  0  0  0  0  0  0  0  0
  150.0983  138.5152  152.9395 H   0  0  0  0  0  0  0  0  0  0  0  0
  151.0231  138.1825  155.7791 H   0  0  0  0  0  0  0  0  0  0  0  0
  148.8820  135.8134  161.1857 H   0  0  0  0  0  0  0  0  0  0  0  0
  148.5809  138.8875  156.9397 H   0  0  0  0  0  0  0  0  0  0  0  0
  146.4022  138.8988  153.6330 H   0  0  0  0  0  0  0  0  0  0  0  0
  147.5053  140.1676  153.1377 H   0  0  0  0  0  0  0  0  0  0  0  0
  148.2564  137.7684  152.1565 H   0  0  0  0  0  0  0  0  0  0  0  0
  149.6566  140.6376  154.3183 H   0  0  0  0  0  0  0  0  0  0  0  0
  151.2540  136.8627  153.3057 H   0  0  0  0  0  0  0  0  0  0  0  0
  1  2  2  0  0  0  0
  1 22  1  0  0  0  0
  2 17  1  0  0  0  0
  2  3  1  0  0  0  0
  3  4  2  0  0  0  0
  4  5  1  0  0  0  0
  4 23  1  0  0  0  0
  5  6  1  0  0  0  0
  5 15  1  0  0  0  0
  6 18  1  0  0  0  0
  6 13  1  0  0  0  0
  6  7  1  0  0  0  0
  7  8  1  0  0  0  0
  8 19  1  0  0  0  0
  8  9  1  0  0  0  0
  8 11  1  0  0  0  0
  9 10  1  0  0  0  0
  9 24  1  0  0  0  0
  9 25  1  0  0  0  0
 10 26  1  0  0  0  0
 11 20  1  0  0  0  0
 11 12  1  0  0  0  0
 11 13  1  0  0  0  0
 12 27  1  0  0  0  0
 13 21  1  0  0  0  0
 13 14  1  0  0  0  0
 14 28  1  0  0  0  0
 15 16  2  0  0  0  0
 15 17  1  0  0  0  0
M  CHG  1  17  -1
M  END
> <s_m_source_file>
AV-unprocessed.smi

> <i_m_source_file_index>
72

> <i_lp_mmshare_version>
43012

> <i_f3d_flags>
0

> <s_epik_input>
W05IMl1jMW5bY0hdbihjKD1PKW4xKVtDQEBIXTJPW0NASF0oW0NIMl1bT0hdKVtDQEBIXShbT0hdKVtDQEhdMltPSF0=

> <s_epik_cmdline>
J2VwaWtfcHl0aG9uJywgJy1waCcsICc3LjAnLCAnLXRuJywgJzgnLCAnLW1hJywgJzIwMCcsICctbWV0YWxfYmluZGluZycsICctaW1hZScsICc8aW5maWxlLm1hZT4nLCAnLW9tYWUnLCAnPG91dGZpbGUubWFlPic=

> <r_lp_tautomer_probability>
7.17554e-07

> <r_epik_Ionization_Penalty>
12.8705

> <r_epik_Ionization_Penalty_Charging>
5.64144

> <r_epik_Ionization_Penalty_Neutral>
7.22905

> <r_epik_State_Penalty>
3.30104

> <r_epik_Charging_Adjusted_Penalty>
8.94249

> <i_epik_Tot_Q>
-1

> <i_epik_Tot_abs_Q>
1

> <r_epik_Metal_State_Penalty>
0.529074

> <b_epik_Metal_Only>
1

> <s_epik_Chemistry_Notes>
This compound contains an acetal/aminal-like group ( X-CH(R)-Y where X, Y are N, S, or O) that may be acid/base labile, releasing an aldehyde.

> <s_lp_Force_Field>
OPLS_2005

> <r_lp_Energy>
32.432

> <b_lp_Chiralities_Consistent>
1

> <s_lp_Variant>
AV-unprocessed.smi:72-74

> <Gold.Version>
5.8.1

> <Gold.Id.Protein>
6NUR|6NUR_protein|mol2

> <Gold.PLP.Fitness>
43.1062

> <Gold.PLP.PLP>
-22.3722

> <Gold.PLP.part.hbond>
-8.8143

> <Gold.PLP.part.metal>
0.0000

> <Gold.PLP.part.buried>
-4.0759

> <Gold.PLP.part.nonpolar>
-10.5986

> <Gold.PLP.part.repulsive>
0.3131

> <Gold.PLP.ligand.clash>
0.0000

> <Gold.PLP.ligand.torsion>
0.0829

> <Gold.PLP.Chemscore.Hbond>
6.9600

> <Gold.PLP.Chemscore.CHOScore>
0.0000

> <Gold.PLP.Chemscore.Metal>
0.0000

> <Gold.Chemscore.Hbonds>
donor molecule, donor type, donor heavy atom, donor atom, acceptor molecule, acceptor atom, score
      L1  H    10    26       P1  7948  1.00
      L1  H    14    28       P1  7949  1.00
      P1  H  6896  6907       L1    17  2.00
      P1  H  6931  6943       L1     1  0.99
      P1  H  7989  7998       L1    12  1.00
      P1  H 10752 10763       L1    14  1.00

> <Gold.PLP.Chemscore.Internal.Correction>
0.0198

> <Gold.Rescore>
     Score         DG    S(hbond)    S(metal)    S(lipo)     H(rot)  DE(clash)    DE(int)     intcor
     13.93     -14.27       4.85        0.00      25.06       4.04       0.25       0.09       ----

> <Gold.Chemscore.Fitness>
13.9296

> <Gold.Chemscore.DG>
-14.2712

> <Gold.Chemscore.ZeroCoef>
-5.4800

> <Gold.Chemscore.Hbond>
4.8510

> <Gold.Chemscore.Metal>
0.0000

> <Gold.Chemscore.Lipo>
25.0594

> <Gold.Chemscore.Internal_Hbond>
0.0000

> <Gold.Chemscore.DEClash>
0.2485

> <Gold.Chemscore.DEInternal>
0.0931

> <Gold.Chemscore.Rot>
4.0403

> <Gold.Chemscore.Internal.Correction>
   9.000000E+99

> <Gold.Chemscore.Hbonds>
donor molecule, donor type, donor heavy atom, donor atom, acceptor molecule, acceptor atom, score
      L1  H    10    26       P1  7948  0.98
      L1  H    14    28       P1  7949  0.56
      P1  H  6896  6907       L1    17  0.34
      P1  H  6931  6943       L1     1  0.89
      P1  H  7989  7998       L1    12  0.54
      P1  H 10752 10763       L1    14  0.49

> <Gold.Chemscore.Hbond.Weighted>
-16.2023

> <Gold.Chemscore.Metal.Weighted>
-0.0000

> <Gold.Chemscore.Lipo.Weighted>
-2.9320

> <Gold.Chemscore.Internal_Hbond.Weighted>
0.0000

> <Gold.Chemscore.DEClash.Weighted>
0.2485

> <Gold.Chemscore.DEInternal.Weighted>
0.0931

> <Gold.Chemscore.Rot.Weighted>
10.3431

> <Gold.Chemscore.Internal.Correction.Weighted>
   9.000000E+99

> <Gold.Protein.RotatedTorsions>
[ 6907 6896 6895 6894 ] final  -76.95 input  -60.11 | X-H torsion
[ 7974 7965 7964 7962 ] final  -67.47 input  175.53 | X-H torsion
[ 8008 7997 7996 7995 ] final   78.51 input   59.86 | X-H torsion
[ 10167 10162 10161 10158 ] final -104.00 input  -65.29 | X-H torsion
[ 10718 10713 10712 10709 ] final  113.00 input   66.30 | X-H torsion
[ 10763 10752 10751 10750 ] final   52.05 input  -60.55 | X-H torsion
[ 11005 11000 10999 10996 ] final   72.61 input  -57.11 | X-H torsion

> <Gold.Protein.ActiveResidues>
 VAL166  LYS551  ARG553  GLY616  TRP617  ASP618  TYR619  PRO620  LYS621  CYS622 
 ASP623  PHE694  ASN695  SER759  ASP760  ASP761  ALA762  ILE779  LEU786  VAL792 
 PHE793  MET794  SER795  GLU796  ALA797  LYS798  CYS799  TRP800  GLU811  SER814 

> <Gold.Protein.RotatedAtoms>
  150.7012  134.4496  159.5329 H   0  0  0  0  0  0  0  0  0  0  0  0  # atno 6907 bound_to 6896
  152.2191  134.8427  160.0497 H   0  0  0  0  0  0  0  0  0  0  0  0  # atno 6908 bound_to 6896
  151.9285  133.3569  159.3959 H   0  0  0  0  0  0  0  0  0  0  0  0  # atno 6909 bound_to 6896
  145.7288  140.9006  143.0591 H   0  0  0  0  0  0  0  0  0  0  0  0  # atno 7974 bound_to 7965
  155.8567  140.3455  155.5729 H   0  0  0  0  0  0  0  0  0  0  0  0  # atno 8008 bound_to 7997
  155.7978  140.0881  157.1993 H   0  0  0  0  0  0  0  0  0  0  0  0  # atno 8009 bound_to 7997
  154.4010  140.1471  156.3226 H   0  0  0  0  0  0  0  0  0  0  0  0  # atno 8010 bound_to 7997
  140.2139  143.3726  152.1027 H   0  0  0  0  0  0  0  0  0  0  0  0  # atno 10167 bound_to 10162
  157.6362  131.0977  150.6977 H   0  0  0  0  0  0  0  0  0  0  0  0  # atno 10718 bound_to 10713
  152.9787  135.5825  154.4515 H   0  0  0  0  0  0  0  0  0  0  0  0  # atno 10763 bound_to 10752
  154.4103  135.2770  155.2043 H   0  0  0  0  0  0  0  0  0  0  0  0  # atno 10764 bound_to 10752
  154.3835  135.6141  153.5858 H   0  0  0  0  0  0  0  0  0  0  0  0  # atno 10765 bound_to 10752
  139.9482  134.7275  156.0928 H   0  0  0  0  0  0  0  0  0  0  0  0  # atno 11005 bound_to 11000
  144.6898  139.9303  143.7471 LP  0  0  0  0  0  0  0  0  0  0  0  0  # atno 17320 bound_to 7965
  146.0557  139.3554  143.0612 LP  0  0  0  0  0  0  0  0  0  0  0  0  # atno 17321 bound_to 7965
  139.5169  144.6984  151.5563 LP  0  0  0  0  0  0  0  0  0  0  0  0  # atno 17342 bound_to 10162
  140.6303  143.9088  150.6600 LP  0  0  0  0  0  0  0  0  0  0  0  0  # atno 17343 bound_to 10162
  156.7308  130.4709  149.5500 LP  0  0  0  0  0  0  0  0  0  0  0  0  # atno 17370 bound_to 10713
  156.1603  130.6369  151.0710 LP  0  0  0  0  0  0  0  0  0  0  0  0  # atno 17371 bound_to 10713
  141.1138  133.6634  156.3043 LP  0  0  0  0  0  0  0  0  0  0  0  0  # atno 17394 bound_to 11000
  140.5783  134.5771  157.5474 LP  0  0  0  0  0  0  0  0  0  0  0  0  # atno 17395 bound_to 11000

$$$$
