#       Name:                AV-unprocessed.smi:1047
#       Creating user name   scv26
#       Creation time:       Fri Mar 27 03:03:36 2020


#       File generated by GOLD software.
#

@<TRIPOS>MOLECULE
AV-unprocessed.smi:1047
    62    64     1
SMALL
NO_CHARGES


@<TRIPOS>ATOM
      1 ****        -4.8262   2.0180  -2.8876 C.3            1 S1                 0.0000
      2 ****        -3.8320   2.5961  -1.8706 C.3            1 S1                 0.0000
      3 ****        -3.9664   1.9778  -0.5281 N.4            1 S1                 1.0000
      4 ****        -3.3541   2.8059   0.5380 C.3            1 S1                 0.0000
      5 ****        -3.5803   2.1634   1.9165 C.3            1 S1                 0.0000
      6 ****        -3.0454   0.8460   1.9273 O.3            1 S1                 0.0000
      7 ****        -3.6589   0.0052   0.9553 C.3            1 S1                 0.0000
      8 ****        -3.1185  -1.4249   1.1230 C.3            1 S1                 0.0000
      9 ****        -1.6824  -1.4947   0.8707 N.3            1 S1                 0.0000
     10 ****        -1.1197  -2.8309   1.0497 C.3            1 S1                 0.0000
     11 ****         0.4066  -2.8439   0.8489 C.3            1 S1                 0.0000
     12 ****         1.0212  -2.1505   1.9181 O.3            1 S1                 0.0000
     13 ****         0.8675  -2.2993  -0.5195 C.3            1 S1                 0.0000
     14 ****         2.3085  -2.3666  -0.6813 N.pl3          1 S1                 0.0000
     15 ****         3.0295  -3.4234  -1.1019 C.2            1 S1                 0.0000
     16 ****         4.3490  -3.2715  -1.1697 N.2            1 S1                 0.0000
     17 ****         4.5018  -1.9626  -0.7453 C.ar           1 S1                 0.0000
     18 ****         5.6663  -1.1804  -0.5834 C.ar           1 S1                 0.0000
     19 ****         5.5854   0.1545  -0.1266 C.ar           1 S1                 0.0000
     20 ****         6.8635   0.9582   0.0367 C.3            1 S1                 0.0000
     21 ****         4.3234   0.7271   0.1745 C.ar           1 S1                 0.0000
     22 ****         4.2113   2.1599   0.6644 C.3            1 S1                 0.0000
     23 ****         3.1504  -0.0408   0.0200 C.ar           1 S1                 0.0000
     24 ****         3.2442  -1.3680  -0.4343 C.ar           1 S1                 0.0000
     25 ****        -3.4519   0.5878  -0.4594 C.3            1 S1                 0.0000
     26 ****        -4.7655   2.5597  -3.8319 H              1 S1                 0.0000
     27 ****        -5.8521   2.0989  -2.5270 H              1 S1                 0.0000
     28 ****        -4.6257   0.9693  -3.1050 H              1 S1                 0.0000
     29 ****        -2.8077   2.4921  -2.2317 H              1 S1                 0.0000
     30 ****        -4.0237   3.6670  -1.7890 H              1 S1                 0.0000
     31 ****        -2.2853   2.9173   0.3474 H              1 S1                 0.0000
     32 ****        -3.7884   3.8063   0.5272 H              1 S1                 0.0000
     33 ****        -3.0850   2.7503   2.6901 H              1 S1                 0.0000
     34 ****        -4.6422   2.1405   2.1663 H              1 S1                 0.0000
     35 ****        -4.7297  -0.0276   1.1643 H              1 S1                 0.0000
     36 ****        -3.3352  -1.7732   2.1337 H              1 S1                 0.0000
     37 ****        -3.6469  -2.0952   0.4441 H              1 S1                 0.0000
     38 ****        -1.1975  -0.8440   1.4815 H              1 S1                 0.0000
     39 ****        -1.3573  -3.2091   2.0449 H              1 S1                 0.0000
     40 ****        -1.5816  -3.5190   0.3408 H              1 S1                 0.0000
     41 ****         0.7378  -3.8800   0.9289 H              1 S1                 0.0000
     42 ****         1.9588  -2.2229   1.8222 H              1 S1                 0.0000
     43 ****         0.4038  -2.8692  -1.3256 H              1 S1                 0.0000
     44 ****         0.5569  -1.2627  -0.6536 H              1 S1                 0.0000
     45 ****         2.5590  -4.3582  -1.3696 H              1 S1                 0.0000
     46 ****         6.6273  -1.6171  -0.8127 H              1 S1                 0.0000
     47 ****         6.8468   1.8377  -0.6073 H              1 S1                 0.0000
     48 ****         7.7418   0.3680  -0.2262 H              1 S1                 0.0000
     49 ****         6.9792   1.2866   1.0697 H              1 S1                 0.0000
     50 ****         3.1719   2.4425   0.8341 H              1 S1                 0.0000
     51 ****         4.6288   2.8486  -0.0704 H              1 S1                 0.0000
     52 ****         4.7499   2.2859   1.6038 H              1 S1                 0.0000
     53 ****         2.1833   0.3811   0.2501 H              1 S1                 0.0000
     54 ****        -3.9641  -0.0428  -1.1854 H              1 S1                 0.0000
     55 ****        -2.3937   0.5862  -0.7252 H              1 S1                 0.0000
     56 ****        -4.9551   1.9391  -0.3246 H              1 S1                 0.0000
     57 ****        -3.1892   0.4481   2.8334 LP             1 S1                 0.0000
     58 ****        -2.0650   0.8955   1.7368 LP             1 S1                 0.0000
     59 ****        -1.5525  -1.2522  -0.0907 LP             1 S1                 0.0000
     60 ****         0.7388  -2.5538   2.7885 LP             1 S1                 0.0000
     61 ****         0.7529  -1.1874   1.8944 LP             1 S1                 0.0000
     62 ****         5.0469  -3.9294  -1.4527 LP             1 S1                 0.0000
@<TRIPOS>BOND
    1    1    2 1     
    2    1   26 1     
    3    1   27 1     
    4    1   28 1     
    5    2    3 1     
    6    2   29 1     
    7    2   30 1     
    8    3   25 1     
    9    3    4 1     
   10    3   56 1     
   11    4    5 1     
   12    4   31 1     
   13    4   32 1     
   14    5    6 1     
   15    5   33 1     
   16    5   34 1     
   17    6    7 1     
   18    7    8 1     
   19    7   25 1     
   20    7   35 1     
   21    8    9 1     
   22    8   36 1     
   23    8   37 1     
   24    9   10 1     
   25    9   38 1     
   26   10   11 1     
   27   10   39 1     
   28   10   40 1     
   29   11   12 1     
   30   11   13 1     
   31   11   41 1     
   32   12   42 1     
   33   13   14 1     
   34   13   43 1     
   35   13   44 1     
   36   14   24 1     
   37   14   15 1     
   38   15   16 2     
   39   15   45 1     
   40   16   17 1     
   41   17   24 ar    
   42   17   18 ar    
   43   18   19 ar    
   44   18   46 1     
   45   19   20 1     
   46   19   21 ar    
   47   20   47 1     
   48   20   48 1     
   49   20   49 1     
   50   21   22 1     
   51   21   23 ar    
   52   22   50 1     
   53   22   51 1     
   54   22   52 1     
   55   23   24 ar    
   56   23   53 1     
   57   25   54 1     
   58   25   55 1     
   59    6   57 1     
   60    6   58 1     
   61    9   59 1     
   62   12   60 1     
   63   12   61 1     
   64   16   62 1     
@<TRIPOS>SUBSTRUCTURE
      1 S1             1
@<TRIPOS>SET
LONE_PAIRS      STATIC     ATOMS    <user>   **** ""
6 57 58 59 60 61 62
DONOR_HYDROGENS      STATIC     ATOMS    <user>   **** ""
3 56 38 42
ATOM$BLUE        STATIC     ATOMS    COLORGROUP SYSTEM
6 57 58 59 60 61 62
ATOM$RED        STATIC     ATOMS    COLORGROUP SYSTEM
3 56 38 42
