AV-unprocessed.smi:1511|AV-procd|sdf|6099|dock5
  -GOLD-   22720 6233D 1   1.00000     0.00000
 Structure written by MMmdl.
 32 33  0  0  0  0  0  0  0  0  1 V2000
  144.3758  136.0098  152.1459 O   0  0  0  0  0  0  0  0  0  0  0  0
  145.5956  135.8517  152.1893 C   0  0  0  0  0  0  0  0  0  0  0  0
  146.1860  134.4441  152.1275 C   0  0  0  0  0  0  0  0  0  0  0  0
  145.5327  133.6690  151.0874 N   0  0  0  0  0  0  0  0  0  0  0  0
  145.8836  132.4286  150.5963 C   0  0  0  0  0  0  0  0  0  0  0  0
  144.9943  132.1159  149.6086 C   0  0  0  0  0  0  0  0  0  0  0  0
  144.1248  133.2415  149.5676 C   0  0  0  0  0  0  0  0  0  0  0  0
  144.4494  134.1698  150.4532 N   0  0  0  0  0  0  0  0  0  0  0  0
  146.4732  136.8571  152.3319 N   0  0  0  0  0  0  0  0  0  0  0  0
  146.1292  138.2505  152.5926 C   0  0  0  0  0  0  0  0  0  0  0  0
  147.3823  139.0694  152.9577 C   0  0  1  0  0  0  0  0  0  0  0  0
  147.0733  140.5652  153.1610 C   0  0  0  0  0  0  0  0  0  0  0  0
  148.3091  141.2439  153.7617 C   0  0  0  0  0  0  0  0  0  0  0  0
  149.0955  139.9842  154.8344 S   0  0  0  0  0  0  0  0  0  0  0  0
  150.4989  139.8188  154.4268 O   0  0  0  0  0  0  0  0  0  0  0  0
  148.7395  140.2407  156.2381 O   0  0  0  0  0  0  0  0  0  0  0  0
  148.1092  138.5688  154.2186 C   0  0  0  0  0  0  0  0  0  0  0  0
  147.2541  134.4939  151.9116 H   0  0  0  0  0  0  0  0  0  0  0  0
  146.0727  133.9406  153.0891 H   0  0  0  0  0  0  0  0  0  0  0  0
  146.7313  131.8820  150.9829 H   0  0  0  0  0  0  0  0  0  0  0  0
  144.9699  131.2204  149.0057 H   0  0  0  0  0  0  0  0  0  0  0  0
  143.2743  133.4111  148.9237 H   0  0  0  0  0  0  0  0  0  0  0  0
  147.4551  136.6214  152.3520 H   0  0  0  0  0  0  0  0  0  0  0  0
  145.6721  138.6591  151.6910 H   0  0  0  0  0  0  0  0  0  0  0  0
  145.3773  138.3326  153.3793 H   0  0  0  0  0  0  0  0  0  0  0  0
  148.0887  138.9986  152.1288 H   0  0  0  0  0  0  0  0  0  0  0  0
  146.7685  141.0456  152.2309 H   0  0  0  0  0  0  0  0  0  0  0  0
  146.2417  140.6674  153.8597 H   0  0  0  0  0  0  0  0  0  0  0  0
  149.0208  141.5136  152.9810 H   0  0  0  0  0  0  0  0  0  0  0  0
  148.0688  142.1364  154.3395 H   0  0  0  0  0  0  0  0  0  0  0  0
  147.3976  138.2941  154.9980 H   0  0  0  0  0  0  0  0  0  0  0  0
  148.7590  137.7143  154.0266 H   0  0  0  0  0  0  0  0  0  0  0  0
  1  2  2  0  0  0  0
  2  3  1  0  0  0  0
  2  9  1  0  0  0  0
  3  4  1  0  0  0  0
  3 18  1  0  0  0  0
  3 19  1  0  0  0  0
  4  8  1  0  0  0  0
  4  5  1  0  0  0  0
  5  6  2  0  0  0  0
  5 20  1  0  0  0  0
  6  7  1  0  0  0  0
  6 21  1  0  0  0  0
  7  8  2  0  0  0  0
  7 22  1  0  0  0  0
  9 10  1  0  0  0  0
  9 23  1  0  0  0  0
 10 11  1  0  0  0  0
 10 24  1  0  0  0  0
 10 25  1  0  0  0  0
 11 17  1  0  0  0  0
 11 12  1  0  0  0  0
 11 26  1  0  0  0  0
 12 13  1  0  0  0  0
 12 27  1  0  0  0  0
 12 28  1  0  0  0  0
 13 14  1  0  0  0  0
 13 29  1  0  0  0  0
 13 30  1  0  0  0  0
 14 15  2  0  0  0  0
 14 16  2  0  0  0  0
 14 17  1  0  0  0  0
 17 31  1  0  0  0  0
 17 32  1  0  0  0  0
M  END
> <s_m_source_file>
AV-unprocessed.smi

> <i_m_source_file_index>
1511

> <i_lp_mmshare_version>
43012

> <i_f3d_flags>
0

> <s_epik_input>
bjFbY0hdW2NIXVtjSF1uMVtDSDJdQyg9TylbTkhdW0NIMl1bQ0BASF0oW0NIMl0yKVtDSDJdW0NIMl1TMig9Tyk9Tw==

> <s_epik_cmdline>
J2VwaWtfcHl0aG9uJywgJy1waCcsICc3LjAnLCAnLXRuJywgJzgnLCAnLW1hJywgJzIwMCcsICctbWV0YWxfYmluZGluZycsICctaW1hZScsICc8aW5maWxlLm1hZT4nLCAnLW9tYWUnLCAnPG91dGZpbGUubWFlPic=

> <r_lp_tautomer_probability>
1

> <r_epik_Ionization_Penalty>
1.34373e-05

> <r_epik_Ionization_Penalty_Charging>
0

> <r_epik_Ionization_Penalty_Neutral>
1.34373e-05

> <r_epik_State_Penalty>
-0

> <r_epik_Charging_Adjusted_Penalty>
0

> <i_epik_Tot_Q>
0

> <i_epik_Tot_abs_Q>
0

> <r_epik_Metal_State_Penalty>
-0

> <b_epik_Metal_Only>
0

> <s_lp_Force_Field>
OPLS_2005

> <r_lp_Energy>
3.15153

> <b_lp_Chiralities_Consistent>
1

> <s_lp_Variant>
AV-unprocessed.smi:1511-2

> <Gold.Version>
5.8.1

> <Gold.Id.Protein>
6NUR|6NUR_protein|mol2

> <Gold.PLP.Fitness>
40.5787

> <Gold.PLP.PLP>
-29.2458

> <Gold.PLP.part.hbond>
-2.0000

> <Gold.PLP.part.metal>
0.0000

> <Gold.PLP.part.buried>
-2.6906

> <Gold.PLP.part.nonpolar>
-25.4684

> <Gold.PLP.part.repulsive>
0.5076

> <Gold.PLP.ligand.clash>
0.0000

> <Gold.PLP.ligand.torsion>
0.3378

> <Gold.PLP.Chemscore.Hbond>
2.0000

> <Gold.PLP.Chemscore.CHOScore>
2.0000

> <Gold.PLP.Chemscore.Metal>
0.0000

> <Gold.Chemscore.Hbonds>
donor molecule, donor type, donor heavy atom, donor atom, acceptor molecule, acceptor atom, score
      L1  H     9    23       P1  7948  1.00
      P1  H  7989  7998       L1    15  1.00
      L1  C     5    20       P1 10747  0.91
      L1  C     7    22       P1 10186  0.91

> <Gold.PLP.Chemscore.Internal.Correction>
0.0085

> <Gold.Rescore>
     Score         DG    S(hbond)    S(metal)    S(lipo)     H(rot)  DE(clash)    DE(int)     intcor
     13.54     -15.65       1.99        0.00      69.74       1.82       0.11       2.00       ----

> <Gold.Chemscore.Fitness>
13.5362

> <Gold.Chemscore.DG>
-15.6451

> <Gold.Chemscore.ZeroCoef>
-5.4800

> <Gold.Chemscore.Hbond>
1.9939

> <Gold.Chemscore.Metal>
0.0000

> <Gold.Chemscore.Lipo>
69.7359

> <Gold.Chemscore.Internal_Hbond>
0.0000

> <Gold.Chemscore.DEClash>
0.1054

> <Gold.Chemscore.DEInternal>
2.0035

> <Gold.Chemscore.Rot>
1.8178

> <Gold.Chemscore.Internal.Correction>
   9.000000E+99

> <Gold.Chemscore.Hbonds>
donor molecule, donor type, donor heavy atom, donor atom, acceptor molecule, acceptor atom, score
      L1  H     9    23       P1  7948  0.98
      P1  H  7989  7998       L1    15  1.00

> <Gold.Chemscore.Hbond.Weighted>
-6.6597

> <Gold.Chemscore.Metal.Weighted>
-0.0000

> <Gold.Chemscore.Lipo.Weighted>
-8.1591

> <Gold.Chemscore.Internal_Hbond.Weighted>
0.0000

> <Gold.Chemscore.DEClash.Weighted>
0.1054

> <Gold.Chemscore.DEInternal.Weighted>
2.0035

> <Gold.Chemscore.Rot.Weighted>
4.6537

> <Gold.Chemscore.Internal.Correction.Weighted>
   9.000000E+99

> <Gold.Protein.RotatedTorsions>
[ 6907 6896 6895 6894 ] final   77.95 input  -60.11 | X-H torsion
[ 7974 7965 7964 7962 ] final   46.08 input  175.53 | X-H torsion
[ 8008 7997 7996 7995 ] final  157.43 input   59.86 | X-H torsion
[ 10167 10162 10161 10158 ] final  -87.00 input  -65.29 | X-H torsion
[ 10718 10713 10712 10709 ] final  -51.95 input   66.30 | X-H torsion
[ 10763 10752 10751 10750 ] final   45.18 input  -60.55 | X-H torsion
[ 11005 11000 10999 10996 ] final   52.88 input  -57.11 | X-H torsion

> <Gold.Protein.ActiveResidues>
 VAL166  LYS551  ARG553  GLY616  TRP617  ASP618  TYR619  PRO620  LYS621  CYS622 
 ASP623  PHE694  ASN695  SER759  ASP760  ASP761  ALA762  ILE779  LEU786  VAL792 
 PHE793  MET794  SER795  GLU796  ALA797  LYS798  CYS799  TRP800  GLU811  SER814 

> <Gold.Protein.RotatedAtoms>
  152.5139  134.3738  159.9327 H   0  0  0  0  0  0  0  0  0  0  0  0  # atno 6907 bound_to 6896
  151.3694  133.3854  159.2706 H   0  0  0  0  0  0  0  0  0  0  0  0  # atno 6908 bound_to 6896
  150.9590  134.9000  159.7777 H   0  0  0  0  0  0  0  0  0  0  0  0  # atno 6909 bound_to 6896
  146.0422  139.4894  142.9771 H   0  0  0  0  0  0  0  0  0  0  0  0  # atno 7974 bound_to 7965
  156.2364  140.1885  156.7107 H   0  0  0  0  0  0  0  0  0  0  0  0  # atno 8008 bound_to 7997
  154.6115  140.0621  156.9527 H   0  0  0  0  0  0  0  0  0  0  0  0  # atno 8009 bound_to 7997
  155.2009  140.3292  155.4346 H   0  0  0  0  0  0  0  0  0  0  0  0  # atno 8010 bound_to 7997
  140.3887  143.2715  151.9292 H   0  0  0  0  0  0  0  0  0  0  0  0  # atno 10167 bound_to 10162
  156.1665  130.4149  149.9713 H   0  0  0  0  0  0  0  0  0  0  0  0  # atno 10718 bound_to 10713
  152.9828  135.6047  154.3394 H   0  0  0  0  0  0  0  0  0  0  0  0  # atno 10763 bound_to 10752
  154.3092  135.2771  155.2576 H   0  0  0  0  0  0  0  0  0  0  0  0  # atno 10764 bound_to 10752
  154.4793  135.5921  153.6434 H   0  0  0  0  0  0  0  0  0  0  0  0  # atno 10765 bound_to 10752
  140.0813  134.5335  155.8944 H   0  0  0  0  0  0  0  0  0  0  0  0  # atno 11005 bound_to 11000
  145.6865  141.0176  143.1578 LP  0  0  0  0  0  0  0  0  0  0  0  0  # atno 17320 bound_to 7965
  144.7080  139.8482  143.7424 LP  0  0  0  0  0  0  0  0  0  0  0  0  # atno 17321 bound_to 7965
  139.4790  144.5749  151.8029 LP  0  0  0  0  0  0  0  0  0  0  0  0  # atno 17342 bound_to 10162
  140.4862  144.1377  150.5941 LP  0  0  0  0  0  0  0  0  0  0  0  0  # atno 17343 bound_to 10162
  156.7526  130.9121  151.3638 LP  0  0  0  0  0  0  0  0  0  0  0  0  # atno 17370 bound_to 10713
  157.6771  130.9105  150.0177 LP  0  0  0  0  0  0  0  0  0  0  0  0  # atno 17371 bound_to 10713
  141.2047  133.6641  156.6139 LP  0  0  0  0  0  0  0  0  0  0  0  0  # atno 17394 bound_to 11000
  140.3484  134.7790  157.4449 LP  0  0  0  0  0  0  0  0  0  0  0  0  # atno 17395 bound_to 11000

$$$$
