AV-unprocessed.smi:3255|AV-procd|sdf|12457|dock7
  -GOLD-   2272018353D 1   1.00000     0.00000
 Structure written by MMmdl.
 39 40  0  0  0  0  0  0  0  0  2 V2000
  144.4713  134.1426  150.5208 C   0  0  0  0  0  0  0  0  0  0  0  0
  145.3736  134.1375  151.7645 C   0  0  2  0  0  0  0  0  0  0  0  0
  146.1959  135.3446  151.7442 N   0  0  0  0  0  0  0  0  0  0  0  0
  145.7590  136.5840  152.0060 C   0  0  0  0  0  0  0  0  0  0  0  0
  144.5874  136.8667  152.2583 O   0  0  0  0  0  0  0  0  0  0  0  0
  146.7594  137.4761  151.9972 N   0  0  0  0  0  0  0  0  0  0  0  0
  146.6245  138.8907  152.3340 C   0  0  0  0  0  0  0  0  0  0  0  0
  147.8111  139.4021  153.1744 C   0  0  0  0  0  0  0  0  0  0  0  0
  147.5700  140.7241  153.7621 N   0  0  0  0  0  0  0  0  0  0  0  0
  146.4209  141.4700  153.6920 C   0  0  0  0  0  0  0  0  0  0  0  0
  146.6694  142.6348  154.3708 C   0  0  0  0  0  0  0  0  0  0  0  0
  147.9565  142.5493  154.8294 N   0  3  0  0  0  0  0  0  0  0  0  0
  148.5011  141.3851  154.4617 C   0  0  0  0  0  0  0  0  0  0  0  0
  146.2759  132.8857  151.8265 C   0  0  2  0  0  0  0  0  0  0  0  0
  145.5211  131.5590  151.9392 C   0  0  0  0  0  0  0  0  0  0  0  0
  146.5067  130.6326  152.6358 C   0  0  0  0  0  0  0  0  0  0  0  0
  147.6030  131.5688  153.1474 C   0  0  0  0  0  0  0  0  0  0  0  0
  147.0618  132.8738  153.0099 O   0  0  0  0  0  0  0  0  0  0  0  0
  143.7902  133.2914  150.5192 H   0  0  0  0  0  0  0  0  0  0  0  0
  145.0589  134.1001  149.6031 H   0  0  0  0  0  0  0  0  0  0  0  0
  143.8604  135.0453  150.4833 H   0  0  0  0  0  0  0  0  0  0  0  0
  144.7265  134.1535  152.6434 H   0  0  0  0  0  0  0  0  0  0  0  0
  147.1785  135.2184  151.5504 H   0  0  0  0  0  0  0  0  0  0  0  0
  147.6873  137.1476  151.7721 H   0  0  0  0  0  0  0  0  0  0  0  0
  146.5831  139.4466  151.3972 H   0  0  0  0  0  0  0  0  0  0  0  0
  145.6779  139.0843  152.8415 H   0  0  0  0  0  0  0  0  0  0  0  0
  148.0407  138.7059  153.9824 H   0  0  0  0  0  0  0  0  0  0  0  0
  148.7066  139.4744  152.5559 H   0  0  0  0  0  0  0  0  0  0  0  0
  145.5387  141.1306  153.1691 H   0  0  0  0  0  0  0  0  0  0  0  0
  146.0446  143.4970  154.5535 H   0  0  0  0  0  0  0  0  0  0  0  0
  149.5004  141.0507  154.6772 H   0  0  0  0  0  0  0  0  0  0  0  0
  146.9448  132.8578  150.9638 H   0  0  0  0  0  0  0  0  0  0  0  0
  144.6341  131.6797  152.5624 H   0  0  0  0  0  0  0  0  0  0  0  0
  145.1991  131.1780  150.9695 H   0  0  0  0  0  0  0  0  0  0  0  0
  146.0209  130.1005  153.4546 H   0  0  0  0  0  0  0  0  0  0  0  0
  146.9188  129.8910  151.9507 H   0  0  0  0  0  0  0  0  0  0  0  0
  147.8817  131.3638  154.1810 H   0  0  0  0  0  0  0  0  0  0  0  0
  148.4988  131.4864  152.5300 H   0  0  0  0  0  0  0  0  0  0  0  0
  148.4319  143.2647  155.3652 H   0  0  0  0  0  0  0  0  0  0  0  0
  1  2  1  0  0  0  0
  1 19  1  0  0  0  0
  1 20  1  0  0  0  0
  1 21  1  0  0  0  0
  2  3  1  0  0  0  0
  2 14  1  0  0  0  0
  2 22  1  0  0  0  0
  3  4  1  0  0  0  0
  3 23  1  0  0  0  0
  4  5  2  0  0  0  0
  4  6  1  0  0  0  0
  6  7  1  0  0  0  0
  6 24  1  0  0  0  0
  7  8  1  0  0  0  0
  7 25  1  0  0  0  0
  7 26  1  0  0  0  0
  8  9  1  0  0  0  0
  8 27  1  0  0  0  0
  8 28  1  0  0  0  0
  9 13  1  0  0  0  0
  9 10  1  0  0  0  0
 10 11  2  0  0  0  0
 10 29  1  0  0  0  0
 11 12  1  0  0  0  0
 11 30  1  0  0  0  0
 12 13  2  0  0  0  0
 12 39  1  0  0  0  0
 13 31  1  0  0  0  0
 14 18  1  0  0  0  0
 14 15  1  0  0  0  0
 14 32  1  0  0  0  0
 15 16  1  0  0  0  0
 15 33  1  0  0  0  0
 15 34  1  0  0  0  0
 16 17  1  0  0  0  0
 16 35  1  0  0  0  0
 16 36  1  0  0  0  0
 17 18  1  0  0  0  0
 17 37  1  0  0  0  0
 17 38  1  0  0  0  0
M  CHG  1  12   1
M  END
> <s_m_source_file>
AV-unprocessed.smi

> <i_m_source_file_index>
3255

> <i_lp_mmshare_version>
43012

> <i_f3d_flags>
0

> <s_epik_input>
TzFbQ0gyXVtDSDJdW0NIMl1bQ0BIXTFbQ0BIXShbQ0gzXSlbTkhdQyg9TylbTkhdW0NIMl1bQ0gyXW4yW2NIXVtjSF1uW2NIXTI=

> <s_epik_cmdline>
J2VwaWtfcHl0aG9uJywgJy1waCcsICc3LjAnLCAnLXRuJywgJzgnLCAnLW1hJywgJzIwMCcsICctbWV0YWxfYmluZGluZycsICctaW1hZScsICc8aW5maWxlLm1hZT4nLCAnLW9tYWUnLCAnPG91dGZpbGUubWFlPic=

> <r_lp_tautomer_probability>
1

> <r_epik_Ionization_Penalty>
0.256241

> <r_epik_Ionization_Penalty_Charging>
0

> <r_epik_Ionization_Penalty_Neutral>
0.256241

> <r_epik_State_Penalty>
0.247735

> <r_epik_Charging_Adjusted_Penalty>
0.247735

> <i_epik_Tot_Q>
1

> <i_epik_Tot_abs_Q>
1

> <r_epik_Metal_State_Penalty>
0.537184

> <b_epik_Metal_Only>
0

> <s_lp_Force_Field>
OPLS_2005

> <r_lp_Energy>
16.926

> <b_lp_Chiralities_Consistent>
1

> <s_lp_Variant>
AV-unprocessed.smi:3255-1

> <Gold.Version>
5.8.1

> <Gold.Id.Protein>
6NUR|6NUR_protein|mol2

> <Gold.PLP.Fitness>
44.7428

> <Gold.PLP.PLP>
-31.0594

> <Gold.PLP.part.hbond>
-2.7112

> <Gold.PLP.part.metal>
0.0000

> <Gold.PLP.part.buried>
-1.5836

> <Gold.PLP.part.nonpolar>
-29.2735

> <Gold.PLP.part.repulsive>
1.1023

> <Gold.PLP.ligand.clash>
0.0000

> <Gold.PLP.ligand.torsion>
0.3828

> <Gold.PLP.Chemscore.Hbond>
3.8000

> <Gold.PLP.Chemscore.CHOScore>
0.9996

> <Gold.PLP.Chemscore.Metal>
0.0000

> <Gold.Chemscore.Hbonds>
donor molecule, donor type, donor heavy atom, donor atom, acceptor molecule, acceptor atom, score
      L1  H     3    23       P1  7948  0.80
      L1  H     6    24       P1  7948  1.00
      L1  H    12    39       P1  8028  2.00
      L1  C    10    29       P1 10175  1.00

> <Gold.PLP.Chemscore.Internal.Correction>
0.0504

> <Gold.Rescore>
     Score         DG    S(hbond)    S(metal)    S(lipo)     H(rot)  DE(clash)    DE(int)     intcor
     14.65     -15.21       2.55        0.00      59.79       2.26       0.20       0.36       ----

> <Gold.Chemscore.Fitness>
14.6494

> <Gold.Chemscore.DG>
-15.2126

> <Gold.Chemscore.ZeroCoef>
-5.4800

> <Gold.Chemscore.Hbond>
2.5548

> <Gold.Chemscore.Metal>
0.0000

> <Gold.Chemscore.Lipo>
59.7887

> <Gold.Chemscore.Internal_Hbond>
0.0000

> <Gold.Chemscore.DEClash>
0.2037

> <Gold.Chemscore.DEInternal>
0.3595

> <Gold.Chemscore.Rot>
2.2640

> <Gold.Chemscore.Internal.Correction>
   9.000000E+99

> <Gold.Chemscore.Hbonds>
donor molecule, donor type, donor heavy atom, donor atom, acceptor molecule, acceptor atom, score
      L1  H     3    23       P1  7948  0.70
      L1  H     6    24       P1  7948  0.93
      L1  H    12    39       P1  8028  0.90

> <Gold.Chemscore.Hbond.Weighted>
-8.5331

> <Gold.Chemscore.Metal.Weighted>
-0.0000

> <Gold.Chemscore.Lipo.Weighted>
-6.9953

> <Gold.Chemscore.Internal_Hbond.Weighted>
0.0000

> <Gold.Chemscore.DEClash.Weighted>
0.2037

> <Gold.Chemscore.DEInternal.Weighted>
0.3595

> <Gold.Chemscore.Rot.Weighted>
5.7958

> <Gold.Chemscore.Internal.Correction.Weighted>
   9.000000E+99

> <Gold.Protein.RotatedTorsions>
[ 6907 6896 6895 6894 ] final  -51.12 input  -60.11 | X-H torsion
[ 7974 7965 7964 7962 ] final   11.40 input  175.53 | X-H torsion
[ 8008 7997 7996 7995 ] final  132.13 input   59.86 | X-H torsion
[ 10167 10162 10161 10158 ] final   71.31 input  -65.29 | X-H torsion
[ 10718 10713 10712 10709 ] final -143.76 input   66.30 | X-H torsion
[ 10763 10752 10751 10750 ] final -161.76 input  -60.55 | X-H torsion
[ 11005 11000 10999 10996 ] final   -1.39 input  -57.11 | X-H torsion

> <Gold.Protein.ActiveResidues>
 VAL166  LYS551  ARG553  GLY616  TRP617  ASP618  TYR619  PRO620  LYS621  CYS622 
 ASP623  PHE694  ASN695  SER759  ASP760  ASP761  ALA762  ILE779  LEU786  VAL792 
 PHE793  MET794  SER795  GLU796  ALA797  LYS798  CYS799  TRP800  GLU811  SER814 

> <Gold.Protein.RotatedAtoms>
  150.8642  134.8001  159.7105 H   0  0  0  0  0  0  0  0  0  0  0  0  # atno 6907 bound_to 6896
  152.4669  134.5051  159.9746 H   0  0  0  0  0  0  0  0  0  0  0  0  # atno 6908 bound_to 6896
  151.5150  133.3439  159.2927 H   0  0  0  0  0  0  0  0  0  0  0  0  # atno 6909 bound_to 6896
  146.2371  139.9490  142.8473 H   0  0  0  0  0  0  0  0  0  0  0  0  # atno 7974 bound_to 7965
  156.2979  140.2554  156.3039 H   0  0  0  0  0  0  0  0  0  0  0  0  # atno 8008 bound_to 7997
  154.9391  140.0396  157.2106 H   0  0  0  0  0  0  0  0  0  0  0  0  # atno 8009 bound_to 7997
  154.8144  140.2849  155.5835 H   0  0  0  0  0  0  0  0  0  0  0  0  # atno 8010 bound_to 7997
  140.0475  144.5339  150.7388 H   0  0  0  0  0  0  0  0  0  0  0  0  # atno 10167 bound_to 10162
  156.3619  130.7742  151.1911 H   0  0  0  0  0  0  0  0  0  0  0  0  # atno 10718 bound_to 10713
  154.7275  135.3039  154.8947 H   0  0  0  0  0  0  0  0  0  0  0  0  # atno 10763 bound_to 10752
  153.9800  135.6731  153.4754 H   0  0  0  0  0  0  0  0  0  0  0  0  # atno 10764 bound_to 10752
  153.0888  135.4970  154.8569 H   0  0  0  0  0  0  0  0  0  0  0  0  # atno 10765 bound_to 10752
  140.6468  133.9440  155.8357 H   0  0  0  0  0  0  0  0  0  0  0  0  # atno 11005 bound_to 11000
  145.1879  140.9798  143.4228 LP  0  0  0  0  0  0  0  0  0  0  0  0  # atno 17320 bound_to 7965
  144.9883  139.3714  143.6227 LP  0  0  0  0  0  0  0  0  0  0  0  0  # atno 17321 bound_to 7965
  140.7232  143.2609  151.4209 LP  0  0  0  0  0  0  0  0  0  0  0  0  # atno 17342 bound_to 10162
  139.5974  144.1368  152.2159 LP  0  0  0  0  0  0  0  0  0  0  0  0  # atno 17343 bound_to 10162
  157.7474  131.0397  150.4565 LP  0  0  0  0  0  0  0  0  0  0  0  0  # atno 17370 bound_to 10713
  156.4777  130.4067  149.6480 LP  0  0  0  0  0  0  0  0  0  0  0  0  # atno 17371 bound_to 10713
  141.0566  134.0407  157.3714 LP  0  0  0  0  0  0  0  0  0  0  0  0  # atno 17394 bound_to 11000
  139.9060  135.0179  156.7487 LP  0  0  0  0  0  0  0  0  0  0  0  0  # atno 17395 bound_to 11000

$$$$
