AV-unprocessed.smi:1433|AV-procd|sdf|5844|dock3
  -GOLD-   22720 5513D 1   1.00000     0.00000
 Structure written by MMmdl.
 45 46  0  0  0  0  0  0  0  0  2 V2000
  149.1067  141.3088  154.8034 C   0  0  0  0  0  0  0  0  0  0  0  0
  149.7285  139.9289  155.0446 C   0  0  1  0  0  0  0  0  0  0  0  0
  149.2504  138.8911  154.0039 C   0  0  0  0  0  0  0  0  0  0  0  0
  149.9428  137.5836  154.1703 N   0  3  2  0  0  0  0  0  0  0  0  0
  149.4084  136.7377  155.2919 C   0  0  1  0  0  0  0  0  0  0  0  0
  150.1097  135.3595  155.2928 C   0  0  0  0  0  0  0  0  0  0  0  0
  149.5317  137.4117  156.6862 C   0  0  0  0  0  0  0  0  0  0  0  0
  148.3543  137.2050  157.5259 N   0  0  0  0  0  0  0  0  0  0  0  0
  148.3605  136.6879  158.7660 C   0  0  0  0  0  0  0  0  0  0  0  0
  149.3805  136.2896  159.3271 O   0  0  0  0  0  0  0  0  0  0  0  0
  147.0085  136.5802  159.4776 C   0  0  0  0  0  0  0  0  0  0  0  0
  147.1572  136.2660  160.8889 N   0  0  0  0  0  0  0  0  0  0  0  0
  147.0358  135.0408  161.5110 C   0  0  0  0  0  0  0  0  0  0  0  0
  147.2579  135.2376  162.8438 C   0  0  0  0  0  0  0  0  0  0  0  0
  147.5153  136.6336  162.9414 C   0  0  0  0  0  0  0  0  0  0  0  0
  147.4551  137.2460  161.7701 N   0  0  0  0  0  0  0  0  0  0  0  0
  151.4119  137.8209  154.1359 C   0  0  0  0  0  0  0  0  0  0  0  0
  151.8355  138.8449  155.2081 C   0  0  1  0  0  0  0  0  0  0  0  0
  153.3393  139.1366  155.1657 C   0  0  0  0  0  0  0  0  0  0  0  0
  151.1435  140.0646  154.9639 O   0  0  0  0  0  0  0  0  0  0  0  0
  148.0188  141.2652  154.8625 H   0  0  0  0  0  0  0  0  0  0  0  0
  149.3729  141.6963  153.8195 H   0  0  0  0  0  0  0  0  0  0  0  0
  149.4506  142.0271  155.5480 H   0  0  0  0  0  0  0  0  0  0  0  0
  149.4600  139.6097  156.0523 H   0  0  0  0  0  0  0  0  0  0  0  0
  148.1680  138.7888  154.0423 H   0  0  0  0  0  0  0  0  0  0  0  0
  149.4726  139.2616  153.0020 H   0  0  0  0  0  0  0  0  0  0  0  0
  148.3454  136.5709  155.1191 H   0  0  0  0  0  0  0  0  0  0  0  0
  149.6906  134.6932  156.0460 H   0  0  0  0  0  0  0  0  0  0  0  0
  151.1750  135.4625  155.5019 H   0  0  0  0  0  0  0  0  0  0  0  0
  150.0101  134.8306  154.3472 H   0  0  0  0  0  0  0  0  0  0  0  0
  150.4387  137.0749  157.1916 H   0  0  0  0  0  0  0  0  0  0  0  0
  149.6173  138.4930  156.5838 H   0  0  0  0  0  0  0  0  0  0  0  0
  147.4665  137.5004  157.1458 H   0  0  0  0  0  0  0  0  0  0  0  0
  146.4709  137.5239  159.3785 H   0  0  0  0  0  0  0  0  0  0  0  0
  146.3948  135.8108  159.0063 H   0  0  0  0  0  0  0  0  0  0  0  0
  146.8025  134.1416  160.9598 H   0  0  0  0  0  0  0  0  0  0  0  0
  147.2413  134.4971  163.6297 H   0  0  0  0  0  0  0  0  0  0  0  0
  147.7427  137.2158  163.8222 H   0  0  0  0  0  0  0  0  0  0  0  0
  151.9851  136.8979  154.2059 H   0  0  0  0  0  0  0  0  0  0  0  0
  151.6599  138.2215  153.1518 H   0  0  0  0  0  0  0  0  0  0  0  0
  151.5829  138.4781  156.2043 H   0  0  0  0  0  0  0  0  0  0  0  0
  153.9206  138.2345  155.3579 H   0  0  0  0  0  0  0  0  0  0  0  0
  153.6143  139.8746  155.9197 H   0  0  0  0  0  0  0  0  0  0  0  0
  153.6391  139.5274  154.1930 H   0  0  0  0  0  0  0  0  0  0  0  0
  149.7440  137.0491  153.3365 H   0  0  0  0  0  0  0  0  0  0  0  0
  1  2  1  0  0  0  0
  1 21  1  0  0  0  0
  1 22  1  0  0  0  0
  1 23  1  0  0  0  0
  2 20  1  0  0  0  0
  2  3  1  0  0  0  0
  2 24  1  0  0  0  0
  3  4  1  0  0  0  0
  3 25  1  0  0  0  0
  3 26  1  0  0  0  0
  4  5  1  0  0  0  0
  4 17  1  0  0  0  0
  4 45  1  0  0  0  0
  5  6  1  0  0  0  0
  5  7  1  0  0  0  0
  5 27  1  0  0  0  0
  6 28  1  0  0  0  0
  6 29  1  0  0  0  0
  6 30  1  0  0  0  0
  7  8  1  0  0  0  0
  7 31  1  0  0  0  0
  7 32  1  0  0  0  0
  8  9  1  0  0  0  0
  8 33  1  0  0  0  0
  9 10  2  0  0  0  0
  9 11  1  0  0  0  0
 11 12  1  0  0  0  0
 11 34  1  0  0  0  0
 11 35  1  0  0  0  0
 12 16  1  0  0  0  0
 12 13  1  0  0  0  0
 13 14  2  0  0  0  0
 13 36  1  0  0  0  0
 14 15  1  0  0  0  0
 14 37  1  0  0  0  0
 15 16  2  0  0  0  0
 15 38  1  0  0  0  0
 17 18  1  0  0  0  0
 17 39  1  0  0  0  0
 17 40  1  0  0  0  0
 18 19  1  0  0  0  0
 18 20  1  0  0  0  0
 18 41  1  0  0  0  0
 19 42  1  0  0  0  0
 19 43  1  0  0  0  0
 19 44  1  0  0  0  0
M  CHG  1   4   1
M  END
> <s_m_source_file>
AV-unprocessed.smi

> <i_m_source_file_index>
1433

> <i_lp_mmshare_version>
43012

> <i_f3d_flags>
0

> <s_epik_input>
W0NIM11bQ0BASF0xW0NIMl1OKFtDSDJdW0NASF0oTzEpW0NIM10pW0NASF0oW0NIM10pW0NIMl1bTkhdQyg9TylbQ0gyXW4yW2NIXVtjSF1bY0hdbjI=

> <s_epik_cmdline>
J2VwaWtfcHl0aG9uJywgJy1waCcsICc3LjAnLCAnLXRuJywgJzgnLCAnLW1hJywgJzIwMCcsICctbWV0YWxfYmluZGluZycsICctaW1hZScsICc8aW5maWxlLm1hZT4nLCAnLW9tYWUnLCAnPG91dGZpbGUubWFlPic=

> <r_lp_tautomer_probability>
1

> <r_epik_Ionization_Penalty>
0.748405

> <r_epik_Ionization_Penalty_Charging>
0.748396

> <r_epik_Ionization_Penalty_Neutral>
8.54426e-06

> <r_epik_State_Penalty>
0.775162

> <r_epik_Charging_Adjusted_Penalty>
1.52356

> <i_epik_Tot_Q>
1

> <i_epik_Tot_abs_Q>
1

> <r_epik_Metal_State_Penalty>
0.775167

> <b_epik_Metal_Only>
0

> <s_lp_Force_Field>
OPLS_2005

> <r_lp_Energy>
22.8293

> <b_lp_Chiralities_Consistent>
1

> <s_lp_Variant>
AV-unprocessed.smi:1433-10

> <Gold.Version>
5.8.1

> <Gold.Id.Protein>
6NUR|6NUR_protein|mol2

> <Gold.PLP.Fitness>
53.7951

> <Gold.PLP.PLP>
-38.7860

> <Gold.PLP.part.hbond>
-5.0000

> <Gold.PLP.part.metal>
0.0000

> <Gold.PLP.part.buried>
-0.4141

> <Gold.PLP.part.nonpolar>
-32.5877

> <Gold.PLP.part.repulsive>
0.1074

> <Gold.PLP.ligand.clash>
0.0000

> <Gold.PLP.ligand.torsion>
1.0040

> <Gold.PLP.Chemscore.Hbond>
5.6441

> <Gold.PLP.Chemscore.CHOScore>
0.0000

> <Gold.PLP.Chemscore.Metal>
0.0000

> <Gold.Chemscore.Hbonds>
donor molecule, donor type, donor heavy atom, donor atom, acceptor molecule, acceptor atom, score
      L1  H     4    45       P1  7948  2.00
      P1  H  6896  6907       L1    10  0.76
      P1  H  6931  6943       L1    16  0.82
      P1  H  6934  6947       L1    16  0.77
      P1  H  7989  7998       L1    20  1.00

> <Gold.PLP.Chemscore.Internal.Correction>
0.0848

> <Gold.Rescore>
     Score         DG    S(hbond)    S(metal)    S(lipo)     H(rot)  DE(clash)    DE(int)     intcor
     20.57     -23.39       3.77        0.00      86.32       1.87       0.33       2.49       ----

> <Gold.Chemscore.Fitness>
20.5684

> <Gold.Chemscore.DG>
-23.3888

> <Gold.Chemscore.ZeroCoef>
-5.4800

> <Gold.Chemscore.Hbond>
3.7683

> <Gold.Chemscore.Metal>
0.0000

> <Gold.Chemscore.Lipo>
86.3161

> <Gold.Chemscore.Internal_Hbond>
0.0000

> <Gold.Chemscore.DEClash>
0.3263

> <Gold.Chemscore.DEInternal>
2.4942

> <Gold.Chemscore.Rot>
1.8657

> <Gold.Chemscore.Internal.Correction>
   9.000000E+99

> <Gold.Chemscore.Hbonds>
donor molecule, donor type, donor heavy atom, donor atom, acceptor molecule, acceptor atom, score
      L1  H     4    45       P1  7948  0.55
      P1  H  6896  6907       L1    10  0.74
      P1  H  6931  6943       L1    16  0.16
      P1  H  6934  6947       L1    16  0.58
      P1  H  7989  7998       L1    20  0.72

> <Gold.Chemscore.Hbond.Weighted>
-12.5860

> <Gold.Chemscore.Metal.Weighted>
-0.0000

> <Gold.Chemscore.Lipo.Weighted>
-10.0990

> <Gold.Chemscore.Internal_Hbond.Weighted>
0.0000

> <Gold.Chemscore.DEClash.Weighted>
0.3263

> <Gold.Chemscore.DEInternal.Weighted>
2.4942

> <Gold.Chemscore.Rot.Weighted>
4.7761

> <Gold.Chemscore.Internal.Correction.Weighted>
   9.000000E+99

> <Gold.Protein.RotatedTorsions>
[ 6907 6896 6895 6894 ] final  -67.67 input  -60.11 | X-H torsion
[ 7974 7965 7964 7962 ] final  -82.23 input  175.53 | X-H torsion
[ 8008 7997 7996 7995 ] final  131.42 input   59.86 | X-H torsion
[ 10167 10162 10161 10158 ] final   -3.98 input  -65.29 | X-H torsion
[ 10718 10713 10712 10709 ] final -134.82 input   66.30 | X-H torsion
[ 10763 10752 10751 10750 ] final   69.91 input  -60.55 | X-H torsion
[ 11005 11000 10999 10996 ] final -112.86 input  -57.11 | X-H torsion

> <Gold.Protein.ActiveResidues>
 VAL166  LYS551  ARG553  GLY616  TRP617  ASP618  TYR619  PRO620  LYS621  CYS622 
 ASP623  PHE694  ASN695  SER759  ASP760  ASP761  ALA762  ILE779  LEU786  VAL792 
 PHE793  MET794  SER795  GLU796  ALA797  LYS798  CYS799  TRP800  GLU811  SER814 

> <Gold.Protein.RotatedAtoms>
  150.7397  134.5847  159.5956 H   0  0  0  0  0  0  0  0  0  0  0  0  # atno 6907 bound_to 6896
  152.3251  134.7328  160.0313 H   0  0  0  0  0  0  0  0  0  0  0  0  # atno 6908 bound_to 6896
  151.7830  133.3316  159.3513 H   0  0  0  0  0  0  0  0  0  0  0  0  # atno 6909 bound_to 6896
  145.5361  140.9515  143.1576 H   0  0  0  0  0  0  0  0  0  0  0  0  # atno 7974 bound_to 7965
  156.2969  140.2572  156.2922 H   0  0  0  0  0  0  0  0  0  0  0  0  # atno 8008 bound_to 7997
  154.9498  140.0394  157.2157 H   0  0  0  0  0  0  0  0  0  0  0  0  # atno 8009 bound_to 7997
  154.8047  140.2834  155.5901 H   0  0  0  0  0  0  0  0  0  0  0  0  # atno 8010 bound_to 7997
  140.6910  143.6477  150.8378 H   0  0  0  0  0  0  0  0  0  0  0  0  # atno 10167 bound_to 10162
  156.2595  130.7201  151.1130 H   0  0  0  0  0  0  0  0  0  0  0  0  # atno 10718 bound_to 10713
  153.0313  135.5193  154.7361 H   0  0  0  0  0  0  0  0  0  0  0  0  # atno 10763 bound_to 10752
  154.6374  135.2908  155.0147 H   0  0  0  0  0  0  0  0  0  0  0  0  # atno 10764 bound_to 10752
  154.1077  135.6627  153.4932 H   0  0  0  0  0  0  0  0  0  0  0  0  # atno 10765 bound_to 10752
  141.0649  133.9475  157.2597 H   0  0  0  0  0  0  0  0  0  0  0  0  # atno 11005 bound_to 11000
  144.7601  139.6978  143.7238 LP  0  0  0  0  0  0  0  0  0  0  0  0  # atno 17320 bound_to 7965
  146.2012  139.5308  142.9742 LP  0  0  0  0  0  0  0  0  0  0  0  0  # atno 17321 bound_to 7965
  140.0190  143.5562  152.2808 LP  0  0  0  0  0  0  0  0  0  0  0  0  # atno 17342 bound_to 10162
  139.6314  144.7644  151.2529 LP  0  0  0  0  0  0  0  0  0  0  0  0  # atno 17343 bound_to 10162
  157.7245  131.0659  150.5992 LP  0  0  0  0  0  0  0  0  0  0  0  0  # atno 17370 bound_to 10713
  156.6078  130.4372  149.5871 LP  0  0  0  0  0  0  0  0  0  0  0  0  # atno 17371 bound_to 10713
  139.9467  135.0183  156.8874 LP  0  0  0  0  0  0  0  0  0  0  0  0  # atno 17394 bound_to 11000
  140.5793  134.0368  155.7458 LP  0  0  0  0  0  0  0  0  0  0  0  0  # atno 17395 bound_to 11000

$$$$
