AV-unprocessed.smi:298|AV-procd|sdf|2264|dock1
  -GOLD-   2262022153D 1   1.00000     0.00000
 Structure written by MMmdl.
 39 41  0  0  0  0  0  0  0  0  2 V2000
  152.1756  143.3346  160.8324 C   0  0  0  0  0  0  0  0  0  0  0  0
  152.0140  142.4591  159.6014 C   0  0  0  0  0  0  0  0  0  0  0  0
  151.0880  142.8542  158.6094 C   0  0  0  0  0  0  0  0  0  0  0  0
  150.9641  142.0339  157.4943 C   0  0  0  0  0  0  0  0  0  0  0  0
  150.1570  142.1467  156.3598 N   0  3  0  0  0  0  0  0  0  0  0  0
  150.3872  141.0912  155.5305 C   0  0  0  0  0  0  0  0  0  0  0  0
  151.3294  140.3056  156.1190 N   0  0  0  0  0  0  0  0  0  0  0  0
  151.9302  139.0469  155.6565 C   0  0  0  0  0  0  0  0  0  0  0  0
  151.0887  138.3365  154.5726 C   0  0  1  0  0  0  0  0  0  0  0  0
  151.7822  137.2099  154.0707 O   0  0  0  0  0  0  0  0  0  0  0  0
  149.6901  137.9045  155.0677 C   0  0  0  0  0  0  0  0  0  0  0  0
  149.6913  137.3348  156.4062 N   0  0  0  0  0  0  0  0  0  0  0  0
  150.4620  136.3814  156.9405 C   0  0  0  0  0  0  0  0  0  0  0  0
  150.1708  136.0959  158.2035 N   0  0  0  0  0  0  0  0  0  0  0  0
  149.1489  136.9809  158.3899 C   0  0  0  0  0  0  0  0  0  0  0  0
  148.4396  137.0681  159.6549 C   0  0  0  0  0  0  0  0  0  0  0  0
  147.8745  137.1387  160.6622 N   0  0  0  0  0  0  0  0  0  0  0  0
  148.8209  137.7535  157.3571 N   0  0  0  0  0  0  0  0  0  0  0  0
  151.7201  140.8552  157.3462 C   0  0  0  0  0  0  0  0  0  0  0  0
  152.6387  140.4526  158.3133 C   0  0  0  0  0  0  0  0  0  0  0  0
  152.7798  141.2733  159.4546 C   0  0  0  0  0  0  0  0  0  0  0  0
  153.7757  140.8587  160.5244 C   0  0  0  0  0  0  0  0  0  0  0  0
  151.5318  144.2132  160.7846 H   0  0  0  0  0  0  0  0  0  0  0  0
  153.2052  143.6813  160.9241 H   0  0  0  0  0  0  0  0  0  0  0  0
  151.9147  142.7794  161.7338 H   0  0  0  0  0  0  0  0  0  0  0  0
  150.5032  143.7565  158.7136 H   0  0  0  0  0  0  0  0  0  0  0  0
  149.9076  140.9099  154.5792 H   0  0  0  0  0  0  0  0  0  0  0  0
  152.9440  139.2526  155.3133 H   0  0  0  0  0  0  0  0  0  0  0  0
  152.0338  138.3977  156.5266 H   0  0  0  0  0  0  0  0  0  0  0  0
  150.9572  139.0180  153.7314 H   0  0  0  0  0  0  0  0  0  0  0  0
  151.3796  136.9467  153.2574 H   0  0  0  0  0  0  0  0  0  0  0  0
  149.0264  138.7701  155.0746 H   0  0  0  0  0  0  0  0  0  0  0  0
  149.2444  137.1832  154.3810 H   0  0  0  0  0  0  0  0  0  0  0  0
  151.2445  135.8787  156.3909 H   0  0  0  0  0  0  0  0  0  0  0  0
  153.2287  139.5547  158.1997 H   0  0  0  0  0  0  0  0  0  0  0  0
  154.2508  139.9081  160.2798 H   0  0  0  0  0  0  0  0  0  0  0  0
  153.2792  140.7429  161.4882 H   0  0  0  0  0  0  0  0  0  0  0  0
  154.5614  141.6076  160.6258 H   0  0  0  0  0  0  0  0  0  0  0  0
  149.4967  142.8882  156.1638 H   0  0  0  0  0  0  0  0  0  0  0  0
  1  2  1  0  0  0  0
  1 23  1  0  0  0  0
  1 24  1  0  0  0  0
  1 25  1  0  0  0  0
  2 21  1  0  0  0  0
  2  3  2  0  0  0  0
  3  4  1  0  0  0  0
  3 26  1  0  0  0  0
  4 19  2  0  0  0  0
  4  5  1  0  0  0  0
  5  6  2  0  0  0  0
  5 39  1  0  0  0  0
  6  7  1  0  0  0  0
  6 27  1  0  0  0  0
  7  8  1  0  0  0  0
  7 19  1  0  0  0  0
  8  9  1  0  0  0  0
  8 28  1  0  0  0  0
  8 29  1  0  0  0  0
  9 10  1  0  0  0  0
  9 11  1  0  0  0  0
  9 30  1  0  0  0  0
 10 31  1  0  0  0  0
 11 12  1  0  0  0  0
 11 32  1  0  0  0  0
 11 33  1  0  0  0  0
 12 18  1  0  0  0  0
 12 13  1  0  0  0  0
 13 14  2  0  0  0  0
 13 34  1  0  0  0  0
 14 15  1  0  0  0  0
 15 16  1  0  0  0  0
 15 18  2  0  0  0  0
 16 17  3  0  0  0  0
 19 20  1  0  0  0  0
 20 21  2  0  0  0  0
 20 35  1  0  0  0  0
 21 22  1  0  0  0  0
 22 36  1  0  0  0  0
 22 37  1  0  0  0  0
 22 38  1  0  0  0  0
M  CHG  1   5   1
M  END
> <s_m_source_file>
AV-unprocessed.smi

> <i_m_source_file_index>
298

> <i_lp_mmshare_version>
43012

> <i_f3d_flags>
0

> <s_epik_input>
W0NIM11jKFtjSF0xKWMoW0NIM10pW2NIXWMoYzEyKW4oW2NIXW4yKVtDSDJdW0NASF0oW09IXSlbQ0gyXW4zW2NIXW5jKG4zKUMjTg==

> <s_epik_cmdline>
J2VwaWtfcHl0aG9uJywgJy1waCcsICc3LjAnLCAnLXRuJywgJzgnLCAnLW1hJywgJzIwMCcsICctbWV0YWxfYmluZGluZycsICctaW1hZScsICc8aW5maWxlLm1hZT4nLCAnLW9tYWUnLCAnPG91dGZpbGUubWFlPic=

> <r_epik_Ionization_Penalty>
1.12076

> <r_epik_Ionization_Penalty_Charging>
1.12075

> <r_epik_Ionization_Penalty_Neutral>
1.54565e-06

> <r_epik_State_Penalty>
1.17957

> <r_epik_Charging_Adjusted_Penalty>
2.30033

> <i_epik_Tot_Q>
1

> <i_epik_Tot_abs_Q>
1

> <r_epik_Metal_State_Penalty>
1.26402

> <b_epik_Metal_Only>
0

> <s_lp_Force_Field>
OPLS_2005

> <r_lp_Energy>
17.1818

> <b_lp_Chiralities_Consistent>
1

> <s_lp_Variant>
AV-unprocessed.smi:298-4

> <Gold.Version>
5.8.1

> <Gold.Id.Protein>
6NUR|6NUR_protein|mol2

> <Gold.PLP.Fitness>
60.3097

> <Gold.PLP.PLP>
-41.7506

> <Gold.PLP.part.hbond>
-6.0000

> <Gold.PLP.part.metal>
0.0000

> <Gold.PLP.part.buried>
-5.0506

> <Gold.PLP.part.nonpolar>
-31.5567

> <Gold.PLP.part.repulsive>
0.0793

> <Gold.PLP.ligand.clash>
0.0000

> <Gold.PLP.ligand.torsion>
0.5738

> <Gold.PLP.Chemscore.Hbond>
6.5600

> <Gold.PLP.Chemscore.CHOScore>
0.0000

> <Gold.PLP.Chemscore.Metal>
0.0000

> <Gold.Chemscore.Hbonds>
donor molecule, donor type, donor heavy atom, donor atom, acceptor molecule, acceptor atom, score
      L1  H     5    39       P1  8028  2.00
      L1  H    10    31       P1  7949  1.00
      P1  H  6896  6907       L1    14  0.89
      P1  H  6931  6943       L1    17  0.83
      P1  H  6934  6947       L1    17  0.83
      P1  H 10752 10765       L1    10  0.95

> <Gold.PLP.Chemscore.Internal.Correction>
0.0266

> <Gold.Rescore>
     Score         DG    S(hbond)    S(metal)    S(lipo)     H(rot)  DE(clash)    DE(int)     intcor
     21.86     -22.68       4.45        0.00      87.70       3.09       0.29       0.54       ----

> <Gold.Chemscore.Fitness>
21.8557

> <Gold.Chemscore.DG>
-22.6810

> <Gold.Chemscore.ZeroCoef>
-5.4800

> <Gold.Chemscore.Hbond>
4.4457

> <Gold.Chemscore.Metal>
0.0000

> <Gold.Chemscore.Lipo>
87.6979

> <Gold.Chemscore.Internal_Hbond>
0.0000

> <Gold.Chemscore.DEClash>
0.2864

> <Gold.Chemscore.DEInternal>
0.5388

> <Gold.Chemscore.Rot>
3.0892

> <Gold.Chemscore.Internal.Correction>
   9.000000E+99

> <Gold.Chemscore.Hbonds>
donor molecule, donor type, donor heavy atom, donor atom, acceptor molecule, acceptor atom, score
      L1  H     5    39       P1  8028  0.96
      L1  H    10    31       P1  7949  0.73
      P1  H  6896  6907       L1    14  0.80
      P1  H  6931  6943       L1    17  0.43
      P1  H  6934  6947       L1    17  0.55
      P1  H 10752 10765       L1    10  0.20

> <Gold.Chemscore.Hbond.Weighted>
-14.8487

> <Gold.Chemscore.Metal.Weighted>
-0.0000

> <Gold.Chemscore.Lipo.Weighted>
-10.2607

> <Gold.Chemscore.Internal_Hbond.Weighted>
0.0000

> <Gold.Chemscore.DEClash.Weighted>
0.2864

> <Gold.Chemscore.DEInternal.Weighted>
0.5388

> <Gold.Chemscore.Rot.Weighted>
7.9084

> <Gold.Chemscore.Internal.Correction.Weighted>
   9.000000E+99

> <Gold.Protein.RotatedTorsions>
[ 6907 6896 6895 6894 ] final  -61.03 input  -60.11 | X-H torsion
[ 7974 7965 7964 7962 ] final  -63.88 input  175.53 | X-H torsion
[ 8008 7997 7996 7995 ] final   23.43 input   59.86 | X-H torsion
[ 10167 10162 10161 10158 ] final   34.69 input  -65.29 | X-H torsion
[ 10718 10713 10712 10709 ] final -153.03 input   66.30 | X-H torsion
[ 10763 10752 10751 10750 ] final  167.91 input  -60.55 | X-H torsion
[ 11005 11000 10999 10996 ] final -167.30 input  -57.11 | X-H torsion

> <Gold.Protein.ActiveResidues>
 VAL166  LYS551  ARG553  GLY616  TRP617  ASP618  TYR619  PRO620  LYS621  CYS622 
 ASP623  PHE694  ASN695  SER759  ASP760  ASP761  ALA762  ILE779  LEU786  VAL792 
 PHE793  MET794  SER795  GLU796  ALA797  LYS798  CYS799  TRP800  GLU811  SER814 

> <Gold.Protein.RotatedAtoms>
  150.7814  134.6759  159.6416 H   0  0  0  0  0  0  0  0  0  0  0  0  # atno 6907 bound_to 6896
  152.3899  134.6455  160.0120 H   0  0  0  0  0  0  0  0  0  0  0  0  # atno 6908 bound_to 6896
  151.6758  133.3276  159.3244 H   0  0  0  0  0  0  0  0  0  0  0  0  # atno 6909 bound_to 6896
  145.7736  140.8799  143.0367 H   0  0  0  0  0  0  0  0  0  0  0  0  # atno 7974 bound_to 7965
  154.9808  140.3102  155.4947 H   0  0  0  0  0  0  0  0  0  0  0  0  # atno 8008 bound_to 7997
  156.2953  140.2267  156.4846 H   0  0  0  0  0  0  0  0  0  0  0  0  # atno 8009 bound_to 7997
  154.7791  140.0447  157.1101 H   0  0  0  0  0  0  0  0  0  0  0  0  # atno 8010 bound_to 7997
  140.4291  144.1350  150.6157 H   0  0  0  0  0  0  0  0  0  0  0  0  # atno 10167 bound_to 10162
  156.4804  130.8300  151.2527 H   0  0  0  0  0  0  0  0  0  0  0  0  # atno 10718 bound_to 10713
  154.3608  135.2753  155.2321 H   0  0  0  0  0  0  0  0  0  0  0  0  # atno 10763 bound_to 10752
  154.4509  135.5931  153.6195 H   0  0  0  0  0  0  0  0  0  0  0  0  # atno 10764 bound_to 10752
  152.9843  135.6041  154.3829 H   0  0  0  0  0  0  0  0  0  0  0  0  # atno 10765 bound_to 10752
  140.5547  134.5393  157.5130 H   0  0  0  0  0  0  0  0  0  0  0  0  # atno 11005 bound_to 11000
  144.6808  139.9890  143.7484 LP  0  0  0  0  0  0  0  0  0  0  0  0  # atno 17320 bound_to 7965
  146.0145  139.3198  143.0850 LP  0  0  0  0  0  0  0  0  0  0  0  0  # atno 17321 bound_to 7965
  140.4447  143.2511  151.9427 LP  0  0  0  0  0  0  0  0  0  0  0  0  # atno 17342 bound_to 10162
  139.4784  144.5620  151.8224 LP  0  0  0  0  0  0  0  0  0  0  0  0  # atno 17343 bound_to 10162
  157.7484  131.0047  150.3085 LP  0  0  0  0  0  0  0  0  0  0  0  0  # atno 17370 bound_to 10713
  156.3527  130.3833  149.7315 LP  0  0  0  0  0  0  0  0  0  0  0  0  # atno 17371 bound_to 10713
  139.9437  134.7740  156.0614 LP  0  0  0  0  0  0  0  0  0  0  0  0  # atno 17394 bound_to 11000
  141.1150  133.6630  156.3072 LP  0  0  0  0  0  0  0  0  0  0  0  0  # atno 17395 bound_to 11000

$$$$
