AV-unprocessed.smi:1830|AV-procd|sdf|7433|dock5
  -GOLD-   22720 9113D 1   1.00000     0.00000
 Structure written by MMmdl.
 53 56  0  0  0  0  0  0  0  0  2 V2000
  150.0251  136.2650  158.4696 O   0  0  0  0  0  0  0  0  0  0  0  0
  149.1132  136.9643  158.0285 C   0  0  0  0  0  0  0  0  0  0  0  0
  147.8430  136.8722  158.4442 N   0  0  0  0  0  0  0  0  0  0  0  0
  147.3578  135.9312  159.4470 C   0  0  0  0  0  0  0  0  0  0  0  0
  147.3850  136.5408  160.8670 C   0  0  1  0  0  0  0  0  0  0  0  0
  146.0140  137.1114  161.3045 C   0  0  0  0  0  0  0  0  0  0  0  0
  145.1136  135.9946  161.6473 N   0  3  2  0  0  0  0  0  0  0  0  0
  143.7459  136.3153  162.0908 C   0  0  0  0  0  0  0  0  0  0  0  0
  143.3009  135.0918  162.9167 C   0  0  0  0  0  0  0  0  0  0  0  0
  144.5466  134.1957  163.0402 C   0  0  0  0  0  0  0  0  0  0  0  0
  145.6904  135.1422  162.6890 C   0  0  1  0  0  0  0  0  0  0  0  0
  146.9969  134.5307  162.1707 C   0  0  0  0  0  0  0  0  0  0  0  0
  147.8816  135.6029  161.8355 O   0  0  0  0  0  0  0  0  0  0  0  0
  149.2415  137.8909  157.0652 N   0  0  0  0  0  0  0  0  0  0  0  0
  150.4066  138.2184  156.3175 C   0  0  0  0  0  0  0  0  0  0  0  0
  151.6464  137.5801  156.5644 C   0  0  0  0  0  0  0  0  0  0  0  0
  152.7858  137.9885  155.8503 C   0  0  0  0  0  0  0  0  0  0  0  0
  152.6492  139.0350  154.9233 C   0  0  0  0  0  0  0  0  0  0  0  0
  151.4791  139.6608  154.6859 N   0  0  0  0  0  0  0  0  0  0  0  0
  150.3677  139.2685  155.3559 C   0  0  0  0  0  0  0  0  0  0  0  0
  149.1645  139.9461  155.0522 N   0  0  0  0  0  0  0  0  0  0  0  0
  149.1939  141.2380  154.3744 C   0  0  0  0  0  0  0  0  0  0  0  0
  147.7674  141.4559  153.8788 C   0  0  0  0  0  0  0  0  0  0  0  0
  147.3318  140.0415  153.5086 C   0  0  0  0  0  0  0  0  0  0  0  0
  148.0488  139.1584  154.5356 C   0  0  0  0  0  0  0  0  0  0  0  0
  147.1602  137.4862  158.0241 H   0  0  0  0  0  0  0  0  0  0  0  0
  146.3439  135.6172  159.1934 H   0  0  0  0  0  0  0  0  0  0  0  0
  147.9702  135.0315  159.3943 H   0  0  0  0  0  0  0  0  0  0  0  0
  148.0912  137.3717  160.8548 H   0  0  0  0  0  0  0  0  0  0  0  0
  146.1378  137.7572  162.1751 H   0  0  0  0  0  0  0  0  0  0  0  0
  145.5742  137.7201  160.5138 H   0  0  0  0  0  0  0  0  0  0  0  0
  143.7566  137.2073  162.7190 H   0  0  0  0  0  0  0  0  0  0  0  0
  143.0925  136.5068  161.2393 H   0  0  0  0  0  0  0  0  0  0  0  0
  142.9517  135.4094  163.8998 H   0  0  0  0  0  0  0  0  0  0  0  0
  142.4824  134.5560  162.4347 H   0  0  0  0  0  0  0  0  0  0  0  0
  144.6543  133.7533  164.0311 H   0  0  0  0  0  0  0  0  0  0  0  0
  144.4918  133.3841  162.3131 H   0  0  0  0  0  0  0  0  0  0  0  0
  145.9077  135.7587  163.5642 H   0  0  0  0  0  0  0  0  0  0  0  0
  147.4614  133.9166  162.9424 H   0  0  0  0  0  0  0  0  0  0  0  0
  146.8239  133.8841  161.3100 H   0  0  0  0  0  0  0  0  0  0  0  0
  148.3872  138.3214  156.7428 H   0  0  0  0  0  0  0  0  0  0  0  0
  151.7456  136.8017  157.3060 H   0  0  0  0  0  0  0  0  0  0  0  0
  153.7439  137.5197  156.0198 H   0  0  0  0  0  0  0  0  0  0  0  0
  153.5026  139.3838  154.3610 H   0  0  0  0  0  0  0  0  0  0  0  0
  149.5154  142.0333  155.0476 H   0  0  0  0  0  0  0  0  0  0  0  0
  149.8736  141.2137  153.5217 H   0  0  0  0  0  0  0  0  0  0  0  0
  147.1439  141.8388  154.6880 H   0  0  0  0  0  0  0  0  0  0  0  0
  147.7098  142.1545  153.0438 H   0  0  0  0  0  0  0  0  0  0  0  0
  146.2494  139.9115  153.5210 H   0  0  0  0  0  0  0  0  0  0  0  0
  147.6882  139.8008  152.5059 H   0  0  0  0  0  0  0  0  0  0  0  0
  148.3806  138.2194  154.0897 H   0  0  0  0  0  0  0  0  0  0  0  0
  147.3727  138.9228  155.3578 H   0  0  0  0  0  0  0  0  0  0  0  0
  145.0194  135.4175  160.8237 H   0  0  0  0  0  0  0  0  0  0  0  0
  1  2  2  0  0  0  0
  2  3  1  0  0  0  0
  2 14  1  0  0  0  0
  3  4  1  0  0  0  0
  3 26  1  0  0  0  0
  4  5  1  0  0  0  0
  4 27  1  0  0  0  0
  4 28  1  0  0  0  0
  5 13  1  0  0  0  0
  5  6  1  0  0  0  0
  5 29  1  0  0  0  0
  6  7  1  0  0  0  0
  6 30  1  0  0  0  0
  6 31  1  0  0  0  0
  7 11  1  0  0  0  0
  7  8  1  0  0  0  0
  7 53  1  0  0  0  0
  8  9  1  0  0  0  0
  8 32  1  0  0  0  0
  8 33  1  0  0  0  0
  9 10  1  0  0  0  0
  9 34  1  0  0  0  0
  9 35  1  0  0  0  0
 10 11  1  0  0  0  0
 10 36  1  0  0  0  0
 10 37  1  0  0  0  0
 11 12  1  0  0  0  0
 11 38  1  0  0  0  0
 12 13  1  0  0  0  0
 12 39  1  0  0  0  0
 12 40  1  0  0  0  0
 14 15  1  0  0  0  0
 14 41  1  0  0  0  0
 15 20  1  0  0  0  0
 15 16  2  0  0  0  0
 16 17  1  0  0  0  0
 16 42  1  0  0  0  0
 17 18  2  0  0  0  0
 17 43  1  0  0  0  0
 18 19  1  0  0  0  0
 18 44  1  0  0  0  0
 19 20  2  0  0  0  0
 20 21  1  0  0  0  0
 21 25  1  0  0  0  0
 21 22  1  0  0  0  0
 22 23  1  0  0  0  0
 22 45  1  0  0  0  0
 22 46  1  0  0  0  0
 23 24  1  0  0  0  0
 23 47  1  0  0  0  0
 23 48  1  0  0  0  0
 24 25  1  0  0  0  0
 24 49  1  0  0  0  0
 24 50  1  0  0  0  0
 25 51  1  0  0  0  0
 25 52  1  0  0  0  0
M  CHG  1   7   1
M  END
> <s_m_source_file>
AV-unprocessed.smi

> <i_m_source_file_index>
1830

> <i_lp_mmshare_version>
43012

> <i_f3d_flags>
0

> <s_epik_input>
W0NIMl0xW0NIMl1bQ0gyXVtDQEhdKE4xMilbQ0gyXU9bQ0BASF0oW0NIMl0yKVtDSDJdW05IXUMoPU8pW05IXWMzW2NIXVtjSF1bY0hdbmMzTjRbQ0gyXVtDSDJdW0NIMl1bQ0gyXTQ=

> <s_epik_cmdline>
J2VwaWtfcHl0aG9uJywgJy1waCcsICc3LjAnLCAnLXRuJywgJzgnLCAnLW1hJywgJzIwMCcsICctbWV0YWxfYmluZGluZycsICctaW1hZScsICc8aW5maWxlLm1hZT4nLCAnLW9tYWUnLCAnPG91dGZpbGUubWFlPic=

> <r_lp_tautomer_probability>
1

> <r_epik_Ionization_Penalty>
0.193547

> <r_epik_Ionization_Penalty_Charging>
0.10673

> <r_epik_Ionization_Penalty_Neutral>
0.0868166

> <r_epik_State_Penalty>
0.173595

> <r_epik_Charging_Adjusted_Penalty>
0.280326

> <i_epik_Tot_Q>
1

> <i_epik_Tot_abs_Q>
1

> <r_epik_Metal_State_Penalty>
0.164683

> <b_epik_Metal_Only>
0

> <s_lp_Force_Field>
OPLS_2005

> <r_lp_Energy>
66.0686

> <b_lp_Chiralities_Consistent>
1

> <s_lp_Variant>
AV-unprocessed.smi:1830-2

> <Gold.Version>
5.8.1

> <Gold.Id.Protein>
6NUR|6NUR_protein|mol2

> <Gold.PLP.Fitness>
42.6553

> <Gold.PLP.PLP>
-38.3002

> <Gold.PLP.part.hbond>
-2.0000

> <Gold.PLP.part.metal>
0.0000

> <Gold.PLP.part.buried>
-6.4881

> <Gold.PLP.part.nonpolar>
-30.4206

> <Gold.PLP.part.repulsive>
0.2261

> <Gold.PLP.ligand.clash>
0.0000

> <Gold.PLP.ligand.torsion>
0.9850

> <Gold.PLP.Chemscore.Hbond>
2.0000

> <Gold.PLP.Chemscore.CHOScore>
0.0000

> <Gold.PLP.Chemscore.Metal>
0.0000

> <Gold.Chemscore.Hbonds>
donor molecule, donor type, donor heavy atom, donor atom, acceptor molecule, acceptor atom, score
      P1  H  6896  6907       L1     1  1.00
      P1  H  7989  7998       L1    19  1.00

> <Gold.PLP.Chemscore.Internal.Correction>
0.3250

> <Gold.Rescore>
     Score         DG    S(hbond)    S(metal)    S(lipo)     H(rot)  DE(clash)    DE(int)     intcor
     17.47     -20.07       1.89        0.00     101.52       1.41       0.10       2.50       ----

> <Gold.Chemscore.Fitness>
17.4726

> <Gold.Chemscore.DG>
-20.0719

> <Gold.Chemscore.ZeroCoef>
-5.4800

> <Gold.Chemscore.Hbond>
1.8908

> <Gold.Chemscore.Metal>
0.0000

> <Gold.Chemscore.Lipo>
101.5192

> <Gold.Chemscore.Internal_Hbond>
0.0000

> <Gold.Chemscore.DEClash>
0.1007

> <Gold.Chemscore.DEInternal>
2.4986

> <Gold.Chemscore.Rot>
1.4067

> <Gold.Chemscore.Internal.Correction>
   9.000000E+99

> <Gold.Chemscore.Hbonds>
donor molecule, donor type, donor heavy atom, donor atom, acceptor molecule, acceptor atom, score
      P1  H  6896  6907       L1     1  0.92
      P1  H  7989  7998       L1    19  0.78

> <Gold.Chemscore.Hbond.Weighted>
-6.3152

> <Gold.Chemscore.Metal.Weighted>
-0.0000

> <Gold.Chemscore.Lipo.Weighted>
-11.8777

> <Gold.Chemscore.Internal_Hbond.Weighted>
0.0000

> <Gold.Chemscore.DEClash.Weighted>
0.1007

> <Gold.Chemscore.DEInternal.Weighted>
2.4986

> <Gold.Chemscore.Rot.Weighted>
3.6011

> <Gold.Chemscore.Internal.Correction.Weighted>
   9.000000E+99

> <Gold.Protein.RotatedTorsions>
[ 6907 6896 6895 6894 ] final  -49.74 input  -60.11 | X-H torsion
[ 7974 7965 7964 7962 ] final -157.03 input  175.53 | X-H torsion
[ 8008 7997 7996 7995 ] final  101.20 input   59.86 | X-H torsion
[ 10167 10162 10161 10158 ] final   71.98 input  -65.29 | X-H torsion
[ 10718 10713 10712 10709 ] final  100.06 input   66.30 | X-H torsion
[ 10763 10752 10751 10750 ] final  122.95 input  -60.55 | X-H torsion
[ 11005 11000 10999 10996 ] final  113.47 input  -57.11 | X-H torsion

> <Gold.Protein.ActiveResidues>
 VAL166  LYS551  ARG553  GLY616  TRP617  ASP618  TYR619  PRO620  LYS621  CYS622 
 ASP623  PHE694  ASN695  SER759  ASP760  ASP761  ALA762  ILE779  LEU786  VAL792 
 PHE793  MET794  SER795  GLU796  ALA797  LYS798  CYS799  TRP800  GLU811  SER814 

> <Gold.Protein.RotatedAtoms>
  150.8775  134.8161  159.7200 H   0  0  0  0  0  0  0  0  0  0  0  0  # atno 6907 bound_to 6896
  152.4756  134.4848  159.9686 H   0  0  0  0  0  0  0  0  0  0  0  0  # atno 6908 bound_to 6896
  151.4927  133.3482  159.2891 H   0  0  0  0  0  0  0  0  0  0  0  0  # atno 6909 bound_to 6896
  144.7566  140.4026  143.6007 H   0  0  0  0  0  0  0  0  0  0  0  0  # atno 7974 bound_to 7965
  156.1276  140.3201  155.8301 H   0  0  0  0  0  0  0  0  0  0  0  0  # atno 8008 bound_to 7997
  155.4390  140.0524  157.3029 H   0  0  0  0  0  0  0  0  0  0  0  0  # atno 8009 bound_to 7997
  154.4875  140.2078  155.9636 H   0  0  0  0  0  0  0  0  0  0  0  0  # atno 8010 bound_to 7997
  140.0402  144.5395  150.7440 H   0  0  0  0  0  0  0  0  0  0  0  0  # atno 10167 bound_to 10162
  157.6862  131.0687  150.5043 H   0  0  0  0  0  0  0  0  0  0  0  0  # atno 10718 bound_to 10713
  153.6378  135.3384  155.3062 H   0  0  0  0  0  0  0  0  0  0  0  0  # atno 10763 bound_to 10752
  154.8566  135.4311  154.2037 H   0  0  0  0  0  0  0  0  0  0  0  0  # atno 10764 bound_to 10752
  153.2948  135.7020  153.7332 H   0  0  0  0  0  0  0  0  0  0  0  0  # atno 10765 bound_to 10752
  139.8954  134.9550  156.6744 H   0  0  0  0  0  0  0  0  0  0  0  0  # atno 11005 bound_to 11000
  145.6758  139.1608  143.2729 LP  0  0  0  0  0  0  0  0  0  0  0  0  # atno 17320 bound_to 7965
  146.1583  140.6825  142.9289 LP  0  0  0  0  0  0  0  0  0  0  0  0  # atno 17321 bound_to 7965
  140.7263  143.2640  151.4108 LP  0  0  0  0  0  0  0  0  0  0  0  0  # atno 17342 bound_to 10162
  139.6018  144.1279  152.2207 LP  0  0  0  0  0  0  0  0  0  0  0  0  # atno 17343 bound_to 10162
  156.5363  130.4197  149.6176 LP  0  0  0  0  0  0  0  0  0  0  0  0  # atno 17370 bound_to 10713
  156.3025  130.7184  151.2059 LP  0  0  0  0  0  0  0  0  0  0  0  0  # atno 17371 bound_to 10713
  140.7348  133.9028  155.8236 LP  0  0  0  0  0  0  0  0  0  0  0  0  # atno 17394 bound_to 11000
  141.0124  134.1002  157.4207 LP  0  0  0  0  0  0  0  0  0  0  0  0  # atno 17395 bound_to 11000

$$$$
