AV-unprocessed.smi:818|AV-procd|sdf|3833|dock2
  -GOLD-   22720 1273D 1   1.00000     0.00000
 Structure written by MMmdl.
 44 45  0  0  0  0  0  0  0  0  1 V2000
  151.0243  142.7409  157.3424 C   0  0  0  0  0  0  0  0  0  0  0  0
  151.9285  141.5073  157.4510 C   0  0  0  0  0  0  0  0  0  0  0  0
  151.6491  140.5453  156.4031 N   0  0  0  0  0  0  0  0  0  0  0  0
  150.4811  140.3800  155.6856 C   0  0  0  0  0  0  0  0  0  0  0  0
  150.7150  139.3469  154.8286 C   0  0  0  0  0  0  0  0  0  0  0  0
  149.7716  138.8331  153.9046 N   0  0  0  0  0  0  0  0  0  0  0  0
  148.4884  139.2020  153.7632 C   0  0  0  0  0  0  0  0  0  0  0  0
  147.9084  140.0336  154.4616 O   0  0  0  0  0  0  0  0  0  0  0  0
  147.9019  138.5415  152.7542 N   0  0  0  0  0  0  0  0  0  0  0  0
  146.5064  138.6911  152.3438 C   0  0  1  0  0  0  0  0  0  0  0  0
  146.4858  138.9497  150.8280 C   0  0  0  0  0  0  0  0  0  0  0  0
  145.7136  137.4013  152.6128 C   0  0  0  0  0  0  0  0  0  0  0  0
  144.6738  137.4255  153.2736 O   0  0  0  0  0  0  0  0  0  0  0  0
  146.2351  136.2742  152.1049 N   0  0  0  0  0  0  0  0  0  0  0  0
  145.6655  134.9381  152.2563 C   0  0  0  0  0  0  0  0  0  0  0  0
  146.6427  134.0083  153.0012 C   0  0  0  0  0  0  0  0  0  0  0  0
  146.7194  132.7230  152.1750 C   0  0  0  0  0  0  0  0  0  0  0  0
  146.4559  133.1779  150.7430 C   0  0  0  0  0  0  0  0  0  0  0  0
  145.4045  134.2789  150.8874 C   0  0  0  0  0  0  0  0  0  0  0  0
  152.0517  138.9271  155.0812 C   0  0  0  0  0  0  0  0  0  0  0  0
  152.6067  139.6585  156.0361 N   0  0  0  0  0  0  0  0  0  0  0  0
  151.2476  143.4556  158.1346 H   0  0  0  0  0  0  0  0  0  0  0  0
  149.9719  142.4684  157.4281 H   0  0  0  0  0  0  0  0  0  0  0  0
  151.1628  143.2480  156.3871 H   0  0  0  0  0  0  0  0  0  0  0  0
  152.9765  141.8010  157.3840 H   0  0  0  0  0  0  0  0  0  0  0  0
  151.7966  141.0230  158.4197 H   0  0  0  0  0  0  0  0  0  0  0  0
  149.6083  140.9959  155.8461 H   0  0  0  0  0  0  0  0  0  0  0  0
  150.1124  138.1192  153.2776 H   0  0  0  0  0  0  0  0  0  0  0  0
  148.4543  137.8701  152.2413 H   0  0  0  0  0  0  0  0  0  0  0  0
  146.0475  139.5321  152.8677 H   0  0  0  0  0  0  0  0  0  0  0  0
  145.4670  139.0824  150.4618 H   0  0  0  0  0  0  0  0  0  0  0  0
  146.9363  138.1280  150.2690 H   0  0  0  0  0  0  0  0  0  0  0  0
  147.0377  139.8572  150.5809 H   0  0  0  0  0  0  0  0  0  0  0  0
  147.0919  136.3462  151.5755 H   0  0  0  0  0  0  0  0  0  0  0  0
  144.7293  134.9978  152.8148 H   0  0  0  0  0  0  0  0  0  0  0  0
  147.6369  134.4558  153.0533 H   0  0  0  0  0  0  0  0  0  0  0  0
  146.3253  133.8147  154.0265 H   0  0  0  0  0  0  0  0  0  0  0  0
  147.6750  132.2096  152.2847 H   0  0  0  0  0  0  0  0  0  0  0  0
  145.9340  132.0353  152.4908 H   0  0  0  0  0  0  0  0  0  0  0  0
  147.3691  133.5943  150.3154 H   0  0  0  0  0  0  0  0  0  0  0  0
  146.1256  132.3637  150.0974 H   0  0  0  0  0  0  0  0  0  0  0  0
  144.4112  133.8279  150.8919 H   0  0  0  0  0  0  0  0  0  0  0  0
  145.4316  134.9815  150.0531 H   0  0  0  0  0  0  0  0  0  0  0  0
  152.6298  138.1373  154.6255 H   0  0  0  0  0  0  0  0  0  0  0  0
  1  2  1  0  0  0  0
  1 22  1  0  0  0  0
  1 23  1  0  0  0  0
  1 24  1  0  0  0  0
  2  3  1  0  0  0  0
  2 25  1  0  0  0  0
  2 26  1  0  0  0  0
  3 21  1  0  0  0  0
  3  4  1  0  0  0  0
  4  5  2  0  0  0  0
  4 27  1  0  0  0  0
  5  6  1  0  0  0  0
  5 20  1  0  0  0  0
  6  7  1  0  0  0  0
  6 28  1  0  0  0  0
  7  8  2  0  0  0  0
  7  9  1  0  0  0  0
  9 10  1  0  0  0  0
  9 29  1  0  0  0  0
 10 11  1  0  0  0  0
 10 12  1  0  0  0  0
 10 30  1  0  0  0  0
 11 31  1  0  0  0  0
 11 32  1  0  0  0  0
 11 33  1  0  0  0  0
 12 13  2  0  0  0  0
 12 14  1  0  0  0  0
 14 15  1  0  0  0  0
 14 34  1  0  0  0  0
 15 19  1  0  0  0  0
 15 16  1  0  0  0  0
 15 35  1  0  0  0  0
 16 17  1  0  0  0  0
 16 36  1  0  0  0  0
 16 37  1  0  0  0  0
 17 18  1  0  0  0  0
 17 38  1  0  0  0  0
 17 39  1  0  0  0  0
 18 19  1  0  0  0  0
 18 40  1  0  0  0  0
 18 41  1  0  0  0  0
 19 42  1  0  0  0  0
 19 43  1  0  0  0  0
 20 21  2  0  0  0  0
 20 44  1  0  0  0  0
M  END
> <s_m_source_file>
AV-unprocessed.smi

> <i_m_source_file_index>
818

> <i_lp_mmshare_version>
43012

> <i_f3d_flags>
0

> <s_epik_input>
W0NIM11bQ0gyXW4xW2NIXWMoW2NIXW4xKVtOSF1DKD1PKVtOSF1bQ0BIXShbQ0gzXSlDKD1PKVtOSF1bQ0hdMltDSDJdW0NIMl1bQ0gyXVtDSDJdMg==

> <s_epik_cmdline>
J2VwaWtfcHl0aG9uJywgJy1waCcsICc3LjAnLCAnLXRuJywgJzgnLCAnLW1hJywgJzIwMCcsICctbWV0YWxfYmluZGluZycsICctaW1hZScsICc8aW5maWxlLm1hZT4nLCAnLW9tYWUnLCAnPG91dGZpbGUubWFlPic=

> <r_lp_tautomer_probability>
1

> <r_epik_Ionization_Penalty>
0.00015627

> <r_epik_Ionization_Penalty_Charging>
0

> <r_epik_Ionization_Penalty_Neutral>
0.00015627

> <r_epik_State_Penalty>
-0

> <r_epik_Charging_Adjusted_Penalty>
0

> <i_epik_Tot_Q>
0

> <i_epik_Tot_abs_Q>
0

> <r_epik_Metal_State_Penalty>
-0

> <b_epik_Metal_Only>
0

> <s_lp_Force_Field>
OPLS_2005

> <r_lp_Energy>
21.9602

> <b_lp_Chiralities_Consistent>
1

> <s_lp_Variant>
AV-unprocessed.smi:818-2

> <Gold.Version>
5.8.1

> <Gold.Id.Protein>
6NUR|6NUR_protein|mol2

> <Gold.PLP.Fitness>
45.6271

> <Gold.PLP.PLP>
-38.2358

> <Gold.PLP.part.hbond>
-5.0000

> <Gold.PLP.part.metal>
0.0000

> <Gold.PLP.part.buried>
0.2245

> <Gold.PLP.part.nonpolar>
-33.1639

> <Gold.PLP.part.repulsive>
0.4412

> <Gold.PLP.ligand.clash>
0.0000

> <Gold.PLP.ligand.torsion>
0.4711

> <Gold.PLP.Chemscore.Hbond>
2.7680

> <Gold.PLP.Chemscore.CHOScore>
0.0000

> <Gold.PLP.Chemscore.Metal>
0.0000

> <Gold.Chemscore.Hbonds>
donor molecule, donor type, donor heavy atom, donor atom, acceptor molecule, acceptor atom, score
      L1  H     9    29       P1  7948  1.00
      L1  H    14    34       P1  7948  0.82
      P1  H  7997  8008       L1    21  1.00

> <Gold.PLP.Chemscore.Internal.Correction>
0.0296

> <Gold.Rescore>
     Score         DG    S(hbond)    S(metal)    S(lipo)     H(rot)  DE(clash)    DE(int)     intcor
     18.24     -20.42       2.86        0.00      82.77       1.68       0.47       1.71       ----

> <Gold.Chemscore.Fitness>
18.2360

> <Gold.Chemscore.DG>
-20.4193

> <Gold.Chemscore.ZeroCoef>
-5.4800

> <Gold.Chemscore.Hbond>
2.8634

> <Gold.Chemscore.Metal>
0.0000

> <Gold.Chemscore.Lipo>
82.7657

> <Gold.Chemscore.Internal_Hbond>
0.0000

> <Gold.Chemscore.DEClash>
0.4706

> <Gold.Chemscore.DEInternal>
1.7128

> <Gold.Chemscore.Rot>
1.6828

> <Gold.Chemscore.Internal.Correction>
   9.000000E+99

> <Gold.Chemscore.Hbonds>
donor molecule, donor type, donor heavy atom, donor atom, acceptor molecule, acceptor atom, score
      L1  H     9    29       P1  7948  0.98
      L1  H    14    34       P1  7948  0.81
      P1  H  7997  8008       L1    21  0.97

> <Gold.Chemscore.Hbond.Weighted>
-9.5638

> <Gold.Chemscore.Metal.Weighted>
-0.0000

> <Gold.Chemscore.Lipo.Weighted>
-9.6836

> <Gold.Chemscore.Internal_Hbond.Weighted>
0.0000

> <Gold.Chemscore.DEClash.Weighted>
0.4706

> <Gold.Chemscore.DEInternal.Weighted>
1.7128

> <Gold.Chemscore.Rot.Weighted>
4.3081

> <Gold.Chemscore.Internal.Correction.Weighted>
   9.000000E+99

> <Gold.Protein.RotatedTorsions>
[ 6907 6896 6895 6894 ] final  130.51 input  -60.11 | X-H torsion
[ 7974 7965 7964 7962 ] final  135.38 input  175.53 | X-H torsion
[ 8008 7997 7996 7995 ] final  -30.24 input   59.86 | X-H torsion
[ 10167 10162 10161 10158 ] final -132.57 input  -65.29 | X-H torsion
[ 10718 10713 10712 10709 ] final -120.49 input   66.30 | X-H torsion
[ 10763 10752 10751 10750 ] final    6.41 input  -60.55 | X-H torsion
[ 11005 11000 10999 10996 ] final  -23.40 input  -57.11 | X-H torsion

> <Gold.Protein.ActiveResidues>
 VAL166  LYS551  ARG553  GLY616  TRP617  ASP618  TYR619  PRO620  LYS621  CYS622 
 ASP623  PHE694  ASN695  SER759  ASP760  ASP761  ALA762  ILE779  LEU786  VAL792 
 PHE793  MET794  SER795  GLU796  ALA797  LYS798  CYS799  TRP800  GLU811  SER814 

> <Gold.Protein.RotatedAtoms>
  152.3519  133.6190  159.5950 H   0  0  0  0  0  0  0  0  0  0  0  0  # atno 6907 bound_to 6896
  150.7543  133.9561  159.3509 H   0  0  0  0  0  0  0  0  0  0  0  0  # atno 6908 bound_to 6896
  151.7411  135.0855  160.0367 H   0  0  0  0  0  0  0  0  0  0  0  0  # atno 6909 bound_to 6896
  144.9669  139.4648  143.5452 H   0  0  0  0  0  0  0  0  0  0  0  0  # atno 7974 bound_to 7965
  154.4258  140.1797  156.1375 H   0  0  0  0  0  0  0  0  0  0  0  0  # atno 8008 bound_to 7997
  156.0018  140.3359  155.6829 H   0  0  0  0  0  0  0  0  0  0  0  0  # atno 8009 bound_to 7997
  155.6232  140.0662  157.2662 H   0  0  0  0  0  0  0  0  0  0  0  0  # atno 8010 bound_to 7997
  139.9072  143.6537  152.2583 H   0  0  0  0  0  0  0  0  0  0  0  0  # atno 10167 bound_to 10162
  156.1262  130.6361  150.9547 H   0  0  0  0  0  0  0  0  0  0  0  0  # atno 10718 bound_to 10713
  153.2480  135.6910  153.7710 H   0  0  0  0  0  0  0  0  0  0  0  0  # atno 10763 bound_to 10752
  153.6815  135.3328  155.3180 H   0  0  0  0  0  0  0  0  0  0  0  0  # atno 10764 bound_to 10752
  154.8383  135.4523  154.1427 H   0  0  0  0  0  0  0  0  0  0  0  0  # atno 10765 bound_to 10752
  140.8748  133.7695  156.0230 H   0  0  0  0  0  0  0  0  0  0  0  0  # atno 11005 bound_to 11000
  146.3370  139.8856  142.8817 LP  0  0  0  0  0  0  0  0  0  0  0  0  # atno 17320 bound_to 7965
  145.2616  141.0079  143.3823 LP  0  0  0  0  0  0  0  0  0  0  0  0  # atno 17321 bound_to 7965
  139.6974  144.7639  151.1332 LP  0  0  0  0  0  0  0  0  0  0  0  0  # atno 17342 bound_to 10162
  140.7694  143.5505  150.9210 LP  0  0  0  0  0  0  0  0  0  0  0  0  # atno 17343 bound_to 10162
  157.6444  131.0906  150.8185 LP  0  0  0  0  0  0  0  0  0  0  0  0  # atno 17370 bound_to 10713
  156.8275  130.5005  149.5335 LP  0  0  0  0  0  0  0  0  0  0  0  0  # atno 17371 bound_to 10713
  140.8531  134.2931  157.5267 LP  0  0  0  0  0  0  0  0  0  0  0  0  # atno 17394 bound_to 11000
  139.8715  134.9478  156.3978 LP  0  0  0  0  0  0  0  0  0  0  0  0  # atno 17395 bound_to 11000

$$$$
