#       Name:                AV-unprocessed.smi:2290
#       Creating user name   scv26
#       Creation time:       Fri Mar 27 12:43:07 2020


#       File generated by GOLD software.
#

@<TRIPOS>MOLECULE
AV-unprocessed.smi:2290
    45    46     1
SMALL
NO_CHARGES


@<TRIPOS>ATOM
      1 ****        -2.0603   5.5327  -1.0035 C.3            1 S1                 0.0000
      2 ****        -1.5575   4.1076  -0.8558 C.2            1 S1                 0.0000
      3 ****        -1.1936   3.7267   0.4390 N.2            1 S1                 0.0000
      4 ****        -0.7541   2.5309   0.6599 C.2            1 S1                 0.0000
      5 ****        -0.6311   1.5876  -0.3731 N.am           1 S1                 0.0000
      6 ****        -0.1089   0.2657   0.0106 C.3            1 S1                 0.0000
      7 ****         1.4044   0.1352  -0.2731 C.3            1 S1                 0.0000
      8 ****         2.1554   0.7019   0.7813 O.3            1 S1                 0.0000
      9 ****         1.8634  -1.3227  -0.4372 C.3            1 S1                 0.0000
     10 ****         1.3297  -2.1161   0.6105 O.3            1 S1                 0.0000
     11 ****         1.7041  -3.4802   0.5142 C.3            1 S1                 0.0000
     12 ****         1.0861  -4.2151   1.6625 C.2            1 S1                 0.0000
     13 ****         1.3386  -5.5113   2.0334 C.2            1 S1                 0.0000
     14 ****         0.5850  -5.9315   3.1685 C.2            1 S1                 0.0000
     15 ****        -0.2387  -4.9505   3.6519 C.2            1 S1                 0.0000
     16 ****        -0.1060  -3.4868   2.7169 S.3            1 S1                 0.0000
     17 ****        -0.9541   1.8794  -1.6662 C.2            1 S1                 0.0000
     18 ****        -0.8245   1.0494  -2.5683 O.2            1 S1                 0.0000
     19 ****        -1.4576   3.2423  -1.9017 C.2            1 S1                 0.0000
     20 ****        -1.8387   3.6011  -3.3326 C.3            1 S1                 0.0000
     21 ****        -3.0844   5.5393  -1.3776 H              1 S1                 0.0000
     22 ****        -1.4309   6.0893  -1.6981 H              1 S1                 0.0000
     23 ****        -2.0499   6.0594  -0.0484 H              1 S1                 0.0000
     24 ****        -0.4515   2.1858   1.6501 H              1 S1                 0.0000
     25 ****        -0.3258   0.0250   1.0537 H              1 S1                 0.0000
     26 ****        -0.6485  -0.4957  -0.5560 H              1 S1                 0.0000
     27 ****         1.6664   0.6719  -1.1857 H              1 S1                 0.0000
     28 ****         1.9940   0.1990   1.5653 H              1 S1                 0.0000
     29 ****         1.4987  -1.7070  -1.3910 H              1 S1                 0.0000
     30 ****         2.9527  -1.3873  -0.4601 H              1 S1                 0.0000
     31 ****         1.3574  -3.9042  -0.4293 H              1 S1                 0.0000
     32 ****         2.7902  -3.5780   0.5476 H              1 S1                 0.0000
     33 ****         2.0343  -6.1679   1.5320 H              1 S1                 0.0000
     34 ****         0.6717  -6.9247   3.5841 H              1 S1                 0.0000
     35 ****        -0.9129  -4.9982   4.4942 H              1 S1                 0.0000
     36 ****        -0.9705   3.5126  -3.9863 H              1 S1                 0.0000
     37 ****        -2.2244   4.6141  -3.4337 H              1 S1                 0.0000
     38 ****        -2.6080   2.9204  -3.6985 H              1 S1                 0.0000
     39 ****        -1.2731   4.3782   1.1935 LP             1 S1                 0.0000
     40 ****         1.8741   1.6508   0.9246 LP             1 S1                 0.0000
     41 ****         3.1293   0.6733   0.5560 LP             1 S1                 0.0000
     42 ****         0.3320  -2.0560   0.5800 LP             1 S1                 0.0000
     43 ****         1.6588  -1.7556   1.4833 LP             1 S1                 0.0000
     44 ****        -0.4750   0.1358  -2.3607 LP             1 S1                 0.0000
     45 ****        -1.0689   1.2897  -3.5077 LP             1 S1                 0.0000
@<TRIPOS>BOND
    1    1    2 1     
    2    1   21 1     
    3    1   22 1     
    4    1   23 1     
    5    2   19 2     
    6    2    3 1     
    7    3    4 2     
    8    4    5 1     
    9    4   24 1     
   10    5    6 1     
   11    5   17 am    
   12    6    7 1     
   13    6   25 1     
   14    6   26 1     
   15    7    8 1     
   16    7    9 1     
   17    7   27 1     
   18    8   28 1     
   19    9   10 1     
   20    9   29 1     
   21    9   30 1     
   22   10   11 1     
   23   11   12 1     
   24   11   31 1     
   25   11   32 1     
   26   12   16 1     
   27   12   13 2     
   28   13   14 1     
   29   13   33 1     
   30   14   15 2     
   31   14   34 1     
   32   15   16 1     
   33   15   35 1     
   34   17   18 2     
   35   17   19 1     
   36   19   20 1     
   37   20   36 1     
   38   20   37 1     
   39   20   38 1     
   40    3   39 1     
   41    8   40 1     
   42    8   41 1     
   43   10   42 1     
   44   10   43 1     
   45   18   44 1     
   46   18   45 1     
@<TRIPOS>SUBSTRUCTURE
      1 S1             1
@<TRIPOS>SET
LONE_PAIRS      STATIC     ATOMS    <user>   **** ""
7 39 40 41 42 43 44 45
DONOR_HYDROGENS      STATIC     ATOMS    <user>   **** ""
1 28
ATOM$BLUE        STATIC     ATOMS    COLORGROUP SYSTEM
7 39 40 41 42 43 44 45
ATOM$RED        STATIC     ATOMS    COLORGROUP SYSTEM
1 28
