#       Name:                AV-unprocessed.smi:1972
#       Creating user name   scv26
#       Creation time:       Fri Mar 27 10:14:56 2020


#       File generated by GOLD software.
#

@<TRIPOS>MOLECULE
AV-unprocessed.smi:1972
    50    51     1
SMALL
NO_CHARGES


@<TRIPOS>ATOM
      1 ****        -4.3437   6.1524  -4.0973 C.3            1 S1                 0.0000
      2 ****        -3.8302   5.3573  -2.5528 S.3            1 S1                 0.0000
      3 ****        -3.9600   3.6161  -3.0535 C.3            1 S1                 0.0000
      4 ****        -3.5772   2.6494  -1.9179 C.3            1 S1                 0.0000
      5 ****        -2.0770   2.6343  -1.6044 C.2            1 S1                 0.0000
      6 ****        -1.2493   2.6502  -2.5157 O.2            1 S1                 0.0000
      7 ****        -1.7424   2.5906  -0.3052 N.am           1 S1                 0.0000
      8 ****        -0.3808   2.5817   0.2234 C.3            1 S1                 0.0000
      9 ****         0.1448   1.1997   0.5875 C.ar           1 S1                 0.0000
     10 ****         1.0125   1.0430   1.6862 C.ar           1 S1                 0.0000
     11 ****         1.4969  -0.2405   2.0024 C.ar           1 S1                 0.0000
     12 ****         1.1086  -1.3420   1.2030 C.ar           1 S1                 0.0000
     13 ****         1.5811  -2.6399   1.4989 N.3            1 S1                 0.0000
     14 ****         0.9780  -3.7680   0.7913 C.3            1 S1                 0.0000
     15 ****         1.3945  -5.0958   1.4451 C.3            1 S1                 0.0000
     16 ****         2.8146  -5.1752   1.5082 O.3            1 S1                 0.0000
     17 ****         3.3752  -4.1317   2.2999 C.3            1 S1                 0.0000
     18 ****         4.8885  -4.3543   2.3883 C.3            1 S1                 0.0000
     19 ****         3.0266  -2.7704   1.6670 C.3            1 S1                 0.0000
     20 ****         0.2746  -1.1877   0.1450 N.ar           1 S1                 0.0000
     21 ****        -0.1871   0.0449  -0.1534 C.ar           1 S1                 0.0000
     22 ****        -4.3274   7.2366  -3.9863 H              1 S1                 0.0000
     23 ****        -5.3553   5.8469  -4.3649 H              1 S1                 0.0000
     24 ****        -3.6697   5.8774  -4.9089 H              1 S1                 0.0000
     25 ****        -4.9905   3.4277  -3.3554 H              1 S1                 0.0000
     26 ****        -3.3436   3.4479  -3.9376 H              1 S1                 0.0000
     27 ****        -4.1493   2.8878  -1.0198 H              1 S1                 0.0000
     28 ****        -3.8603   1.6353  -2.2011 H              1 S1                 0.0000
     29 ****        -2.4909   2.5756   0.3726 H              1 S1                 0.0000
     30 ****         0.3142   3.0475  -0.4769 H              1 S1                 0.0000
     31 ****        -0.3750   3.2086   1.1154 H              1 S1                 0.0000
     32 ****         1.3011   1.8936   2.2861 H              1 S1                 0.0000
     33 ****         2.1443  -0.3640   2.8574 H              1 S1                 0.0000
     34 ****        -0.1096  -3.6863   0.8047 H              1 S1                 0.0000
     35 ****         1.2952  -3.7499  -0.2523 H              1 S1                 0.0000
     36 ****         0.9690  -5.1871   2.4459 H              1 S1                 0.0000
     37 ****         1.0169  -5.9355   0.8617 H              1 S1                 0.0000
     38 ****         2.9584  -4.1848   3.3075 H              1 S1                 0.0000
     39 ****         5.3630  -3.5850   2.9979 H              1 S1                 0.0000
     40 ****         5.3494  -4.3310   1.4004 H              1 S1                 0.0000
     41 ****         5.1140  -5.3212   2.8389 H              1 S1                 0.0000
     42 ****         3.5011  -2.6783   0.6891 H              1 S1                 0.0000
     43 ****         3.4335  -1.9765   2.2915 H              1 S1                 0.0000
     44 ****        -0.8371   0.1004  -1.0135 H              1 S1                 0.0000
     45 ****        -1.5542   2.6731  -3.4678 LP             1 S1                 0.0000
     46 ****        -0.2721   2.6402  -2.3038 LP             1 S1                 0.0000
     47 ****         1.1964  -2.7317   2.4174 LP             1 S1                 0.0000
     48 ****         3.1827  -5.1095   0.5808 LP             1 S1                 0.0000
     49 ****         3.0709  -6.0557   1.9070 LP             1 S1                 0.0000
     50 ****         0.0052  -1.9769  -0.4069 LP             1 S1                 0.0000
@<TRIPOS>BOND
    1    1    2 1     
    2    1   22 1     
    3    1   23 1     
    4    1   24 1     
    5    2    3 1     
    6    3    4 1     
    7    3   25 1     
    8    3   26 1     
    9    4    5 1     
   10    4   27 1     
   11    4   28 1     
   12    5    6 2     
   13    5    7 am    
   14    7    8 1     
   15    7   29 1     
   16    8    9 1     
   17    8   30 1     
   18    8   31 1     
   19    9   21 ar    
   20    9   10 ar    
   21   10   11 ar    
   22   10   32 1     
   23   11   12 ar    
   24   11   33 1     
   25   12   13 1     
   26   12   20 ar    
   27   13   19 1     
   28   13   14 1     
   29   14   15 1     
   30   14   34 1     
   31   14   35 1     
   32   15   16 1     
   33   15   36 1     
   34   15   37 1     
   35   16   17 1     
   36   17   18 1     
   37   17   19 1     
   38   17   38 1     
   39   18   39 1     
   40   18   40 1     
   41   18   41 1     
   42   19   42 1     
   43   19   43 1     
   44   20   21 ar    
   45   21   44 1     
   46    6   45 1     
   47    6   46 1     
   48   13   47 1     
   49   16   48 1     
   50   16   49 1     
   51   20   50 1     
@<TRIPOS>SUBSTRUCTURE
      1 S1             1
@<TRIPOS>SET
LONE_PAIRS      STATIC     ATOMS    <user>   **** ""
6 45 46 47 48 49 50
DONOR_HYDROGENS      STATIC     ATOMS    <user>   **** ""
1 29
ATOM$BLUE        STATIC     ATOMS    COLORGROUP SYSTEM
6 45 46 47 48 49 50
ATOM$RED        STATIC     ATOMS    COLORGROUP SYSTEM
1 29
