AV-unprocessed.smi:1738|AV-procd|sdf|7002|dock2
  -GOLD-   22720 8213D 1   1.00000     0.00000
 Structure written by MMmdl.
 46 48  0  0  0  0  0  0  0  0  2 V2000
  153.2006  130.6978  156.1291 C   0  0  0  0  0  0  0  0  0  0  0  0
  151.9555  131.4738  157.2378 S   0  0  0  0  0  0  0  0  0  0  0  0
  151.1596  130.4035  157.8590 O   0  0  0  0  0  0  0  0  0  0  0  0
  152.6552  132.4470  158.0911 O   0  0  0  0  0  0  0  0  0  0  0  0
  150.8897  132.3728  156.1166 C   0  0  0  0  0  0  0  0  0  0  0  0
  150.9879  133.7744  156.0078 C   0  0  0  0  0  0  0  0  0  0  0  0
  150.1507  134.4296  155.0847 C   0  0  0  0  0  0  0  0  0  0  0  0
  149.2626  133.6564  154.2957 C   0  0  0  0  0  0  0  0  0  0  0  0
  148.3539  134.1898  153.3404 N   0  0  0  0  0  0  0  0  0  0  0  0
  147.0892  133.8208  153.0735 C   0  0  0  0  0  0  0  0  0  0  0  0
  146.4637  132.9350  153.6547 O   0  0  0  0  0  0  0  0  0  0  0  0
  146.5710  134.5561  152.0795 N   0  0  0  0  0  0  0  0  0  0  0  0
  145.2217  134.4095  151.5408 C   0  0  1  0  0  0  0  0  0  0  0  0
  144.9212  132.9803  151.0558 C   0  0  0  0  0  0  0  0  0  0  0  0
  143.4491  132.7213  151.4332 C   0  0  0  0  0  0  0  0  0  0  0  0
  142.9633  133.9897  152.0093 N   0  3  1  0  0  0  0  0  0  0  0  0
  141.8190  133.9118  152.9433 C   0  0  0  0  0  0  0  0  0  0  0  0
  141.4084  135.3371  153.3640 C   0  0  0  0  0  0  0  0  0  0  0  0
  142.6044  136.1370  153.9186 C   0  0  0  0  0  0  0  0  0  0  0  0
  143.7973  136.1031  152.9438 C   0  0  0  0  0  0  0  0  0  0  0  0
  144.1409  134.6437  152.5995 C   0  0  2  0  0  0  0  0  0  0  0  0
  149.2581  132.2580  154.4895 C   0  0  0  0  0  0  0  0  0  0  0  0
  150.0562  131.6187  155.3696 N   0  0  0  0  0  0  0  0  0  0  0  0
  153.9072  130.1212  156.7254 H   0  0  0  0  0  0  0  0  0  0  0  0
  153.7349  131.4744  155.5823 H   0  0  0  0  0  0  0  0  0  0  0  0
  152.6974  130.0372  155.4234 H   0  0  0  0  0  0  0  0  0  0  0  0
  151.6791  134.3382  156.6165 H   0  0  0  0  0  0  0  0  0  0  0  0
  150.2048  135.5040  155.0129 H   0  0  0  0  0  0  0  0  0  0  0  0
  148.7040  134.9760  152.8125 H   0  0  0  0  0  0  0  0  0  0  0  0
  147.1539  135.2675  151.6629 H   0  0  0  0  0  0  0  0  0  0  0  0
  145.0658  135.0935  150.7036 H   0  0  0  0  0  0  0  0  0  0  0  0
  145.0873  132.8875  149.9823 H   0  0  0  0  0  0  0  0  0  0  0  0
  145.5615  132.2484  151.5507 H   0  0  0  0  0  0  0  0  0  0  0  0
  142.8443  132.4323  150.5733 H   0  0  0  0  0  0  0  0  0  0  0  0
  143.3880  131.9228  152.1746 H   0  0  0  0  0  0  0  0  0  0  0  0
  140.9832  133.4071  152.4578 H   0  0  0  0  0  0  0  0  0  0  0  0
  142.0919  133.3185  153.8175 H   0  0  0  0  0  0  0  0  0  0  0  0
  140.9956  135.8622  152.5015 H   0  0  0  0  0  0  0  0  0  0  0  0
  140.6114  135.2932  154.1068 H   0  0  0  0  0  0  0  0  0  0  0  0
  142.3084  137.1679  154.1144 H   0  0  0  0  0  0  0  0  0  0  0  0
  142.9078  135.7150  154.8775 H   0  0  0  0  0  0  0  0  0  0  0  0
  143.5535  136.6569  152.0362 H   0  0  0  0  0  0  0  0  0  0  0  0
  144.6563  136.6004  153.3941 H   0  0  0  0  0  0  0  0  0  0  0  0
  144.4134  134.1100  153.5132 H   0  0  0  0  0  0  0  0  0  0  0  0
  148.5936  131.6284  153.9159 H   0  0  0  0  0  0  0  0  0  0  0  0
  142.6775  134.5670  151.2312 H   0  0  0  0  0  0  0  0  0  0  0  0
  1  2  1  0  0  0  0
  1 24  1  0  0  0  0
  1 25  1  0  0  0  0
  1 26  1  0  0  0  0
  2  3  2  0  0  0  0
  2  4  2  0  0  0  0
  2  5  1  0  0  0  0
  5 23  1  0  0  0  0
  5  6  2  0  0  0  0
  6  7  1  0  0  0  0
  6 27  1  0  0  0  0
  7  8  2  0  0  0  0
  7 28  1  0  0  0  0
  8  9  1  0  0  0  0
  8 22  1  0  0  0  0
  9 10  1  0  0  0  0
  9 29  1  0  0  0  0
 10 11  2  0  0  0  0
 10 12  1  0  0  0  0
 12 13  1  0  0  0  0
 12 30  1  0  0  0  0
 13 21  1  0  0  0  0
 13 14  1  0  0  0  0
 13 31  1  0  0  0  0
 14 15  1  0  0  0  0
 14 32  1  0  0  0  0
 14 33  1  0  0  0  0
 15 16  1  0  0  0  0
 15 34  1  0  0  0  0
 15 35  1  0  0  0  0
 16 21  1  0  0  0  0
 16 17  1  0  0  0  0
 16 46  1  0  0  0  0
 17 18  1  0  0  0  0
 17 36  1  0  0  0  0
 17 37  1  0  0  0  0
 18 19  1  0  0  0  0
 18 38  1  0  0  0  0
 18 39  1  0  0  0  0
 19 20  1  0  0  0  0
 19 40  1  0  0  0  0
 19 41  1  0  0  0  0
 20 21  1  0  0  0  0
 20 42  1  0  0  0  0
 20 43  1  0  0  0  0
 21 44  1  0  0  0  0
 22 23  2  0  0  0  0
 22 45  1  0  0  0  0
M  CHG  1  16   1
M  END
> <s_m_source_file>
AV-unprocessed.smi

> <i_m_source_file_index>
1738

> <i_lp_mmshare_version>
43012

> <i_f3d_flags>
0

> <s_epik_input>
W0NIM11TKD1PKSg9TyljMVtjSF1bY0hdYyhbY0hdbjEpW05IXUMoPU8pW05IXVtDQEhdKFtDSDJdW0NIMl0yKVtDQEBIXShOMjMpW0NIMl1bQ0gyXVtDSDJdW0NIMl0z

> <s_epik_cmdline>
J2VwaWtfcHl0aG9uJywgJy1waCcsICc3LjAnLCAnLXRuJywgJzgnLCAnLW1hJywgJzIwMCcsICctbWV0YWxfYmluZGluZycsICctaW1hZScsICc8aW5maWxlLm1hZT4nLCAnLW9tYWUnLCAnPG91dGZpbGUubWFlPic=

> <r_epik_Ionization_Penalty>
0.00100042

> <r_epik_Ionization_Penalty_Charging>
0.000974069

> <r_epik_Ionization_Penalty_Neutral>
2.63543e-05

> <r_epik_State_Penalty>
0.000633842

> <r_epik_Charging_Adjusted_Penalty>
0.00160791

> <i_epik_Tot_Q>
1

> <i_epik_Tot_abs_Q>
1

> <r_epik_Metal_State_Penalty>
-0

> <b_epik_Metal_Only>
0

> <s_lp_Force_Field>
OPLS_2005

> <r_lp_Energy>
37.3337

> <b_lp_Chiralities_Consistent>
1

> <s_lp_Variant>
AV-unprocessed.smi:1738-6

> <Gold.Version>
5.8.1

> <Gold.Id.Protein>
6NUR|6NUR_protein|mol2

> <Gold.PLP.Fitness>
46.0613

> <Gold.PLP.PLP>
-36.8192

> <Gold.PLP.part.hbond>
-4.0000

> <Gold.PLP.part.metal>
0.0000

> <Gold.PLP.part.buried>
-3.4898

> <Gold.PLP.part.nonpolar>
-29.2234

> <Gold.PLP.part.repulsive>
0.1330

> <Gold.PLP.ligand.clash>
0.0000

> <Gold.PLP.ligand.torsion>
1.3351

> <Gold.PLP.Chemscore.Hbond>
3.2940

> <Gold.PLP.Chemscore.CHOScore>
0.0000

> <Gold.PLP.Chemscore.Metal>
0.0000

> <Gold.Chemscore.Hbonds>
donor molecule, donor type, donor heavy atom, donor atom, acceptor molecule, acceptor atom, score
      L1  H     9    29       P1  7948  1.00
      L1  H    12    30       P1  7948  0.86
      L1  H    16    46       P1 10186  0.15
      P1  H  6896  6907       L1     4  1.00

> <Gold.PLP.Chemscore.Internal.Correction>
2.0303

> <Gold.Rescore>
     Score         DG    S(hbond)    S(metal)    S(lipo)     H(rot)  DE(clash)    DE(int)     intcor
     15.61     -19.28       2.57        0.00      66.55       1.00       0.02       3.66       ----

> <Gold.Chemscore.Fitness>
15.6093

> <Gold.Chemscore.DG>
-19.2805

> <Gold.Chemscore.ZeroCoef>
-5.4800

> <Gold.Chemscore.Hbond>
2.5671

> <Gold.Chemscore.Metal>
0.0000

> <Gold.Chemscore.Lipo>
66.5489

> <Gold.Chemscore.Internal_Hbond>
0.0000

> <Gold.Chemscore.DEClash>
0.0162

> <Gold.Chemscore.DEInternal>
3.6550

> <Gold.Chemscore.Rot>
1.0000

> <Gold.Chemscore.Internal.Correction>
   9.000000E+99

> <Gold.Chemscore.Hbonds>
donor molecule, donor type, donor heavy atom, donor atom, acceptor molecule, acceptor atom, score
      L1  H     9    29       P1  7948  0.24
      L1  H    12    30       P1  7948  0.80
      L1  H    16    46       P1 10186  0.01
      P1  H  6896  6907       L1     4  0.99

> <Gold.Chemscore.Hbond.Weighted>
-8.5743

> <Gold.Chemscore.Metal.Weighted>
-0.0000

> <Gold.Chemscore.Lipo.Weighted>
-7.7862

> <Gold.Chemscore.Internal_Hbond.Weighted>
0.0000

> <Gold.Chemscore.DEClash.Weighted>
0.0162

> <Gold.Chemscore.DEInternal.Weighted>
3.6550

> <Gold.Chemscore.Rot.Weighted>
2.5600

> <Gold.Chemscore.Internal.Correction.Weighted>
   9.000000E+99

> <Gold.Protein.RotatedTorsions>
[ 6907 6896 6895 6894 ] final  151.81 input  -60.11 | X-H torsion
[ 7974 7965 7964 7962 ] final  -31.55 input  175.53 | X-H torsion
[ 8008 7997 7996 7995 ] final  -71.30 input   59.86 | X-H torsion
[ 10167 10162 10161 10158 ] final  173.58 input  -65.29 | X-H torsion
[ 10718 10713 10712 10709 ] final   71.62 input   66.30 | X-H torsion
[ 10763 10752 10751 10750 ] final  -29.31 input  -60.55 | X-H torsion
[ 11005 11000 10999 10996 ] final  101.91 input  -57.11 | X-H torsion

> <Gold.Protein.ActiveResidues>
 VAL166  LYS551  ARG553  GLY616  TRP617  ASP618  TYR619  PRO620  LYS621  CYS622 
 ASP623  PHE694  ASN695  SER759  ASP760  ASP761  ALA762  ILE779  LEU786  VAL792 
 PHE793  MET794  SER795  GLU796  ALA797  LYS798  CYS799  TRP800  GLU811  SER814 

> <Gold.Protein.RotatedAtoms>
  152.0954  133.4222  159.4562 H   0  0  0  0  0  0  0  0  0  0  0  0  # atno 6907 bound_to 6896
  150.6863  134.2823  159.4641 H   0  0  0  0  0  0  0  0  0  0  0  0  # atno 6908 bound_to 6896
  152.0678  134.9552  160.0625 H   0  0  0  0  0  0  0  0  0  0  0  0  # atno 6909 bound_to 6896
  146.1058  140.5682  142.8800 H   0  0  0  0  0  0  0  0  0  0  0  0  # atno 7974 bound_to 7965
  154.5077  140.0818  156.7928 H   0  0  0  0  0  0  0  0  0  0  0  0  # atno 8008 bound_to 7997
  155.3855  140.3430  155.4230 H   0  0  0  0  0  0  0  0  0  0  0  0  # atno 8009 bound_to 7997
  156.1536  140.1566  156.8717 H   0  0  0  0  0  0  0  0  0  0  0  0  # atno 8010 bound_to 7997
  139.5113  144.3245  152.0171 H   0  0  0  0  0  0  0  0  0  0  0  0  # atno 10167 bound_to 10162
  157.6460  130.9537  150.0814 H   0  0  0  0  0  0  0  0  0  0  0  0  # atno 10718 bound_to 10713
  153.7626  135.6918  153.4922 H   0  0  0  0  0  0  0  0  0  0  0  0  # atno 10763 bound_to 10752
  153.1928  135.4465  155.0169 H   0  0  0  0  0  0  0  0  0  0  0  0  # atno 10764 bound_to 10752
  154.8147  135.3393  154.7140 H   0  0  0  0  0  0  0  0  0  0  0  0  # atno 10765 bound_to 10752
  139.8775  134.9202  156.4978 H   0  0  0  0  0  0  0  0  0  0  0  0  # atno 11005 bound_to 11000
  144.7470  140.5093  143.6829 LP  0  0  0  0  0  0  0  0  0  0  0  0  # atno 17320 bound_to 7965
  145.5763  139.1486  143.3260 LP  0  0  0  0  0  0  0  0  0  0  0  0  # atno 17321 bound_to 7965
  140.2686  144.3989  150.6159 LP  0  0  0  0  0  0  0  0  0  0  0  0  # atno 17342 bound_to 10162
  140.6105  143.2169  151.6895 LP  0  0  0  0  0  0  0  0  0  0  0  0  # atno 17343 bound_to 10162
  156.1789  130.3649  149.9062 LP  0  0  0  0  0  0  0  0  0  0  0  0  # atno 17370 bound_to 10713
  156.7019  130.8936  151.3600 LP  0  0  0  0  0  0  0  0  0  0  0  0  # atno 17371 bound_to 10713
  140.8612  133.8058  155.9267 LP  0  0  0  0  0  0  0  0  0  0  0  0  # atno 17394 bound_to 11000
  140.9048  134.2334  157.5021 LP  0  0  0  0  0  0  0  0  0  0  0  0  # atno 17395 bound_to 11000

$$$$
