#       Name:                AV-unprocessed.smi:2403
#       Creating user name   scv26
#       Creation time:       Fri Mar 27 13:13:49 2020


#       File generated by GOLD software.
#

@<TRIPOS>MOLECULE
AV-unprocessed.smi:2403
    52    54     1
SMALL
NO_CHARGES


@<TRIPOS>ATOM
      1 ****        -4.1524  -0.7084  -0.2577 C.3            1 S1                 0.0000
      2 ****        -3.9701   0.7103  -0.7673 C.ar           1 S1                 0.0000
      3 ****        -5.0618   1.6032  -0.7636 C.ar           1 S1                 0.0000
      4 ****        -4.8655   2.9123  -1.2437 C.ar           1 S1                 0.0000
      5 ****        -3.6833   3.3575  -1.7162 N.ar           1 S1                 0.0000
      6 ****        -2.6392   2.5020  -1.7173 C.ar           1 S1                 0.0000
      7 ****        -2.7186   1.1684  -1.2446 C.ar           1 S1                 0.0000
      8 ****        -1.6153   0.2713  -1.2755 N.am           1 S1                 0.0000
      9 ****        -0.3088   0.5674  -1.1750 C.2            1 S1                 0.0000
     10 ****         0.1510   1.7000  -1.0303 O.2            1 S1                 0.0000
     11 ****         0.4445  -0.5461  -1.2122 N.am           1 S1                 0.0000
     12 ****         1.9109  -0.6550  -1.0922 C.3            1 S1                 0.0000
     13 ****         2.4316  -0.3309   0.3381 C.2            1 S1                 0.0000
     14 ****         3.6417  -0.2207   0.5410 O.2            1 S1                 0.0000
     15 ****         1.5320  -0.1973   1.3264 N.am           1 S1                 0.0000
     16 ****         1.8493   0.1119   2.7115 C.3            1 S1                 0.0000
     17 ****         0.6293   0.3558   3.5742 C.3            1 S1                 0.0000
     18 ****         0.7329   0.3202   5.0805 C.3            1 S1                 0.0000
     19 ****        -0.0126  -0.7708   4.3495 C.3            1 S1                 0.0000
     20 ****         2.3164  -2.1062  -1.4487 C.3            1 S1                 0.0000
     21 ****         3.6396  -2.0123  -2.2057 C.3            1 S1                 0.0000
     22 ****         3.5007  -0.7360  -3.0242 C.3            1 S1                 0.0000
     23 ****         2.6345   0.2043  -2.1765 C.3            1 S1                 0.0000
     24 ****        -5.1655  -0.8702   0.1114 H              1 S1                 0.0000
     25 ****        -3.4606  -0.9118   0.5601 H              1 S1                 0.0000
     26 ****        -3.9649  -1.4261  -1.0565 H              1 S1                 0.0000
     27 ****        -6.0321   1.2961  -0.4016 H              1 S1                 0.0000
     28 ****        -5.6820   3.6190  -1.2536 H              1 S1                 0.0000
     29 ****        -1.7268   2.9024  -2.1319 H              1 S1                 0.0000
     30 ****        -1.8522  -0.7099  -1.2869 H              1 S1                 0.0000
     31 ****        -0.0452  -1.4212  -1.3267 H              1 S1                 0.0000
     32 ****         0.5552  -0.3005   1.0928 H              1 S1                 0.0000
     33 ****         2.4387  -0.7024   3.1359 H              1 S1                 0.0000
     34 ****         2.4731   1.0066   2.7440 H              1 S1                 0.0000
     35 ****        -0.0468   1.1078   3.1710 H              1 S1                 0.0000
     36 ****         1.6964   0.0645   5.5168 H              1 S1                 0.0000
     37 ****         0.1434   1.0424   5.6416 H              1 S1                 0.0000
     38 ****        -1.0983  -0.7748   4.4209 H              1 S1                 0.0000
     39 ****         0.4552  -1.7521   4.3007 H              1 S1                 0.0000
     40 ****         2.3978  -2.7603  -0.5789 H              1 S1                 0.0000
     41 ****         1.5723  -2.5588  -2.1066 H              1 S1                 0.0000
     42 ****         4.4669  -1.9139  -1.5019 H              1 S1                 0.0000
     43 ****         3.8325  -2.8887  -2.8251 H              1 S1                 0.0000
     44 ****         4.4667  -0.2986  -3.2787 H              1 S1                 0.0000
     45 ****         2.9849  -0.9599  -3.9589 H              1 S1                 0.0000
     46 ****         1.9413   0.7342  -2.8304 H              1 S1                 0.0000
     47 ****         3.2619   0.9767  -1.7292 H              1 S1                 0.0000
     48 ****        -3.5833   4.2929  -2.0554 LP             1 S1                 0.0000
     49 ****        -0.4642   2.4866  -0.9791 LP             1 S1                 0.0000
     50 ****         1.1399   1.8335  -0.9638 LP             1 S1                 0.0000
     51 ****         4.2880  -0.3395  -0.2128 LP             1 S1                 0.0000
     52 ****         3.9778  -0.0125   1.4596 LP             1 S1                 0.0000
@<TRIPOS>BOND
    1    1    2 1     
    2    1   24 1     
    3    1   25 1     
    4    1   26 1     
    5    2    7 ar    
    6    2    3 ar    
    7    3    4 ar    
    8    3   27 1     
    9    4    5 ar    
   10    4   28 1     
   11    5    6 ar    
   12    6    7 ar    
   13    6   29 1     
   14    7    8 1     
   15    8    9 am    
   16    8   30 1     
   17    9   10 2     
   18    9   11 am    
   19   11   12 1     
   20   11   31 1     
   21   12   23 1     
   22   12   13 1     
   23   12   20 1     
   24   13   14 2     
   25   13   15 am    
   26   15   16 1     
   27   15   32 1     
   28   16   17 1     
   29   16   33 1     
   30   16   34 1     
   31   17   19 1     
   32   17   18 1     
   33   17   35 1     
   34   18   19 1     
   35   18   36 1     
   36   18   37 1     
   37   19   38 1     
   38   19   39 1     
   39   20   21 1     
   40   20   40 1     
   41   20   41 1     
   42   21   22 1     
   43   21   42 1     
   44   21   43 1     
   45   22   23 1     
   46   22   44 1     
   47   22   45 1     
   48   23   46 1     
   49   23   47 1     
   50    5   48 1     
   51   10   49 1     
   52   10   50 1     
   53   14   51 1     
   54   14   52 1     
@<TRIPOS>SUBSTRUCTURE
      1 S1             1
@<TRIPOS>SET
LONE_PAIRS      STATIC     ATOMS    <user>   **** ""
5 48 49 50 51 52
DONOR_HYDROGENS      STATIC     ATOMS    <user>   **** ""
3 30 31 32
ATOM$BLUE        STATIC     ATOMS    COLORGROUP SYSTEM
5 48 49 50 51 52
ATOM$RED        STATIC     ATOMS    COLORGROUP SYSTEM
3 30 31 32
