#       Name:                AV-unprocessed.smi:2095
#       Creating user name   scv26
#       Creation time:       Fri Mar 27 11:28:24 2020


#       File generated by GOLD software.
#

@<TRIPOS>MOLECULE
AV-unprocessed.smi:2095
    47    48     1
SMALL
NO_CHARGES


@<TRIPOS>ATOM
      1 ****        -1.4752  -3.8091   1.8794 C.3            1 S1                 0.0000
      2 ****        -1.4603  -2.3008   2.1653 C.3            1 S1                 0.0000
      3 ****        -2.7929  -1.8341   2.7687 C.3            1 S1                 0.0000
      4 ****        -2.7501  -0.3249   3.0247 C.3            1 S1                 0.0000
      5 ****        -2.3895   0.4490   1.7458 C.3            1 S1                 0.0000
      6 ****        -1.0960  -0.0209   1.1691 N.4            1 S1                 1.0000
      7 ****        -0.5737   0.7524  -0.0062 C.3            1 S1                 0.0000
      8 ****        -1.0518   2.2245  -0.0593 C.3            1 S1                 0.0000
      9 ****         0.9727   0.6877  -0.0242 C.3            1 S1                 0.0000
     10 ****         1.5381   1.3462  -1.1958 N.am           1 S1                 0.0000
     11 ****         2.8456   1.5829  -1.3766 C.2            1 S1                 0.0000
     12 ****         3.7103   1.2622  -0.5620 O.2            1 S1                 0.0000
     13 ****         3.2396   2.2861  -2.6754 C.3            1 S1                 0.0000
     14 ****         3.3420   1.3365  -3.7667 N.pl3          1 S1                 0.0000
     15 ****         4.3648   0.5888  -4.1861 C.2            1 S1                 0.0000
     16 ****         4.0265  -0.1644  -5.2216 N.2            1 S1                 0.0000
     17 ****         2.6976   0.1651  -5.4304 N.2            1 S1                 0.0000
     18 ****         2.2854   1.0547  -4.5696 N.2            1 S1                 0.0000
     19 ****        -1.1427  -1.4865   0.8957 C.3            1 S1                 0.0000
     20 ****        -2.2456  -4.0680   1.1524 H              1 S1                 0.0000
     21 ****        -1.6713  -4.3785   2.7884 H              1 S1                 0.0000
     22 ****        -0.5166  -4.1442   1.4824 H              1 S1                 0.0000
     23 ****        -0.6709  -2.1131   2.8949 H              1 S1                 0.0000
     24 ****        -3.6146  -2.0689   2.0905 H              1 S1                 0.0000
     25 ****        -2.9947  -2.3639   3.7005 H              1 S1                 0.0000
     26 ****        -3.7139   0.0144   3.4057 H              1 S1                 0.0000
     27 ****        -2.0174  -0.1070   3.8031 H              1 S1                 0.0000
     28 ****        -3.1827   0.3453   1.0036 H              1 S1                 0.0000
     29 ****        -2.3348   1.5019   2.0200 H              1 S1                 0.0000
     30 ****        -0.9510   0.2748  -0.9123 H              1 S1                 0.0000
     31 ****        -0.6482   2.7487  -0.9253 H              1 S1                 0.0000
     32 ****        -0.7409   2.7783   0.8274 H              1 S1                 0.0000
     33 ****        -2.1357   2.2994  -0.1496 H              1 S1                 0.0000
     34 ****         1.3681   1.1565   0.8789 H              1 S1                 0.0000
     35 ****         1.3288  -0.3421  -0.0213 H              1 S1                 0.0000
     36 ****         0.8955   1.6378  -1.9183 H              1 S1                 0.0000
     37 ****         2.5080   3.0547  -2.9299 H              1 S1                 0.0000
     38 ****         4.2018   2.7849  -2.5523 H              1 S1                 0.0000
     39 ****         5.3457   0.5932  -3.7342 H              1 S1                 0.0000
     40 ****        -0.1913  -1.8290   0.4910 H              1 S1                 0.0000
     41 ****        -1.8926  -1.6851   0.1278 H              1 S1                 0.0000
     42 ****        -0.4160   0.1133   1.9037 H              1 S1                 0.0000
     43 ****         3.4514   0.8003   0.2862 LP             1 S1                 0.0000
     44 ****         4.6720   1.4635  -0.7483 LP             1 S1                 0.0000
     45 ****         4.5930  -0.8134  -5.7294 LP             1 S1                 0.0000
     46 ****         2.1261  -0.2291  -6.1502 LP             1 S1                 0.0000
     47 ****         1.3692   1.4515  -4.5128 LP             1 S1                 0.0000
@<TRIPOS>BOND
    1    1    2 1     
    2    1   20 1     
    3    1   21 1     
    4    1   22 1     
    5    2   19 1     
    6    2    3 1     
    7    2   23 1     
    8    3    4 1     
    9    3   24 1     
   10    3   25 1     
   11    4    5 1     
   12    4   26 1     
   13    4   27 1     
   14    5    6 1     
   15    5   28 1     
   16    5   29 1     
   17    6    7 1     
   18    6   19 1     
   19    6   42 1     
   20    7    8 1     
   21    7    9 1     
   22    7   30 1     
   23    8   31 1     
   24    8   32 1     
   25    8   33 1     
   26    9   10 1     
   27    9   34 1     
   28    9   35 1     
   29   10   11 am    
   30   10   36 1     
   31   11   12 2     
   32   11   13 1     
   33   13   14 1     
   34   13   37 1     
   35   13   38 1     
   36   14   18 1     
   37   14   15 1     
   38   15   16 2     
   39   15   39 1     
   40   16   17 1     
   41   17   18 2     
   42   19   40 1     
   43   19   41 1     
   44   12   43 1     
   45   12   44 1     
   46   16   45 1     
   47   17   46 1     
   48   18   47 1     
@<TRIPOS>SUBSTRUCTURE
      1 S1             1
@<TRIPOS>SET
LONE_PAIRS      STATIC     ATOMS    <user>   **** ""
5 43 44 45 46 47
DONOR_HYDROGENS      STATIC     ATOMS    <user>   **** ""
2 42 36
ATOM$BLUE        STATIC     ATOMS    COLORGROUP SYSTEM
5 43 44 45 46 47
ATOM$RED        STATIC     ATOMS    COLORGROUP SYSTEM
2 42 36
