AV-unprocessed.smi:2805|AV-procd|sdf|10814|dock6
  -GOLD-   2272015253D 1   1.00000     0.00000
 Structure written by MMmdl.
 43 44  0  0  0  0  0  0  0  0  1 V2000
  152.1464  145.9008  160.3541 C   0  0  0  0  0  0  0  0  0  0  0  0
  152.1581  144.5412  159.6879 C   0  0  0  0  0  0  0  0  0  0  0  0
  152.9970  143.5144  160.1612 C   0  0  0  0  0  0  0  0  0  0  0  0
  152.9612  142.2700  159.5020 C   0  0  0  0  0  0  0  0  0  0  0  0
  153.8359  141.1209  159.9580 C   0  0  0  0  0  0  0  0  0  0  0  0
  152.1613  142.0198  158.4433 N   0  0  0  0  0  0  0  0  0  0  0  0
  151.3487  143.0012  157.9794 C   0  0  0  0  0  0  0  0  0  0  0  0
  150.4718  142.8416  156.8742 N   0  0  0  0  0  0  0  0  0  0  0  0
  150.2974  141.7554  156.1014 C   0  0  0  0  0  0  0  0  0  0  0  0
  150.8980  140.6874  156.2247 O   0  0  0  0  0  0  0  0  0  0  0  0
  149.3670  141.9769  155.1618 N   0  0  0  0  0  0  0  0  0  0  0  0
  148.9140  141.0047  154.1682 C   0  0  1  0  0  0  0  0  0  0  0  0
  148.5602  139.6524  154.8220 C   0  0  0  0  0  0  0  0  0  0  0  0
  147.2958  139.7418  155.6944 C   0  0  0  0  0  0  0  0  0  0  0  0
  146.0888  140.2849  154.9001 C   0  0  1  0  0  0  0  0  0  0  0  0
  144.8260  140.3983  155.7738 C   0  0  0  0  0  0  0  0  0  0  0  0
  143.7753  141.0154  155.0605 O   0  0  0  0  0  0  0  0  0  0  0  0
  146.4410  141.6454  154.2659 C   0  0  0  0  0  0  0  0  0  0  0  0
  147.7062  141.5629  153.3927 C   0  0  0  0  0  0  0  0  0  0  0  0
  151.3230  144.2783  158.5833 C   0  0  0  0  0  0  0  0  0  0  0  0
  149.7260  140.8468  153.4560 H   0  0  0  0  0  0  0  0  0  0  0  0
  145.8744  139.5889  154.0874 H   0  0  0  0  0  0  0  0  0  0  0  0
  153.0689  146.0729  160.9096 H   0  0  0  0  0  0  0  0  0  0  0  0
  151.3087  145.9717  161.0479 H   0  0  0  0  0  0  0  0  0  0  0  0
  152.0462  146.6923  159.6110 H   0  0  0  0  0  0  0  0  0  0  0  0
  153.6496  143.6762  161.0069 H   0  0  0  0  0  0  0  0  0  0  0  0
  154.5452  141.4426  160.7211 H   0  0  0  0  0  0  0  0  0  0  0  0
  154.4018  140.7161  159.1183 H   0  0  0  0  0  0  0  0  0  0  0  0
  153.2224  140.3226  160.3764 H   0  0  0  0  0  0  0  0  0  0  0  0
  149.9064  143.6468  156.6499 H   0  0  0  0  0  0  0  0  0  0  0  0
  148.9289  142.8858  155.1347 H   0  0  0  0  0  0  0  0  0  0  0  0
  148.3982  138.9105  154.0392 H   0  0  0  0  0  0  0  0  0  0  0  0
  149.3971  139.2824  155.4153 H   0  0  0  0  0  0  0  0  0  0  0  0
  147.0689  138.7529  156.0937 H   0  0  0  0  0  0  0  0  0  0  0  0
  147.4896  140.3812  156.5566 H   0  0  0  0  0  0  0  0  0  0  0  0
  144.5010  139.4158  156.1177 H   0  0  0  0  0  0  0  0  0  0  0  0
  145.0300  140.9982  156.6613 H   0  0  0  0  0  0  0  0  0  0  0  0
  143.6474  140.5485  154.2489 H   0  0  0  0  0  0  0  0  0  0  0  0
  145.6071  141.9980  153.6581 H   0  0  0  0  0  0  0  0  0  0  0  0
  146.5838  142.3912  155.0490 H   0  0  0  0  0  0  0  0  0  0  0  0
  147.9424  142.5458  152.9832 H   0  0  0  0  0  0  0  0  0  0  0  0
  147.5045  140.9194  152.5355 H   0  0  0  0  0  0  0  0  0  0  0  0
  150.6695  145.0510  158.2046 H   0  0  0  0  0  0  0  0  0  0  0  0
  1  2  1  0  0  0  0
  1 23  1  0  0  0  0
  1 24  1  0  0  0  0
  1 25  1  0  0  0  0
  2 20  1  0  0  0  0
  2  3  2  0  0  0  0
  3  4  1  0  0  0  0
  3 26  1  0  0  0  0
  4  5  1  0  0  0  0
  4  6  2  0  0  0  0
  5 27  1  0  0  0  0
  5 28  1  0  0  0  0
  5 29  1  0  0  0  0
  6  7  1  0  0  0  0
  7  8  1  0  0  0  0
  7 20  2  0  0  0  0
  8  9  1  0  0  0  0
  8 30  1  0  0  0  0
  9 10  2  0  0  0  0
  9 11  1  0  0  0  0
 11 12  1  0  0  0  0
 11 31  1  0  0  0  0
 12 21  1  0  0  0  0
 12 19  1  0  0  0  0
 12 13  1  0  0  0  0
 13 14  1  0  0  0  0
 13 32  1  0  0  0  0
 13 33  1  0  0  0  0
 14 15  1  0  0  0  0
 14 34  1  0  0  0  0
 14 35  1  0  0  0  0
 15 22  1  0  0  0  0
 15 16  1  0  0  0  0
 15 18  1  0  0  0  0
 16 17  1  0  0  0  0
 16 36  1  0  0  0  0
 16 37  1  0  0  0  0
 17 38  1  0  0  0  0
 18 19  1  0  0  0  0
 18 39  1  0  0  0  0
 18 40  1  0  0  0  0
 19 41  1  0  0  0  0
 19 42  1  0  0  0  0
 20 43  1  0  0  0  0
M  END
> <s_m_source_file>
AV-unprocessed.smi

> <i_m_source_file_index>
2805

> <i_lp_mmshare_version>
43012

> <i_f3d_flags>
0

> <s_epik_input>
W0NIM11jMVtjSF1jKFtDSDNdKW5jKFtjSF0xKVtOSF1DKD1PKVtOSF1bQ0BIXTJbQ0gyXVtDSDJdW0NASF0oW0NIMl1bT0hdKVtDSDJdW0NIMl0y

> <s_epik_cmdline>
J2VwaWtfcHl0aG9uJywgJy1waCcsICc3LjAnLCAnLXRuJywgJzgnLCAnLW1hJywgJzIwMCcsICctbWV0YWxfYmluZGluZycsICctaW1hZScsICc8aW5maWxlLm1hZT4nLCAnLW9tYWUnLCAnPG91dGZpbGUubWFlPic=

> <r_lp_tautomer_probability>
1

> <r_epik_Ionization_Penalty>
0.000279533

> <r_epik_Ionization_Penalty_Charging>
0

> <r_epik_Ionization_Penalty_Neutral>
0.000279533

> <r_epik_State_Penalty>
-0

> <r_epik_Charging_Adjusted_Penalty>
0

> <i_epik_Tot_Q>
0

> <i_epik_Tot_abs_Q>
0

> <r_epik_Metal_State_Penalty>
-0

> <b_epik_Metal_Only>
0

> <s_lp_Force_Field>
OPLS_2005

> <r_lp_Energy>
9.89075

> <b_lp_Chiralities_Consistent>
1

> <s_lp_Variant>
AV-unprocessed.smi:2805-2

> <Gold.Version>
5.8.1

> <Gold.Id.Protein>
6NUR|6NUR_protein|mol2

> <Gold.PLP.Fitness>
48.4911

> <Gold.PLP.PLP>
-39.7102

> <Gold.PLP.part.hbond>
-3.0000

> <Gold.PLP.part.metal>
0.0000

> <Gold.PLP.part.buried>
-5.7922

> <Gold.PLP.part.nonpolar>
-31.7632

> <Gold.PLP.part.repulsive>
0.2500

> <Gold.PLP.ligand.clash>
0.0000

> <Gold.PLP.ligand.torsion>
0.1139

> <Gold.PLP.Chemscore.Hbond>
3.0000

> <Gold.PLP.Chemscore.CHOScore>
0.0000

> <Gold.PLP.Chemscore.Metal>
0.0000

> <Gold.Chemscore.Hbonds>
donor molecule, donor type, donor heavy atom, donor atom, acceptor molecule, acceptor atom, score
      L1  H     8    30       P1  8028  1.00
      L1  H    11    31       P1  8028  1.00
      L1  H    17    38       P1 10175  1.00

> <Gold.PLP.Chemscore.Internal.Correction>
0.0088

> <Gold.Rescore>
     Score         DG    S(hbond)    S(metal)    S(lipo)     H(rot)  DE(clash)    DE(int)     intcor
     17.78     -21.48       2.73        0.00      97.31       1.75       1.07       2.63       ----

> <Gold.Chemscore.Fitness>
17.7811

> <Gold.Chemscore.DG>
-21.4788

> <Gold.Chemscore.ZeroCoef>
-5.4800

> <Gold.Chemscore.Hbond>
2.7262

> <Gold.Chemscore.Metal>
0.0000

> <Gold.Chemscore.Lipo>
97.3127

> <Gold.Chemscore.Internal_Hbond>
0.0000

> <Gold.Chemscore.DEClash>
1.0710

> <Gold.Chemscore.DEInternal>
2.6268

> <Gold.Chemscore.Rot>
1.7548

> <Gold.Chemscore.Internal.Correction>
   9.000000E+99

> <Gold.Chemscore.Hbonds>
donor molecule, donor type, donor heavy atom, donor atom, acceptor molecule, acceptor atom, score
      L1  H     8    30       P1  8028  0.99
      L1  H    11    31       P1  8028  0.95
      L1  H    17    38       P1 10175  0.95

> <Gold.Chemscore.Hbond.Weighted>
-9.1056

> <Gold.Chemscore.Metal.Weighted>
-0.0000

> <Gold.Chemscore.Lipo.Weighted>
-11.3856

> <Gold.Chemscore.Internal_Hbond.Weighted>
0.0000

> <Gold.Chemscore.DEClash.Weighted>
1.0710

> <Gold.Chemscore.DEInternal.Weighted>
2.6268

> <Gold.Chemscore.Rot.Weighted>
4.4924

> <Gold.Chemscore.Internal.Correction.Weighted>
   9.000000E+99

> <Gold.Protein.RotatedTorsions>
[ 6907 6896 6895 6894 ] final  -46.49 input  -60.11 | X-H torsion
[ 7974 7965 7964 7962 ] final  -81.60 input  175.53 | X-H torsion
[ 8008 7997 7996 7995 ] final -141.07 input   59.86 | X-H torsion
[ 10167 10162 10161 10158 ] final  179.53 input  -65.29 | X-H torsion
[ 10718 10713 10712 10709 ] final   72.87 input   66.30 | X-H torsion
[ 10763 10752 10751 10750 ] final  144.88 input  -60.55 | X-H torsion
[ 11005 11000 10999 10996 ] final  -63.72 input  -57.11 | X-H torsion

> <Gold.Protein.ActiveResidues>
 VAL166  LYS551  ARG553  GLY616  TRP617  ASP618  TYR619  PRO620  LYS621  CYS622 
 ASP623  PHE694  ASN695  SER759  ASP760  ASP761  ALA762  ILE779  LEU786  VAL792 
 PHE793  MET794  SER795  GLU796  ALA797  LYS798  CYS799  TRP800  GLU811  SER814 

> <Gold.Protein.RotatedAtoms>
  150.9107  134.8524  159.7423 H   0  0  0  0  0  0  0  0  0  0  0  0  # atno 6907 bound_to 6896
  152.4943  134.4363  159.9539 H   0  0  0  0  0  0  0  0  0  0  0  0  # atno 6908 bound_to 6896
  151.4406  133.3605  159.2816 H   0  0  0  0  0  0  0  0  0  0  0  0  # atno 6909 bound_to 6896
  145.5445  140.9505  143.1533 H   0  0  0  0  0  0  0  0  0  0  0  0  # atno 7974 bound_to 7965
  155.4717  140.0553  157.2978 H   0  0  0  0  0  0  0  0  0  0  0  0  # atno 8008 bound_to 7997
  154.4695  140.2034  155.9983 H   0  0  0  0  0  0  0  0  0  0  0  0  # atno 8009 bound_to 7997
  156.1033  140.3216  155.7975 H   0  0  0  0  0  0  0  0  0  0  0  0  # atno 8010 bound_to 7997
  139.5340  144.2550  152.0754 H   0  0  0  0  0  0  0  0  0  0  0  0  # atno 10167 bound_to 10162
  157.6521  130.9600  150.0989 H   0  0  0  0  0  0  0  0  0  0  0  0  # atno 10718 bound_to 10713
  153.9963  135.2927  155.3407 H   0  0  0  0  0  0  0  0  0  0  0  0  # atno 10763 bound_to 10752
  154.7186  135.5119  153.8779 H   0  0  0  0  0  0  0  0  0  0  0  0  # atno 10764 bound_to 10752
  153.0786  135.6672  154.0209 H   0  0  0  0  0  0  0  0  0  0  0  0  # atno 10765 bound_to 10752
  141.1402  133.6656  156.5723 H   0  0  0  0  0  0  0  0  0  0  0  0  # atno 11005 bound_to 11000
  144.7560  139.7073  143.7254 LP  0  0  0  0  0  0  0  0  0  0  0  0  # atno 17320 bound_to 7965
  146.1959  139.5225  142.9775 LP  0  0  0  0  0  0  0  0  0  0  0  0  # atno 17321 bound_to 7965
  140.2018  144.4651  150.6428 LP  0  0  0  0  0  0  0  0  0  0  0  0  # atno 17342 bound_to 10162
  140.6536  143.2231  151.6020 LP  0  0  0  0  0  0  0  0  0  0  0  0  # atno 17343 bound_to 10162
  156.1917  130.3655  149.8901 LP  0  0  0  0  0  0  0  0  0  0  0  0  # atno 17370 bound_to 10713
  156.6828  130.8865  151.3578 LP  0  0  0  0  0  0  0  0  0  0  0  0  # atno 17371 bound_to 10713
  140.3903  134.7446  157.4717 LP  0  0  0  0  0  0  0  0  0  0  0  0  # atno 17394 bound_to 11000
  140.0571  134.6048  155.8792 LP  0  0  0  0  0  0  0  0  0  0  0  0  # atno 17395 bound_to 11000

$$$$
