AV-unprocessed.smi:114|AV-procd|sdf|1119|dock1
  -GOLD-   2262018243D 1   1.00000     0.00000
 Structure written by MMmdl.
 32 34  0  0  0  0  0  0  0  0  1 V2000
  152.4061  141.3060  160.0310 N   0  0  0  0  0  0  0  0  0  0  0  0
  152.1024  140.5025  159.0021 C   0  0  0  0  0  0  0  0  0  0  0  0
  152.4399  139.1943  159.0846 N   0  0  0  0  0  0  0  0  0  0  0  0
  152.1591  138.3586  158.0771 C   0  0  0  0  0  0  0  0  0  0  0  0
  152.5345  137.0687  158.2429 F   0  0  0  0  0  0  0  0  0  0  0  0
  151.5475  138.6541  156.9246 N   0  0  0  0  0  0  0  0  0  0  0  0
  151.1998  139.9714  156.8416 C   0  0  0  0  0  0  0  0  0  0  0  0
  151.4478  140.9582  157.8320 C   0  0  0  0  0  0  0  0  0  0  0  0
  150.9771  142.1903  157.3999 N   0  0  0  0  0  0  0  0  0  0  0  0
  150.4860  141.9406  156.2153 C   0  0  0  0  0  0  0  0  0  0  0  0
  150.5495  140.6215  155.8135 N   0  0  0  0  0  0  0  0  0  0  0  0
  150.1077  140.0052  154.5205 C   0  0  2  0  0  0  0  0  0  0  0  0
  149.4881  140.9935  153.7482 O   0  0  0  0  0  0  0  0  0  0  0  0
  148.0724  140.8195  153.7210 C   0  0  2  0  0  0  0  0  0  0  0  0
  147.4122  141.5993  154.8812 C   0  0  0  0  0  0  0  0  0  0  0  0
  147.0924  142.9076  154.4585 O   0  0  0  0  0  0  0  0  0  0  0  0
  147.9473  139.2924  153.8050 C   0  0  2  0  0  0  0  0  0  0  0  0
  146.6842  138.8619  154.2732 O   0  0  0  0  0  0  0  0  0  0  0  0
  149.0658  138.8951  154.7582 C   0  0  1  0  0  0  0  0  0  0  0  0
  149.5634  137.6214  154.4012 O   0  0  0  0  0  0  0  0  0  0  0  0
  151.0321  139.6696  154.0482 H   0  0  0  0  0  0  0  0  0  0  0  0
  147.6696  141.1736  152.7709 H   0  0  0  0  0  0  0  0  0  0  0  0
  148.1264  138.8727  152.8134 H   0  0  0  0  0  0  0  0  0  0  0  0
  148.7238  138.9096  155.7946 H   0  0  0  0  0  0  0  0  0  0  0  0
  152.1657  142.2863  159.9905 H   0  0  0  0  0  0  0  0  0  0  0  0
  152.8734  140.9309  160.8439 H   0  0  0  0  0  0  0  0  0  0  0  0
  150.0545  142.7205  155.6045 H   0  0  0  0  0  0  0  0  0  0  0  0
  146.4710  141.1316  155.1700 H   0  0  0  0  0  0  0  0  0  0  0  0
  148.0337  141.6276  155.7747 H   0  0  0  0  0  0  0  0  0  0  0  0
  147.6563  143.5155  154.9119 H   0  0  0  0  0  0  0  0  0  0  0  0
  146.1397  138.6697  153.5248 H   0  0  0  0  0  0  0  0  0  0  0  0
  149.3742  137.4742  153.4866 H   0  0  0  0  0  0  0  0  0  0  0  0
  1  2  1  0  0  0  0
  1 25  1  0  0  0  0
  1 26  1  0  0  0  0
  2  8  1  0  0  0  0
  2  3  2  0  0  0  0
  3  4  1  0  0  0  0
  4  5  1  0  0  0  0
  4  6  2  0  0  0  0
  6  7  1  0  0  0  0
  7 11  1  0  0  0  0
  7  8  2  0  0  0  0
  8  9  1  0  0  0  0
  9 10  2  0  0  0  0
 10 11  1  0  0  0  0
 10 27  1  0  0  0  0
 11 12  1  0  0  0  0
 12 21  1  0  0  0  0
 12 19  1  0  0  0  0
 12 13  1  0  0  0  0
 13 14  1  0  0  0  0
 14 22  1  0  0  0  0
 14 15  1  0  0  0  0
 14 17  1  0  0  0  0
 15 16  1  0  0  0  0
 15 28  1  0  0  0  0
 15 29  1  0  0  0  0
 16 30  1  0  0  0  0
 17 23  1  0  0  0  0
 17 18  1  0  0  0  0
 17 19  1  0  0  0  0
 18 31  1  0  0  0  0
 19 24  1  0  0  0  0
 19 20  1  0  0  0  0
 20 32  1  0  0  0  0
M  END
> <s_m_source_file>
AV-unprocessed.smi

> <i_m_source_file_index>
114

> <i_lp_mmshare_version>
43012

> <i_f3d_flags>
0

> <s_epik_input>
RmMobjEpbmMoW05IMl0pYyhjMTIpbltjSF1uMltDQEBIXTNPW0NASF0oW0NIMl1bT0hdKVtDQEBIXShbT0hdKVtDQEBIXTNbT0hd

> <s_epik_cmdline>
J2VwaWtfcHl0aG9uJywgJy1waCcsICc3LjAnLCAnLXRuJywgJzgnLCAnLW1hJywgJzIwMCcsICctbWV0YWxfYmluZGluZycsICctaW1hZScsICc8aW5maWxlLm1hZT4nLCAnLW9tYWUnLCAnPG91dGZpbGUubWFlPic=

> <r_lp_tautomer_probability>
1

> <r_epik_Ionization_Penalty>
1.13199e-05

> <r_epik_Ionization_Penalty_Charging>
0

> <r_epik_Ionization_Penalty_Neutral>
1.13199e-05

> <r_epik_State_Penalty>
-0

> <r_epik_Charging_Adjusted_Penalty>
0

> <i_epik_Tot_Q>
0

> <i_epik_Tot_abs_Q>
0

> <r_epik_Metal_State_Penalty>
-0

> <b_epik_Metal_Only>
0

> <s_epik_Chemistry_Notes>
This compound contains an acetal/aminal-like group ( X-CH(R)-Y where X, Y are N, S, or O) that may be acid/base labile, releasing an aldehyde.

> <s_lp_Force_Field>
OPLS_2005

> <r_lp_Energy>
35.5551

> <b_lp_Chiralities_Consistent>
1

> <s_lp_Variant>
AV-unprocessed.smi:114-13

> <Gold.Version>
5.8.1

> <Gold.Id.Protein>
6NUR|6NUR_protein|mol2

> <Gold.PLP.Fitness>
37.2180

> <Gold.PLP.PLP>
-26.0709

> <Gold.PLP.part.hbond>
-4.2569

> <Gold.PLP.part.metal>
0.0000

> <Gold.PLP.part.buried>
-1.6836

> <Gold.PLP.part.nonpolar>
-22.4827

> <Gold.PLP.part.repulsive>
3.0412

> <Gold.PLP.ligand.clash>
0.0000

> <Gold.PLP.ligand.torsion>
0.3338

> <Gold.PLP.Chemscore.Hbond>
2.9263

> <Gold.PLP.Chemscore.CHOScore>
1.0000

> <Gold.PLP.Chemscore.Metal>
0.0000

> <Gold.Chemscore.Hbonds>
donor molecule, donor type, donor heavy atom, donor atom, acceptor molecule, acceptor atom, score
      L1  H    16    30       P1  8028  1.00
      L1  H    20    32       P1  7948  0.93
      P1  H  8011  8017       L1    13  0.98
      L1  C    10    27       P1  8028  1.00

> <Gold.PLP.Chemscore.Internal.Correction>
0.0360

> <Gold.Rescore>
     Score         DG    S(hbond)    S(metal)    S(lipo)     H(rot)  DE(clash)    DE(int)     intcor
      4.67      -6.66       2.40        0.00      29.68       4.03       1.83       0.16       ----

> <Gold.Chemscore.Fitness>
4.6735

> <Gold.Chemscore.DG>
-6.6632

> <Gold.Chemscore.ZeroCoef>
-5.4800

> <Gold.Chemscore.Hbond>
2.4015

> <Gold.Chemscore.Metal>
0.0000

> <Gold.Chemscore.Lipo>
29.6841

> <Gold.Chemscore.Internal_Hbond>
0.0000

> <Gold.Chemscore.DEClash>
1.8346

> <Gold.Chemscore.DEInternal>
0.1551

> <Gold.Chemscore.Rot>
4.0277

> <Gold.Chemscore.Internal.Correction>
   9.000000E+99

> <Gold.Chemscore.Hbonds>
donor molecule, donor type, donor heavy atom, donor atom, acceptor molecule, acceptor atom, score
      L1  H    16    30       P1  8028  0.26
      L1  H    20    32       P1  7948  0.83
      P1  H  8011  8017       L1    13  0.35

> <Gold.Chemscore.Hbond.Weighted>
-8.0211

> <Gold.Chemscore.Metal.Weighted>
-0.0000

> <Gold.Chemscore.Lipo.Weighted>
-3.4730

> <Gold.Chemscore.Internal_Hbond.Weighted>
0.0000

> <Gold.Chemscore.DEClash.Weighted>
1.8346

> <Gold.Chemscore.DEInternal.Weighted>
0.1551

> <Gold.Chemscore.Rot.Weighted>
10.3110

> <Gold.Chemscore.Internal.Correction.Weighted>
   9.000000E+99

> <Gold.Protein.RotatedTorsions>
[ 6907 6896 6895 6894 ] final   68.93 input  -60.11 | X-H torsion
[ 7974 7965 7964 7962 ] final   83.66 input  175.53 | X-H torsion
[ 8008 7997 7996 7995 ] final   55.70 input   59.86 | X-H torsion
[ 10167 10162 10161 10158 ] final  123.26 input  -65.29 | X-H torsion
[ 10718 10713 10712 10709 ] final -107.84 input   66.30 | X-H torsion
[ 10763 10752 10751 10750 ] final   85.35 input  -60.55 | X-H torsion
[ 11005 11000 10999 10996 ] final  -72.95 input  -57.11 | X-H torsion

> <Gold.Protein.ActiveResidues>
 VAL166  LYS551  ARG553  GLY616  TRP617  ASP618  TYR619  PRO620  LYS621  CYS622 
 ASP623  PHE694  ASN695  SER759  ASP760  ASP761  ALA762  ILE779  LEU786  VAL792 
 PHE793  MET794  SER795  GLU796  ALA797  LYS798  CYS799  TRP800  GLU811  SER814 

> <Gold.Protein.RotatedAtoms>
  152.4653  134.5090  159.9747 H   0  0  0  0  0  0  0  0  0  0  0  0  # atno 6907 bound_to 6896
  151.5129  133.3475  159.2896 H   0  0  0  0  0  0  0  0  0  0  0  0  # atno 6908 bound_to 6896
  150.8634  134.8020  159.7162 H   0  0  0  0  0  0  0  0  0  0  0  0  # atno 6909 bound_to 6896
  145.6090  139.2365  143.2203 H   0  0  0  0  0  0  0  0  0  0  0  0  # atno 7974 bound_to 7965
  155.5054  140.3475  155.4378 H   0  0  0  0  0  0  0  0  0  0  0  0  # atno 8008 bound_to 7997
  156.0886  140.1404  156.9649 H   0  0  0  0  0  0  0  0  0  0  0  0  # atno 8009 bound_to 7997
  154.4621  140.0931  156.6898 H   0  0  0  0  0  0  0  0  0  0  0  0  # atno 8010 bound_to 7997
  139.5810  144.6986  151.3530 H   0  0  0  0  0  0  0  0  0  0  0  0  # atno 10167 bound_to 10162
  156.0456  130.5683  150.7877 H   0  0  0  0  0  0  0  0  0  0  0  0  # atno 10718 bound_to 10713
  153.1467  135.4620  154.9577 H   0  0  0  0  0  0  0  0  0  0  0  0  # atno 10763 bound_to 10752
  154.7792  135.3183  154.8029 H   0  0  0  0  0  0  0  0  0  0  0  0  # atno 10764 bound_to 10752
  153.8542  135.6918  153.4843 H   0  0  0  0  0  0  0  0  0  0  0  0  # atno 10765 bound_to 10752
  141.1616  133.6863  156.7137 H   0  0  0  0  0  0  0  0  0  0  0  0  # atno 11005 bound_to 11000
  146.1518  140.6914  142.9318 LP  0  0  0  0  0  0  0  0  0  0  0  0  # atno 17320 bound_to 7965
  144.7278  140.4578  143.6960 LP  0  0  0  0  0  0  0  0  0  0  0  0  # atno 17321 bound_to 7965
  140.7088  143.7445  150.7529 LP  0  0  0  0  0  0  0  0  0  0  0  0  # atno 17342 bound_to 10162
  140.0977  143.4817  152.2443 LP  0  0  0  0  0  0  0  0  0  0  0  0  # atno 17343 bound_to 10162
  157.5327  131.0937  150.9934 LP  0  0  0  0  0  0  0  0  0  0  0  0  # atno 17370 bound_to 10713
  157.0236  130.5683  149.5334 LP  0  0  0  0  0  0  0  0  0  0  0  0  # atno 17371 bound_to 10713
  140.2868  134.8273  157.3981 LP  0  0  0  0  0  0  0  0  0  0  0  0  # atno 17394 bound_to 11000
  140.1383  134.5005  155.8051 LP  0  0  0  0  0  0  0  0  0  0  0  0  # atno 17395 bound_to 11000

$$$$
