#       Name:                AV-unprocessed.smi:2072
#       Creating user name   scv26
#       Creation time:       Fri Mar 27 11:14:22 2020


#       File generated by GOLD software.
#

@<TRIPOS>MOLECULE
AV-unprocessed.smi:2072
    43    45     1
SMALL
NO_CHARGES


@<TRIPOS>ATOM
      1 ****         1.7522   0.9866   0.2907 O.2            1 S1                 0.0000
      2 ****         1.4678  -0.1014   0.7891 C.2            1 S1                 0.0000
      3 ****         2.3271  -1.1096   1.0178 N.am           1 S1                 0.0000
      4 ****         3.7245  -1.1858   0.7589 C.ar           1 S1                 0.0000
      5 ****         4.5263  -0.1137   0.2936 C.ar           1 S1                 0.0000
      6 ****         5.9018  -0.3331   0.0854 C.ar           1 S1                 0.0000
      7 ****         6.4283  -1.6117   0.3506 C.ar           1 S1                 0.0000
      8 ****         5.6791  -2.6409   0.7975 N.ar           1 S1                 0.0000
      9 ****         4.3614  -2.4233   0.9950 C.ar           1 S1                 0.0000
     10 ****         0.2254  -0.4313   1.1700 N.am           1 S1                 0.0000
     11 ****        -0.9444   0.4361   1.0597 C.3            1 S1                 0.0000
     12 ****        -2.0317   0.1115   2.0994 C.3            1 S1                 0.0000
     13 ****        -3.3721   0.3307   1.3699 C.3            1 S1                 0.0000
     14 ****        -3.0115   0.8253   0.0274 N.4            1 S1                 1.0000
     15 ****        -3.9904   0.6023  -1.0588 C.3            1 S1                 0.0000
     16 ****        -3.4743   1.2653  -2.3515 C.3            1 S1                 0.0000
     17 ****        -2.0472   0.7984  -2.7027 C.3            1 S1                 0.0000
     18 ****        -1.0947   0.9684  -1.5035 C.3            1 S1                 0.0000
     19 ****        -1.6848   0.2633  -0.2699 C.3            1 S1                 0.0000
     20 ****         1.9244  -1.9455   1.4159 H              1 S1                 0.0000
     21 ****         4.1300   0.8689   0.0959 H              1 S1                 0.0000
     22 ****         6.5399   0.4628  -0.2691 H              1 S1                 0.0000
     23 ****         7.4789  -1.8121   0.2014 H              1 S1                 0.0000
     24 ****         3.7953  -3.2704   1.3543 H              1 S1                 0.0000
     25 ****         0.0798  -1.3457   1.5723 H              1 S1                 0.0000
     26 ****        -0.6566   1.4825   1.1824 H              1 S1                 0.0000
     27 ****        -1.9640  -0.9243   2.4354 H              1 S1                 0.0000
     28 ****        -1.9378   0.7474   2.9804 H              1 S1                 0.0000
     29 ****        -3.9138  -0.6133   1.2908 H              1 S1                 0.0000
     30 ****        -4.0131   1.0472   1.8843 H              1 S1                 0.0000
     31 ****        -4.1409  -0.4675  -1.2109 H              1 S1                 0.0000
     32 ****        -4.9540   1.0279  -0.7764 H              1 S1                 0.0000
     33 ****        -4.1520   1.0506  -3.1784 H              1 S1                 0.0000
     34 ****        -3.4758   2.3489  -2.2263 H              1 S1                 0.0000
     35 ****        -2.0727  -0.2511  -2.9991 H              1 S1                 0.0000
     36 ****        -1.6712   1.3529  -3.5631 H              1 S1                 0.0000
     37 ****        -0.1169   0.5536  -1.7487 H              1 S1                 0.0000
     38 ****        -0.9429   2.0284  -1.2952 H              1 S1                 0.0000
     39 ****        -1.7976  -0.8029  -0.4812 H              1 S1                 0.0000
     40 ****        -2.8830   1.8234   0.1152 H              1 S1                 0.0000
     41 ****         2.6943   1.1802   0.0169 LP             1 S1                 0.0000
     42 ****         1.0413   1.6775   0.1593 LP             1 S1                 0.0000
     43 ****         6.0868  -3.5362   0.9768 LP             1 S1                 0.0000
@<TRIPOS>BOND
    1    1    2 2     
    2    2    3 am    
    3    2   10 am    
    4    3    4 1     
    5    3   20 1     
    6    4    9 ar    
    7    4    5 ar    
    8    5    6 ar    
    9    5   21 1     
   10    6    7 ar    
   11    6   22 1     
   12    7    8 ar    
   13    7   23 1     
   14    8    9 ar    
   15    9   24 1     
   16   10   11 1     
   17   10   25 1     
   18   11   19 1     
   19   11   12 1     
   20   11   26 1     
   21   12   13 1     
   22   12   27 1     
   23   12   28 1     
   24   13   14 1     
   25   13   29 1     
   26   13   30 1     
   27   14   19 1     
   28   14   15 1     
   29   14   40 1     
   30   15   16 1     
   31   15   31 1     
   32   15   32 1     
   33   16   17 1     
   34   16   33 1     
   35   16   34 1     
   36   17   18 1     
   37   17   35 1     
   38   17   36 1     
   39   18   19 1     
   40   18   37 1     
   41   18   38 1     
   42   19   39 1     
   43    1   41 1     
   44    1   42 1     
   45    8   43 1     
@<TRIPOS>SUBSTRUCTURE
      1 S1             1
@<TRIPOS>SET
LONE_PAIRS      STATIC     ATOMS    <user>   **** ""
3 41 42 43
DONOR_HYDROGENS      STATIC     ATOMS    <user>   **** ""
3 20 25 40
ATOM$BLUE        STATIC     ATOMS    COLORGROUP SYSTEM
3 41 42 43
ATOM$RED        STATIC     ATOMS    COLORGROUP SYSTEM
3 20 25 40
