AV-unprocessed.smi:148|AV-procd|sdf|1203|dock9
  -GOLD-   2262018373D 1   1.00000     0.00000
 Structure written by MMmdl.
 63 67  0  0  0  0  0  0  0  0  1 V2000
  146.4284  137.8193  161.3782 O   0  0  0  0  0  0  0  0  0  0  0  0
  146.1436  136.6362  162.0964 C   0  0  0  0  0  0  0  0  0  0  0  0
  145.4253  135.5921  161.2071 C   0  0  1  0  0  0  0  0  0  0  0  0
  146.3388  135.2345  160.0014 C   0  0  0  0  0  0  0  0  0  0  0  0
  146.4580  136.2633  158.9815 N   0  0  0  0  0  0  0  0  0  0  0  0
  145.4481  136.7371  158.1732 C   0  0  0  0  0  0  0  0  0  0  0  0
  145.8082  137.6343  157.2962 N   0  0  0  0  0  0  0  0  0  0  0  0
  147.1730  137.7780  157.5070 C   0  0  0  0  0  0  0  0  0  0  0  0
  148.1858  138.5635  156.8972 C   0  0  0  0  0  0  0  0  0  0  0  0
  147.9260  139.3564  155.8335 N   0  0  0  0  0  0  0  0  0  0  0  0
  147.1154  138.5922  154.8809 C   0  0  0  0  0  0  0  0  0  0  0  0
  146.5297  139.4881  153.7872 C   0  0  0  0  0  0  0  0  0  0  0  0
  147.6579  140.2391  153.0825 C   0  0  0  0  0  0  0  0  0  0  0  0
  148.4694  141.0346  154.1116 C   0  0  0  0  0  0  0  0  0  0  0  0
  149.0350  140.1515  155.2613 C   0  0  1  0  0  0  0  0  0  0  0  0
  149.7798  141.0456  156.3148 C   0  0  2  0  0  0  0  0  0  0  0  0
  148.9843  142.2886  156.7649 C   0  0  0  0  0  0  0  0  0  0  0  0
  150.0223  143.2698  157.2917 C   0  0  0  0  0  0  0  0  0  0  0  0
  151.1604  143.1274  156.2916 C   0  0  0  0  0  0  0  0  0  0  0  0
  151.1417  141.6494  155.8690 C   0  0  1  0  0  0  0  0  0  0  0  0
  152.2103  140.9898  156.5155 O   0  0  0  0  0  0  0  0  0  0  0  0
  149.4583  138.4327  157.3575 N   0  0  0  0  0  0  0  0  0  0  0  0
  149.7168  137.5967  158.3684 C   0  0  0  0  0  0  0  0  0  0  0  0
  148.8745  136.8008  159.0320 N   0  0  0  0  0  0  0  0  0  0  0  0
  147.5998  136.9249  158.5625 C   0  0  0  0  0  0  0  0  0  0  0  0
  144.9895  134.3437  162.0310 C   0  0  2  0  0  0  0  0  0  0  0  0
  146.0887  133.7044  162.8775 C   0  0  0  0  0  0  0  0  0  0  0  0
  145.7720  132.2066  162.8883 C   0  0  0  0  0  0  0  0  0  0  0  0
  144.5833  132.0644  162.1273 O   0  0  0  0  0  0  0  0  0  0  0  0
  144.5355  133.1368  161.2042 C   0  0  0  0  0  0  0  0  0  0  0  0
  147.3575  137.8514  161.2078 H   0  0  0  0  0  0  0  0  0  0  0  0
  147.0692  136.2282  162.5036 H   0  0  0  0  0  0  0  0  0  0  0  0
  145.5250  136.9344  162.9419 H   0  0  0  0  0  0  0  0  0  0  0  0
  144.5214  136.0708  160.8282 H   0  0  0  0  0  0  0  0  0  0  0  0
  147.3512  135.0171  160.3425 H   0  0  0  0  0  0  0  0  0  0  0  0
  145.9784  134.3207  159.5268 H   0  0  0  0  0  0  0  0  0  0  0  0
  144.4272  136.3931  158.2532 H   0  0  0  0  0  0  0  0  0  0  0  0
  147.7292  137.8142  154.4238 H   0  0  0  0  0  0  0  0  0  0  0  0
  146.3001  138.0867  155.4018 H   0  0  0  0  0  0  0  0  0  0  0  0
  145.9690  138.8882  153.0701 H   0  0  0  0  0  0  0  0  0  0  0  0
  145.8252  140.1965  154.2251 H   0  0  0  0  0  0  0  0  0  0  0  0
  148.3075  139.5342  152.5620 H   0  0  0  0  0  0  0  0  0  0  0  0
  147.2490  140.9089  152.3255 H   0  0  0  0  0  0  0  0  0  0  0  0
  149.2694  141.5402  153.5727 H   0  0  0  0  0  0  0  0  0  0  0  0
  147.8371  141.8180  154.5323 H   0  0  0  0  0  0  0  0  0  0  0  0
  149.7541  139.4584  154.8223 H   0  0  0  0  0  0  0  0  0  0  0  0
  149.9349  140.4465  157.2147 H   0  0  0  0  0  0  0  0  0  0  0  0
  148.4791  142.7449  155.9122 H   0  0  0  0  0  0  0  0  0  0  0  0
  148.2295  142.0548  157.5163 H   0  0  0  0  0  0  0  0  0  0  0  0
  149.6440  144.2903  157.3574 H   0  0  0  0  0  0  0  0  0  0  0  0
  150.3542  142.9655  158.2854 H   0  0  0  0  0  0  0  0  0  0  0  0
  150.9492  143.7510  155.4218 H   0  0  0  0  0  0  0  0  0  0  0  0
  152.1181  143.4568  156.6979 H   0  0  0  0  0  0  0  0  0  0  0  0
  151.2815  141.5893  154.7904 H   0  0  0  0  0  0  0  0  0  0  0  0
  151.9382  140.1082  156.7201 H   0  0  0  0  0  0  0  0  0  0  0  0
  150.7480  137.5534  158.6865 H   0  0  0  0  0  0  0  0  0  0  0  0
  144.1624  134.6192  162.6874 H   0  0  0  0  0  0  0  0  0  0  0  0
  147.0684  133.8620  162.4259 H   0  0  0  0  0  0  0  0  0  0  0  0
  146.1148  134.1106  163.8883 H   0  0  0  0  0  0  0  0  0  0  0  0
  146.5776  131.6402  162.4191 H   0  0  0  0  0  0  0  0  0  0  0  0
  145.6273  131.8202  163.8973 H   0  0  0  0  0  0  0  0  0  0  0  0
  143.5287  133.2513  160.8020 H   0  0  0  0  0  0  0  0  0  0  0  0
  145.2208  132.9390  160.3779 H   0  0  0  0  0  0  0  0  0  0  0  0
  1  2  1  0  0  0  0
  1 31  1  0  0  0  0
  2  3  1  0  0  0  0
  2 32  1  0  0  0  0
  2 33  1  0  0  0  0
  3  4  1  0  0  0  0
  3 26  1  0  0  0  0
  3 34  1  0  0  0  0
  4  5  1  0  0  0  0
  4 35  1  0  0  0  0
  4 36  1  0  0  0  0
  5 25  1  0  0  0  0
  5  6  1  0  0  0  0
  6  7  2  0  0  0  0
  6 37  1  0  0  0  0
  7  8  1  0  0  0  0
  8 25  2  0  0  0  0
  8  9  1  0  0  0  0
  9 10  1  0  0  0  0
  9 22  2  0  0  0  0
 10 15  1  0  0  0  0
 10 11  1  0  0  0  0
 11 12  1  0  0  0  0
 11 38  1  0  0  0  0
 11 39  1  0  0  0  0
 12 13  1  0  0  0  0
 12 40  1  0  0  0  0
 12 41  1  0  0  0  0
 13 14  1  0  0  0  0
 13 42  1  0  0  0  0
 13 43  1  0  0  0  0
 14 15  1  0  0  0  0
 14 44  1  0  0  0  0
 14 45  1  0  0  0  0
 15 16  1  0  0  0  0
 15 46  1  0  0  0  0
 16 20  1  0  0  0  0
 16 17  1  0  0  0  0
 16 47  1  0  0  0  0
 17 18  1  0  0  0  0
 17 48  1  0  0  0  0
 17 49  1  0  0  0  0
 18 19  1  0  0  0  0
 18 50  1  0  0  0  0
 18 51  1  0  0  0  0
 19 20  1  0  0  0  0
 19 52  1  0  0  0  0
 19 53  1  0  0  0  0
 20 21  1  0  0  0  0
 20 54  1  0  0  0  0
 21 55  1  0  0  0  0
 22 23  1  0  0  0  0
 23 24  2  0  0  0  0
 23 56  1  0  0  0  0
 24 25  1  0  0  0  0
 26 30  1  0  0  0  0
 26 27  1  0  0  0  0
 26 57  1  0  0  0  0
 27 28  1  0  0  0  0
 27 58  1  0  0  0  0
 27 59  1  0  0  0  0
 28 29  1  0  0  0  0
 28 60  1  0  0  0  0
 28 61  1  0  0  0  0
 29 30  1  0  0  0  0
 30 62  1  0  0  0  0
 30 63  1  0  0  0  0
M  END
> <s_m_source_file>
AV-unprocessed.smi

> <i_m_source_file_index>
148

> <i_lp_mmshare_version>
43012

> <i_f3d_flags>
0

> <s_epik_input>
W0NIMl0xT1tDSDJdW0NIMl1bQ0BIXTFbQ0BIXShbQ0gyXVtPSF0pW0NIMl1uKFtjSF1uMiljKGMyMyluW2NIXW5jM040W0NIMl1bQ0gyXVtDSDJdW0NIMl1bQ0BIXTRbQ0BASF01W0NIMl1bQ0gyXVtDSDJdW0NASF01W09IXQ==

> <s_epik_cmdline>
J2VwaWtfcHl0aG9uJywgJy1waCcsICc3LjAnLCAnLXRuJywgJzgnLCAnLW1hJywgJzIwMCcsICctbWV0YWxfYmluZGluZycsICctaW1hZScsICc8aW5maWxlLm1hZT4nLCAnLW9tYWUnLCAnPG91dGZpbGUubWFlPic=

> <r_lp_tautomer_probability>
1

> <r_epik_Ionization_Penalty>
0.00556303

> <r_epik_Ionization_Penalty_Charging>
0

> <r_epik_Ionization_Penalty_Neutral>
0.00556303

> <r_epik_State_Penalty>
0.00401767

> <r_epik_Charging_Adjusted_Penalty>
0.00401767

> <i_epik_Tot_Q>
0

> <i_epik_Tot_abs_Q>
0

> <r_epik_Metal_State_Penalty>
-0

> <b_epik_Metal_Only>
0

> <s_lp_Force_Field>
OPLS_2005

> <r_lp_Energy>
69.6021

> <b_lp_Chiralities_Consistent>
1

> <s_lp_Variant>
AV-unprocessed.smi:148-2

> <Gold.Version>
5.8.1

> <Gold.Id.Protein>
6NUR|6NUR_protein|mol2

> <Gold.PLP.Fitness>
48.2484

> <Gold.PLP.PLP>
-40.5871

> <Gold.PLP.part.hbond>
-5.0755

> <Gold.PLP.part.metal>
0.0000

> <Gold.PLP.part.buried>
-3.2703

> <Gold.PLP.part.nonpolar>
-31.9114

> <Gold.PLP.part.repulsive>
0.1101

> <Gold.PLP.ligand.clash>
0.0000

> <Gold.PLP.ligand.torsion>
0.5932

> <Gold.PLP.Chemscore.Hbond>
2.8240

> <Gold.PLP.Chemscore.CHOScore>
0.0000

> <Gold.PLP.Chemscore.Metal>
0.0000

> <Gold.Chemscore.Hbonds>
donor molecule, donor type, donor heavy atom, donor atom, acceptor molecule, acceptor atom, score
      P1  H  7997  8010       L1    21  0.07

> <Gold.PLP.Chemscore.Internal.Correction>
0.3756

> <Gold.Rescore>
     Score         DG    S(hbond)    S(metal)    S(lipo)     H(rot)  DE(clash)    DE(int)     intcor
      8.70     -13.75       1.36        0.00     104.59       3.32       1.19       3.85       ----

> <Gold.Chemscore.Fitness>
8.7014

> <Gold.Chemscore.DG>
-13.7467

> <Gold.Chemscore.ZeroCoef>
-5.4800

> <Gold.Chemscore.Hbond>
1.3563

> <Gold.Chemscore.Metal>
0.0000

> <Gold.Chemscore.Lipo>
104.5874

> <Gold.Chemscore.Internal_Hbond>
0.0000

> <Gold.Chemscore.DEClash>
1.1948

> <Gold.Chemscore.DEInternal>
3.8505

> <Gold.Chemscore.Rot>
3.3203

> <Gold.Chemscore.Internal.Correction>
   9.000000E+99

> <Gold.Chemscore.Hbond.Weighted>
-4.5300

> <Gold.Chemscore.Metal.Weighted>
-0.0000

> <Gold.Chemscore.Lipo.Weighted>
-12.2367

> <Gold.Chemscore.Internal_Hbond.Weighted>
0.0000

> <Gold.Chemscore.DEClash.Weighted>
1.1948

> <Gold.Chemscore.DEInternal.Weighted>
3.8505

> <Gold.Chemscore.Rot.Weighted>
8.5000

> <Gold.Chemscore.Internal.Correction.Weighted>
   9.000000E+99

> <Gold.Protein.RotatedTorsions>
[ 6907 6896 6895 6894 ] final   84.24 input  -60.11 | X-H torsion
[ 7974 7965 7964 7962 ] final   59.21 input  175.53 | X-H torsion
[ 8008 7997 7996 7995 ] final   66.59 input   59.86 | X-H torsion
[ 10167 10162 10161 10158 ] final  134.91 input  -65.29 | X-H torsion
[ 10718 10713 10712 10709 ] final -134.70 input   66.30 | X-H torsion
[ 10763 10752 10751 10750 ] final  -81.23 input  -60.55 | X-H torsion
[ 11005 11000 10999 10996 ] final  171.29 input  -57.11 | X-H torsion

> <Gold.Protein.ActiveResidues>
 VAL166  LYS551  ARG553  GLY616  TRP617  ASP618  TYR619  PRO620  LYS621  CYS622 
 ASP623  PHE694  ASN695  SER759  ASP760  ASP761  ALA762  ILE779  LEU786  VAL792 
 PHE793  MET794  SER795  GLU796  ALA797  LYS798  CYS799  TRP800  GLU811  SER814 

> <Gold.Protein.RotatedAtoms>
  152.5347  134.2772  159.8993 H   0  0  0  0  0  0  0  0  0  0  0  0  # atno 6907 bound_to 6896
  151.2727  133.4241  159.2630 H   0  0  0  0  0  0  0  0  0  0  0  0  # atno 6908 bound_to 6896
  151.0353  134.9584  159.8190 H   0  0  0  0  0  0  0  0  0  0  0  0  # atno 6909 bound_to 6896
  145.9097  139.3644  143.0543 H   0  0  0  0  0  0  0  0  0  0  0  0  # atno 7974 bound_to 7965
  155.6797  140.3496  155.4850 H   0  0  0  0  0  0  0  0  0  0  0  0  # atno 8008 bound_to 7997
  155.9617  140.1138  157.0912 H   0  0  0  0  0  0  0  0  0  0  0  0  # atno 8009 bound_to 7997
  154.4145  140.1174  156.5175 H   0  0  0  0  0  0  0  0  0  0  0  0  # atno 8010 bound_to 7997
  139.5237  144.6544  151.5207 H   0  0  0  0  0  0  0  0  0  0  0  0  # atno 10167 bound_to 10162
  156.2583  130.7194  151.1119 H   0  0  0  0  0  0  0  0  0  0  0  0  # atno 10718 bound_to 10713
  154.5610  135.5633  153.7007 H   0  0  0  0  0  0  0  0  0  0  0  0  # atno 10763 bound_to 10752
  153.0018  135.6274  154.2245 H   0  0  0  0  0  0  0  0  0  0  0  0  # atno 10764 bound_to 10752
  154.2183  135.2871  155.2914 H   0  0  0  0  0  0  0  0  0  0  0  0  # atno 10765 bound_to 10752
  140.3175  134.7465  157.4038 H   0  0  0  0  0  0  0  0  0  0  0  0  # atno 11005 bound_to 11000
  145.8687  140.9432  143.0662 LP  0  0  0  0  0  0  0  0  0  0  0  0  # atno 17320 bound_to 7965
  144.6742  140.0627  143.7475 LP  0  0  0  0  0  0  0  0  0  0  0  0  # atno 17321 bound_to 7965
  140.6362  143.8978  150.6650 LP  0  0  0  0  0  0  0  0  0  0  0  0  # atno 17342 bound_to 10162
  140.2298  143.3744  152.1574 LP  0  0  0  0  0  0  0  0  0  0  0  0  # atno 17343 bound_to 10162
  157.7241  131.0662  150.6010 LP  0  0  0  0  0  0  0  0  0  0  0  0  # atno 17370 bound_to 10713
  156.6096  130.4376  149.5864 LP  0  0  0  0  0  0  0  0  0  0  0  0  # atno 17371 bound_to 10713
  140.0971  134.5523  155.8388 LP  0  0  0  0  0  0  0  0  0  0  0  0  # atno 17394 bound_to 11000
  141.2094  133.6684  156.6438 LP  0  0  0  0  0  0  0  0  0  0  0  0  # atno 17395 bound_to 11000

$$$$
