AV-unprocessed.smi:331|AV-procd|sdf|2350|dock7
  -GOLD-   2262022263D 1   1.00000     0.00000
 Structure written by MMmdl.
 36 37  0  0  0  0  0  0  0  0  1 V2000
  151.0628  141.7684  157.4411 O   0  0  0  0  0  0  0  0  0  0  0  0
  150.4203  142.7225  157.0068 C   0  0  0  0  0  0  0  0  0  0  0  0
  150.8269  143.9983  157.1115 N   0  0  0  0  0  0  0  0  0  0  0  0
  152.0137  144.4449  157.8325 C   0  0  0  0  0  0  0  0  0  0  0  0
  151.6747  144.9587  159.2449 C   0  0  0  0  0  0  0  0  0  0  0  0
  152.0600  143.9834  160.3445 C   0  0  0  0  0  0  0  0  0  0  0  0
  152.7796  142.8061  160.0516 C   0  0  0  0  0  0  0  0  0  0  0  0
  153.0960  141.9251  161.1032 C   0  0  0  0  0  0  0  0  0  0  0  0
  152.6814  142.2617  162.4073 C   0  0  0  0  0  0  0  0  0  0  0  0
  151.9938  143.3867  162.6998 N   0  0  0  0  0  0  0  0  0  0  0  0
  151.6934  144.2257  161.6852 C   0  0  0  0  0  0  0  0  0  0  0  0
  149.2427  142.5606  156.3778 N   0  0  0  0  0  0  0  0  0  0  0  0
  148.5339  141.3076  156.1058 C   0  0  0  0  0  0  0  0  0  0  0  0
  149.4443  140.3199  155.3514 C   0  0  0  0  0  0  0  0  0  0  0  0
  148.6056  139.7684  154.1977 C   0  0  0  0  0  0  0  0  0  0  0  0
  147.6528  140.9072  153.8496 C   0  0  0  0  0  0  0  0  0  0  0  0
  147.3044  141.5310  155.2015 C   0  0  0  0  0  0  0  0  0  0  0  0
  150.2414  144.7161  156.7100 H   0  0  0  0  0  0  0  0  0  0  0  0
  152.7561  143.6470  157.8830 H   0  0  0  0  0  0  0  0  0  0  0  0
  152.4655  145.2493  157.2514 H   0  0  0  0  0  0  0  0  0  0  0  0
  152.1803  145.9089  159.4224 H   0  0  0  0  0  0  0  0  0  0  0  0
  150.6067  145.1682  159.3140 H   0  0  0  0  0  0  0  0  0  0  0  0
  153.0763  142.5763  159.0385 H   0  0  0  0  0  0  0  0  0  0  0  0
  153.6427  141.0129  160.9151 H   0  0  0  0  0  0  0  0  0  0  0  0
  152.9071  141.6088  163.2376 H   0  0  0  0  0  0  0  0  0  0  0  0
  151.1387  145.1137  161.9504 H   0  0  0  0  0  0  0  0  0  0  0  0
  148.8252  143.3928  155.9866 H   0  0  0  0  0  0  0  0  0  0  0  0
  148.2187  140.8471  157.0442 H   0  0  0  0  0  0  0  0  0  0  0  0
  150.3141  140.8354  154.9398 H   0  0  0  0  0  0  0  0  0  0  0  0
  149.8181  139.5267  156.0000 H   0  0  0  0  0  0  0  0  0  0  0  0
  149.2140  139.4540  153.3493 H   0  0  0  0  0  0  0  0  0  0  0  0
  148.0349  138.9033  154.5382 H   0  0  0  0  0  0  0  0  0  0  0  0
  148.1688  141.6403  153.2280 H   0  0  0  0  0  0  0  0  0  0  0  0
  146.7719  140.5674  153.3037 H   0  0  0  0  0  0  0  0  0  0  0  0
  146.4474  141.0084  155.6284 H   0  0  0  0  0  0  0  0  0  0  0  0
  147.0215  142.5800  155.1025 H   0  0  0  0  0  0  0  0  0  0  0  0
  1  2  2  0  0  0  0
  2  3  1  0  0  0  0
  2 12  1  0  0  0  0
  3  4  1  0  0  0  0
  3 18  1  0  0  0  0
  4  5  1  0  0  0  0
  4 19  1  0  0  0  0
  4 20  1  0  0  0  0
  5  6  1  0  0  0  0
  5 21  1  0  0  0  0
  5 22  1  0  0  0  0
  6 11  1  0  0  0  0
  6  7  2  0  0  0  0
  7  8  1  0  0  0  0
  7 23  1  0  0  0  0
  8  9  2  0  0  0  0
  8 24  1  0  0  0  0
  9 10  1  0  0  0  0
  9 25  1  0  0  0  0
 10 11  2  0  0  0  0
 11 26  1  0  0  0  0
 12 13  1  0  0  0  0
 12 27  1  0  0  0  0
 13 17  1  0  0  0  0
 13 14  1  0  0  0  0
 13 28  1  0  0  0  0
 14 15  1  0  0  0  0
 14 29  1  0  0  0  0
 14 30  1  0  0  0  0
 15 16  1  0  0  0  0
 15 31  1  0  0  0  0
 15 32  1  0  0  0  0
 16 17  1  0  0  0  0
 16 33  1  0  0  0  0
 16 34  1  0  0  0  0
 17 35  1  0  0  0  0
 17 36  1  0  0  0  0
M  END
> <s_m_source_file>
AV-unprocessed.smi

> <i_m_source_file_index>
331

> <i_lp_mmshare_version>
43012

> <i_f3d_flags>
0

> <s_epik_input>
W0NIMl0xW0NIMl1bQ0gyXVtDSDJdW0NIXTFbTkhdQyg9TylbTkhdW0NIMl1bQ0gyXWMyW2NIXVtjSF1bY0hdbltjSF0y

> <s_epik_cmdline>
J2VwaWtfcHl0aG9uJywgJy1waCcsICc3LjAnLCAnLXRuJywgJzgnLCAnLW1hJywgJzIwMCcsICctbWV0YWxfYmluZGluZycsICctaW1hZScsICc8aW5maWxlLm1hZT4nLCAnLW9tYWUnLCAnPG91dGZpbGUubWFlPic=

> <r_epik_Ionization_Penalty>
0.0144384

> <r_epik_Ionization_Penalty_Charging>
0

> <r_epik_Ionization_Penalty_Neutral>
0.0144384

> <r_epik_State_Penalty>
0.0112394

> <r_epik_Charging_Adjusted_Penalty>
0.0112394

> <i_epik_Tot_Q>
0

> <i_epik_Tot_abs_Q>
0

> <r_epik_Metal_State_Penalty>
0.0109726

> <b_epik_Metal_Only>
0

> <s_lp_Force_Field>
OPLS_2005

> <r_lp_Energy>
25.692

> <b_lp_Chiralities_Consistent>
1

> <s_lp_Variant>
AV-unprocessed.smi:331-1

> <Gold.Version>
5.8.1

> <Gold.Id.Protein>
6NUR|6NUR_protein|mol2

> <Gold.PLP.Fitness>
47.4808

> <Gold.PLP.PLP>
-42.9966

> <Gold.PLP.part.hbond>
-2.0000

> <Gold.PLP.part.metal>
0.0000

> <Gold.PLP.part.buried>
-2.4866

> <Gold.PLP.part.nonpolar>
-38.9380

> <Gold.PLP.part.repulsive>
0.2539

> <Gold.PLP.ligand.clash>
0.0000

> <Gold.PLP.ligand.torsion>
0.5575

> <Gold.PLP.Chemscore.Hbond>
1.8640

> <Gold.PLP.Chemscore.CHOScore>
0.0000

> <Gold.PLP.Chemscore.Metal>
0.0000

> <Gold.Chemscore.Hbonds>
donor molecule, donor type, donor heavy atom, donor atom, acceptor molecule, acceptor atom, score
      L1  H     3    18       P1  8028  0.74
      L1  H    12    27       P1  8028  0.59

> <Gold.PLP.Chemscore.Internal.Correction>
0.0072

> <Gold.Rescore>
     Score         DG    S(hbond)    S(metal)    S(lipo)     H(rot)  DE(clash)    DE(int)     intcor
     19.85     -21.32       1.90        0.00     114.08       1.51       1.06       0.41       ----

> <Gold.Chemscore.Fitness>
19.8478

> <Gold.Chemscore.DG>
-21.3223

> <Gold.Chemscore.ZeroCoef>
-5.4800

> <Gold.Chemscore.Hbond>
1.9013

> <Gold.Chemscore.Metal>
0.0000

> <Gold.Chemscore.Lipo>
114.0779

> <Gold.Chemscore.Internal_Hbond>
0.0000

> <Gold.Chemscore.DEClash>
1.0620

> <Gold.Chemscore.DEInternal>
0.4125

> <Gold.Chemscore.Rot>
1.5060

> <Gold.Chemscore.Internal.Correction>
   9.000000E+99

> <Gold.Chemscore.Hbonds>
donor molecule, donor type, donor heavy atom, donor atom, acceptor molecule, acceptor atom, score
      L1  H     3    18       P1  8028  0.55
      L1  H    12    27       P1  8028  0.56

> <Gold.Chemscore.Hbond.Weighted>
-6.3505

> <Gold.Chemscore.Metal.Weighted>
-0.0000

> <Gold.Chemscore.Lipo.Weighted>
-13.3471

> <Gold.Chemscore.Internal_Hbond.Weighted>
0.0000

> <Gold.Chemscore.DEClash.Weighted>
1.0620

> <Gold.Chemscore.DEInternal.Weighted>
0.4125

> <Gold.Chemscore.Rot.Weighted>
3.8553

> <Gold.Chemscore.Internal.Correction.Weighted>
   9.000000E+99

> <Gold.Protein.RotatedTorsions>
[ 6907 6896 6895 6894 ] final  146.96 input  -60.11 | X-H torsion
[ 7974 7965 7964 7962 ] final  -64.30 input  175.53 | X-H torsion
[ 8008 7997 7996 7995 ] final -165.80 input   59.86 | X-H torsion
[ 10167 10162 10161 10158 ] final -103.21 input  -65.29 | X-H torsion
[ 10718 10713 10712 10709 ] final  -71.21 input   66.30 | X-H torsion
[ 10763 10752 10751 10750 ] final  -27.64 input  -60.55 | X-H torsion
[ 11005 11000 10999 10996 ] final  -90.53 input  -57.11 | X-H torsion

> <Gold.Protein.ActiveResidues>
 VAL166  LYS551  ARG553  GLY616  TRP617  ASP618  TYR619  PRO620  LYS621  CYS622 
 ASP623  PHE694  ASN695  SER759  ASP760  ASP761  ALA762  ILE779  LEU786  VAL792 
 PHE793  MET794  SER795  GLU796  ALA797  LYS798  CYS799  TRP800  GLU811  SER814 

> <Gold.Protein.RotatedAtoms>
  152.1611  133.4582  159.4861 H   0  0  0  0  0  0  0  0  0  0  0  0  # atno 6907 bound_to 6896
  150.6907  134.2070  159.4353 H   0  0  0  0  0  0  0  0  0  0  0  0  # atno 6908 bound_to 6896
  151.9972  134.9947  160.0614 H   0  0  0  0  0  0  0  0  0  0  0  0  # atno 6909 bound_to 6896
  145.7684  140.8825  143.0393 H   0  0  0  0  0  0  0  0  0  0  0  0  # atno 7974 bound_to 7965
  155.8549  140.0969  157.1651 H   0  0  0  0  0  0  0  0  0  0  0  0  # atno 8008 bound_to 7997
  154.3987  140.1376  156.3952 H   0  0  0  0  0  0  0  0  0  0  0  0  # atno 8009 bound_to 7997
  155.7920  140.3455  155.5357 H   0  0  0  0  0  0  0  0  0  0  0  0  # atno 8010 bound_to 7997
  140.2224  143.3666  152.0958 H   0  0  0  0  0  0  0  0  0  0  0  0  # atno 10167 bound_to 10162
  156.0373  130.4347  150.2410 H   0  0  0  0  0  0  0  0  0  0  0  0  # atno 10718 bound_to 10713
  153.7354  135.6936  153.4979 H   0  0  0  0  0  0  0  0  0  0  0  0  # atno 10763 bound_to 10752
  153.2106  135.4404  155.0374 H   0  0  0  0  0  0  0  0  0  0  0  0  # atno 10764 bound_to 10752
  154.8239  135.3436  154.6882 H   0  0  0  0  0  0  0  0  0  0  0  0  # atno 10765 bound_to 10752
  141.1564  133.7698  156.9750 H   0  0  0  0  0  0  0  0  0  0  0  0  # atno 11005 bound_to 11000
  144.6817  139.9821  143.7483 LP  0  0  0  0  0  0  0  0  0  0  0  0  # atno 17320 bound_to 7965
  146.0194  139.3238  143.0822 LP  0  0  0  0  0  0  0  0  0  0  0  0  # atno 17321 bound_to 7965
  139.5139  144.6940  151.5682 LP  0  0  0  0  0  0  0  0  0  0  0  0  # atno 17342 bound_to 10162
  140.6245  143.9194  150.6553 LP  0  0  0  0  0  0  0  0  0  0  0  0  # atno 17343 bound_to 10162
  157.0509  131.0062  151.3254 LP  0  0  0  0  0  0  0  0  0  0  0  0  # atno 17370 bound_to 10713
  157.5141  130.7957  149.7737 LP  0  0  0  0  0  0  0  0  0  0  0  0  # atno 17371 bound_to 10713
  140.1104  134.9480  157.2056 LP  0  0  0  0  0  0  0  0  0  0  0  0  # atno 17394 bound_to 11000
  140.3201  134.2926  155.7248 LP  0  0  0  0  0  0  0  0  0  0  0  0  # atno 17395 bound_to 11000

$$$$
