#       Name:                AV-unprocessed.smi:1379
#       Creating user name   scv26
#       Creation time:       Fri Mar 27 05:20:38 2020


#       File generated by GOLD software.
#

@<TRIPOS>MOLECULE
AV-unprocessed.smi:1379
    40    41     1
SMALL
NO_CHARGES


@<TRIPOS>ATOM
      1 ****        -6.4717  -0.3578  -1.0713 C.3            1 S1                 0.0000
      2 ****        -5.0561  -0.4137  -1.0779 O.3            1 S1                 0.0000
      3 ****        -4.5673  -1.7466  -1.0482 C.3            1 S1                 0.0000
      4 ****        -3.0377  -1.7346  -1.0690 C.2            1 S1                 0.0000
      5 ****        -2.4408  -2.6377  -1.6528 O.2            1 S1                 0.0000
      6 ****        -2.4421  -0.7295  -0.3991 N.am           1 S1                 0.0000
      7 ****        -1.0563  -0.4521  -0.2443 C.ar           1 S1                 0.0000
      8 ****        -0.6828   0.4727   0.7546 C.ar           1 S1                 0.0000
      9 ****         0.6776   0.7918   0.9424 C.ar           1 S1                 0.0000
     10 ****         1.6520   0.1848   0.1167 C.ar           1 S1                 0.0000
     11 ****         3.0284   0.4297   0.2212 N.3            1 S1                 0.0000
     12 ****         3.4259   1.8166   0.0452 C.3            1 S1                 0.0000
     13 ****         4.8474   1.9098   0.6058 C.3            1 S1                 0.0000
     14 ****         4.9781   0.7098   1.5515 C.3            1 S1                 0.0000
     15 ****         3.6253  -0.0025   1.4736 C.3            1 S1                 0.0000
     16 ****         1.2549  -0.6875  -0.8347 N.pl3          1 S1                 1.0000
     17 ****        -0.0367  -1.0214  -1.0466 C.ar           1 S1                 0.0000
     18 ****        -6.7979   0.6820  -1.0817 H              1 S1                 0.0000
     19 ****        -6.8812  -0.8306  -0.1776 H              1 S1                 0.0000
     20 ****        -6.8889  -0.8504  -1.9506 H              1 S1                 0.0000
     21 ****        -4.9059  -2.2573  -0.1454 H              1 S1                 0.0000
     22 ****        -4.9396  -2.3047  -1.9090 H              1 S1                 0.0000
     23 ****        -3.0673  -0.1003   0.0839 H              1 S1                 0.0000
     24 ****        -1.4331   0.9344   1.3801 H              1 S1                 0.0000
     25 ****         0.9623   1.4933   1.7130 H              1 S1                 0.0000
     26 ****         3.3914   2.1032  -1.0063 H              1 S1                 0.0000
     27 ****         2.7619   2.4830   0.5970 H              1 S1                 0.0000
     28 ****         5.5792   1.8290  -0.1990 H              1 S1                 0.0000
     29 ****         5.0168   2.8595   1.1142 H              1 S1                 0.0000
     30 ****         5.7752   0.0503   1.2060 H              1 S1                 0.0000
     31 ****         5.2150   1.0097   2.5728 H              1 S1                 0.0000
     32 ****         2.9982   0.2885   2.3175 H              1 S1                 0.0000
     33 ****         3.7418  -1.0864   1.4990 H              1 S1                 0.0000
     34 ****        -0.1934  -1.7196  -1.8545 H              1 S1                 0.0000
     35 ****         1.9676  -1.1146  -1.4270 H              1 S1                 0.0000
     36 ****        -4.7117   0.0727  -0.2749 LP             1 S1                 0.0000
     37 ****        -4.7209   0.0330  -1.9074 LP             1 S1                 0.0000
     38 ****        -2.9552  -3.3662  -2.1052 LP             1 S1                 0.0000
     39 ****        -1.4411  -2.6435  -1.6750 LP             1 S1                 0.0000
     40 ****         3.3686  -0.1216  -0.5406 LP             1 S1                 0.0000
@<TRIPOS>BOND
    1    1    2 1     
    2    1   18 1     
    3    1   19 1     
    4    1   20 1     
    5    2    3 1     
    6    3    4 1     
    7    3   21 1     
    8    3   22 1     
    9    4    5 2     
   10    4    6 am    
   11    6    7 1     
   12    6   23 1     
   13    7   17 ar    
   14    7    8 ar    
   15    8    9 ar    
   16    8   24 1     
   17    9   10 ar    
   18    9   25 1     
   19   10   11 1     
   20   10   16 ar    
   21   11   15 1     
   22   11   12 1     
   23   12   13 1     
   24   12   26 1     
   25   12   27 1     
   26   13   14 1     
   27   13   28 1     
   28   13   29 1     
   29   14   15 1     
   30   14   30 1     
   31   14   31 1     
   32   15   32 1     
   33   15   33 1     
   34   16   17 ar    
   35   16   35 1     
   36   17   34 1     
   37    2   36 1     
   38    2   37 1     
   39    5   38 1     
   40    5   39 1     
   41   11   40 1     
@<TRIPOS>SUBSTRUCTURE
      1 S1             1
@<TRIPOS>SET
LONE_PAIRS      STATIC     ATOMS    <user>   **** ""
5 36 37 38 39 40
DONOR_HYDROGENS      STATIC     ATOMS    <user>   **** ""
2 23 35
ATOM$BLUE        STATIC     ATOMS    COLORGROUP SYSTEM
5 36 37 38 39 40
ATOM$RED        STATIC     ATOMS    COLORGROUP SYSTEM
2 23 35
