AV-unprocessed.smi:457|AV-procd|sdf|2619|dock2
  -GOLD-   2262023 23D 1   1.00000     0.00000
 Structure written by MMmdl.
 41 41  0  0  0  0  0  0  0  0  1 V2000
  152.1722  144.4651  158.2824 C   0  0  0  0  0  0  0  0  0  0  0  0
  152.4813  143.1150  158.9365 C   0  0  0  0  0  0  0  0  0  0  0  0
  151.2544  142.1882  158.9723 C   0  0  0  0  0  0  0  0  0  0  0  0
  151.0328  141.5051  157.7133 N   0  0  0  0  0  0  0  0  0  0  0  0
  149.9084  141.7074  156.9077 C   0  0  0  0  0  0  0  0  0  0  0  0
  148.9379  142.5947  157.3469 N   0  0  0  0  0  0  0  0  0  0  0  0
  149.7346  141.0394  155.7302 C   0  0  0  0  0  0  0  0  0  0  0  0
  148.6283  141.2220  154.9040 N   0  0  0  0  0  0  0  0  0  0  0  0
  147.5672  142.1614  155.2606 C   0  0  0  0  0  0  0  0  0  0  0  0
  146.5253  142.3146  154.1446 C   0  0  0  0  0  0  0  0  0  0  0  0
  148.4649  140.4495  153.6736 C   0  0  0  0  0  0  0  0  0  0  0  0
  147.9308  139.0341  153.9357 C   0  0  0  0  0  0  0  0  0  0  0  0
  146.6252  138.9310  153.3938 O   0  0  0  0  0  0  0  0  0  0  0  0
  146.6305  138.8334  151.9803 C   0  0  0  0  0  0  0  0  0  0  0  0
  150.7395  140.0743  155.2684 C   0  0  0  0  0  0  0  0  0  0  0  0
  150.6922  139.4354  154.2176 O   0  0  0  0  0  0  0  0  0  0  0  0
  151.8223  139.8974  156.1262 N   0  0  0  0  0  0  0  0  0  0  0  0
  152.0137  140.5578  157.3344 C   0  0  0  0  0  0  0  0  0  0  0  0
  153.0071  140.2980  158.0145 O   0  0  0  0  0  0  0  0  0  0  0  0
  152.5267  139.2296  155.8482 H   0  0  0  0  0  0  0  0  0  0  0  0
  153.0572  145.1016  158.2681 H   0  0  0  0  0  0  0  0  0  0  0  0
  151.3892  144.9950  158.8253 H   0  0  0  0  0  0  0  0  0  0  0  0
  151.8385  144.3357  157.2524 H   0  0  0  0  0  0  0  0  0  0  0  0
  153.2948  142.6337  158.3926 H   0  0  0  0  0  0  0  0  0  0  0  0
  152.8453  143.2815  159.9508 H   0  0  0  0  0  0  0  0  0  0  0  0
  151.3561  141.4205  159.7387 H   0  0  0  0  0  0  0  0  0  0  0  0
  150.3402  142.7257  159.2312 H   0  0  0  0  0  0  0  0  0  0  0  0
  149.0308  143.0869  158.2238 H   0  0  0  0  0  0  0  0  0  0  0  0
  148.1381  142.8345  156.7791 H   0  0  0  0  0  0  0  0  0  0  0  0
  147.0781  141.8431  156.1807 H   0  0  0  0  0  0  0  0  0  0  0  0
  148.0029  143.1381  155.4752 H   0  0  0  0  0  0  0  0  0  0  0  0
  145.7740  143.0555  154.4179 H   0  0  0  0  0  0  0  0  0  0  0  0
  146.0036  141.3788  153.9450 H   0  0  0  0  0  0  0  0  0  0  0  0
  146.9917  142.6429  153.2153 H   0  0  0  0  0  0  0  0  0  0  0  0
  147.7968  140.9753  152.9918 H   0  0  0  0  0  0  0  0  0  0  0  0
  149.4230  140.3789  153.1566 H   0  0  0  0  0  0  0  0  0  0  0  0
  148.5854  138.2961  153.4693 H   0  0  0  0  0  0  0  0  0  0  0  0
  147.9019  138.8219  155.0049 H   0  0  0  0  0  0  0  0  0  0  0  0
  145.6067  138.7525  151.6151 H   0  0  0  0  0  0  0  0  0  0  0  0
  147.1772  137.9499  151.6473 H   0  0  0  0  0  0  0  0  0  0  0  0
  147.0817  139.7166  151.5259 H   0  0  0  0  0  0  0  0  0  0  0  0
  1  2  1  0  0  0  0
  1 21  1  0  0  0  0
  1 22  1  0  0  0  0
  1 23  1  0  0  0  0
  2  3  1  0  0  0  0
  2 24  1  0  0  0  0
  2 25  1  0  0  0  0
  3  4  1  0  0  0  0
  3 26  1  0  0  0  0
  3 27  1  0  0  0  0
  4 18  1  0  0  0  0
  4  5  1  0  0  0  0
  5  6  1  0  0  0  0
  5  7  2  0  0  0  0
  6 28  1  0  0  0  0
  6 29  1  0  0  0  0
  7  8  1  0  0  0  0
  7 15  1  0  0  0  0
  8  9  1  0  0  0  0
  8 11  1  0  0  0  0
  9 10  1  0  0  0  0
  9 30  1  0  0  0  0
  9 31  1  0  0  0  0
 10 32  1  0  0  0  0
 10 33  1  0  0  0  0
 10 34  1  0  0  0  0
 11 12  1  0  0  0  0
 11 35  1  0  0  0  0
 11 36  1  0  0  0  0
 12 13  1  0  0  0  0
 12 37  1  0  0  0  0
 12 38  1  0  0  0  0
 13 14  1  0  0  0  0
 14 39  1  0  0  0  0
 14 40  1  0  0  0  0
 14 41  1  0  0  0  0
 15 16  2  0  0  0  0
 15 17  1  0  0  0  0
 17 20  1  0  0  0  0
 17 18  1  0  0  0  0
 18 19  2  0  0  0  0
M  END
> <s_m_source_file>
AV-unprocessed.smi

> <i_m_source_file_index>
457

> <i_lp_mmshare_version>
43012

> <i_f3d_flags>
0

> <s_epik_input>
W0NIM11bQ0gyXVtDSDJdbjFjKFtOSDJdKWMoYyg9TylbbkhdYzE9TylOKFtDSDJdW0NIM10pW0NIMl1bQ0gyXU9bQ0gzXQ==

> <s_epik_cmdline>
J2VwaWtfcHl0aG9uJywgJy1waCcsICc3LjAnLCAnLXRuJywgJzgnLCAnLW1hJywgJzIwMCcsICctbWV0YWxfYmluZGluZycsICctaW1hZScsICc8aW5maWxlLm1hZT4nLCAnLW9tYWUnLCAnPG91dGZpbGUubWFlPic=

> <r_lp_tautomer_probability>
1

> <r_epik_Ionization_Penalty>
0.000127086

> <r_epik_Ionization_Penalty_Charging>
2.15301e-06

> <r_epik_Ionization_Penalty_Neutral>
0.000124933

> <r_epik_State_Penalty>
-0

> <r_epik_Charging_Adjusted_Penalty>
2.15301e-06

> <i_epik_Tot_Q>
0

> <i_epik_Tot_abs_Q>
0

> <r_epik_Metal_State_Penalty>
-0

> <b_epik_Metal_Only>
0

> <s_epik_Chemistry_Notes>
This compound has an imine and may undergo hydrolysis.

> <s_lp_Force_Field>
OPLS_2005

> <r_lp_Energy>
18.1381

> <b_lp_Chiralities_Consistent>
1

> <s_lp_Variant>
AV-unprocessed.smi:457-1

> <Gold.Version>
5.8.1

> <Gold.Id.Protein>
6NUR|6NUR_protein|mol2

> <Gold.PLP.Fitness>
38.6300

> <Gold.PLP.PLP>
-36.5092

> <Gold.PLP.part.hbond>
-3.0000

> <Gold.PLP.part.metal>
0.0000

> <Gold.PLP.part.buried>
3.7466

> <Gold.PLP.part.nonpolar>
-37.0278

> <Gold.PLP.part.repulsive>
0.5311

> <Gold.PLP.ligand.clash>
23.4452

> <Gold.PLP.ligand.torsion>
0.8914

> <Gold.PLP.Chemscore.Hbond>
1.4920

> <Gold.PLP.Chemscore.CHOScore>
0.0000

> <Gold.PLP.Chemscore.Metal>
0.0000

> <Gold.Chemscore.Hbonds>
donor molecule, donor type, donor heavy atom, donor atom, acceptor molecule, acceptor atom, score
      L1  H     6    29       P1  8028  0.02
      P1  H  7989  7998       L1    16  0.30
      P1  H  7997  8009       L1    19  0.93

> <Gold.PLP.Chemscore.Internal.Correction>
22.8728

> <Gold.Rescore>
     Score         DG    S(hbond)    S(metal)    S(lipo)     H(rot)  DE(clash)    DE(int)     intcor
      3.95     -12.36       0.97        0.00      77.57       2.12       2.77       5.64       ----

> <Gold.Chemscore.Fitness>
3.9477

> <Gold.Chemscore.DG>
-12.3646

> <Gold.Chemscore.ZeroCoef>
-5.4800

> <Gold.Chemscore.Hbond>
0.9718

> <Gold.Chemscore.Metal>
0.0000

> <Gold.Chemscore.Lipo>
77.5671

> <Gold.Chemscore.Internal_Hbond>
0.0000

> <Gold.Chemscore.DEClash>
2.7740

> <Gold.Chemscore.DEInternal>
5.6428

> <Gold.Chemscore.Rot>
2.1237

> <Gold.Chemscore.Internal.Correction>
   9.000000E+99

> <Gold.Chemscore.Hbonds>
donor molecule, donor type, donor heavy atom, donor atom, acceptor molecule, acceptor atom, score
      L1  H     6    29       P1  8028  0.01
      P1  H  7997  8009       L1    19  0.74

> <Gold.Chemscore.Hbond.Weighted>
-3.2459

> <Gold.Chemscore.Metal.Weighted>
-0.0000

> <Gold.Chemscore.Lipo.Weighted>
-9.0754

> <Gold.Chemscore.Internal_Hbond.Weighted>
0.0000

> <Gold.Chemscore.DEClash.Weighted>
2.7740

> <Gold.Chemscore.DEInternal.Weighted>
5.6428

> <Gold.Chemscore.Rot.Weighted>
5.4367

> <Gold.Chemscore.Internal.Correction.Weighted>
   9.000000E+99

> <Gold.Protein.RotatedTorsions>
[ 6907 6896 6895 6894 ] final  -52.60 input  -60.11 | X-H torsion
[ 7974 7965 7964 7962 ] final   59.90 input  175.53 | X-H torsion
[ 8008 7997 7996 7995 ] final  159.72 input   59.86 | X-H torsion
[ 10167 10162 10161 10158 ] final  -25.35 input  -65.29 | X-H torsion
[ 10718 10713 10712 10709 ] final  -26.83 input   66.30 | X-H torsion
[ 10763 10752 10751 10750 ] final   48.48 input  -60.55 | X-H torsion
[ 11005 11000 10999 10996 ] final   54.42 input  -57.11 | X-H torsion

> <Gold.Protein.ActiveResidues>
 VAL166  LYS551  ARG553  GLY616  TRP617  ASP618  TYR619  PRO620  LYS621  CYS622 
 ASP623  PHE694  ASN695  SER759  ASP760  ASP761  ALA762  ILE779  LEU786  VAL792 
 PHE793  MET794  SER795  GLU796  ALA797  LYS798  CYS799  TRP800  GLU811  SER814 

> <Gold.Protein.RotatedAtoms>
  150.8503  134.7826  159.7003 H   0  0  0  0  0  0  0  0  0  0  0  0  # atno 6907 bound_to 6896
  152.4569  134.5267  159.9808 H   0  0  0  0  0  0  0  0  0  0  0  0  # atno 6908 bound_to 6896
  151.5390  133.3398  159.2967 H   0  0  0  0  0  0  0  0  0  0  0  0  # atno 6909 bound_to 6896
  145.9020  139.3589  143.0586 H   0  0  0  0  0  0  0  0  0  0  0  0  # atno 7974 bound_to 7965
  156.2220  140.1823  156.7453 H   0  0  0  0  0  0  0  0  0  0  0  0  # atno 8008 bound_to 7997
  154.5881  140.0655  156.9228 H   0  0  0  0  0  0  0  0  0  0  0  0  # atno 8009 bound_to 7997
  155.2385  140.3320  155.4297 H   0  0  0  0  0  0  0  0  0  0  0  0  # atno 8010 bound_to 7997
  140.7286  143.4272  151.0858 H   0  0  0  0  0  0  0  0  0  0  0  0  # atno 10167 bound_to 10162
  156.4460  130.4474  149.7021 H   0  0  0  0  0  0  0  0  0  0  0  0  # atno 10718 bound_to 10713
  152.9792  135.5942  154.3933 H   0  0  0  0  0  0  0  0  0  0  0  0  # atno 10763 bound_to 10752
  154.3587  135.2767  155.2334 H   0  0  0  0  0  0  0  0  0  0  0  0  # atno 10764 bound_to 10752
  154.4341  135.6029  153.6142 H   0  0  0  0  0  0  0  0  0  0  0  0  # atno 10765 bound_to 10752
  140.0688  134.5499  155.9069 H   0  0  0  0  0  0  0  0  0  0  0  0  # atno 11005 bound_to 11000
  145.8779  140.9381  143.0617 LP  0  0  0  0  0  0  0  0  0  0  0  0  # atno 17320 bound_to 7965
  144.6736  140.0740  143.7472 LP  0  0  0  0  0  0  0  0  0  0  0  0  # atno 17321 bound_to 7965
  139.7925  143.8198  152.3153 LP  0  0  0  0  0  0  0  0  0  0  0  0  # atno 17342 bound_to 10162
  139.8187  144.7305  150.9601 LP  0  0  0  0  0  0  0  0  0  0  0  0  # atno 17343 bound_to 10162
  156.3866  130.7606  151.2603 LP  0  0  0  0  0  0  0  0  0  0  0  0  # atno 17370 bound_to 10713
  157.7504  131.0280  150.4030 LP  0  0  0  0  0  0  0  0  0  0  0  0  # atno 17371 bound_to 10713
  141.2003  133.6612  156.5892 LP  0  0  0  0  0  0  0  0  0  0  0  0  # atno 17394 bound_to 11000
  140.3658  134.7648  157.4565 LP  0  0  0  0  0  0  0  0  0  0  0  0  # atno 17395 bound_to 11000

$$$$
