AV-unprocessed.smi:1007|AV-procd|sdf|4404|dock7
  -GOLD-   22720 2343D 1   1.00000     0.00000
 Structure written by MMmdl.
 57 59  0  0  0  0  0  0  0  0  3 V2000
  144.3784  145.0382  153.6232 C   0  0  0  0  0  0  0  0  0  0  0  0
  144.4600  144.4732  154.9201 O   0  0  0  0  0  0  0  0  0  0  0  0
  144.5740  143.0602  154.8914 C   0  0  0  0  0  0  0  0  0  0  0  0
  145.9257  142.6832  154.2663 C   0  0  0  0  0  0  0  0  0  0  0  0
  146.0904  141.2163  154.1087 N   0  3  0  0  0  0  0  0  0  0  0  0
  145.9312  140.4569  155.3779 C   0  0  0  0  0  0  0  0  0  0  0  0
  146.0650  138.9432  155.1152 C   0  0  0  0  0  0  0  0  0  0  0  0
  147.3308  138.5728  154.4764 N   0  0  0  0  0  0  0  0  0  0  0  0
  148.5129  138.6898  155.3385 C   0  0  0  0  0  0  0  0  0  0  0  0
  149.8605  138.8052  154.6001 C   0  0  2  0  0  0  0  0  0  0  0  0
  150.1772  137.5343  154.0686 O   0  0  0  0  0  0  0  0  0  0  0  0
  151.0078  139.2606  155.5246 C   0  0  0  0  0  0  0  0  0  0  0  0
  150.7967  140.6107  156.0611 N   0  0  0  0  0  0  0  0  0  0  0  0
  150.0393  141.6350  155.5837 C   0  0  0  0  0  0  0  0  0  0  0  0
  150.1664  142.6772  156.4514 N   0  3  0  0  0  0  0  0  0  0  0  0
  151.0174  142.3121  157.4972 C   0  0  0  0  0  0  0  0  0  0  0  0
  151.4482  143.0206  158.6127 C   0  0  0  0  0  0  0  0  0  0  0  0
  152.3215  142.3544  159.5023 C   0  0  0  0  0  0  0  0  0  0  0  0
  152.8073  143.0988  160.7343 C   0  0  0  0  0  0  0  0  0  0  0  0
  152.7373  141.0200  159.2558 C   0  0  0  0  0  0  0  0  0  0  0  0
  153.6779  140.3143  160.2177 C   0  0  0  0  0  0  0  0  0  0  0  0
  152.2886  140.3168  158.1150 C   0  0  0  0  0  0  0  0  0  0  0  0
  151.4267  140.9875  157.2512 C   0  0  0  0  0  0  0  0  0  0  0  0
  147.4611  139.3333  153.2338 C   0  0  0  0  0  0  0  0  0  0  0  0
  147.3681  140.8592  153.4404 C   0  0  0  0  0  0  0  0  0  0  0  0
  144.2941  146.1221  153.7002 H   0  0  0  0  0  0  0  0  0  0  0  0
  143.5029  144.6703  153.0866 H   0  0  0  0  0  0  0  0  0  0  0  0
  145.2699  144.8108  153.0371 H   0  0  0  0  0  0  0  0  0  0  0  0
  144.5284  142.6725  155.9103 H   0  0  0  0  0  0  0  0  0  0  0  0
  143.7418  142.6159  154.3451 H   0  0  0  0  0  0  0  0  0  0  0  0
  145.9939  143.1662  153.2905 H   0  0  0  0  0  0  0  0  0  0  0  0
  146.7467  143.0819  154.8640 H   0  0  0  0  0  0  0  0  0  0  0  0
  146.6667  140.7917  156.1102 H   0  0  0  0  0  0  0  0  0  0  0  0
  144.9508  140.6511  155.8107 H   0  0  0  0  0  0  0  0  0  0  0  0
  145.9250  138.3899  156.0424 H   0  0  0  0  0  0  0  0  0  0  0  0
  145.2431  138.6303  154.4696 H   0  0  0  0  0  0  0  0  0  0  0  0
  148.4021  139.5741  155.9681 H   0  0  0  0  0  0  0  0  0  0  0  0
  148.5572  137.8463  156.0271 H   0  0  0  0  0  0  0  0  0  0  0  0
  149.7712  139.4848  153.7533 H   0  0  0  0  0  0  0  0  0  0  0  0
  149.7327  137.4322  153.2406 H   0  0  0  0  0  0  0  0  0  0  0  0
  151.1361  138.5756  156.3634 H   0  0  0  0  0  0  0  0  0  0  0  0
  151.9547  139.2647  154.9829 H   0  0  0  0  0  0  0  0  0  0  0  0
  149.4407  141.6206  154.6842 H   0  0  0  0  0  0  0  0  0  0  0  0
  151.1280  144.0363  158.7937 H   0  0  0  0  0  0  0  0  0  0  0  0
  153.8937  143.1894  160.7236 H   0  0  0  0  0  0  0  0  0  0  0  0
  152.5121  142.5713  161.6416 H   0  0  0  0  0  0  0  0  0  0  0  0
  152.3896  144.1048  160.7838 H   0  0  0  0  0  0  0  0  0  0  0  0
  153.9116  139.3044  159.8788 H   0  0  0  0  0  0  0  0  0  0  0  0
  153.2270  140.2377  161.2073 H   0  0  0  0  0  0  0  0  0  0  0  0
  154.6174  140.8606  160.3057 H   0  0  0  0  0  0  0  0  0  0  0  0
  152.6037  139.3015  157.9256 H   0  0  0  0  0  0  0  0  0  0  0  0
  148.4020  139.0828  152.7421 H   0  0  0  0  0  0  0  0  0  0  0  0
  146.6754  139.0227  152.5435 H   0  0  0  0  0  0  0  0  0  0  0  0
  147.4212  141.3546  152.4703 H   0  0  0  0  0  0  0  0  0  0  0  0
  148.2112  141.2264  154.0268 H   0  0  0  0  0  0  0  0  0  0  0  0
  145.3554  140.9097  153.4867 H   0  0  0  0  0  0  0  0  0  0  0  0
  149.7022  143.5691  156.3373 H   0  0  0  0  0  0  0  0  0  0  0  0
  1  2  1  0  0  0  0
  1 26  1  0  0  0  0
  1 27  1  0  0  0  0
  1 28  1  0  0  0  0
  2  3  1  0  0  0  0
  3  4  1  0  0  0  0
  3 29  1  0  0  0  0
  3 30  1  0  0  0  0
  4  5  1  0  0  0  0
  4 31  1  0  0  0  0
  4 32  1  0  0  0  0
  5 25  1  0  0  0  0
  5  6  1  0  0  0  0
  5 56  1  0  0  0  0
  6  7  1  0  0  0  0
  6 33  1  0  0  0  0
  6 34  1  0  0  0  0
  7  8  1  0  0  0  0
  7 35  1  0  0  0  0
  7 36  1  0  0  0  0
  8  9  1  0  0  0  0
  8 24  1  0  0  0  0
  9 10  1  0  0  0  0
  9 37  1  0  0  0  0
  9 38  1  0  0  0  0
 10 11  1  0  0  0  0
 10 12  1  0  0  0  0
 10 39  1  0  0  0  0
 11 40  1  0  0  0  0
 12 13  1  0  0  0  0
 12 41  1  0  0  0  0
 12 42  1  0  0  0  0
 13 23  1  0  0  0  0
 13 14  1  0  0  0  0
 14 15  2  0  0  0  0
 14 43  1  0  0  0  0
 15 16  1  0  0  0  0
 15 57  1  0  0  0  0
 16 23  2  0  0  0  0
 16 17  1  0  0  0  0
 17 18  2  0  0  0  0
 17 44  1  0  0  0  0
 18 19  1  0  0  0  0
 18 20  1  0  0  0  0
 19 45  1  0  0  0  0
 19 46  1  0  0  0  0
 19 47  1  0  0  0  0
 20 21  1  0  0  0  0
 20 22  2  0  0  0  0
 21 48  1  0  0  0  0
 21 49  1  0  0  0  0
 21 50  1  0  0  0  0
 22 23  1  0  0  0  0
 22 51  1  0  0  0  0
 24 25  1  0  0  0  0
 24 52  1  0  0  0  0
 24 53  1  0  0  0  0
 25 54  1  0  0  0  0
 25 55  1  0  0  0  0
M  CHG  1   5   1
M  CHG  1  15   1
M  END
> <s_m_source_file>
AV-unprocessed.smi

> <i_m_source_file_index>
1007

> <i_lp_mmshare_version>
43012

> <i_f3d_flags>
0

> <s_epik_input>
W0NIM11PW0NIMl1bQ0gyXU4xW0NIMl1bQ0gyXU4oW0NIMl1bQ0gyXTEpW0NIMl1bQ0BIXShbT0hdKVtDSDJdbihbY0hdbjIpYyhjMjMpW2NIXWMoW0NIM10pYyhbY0hdMylbQ0gzXQ==

> <s_epik_cmdline>
J2VwaWtfcHl0aG9uJywgJy1waCcsICc3LjAnLCAnLXRuJywgJzgnLCAnLW1hJywgJzIwMCcsICctbWV0YWxfYmluZGluZycsICctaW1hZScsICc8aW5maWxlLm1hZT4nLCAnLW9tYWUnLCAnPG91dGZpbGUubWFlPic=

> <r_epik_Ionization_Penalty>
1.34507

> <r_epik_Ionization_Penalty_Charging>
1.29906

> <r_epik_Ionization_Penalty_Neutral>
0.0460038

> <r_epik_State_Penalty>
2.55679

> <r_epik_Charging_Adjusted_Penalty>
3.85586

> <i_epik_Tot_Q>
2

> <i_epik_Tot_abs_Q>
2

> <r_epik_Metal_State_Penalty>
6.56928

> <b_epik_Metal_Only>
0

> <s_lp_Force_Field>
OPLS_2005

> <r_lp_Energy>
40.0573

> <b_lp_Chiralities_Consistent>
1

> <s_lp_Variant>
AV-unprocessed.smi:1007-7

> <Gold.Version>
5.8.1

> <Gold.Id.Protein>
6NUR|6NUR_protein|mol2

> <Gold.PLP.Fitness>
61.4065

> <Gold.PLP.PLP>
-47.6605

> <Gold.PLP.part.hbond>
-3.4510

> <Gold.PLP.part.metal>
0.0000

> <Gold.PLP.part.buried>
-5.6051

> <Gold.PLP.part.nonpolar>
-41.0130

> <Gold.PLP.part.repulsive>
0.3483

> <Gold.PLP.ligand.clash>
0.0000

> <Gold.PLP.ligand.torsion>
0.7022

> <Gold.PLP.Chemscore.Hbond>
5.0000

> <Gold.PLP.Chemscore.CHOScore>
0.0000

> <Gold.PLP.Chemscore.Metal>
0.0000

> <Gold.Chemscore.Hbonds>
donor molecule, donor type, donor heavy atom, donor atom, acceptor molecule, acceptor atom, score
      L1  H     5    56       P1 10175  2.00
      L1  H    11    40       P1  7948  0.98
      L1  H    15    57       P1  8028  2.00

> <Gold.PLP.Chemscore.Internal.Correction>
0.1503

> <Gold.Rescore>
     Score         DG    S(hbond)    S(metal)    S(lipo)     H(rot)  DE(clash)    DE(int)     intcor
     21.46     -22.09       2.81        0.00     119.66       2.64       0.01       0.62       ----

> <Gold.Chemscore.Fitness>
21.4613

> <Gold.Chemscore.DG>
-22.0866

> <Gold.Chemscore.ZeroCoef>
-5.4800

> <Gold.Chemscore.Hbond>
2.8061

> <Gold.Chemscore.Metal>
0.0000

> <Gold.Chemscore.Lipo>
119.6638

> <Gold.Chemscore.Internal_Hbond>
0.0000

> <Gold.Chemscore.DEClash>
0.0050

> <Gold.Chemscore.DEInternal>
0.6203

> <Gold.Chemscore.Rot>
2.6432

> <Gold.Chemscore.Internal.Correction>
   9.000000E+99

> <Gold.Chemscore.Hbonds>
donor molecule, donor type, donor heavy atom, donor atom, acceptor molecule, acceptor atom, score
      L1  H     5    56       P1 10175  0.72
      L1  H    11    40       P1  7948  0.60
      L1  H    15    57       P1  8028  0.96

> <Gold.Chemscore.Hbond.Weighted>
-9.3725

> <Gold.Chemscore.Metal.Weighted>
-0.0000

> <Gold.Chemscore.Lipo.Weighted>
-14.0007

> <Gold.Chemscore.Internal_Hbond.Weighted>
0.0000

> <Gold.Chemscore.DEClash.Weighted>
0.0050

> <Gold.Chemscore.DEInternal.Weighted>
0.6203

> <Gold.Chemscore.Rot.Weighted>
6.7665

> <Gold.Chemscore.Internal.Correction.Weighted>
   9.000000E+99

> <Gold.Protein.RotatedTorsions>
[ 6907 6896 6895 6894 ] final  -41.59 input  -60.11 | X-H torsion
[ 7974 7965 7964 7962 ] final -132.47 input  175.53 | X-H torsion
[ 8008 7997 7996 7995 ] final  -74.60 input   59.86 | X-H torsion
[ 10167 10162 10161 10158 ] final  -15.28 input  -65.29 | X-H torsion
[ 10718 10713 10712 10709 ] final  158.18 input   66.30 | X-H torsion
[ 10763 10752 10751 10750 ] final  -98.89 input  -60.55 | X-H torsion
[ 11005 11000 10999 10996 ] final  -58.29 input  -57.11 | X-H torsion

> <Gold.Protein.ActiveResidues>
 VAL166  LYS551  ARG553  GLY616  TRP617  ASP618  TYR619  PRO620  LYS621  CYS622 
 ASP623  PHE694  ASN695  SER759  ASP760  ASP761  ALA762  ILE779  LEU786  VAL792 
 PHE793  MET794  SER795  GLU796  ALA797  LYS798  CYS799  TRP800  GLU811  SER814 

> <Gold.Protein.RotatedAtoms>
  150.9649  134.9032  159.7752 H   0  0  0  0  0  0  0  0  0  0  0  0  # atno 6907 bound_to 6896
  152.5170  134.3621  159.9298 H   0  0  0  0  0  0  0  0  0  0  0  0  # atno 6908 bound_to 6896
  151.3631  133.3841  159.2726 H   0  0  0  0  0  0  0  0  0  0  0  0  # atno 6909 bound_to 6896
  144.9282  140.7097  143.4922 H   0  0  0  0  0  0  0  0  0  0  0  0  # atno 7974 bound_to 7965
  154.5345  140.0758  156.8403 H   0  0  0  0  0  0  0  0  0  0  0  0  # atno 8008 bound_to 7997
  155.3306  140.3401  155.4221 H   0  0  0  0  0  0  0  0  0  0  0  0  # atno 8009 bound_to 7997
  156.1814  140.1653  156.8253 H   0  0  0  0  0  0  0  0  0  0  0  0  # atno 8010 bound_to 7997
  140.7216  143.5234  150.9605 H   0  0  0  0  0  0  0  0  0  0  0  0  # atno 10167 bound_to 10162
  157.1814  131.0633  151.2129 H   0  0  0  0  0  0  0  0  0  0  0  0  # atno 10718 bound_to 10713
  154.7452  135.4993  153.9191 H   0  0  0  0  0  0  0  0  0  0  0  0  # atno 10763 bound_to 10752
  153.1084  135.6703  153.9552 H   0  0  0  0  0  0  0  0  0  0  0  0  # atno 10764 bound_to 10752
  153.9318  135.3077  155.3424 H   0  0  0  0  0  0  0  0  0  0  0  0  # atno 10765 bound_to 10752
  141.1201  133.6612  156.4898 H   0  0  0  0  0  0  0  0  0  0  0  0  # atno 11005 bound_to 11000
  145.3184  139.1796  143.4601 LP  0  0  0  0  0  0  0  0  0  0  0  0  # atno 17320 bound_to 7965
  146.3235  140.3198  142.8632 LP  0  0  0  0  0  0  0  0  0  0  0  0  # atno 17321 bound_to 7965
  139.8952  143.6903  152.3139 LP  0  0  0  0  0  0  0  0  0  0  0  0  # atno 17342 bound_to 10162
  139.7233  144.7598  151.0919 LP  0  0  0  0  0  0  0  0  0  0  0  0  # atno 17343 bound_to 10162
  157.3948  130.7302  149.6724 LP  0  0  0  0  0  0  0  0  0  0  0  0  # atno 17370 bound_to 10713
  155.9724  130.4136  150.4093 LP  0  0  0  0  0  0  0  0  0  0  0  0  # atno 17371 bound_to 10713
  140.4532  134.6909  157.5050 LP  0  0  0  0  0  0  0  0  0  0  0  0  # atno 17394 bound_to 11000
  140.0152  134.6630  155.9321 LP  0  0  0  0  0  0  0  0  0  0  0  0  # atno 17395 bound_to 11000

$$$$
