AV-unprocessed.smi:2784|AV-procd|sdf|10730|dock10
  -GOLD-   2272015163D 1   1.00000     0.00000
 Structure written by MMmdl.
 32 33  0  0  0  0  0  0  0  0  2 V2000
  150.8738  138.0162  154.6557 C   0  0  0  0  0  0  0  0  0  0  0  0
  150.5509  139.2796  154.0969 O   0  0  0  0  0  0  0  0  0  0  0  0
  149.4091  139.8883  154.6840 C   0  0  2  0  0  0  0  0  0  0  0  0
  148.1441  139.1806  154.1900 C   0  0  0  0  0  0  0  0  0  0  0  0
  147.0631  140.2545  154.2406 C   0  0  0  0  0  0  0  0  0  0  0  0
  147.7871  141.5234  153.7923 C   0  0  0  0  0  0  0  0  0  0  0  0
  149.2414  141.3710  154.2772 C   0  0  1  0  0  0  0  0  0  0  0  0
  149.5003  142.2476  155.4175 N   0  0  0  0  0  0  0  0  0  0  0  0
  150.4868  142.0838  156.3107 C   0  0  0  0  0  0  0  0  0  0  0  0
  151.3084  141.1682  156.2639 O   0  0  0  0  0  0  0  0  0  0  0  0
  150.4625  143.0387  157.2527 N   0  0  0  0  0  0  0  0  0  0  0  0
  151.3414  143.1318  158.3564 C   0  0  0  0  0  0  0  0  0  0  0  0
  151.3539  144.1497  159.2154 N   0  3  0  0  0  0  0  0  0  0  0  0
  152.3198  143.9152  160.1625 C   0  0  0  0  0  0  0  0  0  0  0  0
  152.8848  142.7079  159.8286 C   0  0  0  0  0  0  0  0  0  0  0  0
  152.2802  142.2029  158.6949 O   0  0  0  0  0  0  0  0  0  0  0  0
  151.7438  137.6038  154.1448 H   0  0  0  0  0  0  0  0  0  0  0  0
  150.0502  137.3111  154.5379 H   0  0  0  0  0  0  0  0  0  0  0  0
  151.1173  138.0943  155.7157 H   0  0  0  0  0  0  0  0  0  0  0  0
  149.4456  139.7851  155.7709 H   0  0  0  0  0  0  0  0  0  0  0  0
  148.2778  138.8545  153.1575 H   0  0  0  0  0  0  0  0  0  0  0  0
  147.8954  138.3016  154.7857 H   0  0  0  0  0  0  0  0  0  0  0  0
  146.2036  140.0169  153.6131 H   0  0  0  0  0  0  0  0  0  0  0  0
  146.7082  140.3730  155.2651 H   0  0  0  0  0  0  0  0  0  0  0  0
  147.7768  141.5747  152.7026 H   0  0  0  0  0  0  0  0  0  0  0  0
  147.2971  142.4269  154.1583 H   0  0  0  0  0  0  0  0  0  0  0  0
  149.9146  141.6075  153.4510 H   0  0  0  0  0  0  0  0  0  0  0  0
  148.8747  143.0317  155.5322 H   0  0  0  0  0  0  0  0  0  0  0  0
  150.7671  144.9747  159.2081 H   0  0  0  0  0  0  0  0  0  0  0  0
  152.5052  144.6159  160.9641 H   0  0  0  0  0  0  0  0  0  0  0  0
  153.6717  142.1073  160.2614 H   0  0  0  0  0  0  0  0  0  0  0  0
  149.7484  143.7484  157.1831 H   0  0  0  0  0  0  0  0  0  0  0  0
  1  2  1  0  0  0  0
  1 17  1  0  0  0  0
  1 18  1  0  0  0  0
  1 19  1  0  0  0  0
  2  3  1  0  0  0  0
  3  7  1  0  0  0  0
  3  4  1  0  0  0  0
  3 20  1  0  0  0  0
  4  5  1  0  0  0  0
  4 21  1  0  0  0  0
  4 22  1  0  0  0  0
  5  6  1  0  0  0  0
  5 23  1  0  0  0  0
  5 24  1  0  0  0  0
  6  7  1  0  0  0  0
  6 25  1  0  0  0  0
  6 26  1  0  0  0  0
  7  8  1  0  0  0  0
  7 27  1  0  0  0  0
  8 28  1  0  0  0  0
  8  9  1  0  0  0  0
  9 11  1  0  0  0  0
  9 10  2  0  0  0  0
 11 12  1  0  0  0  0
 11 32  1  0  0  0  0
 12 16  1  0  0  0  0
 12 13  2  0  0  0  0
 13 29  1  0  0  0  0
 13 14  1  0  0  0  0
 14 30  1  0  0  0  0
 14 15  2  0  0  0  0
 15 31  1  0  0  0  0
 15 16  1  0  0  0  0
M  CHG  1  13   1
M  END
> <s_m_source_file>
AV-unprocessed.smi

> <i_m_source_file_index>
2784

> <i_lp_mmshare_version>
43012

> <i_f3d_flags>
0

> <s_epik_input>
W0NIM11PW0NAQEhdMVtDSDJdW0NIMl1bQ0gyXVtDQEhdMVtOSF1DKD1PKVtOSF1jMm5bY0hdW2NIXW8y

> <s_epik_cmdline>
J2VwaWtfcHl0aG9uJywgJy1waCcsICc3LjAnLCAnLXRuJywgJzgnLCAnLW1hJywgJzIwMCcsICctbWV0YWxfYmluZGluZycsICctaW1hZScsICc8aW5maWxlLm1hZT4nLCAnLW9tYWUnLCAnPG91dGZpbGUubWFlPic=

> <r_epik_Ionization_Penalty>
6.73843

> <r_epik_Ionization_Penalty_Charging>
6.66704

> <r_epik_Ionization_Penalty_Neutral>
0.0713889

> <r_epik_State_Penalty>
1.94951

> <r_epik_Charging_Adjusted_Penalty>
8.61656

> <i_epik_Tot_Q>
1

> <i_epik_Tot_abs_Q>
1

> <r_epik_Metal_State_Penalty>
1.97013

> <b_epik_Metal_Only>
0

> <s_lp_Force_Field>
OPLS_2005

> <r_lp_Energy>
26.9129

> <b_lp_Chiralities_Consistent>
1

> <s_lp_Variant>
AV-unprocessed.smi:2784-5

> <Gold.Version>
5.8.1

> <Gold.Id.Protein>
6NUR|6NUR_protein|mol2

> <Gold.PLP.Fitness>
37.2519

> <Gold.PLP.PLP>
-30.5443

> <Gold.PLP.part.hbond>
-3.0000

> <Gold.PLP.part.metal>
0.0000

> <Gold.PLP.part.buried>
-2.9924

> <Gold.PLP.part.nonpolar>
-24.3898

> <Gold.PLP.part.repulsive>
0.4938

> <Gold.PLP.ligand.clash>
0.0000

> <Gold.PLP.ligand.torsion>
0.3721

> <Gold.PLP.Chemscore.Hbond>
2.4821

> <Gold.PLP.Chemscore.CHOScore>
0.0000

> <Gold.PLP.Chemscore.Metal>
0.0000

> <Gold.Chemscore.Hbonds>
donor molecule, donor type, donor heavy atom, donor atom, acceptor molecule, acceptor atom, score
      L1  H     8    28       P1  8028  0.83
      L1  H    11    32       P1  8028  0.70
      P1  H  7989  7998       L1     2  1.00

> <Gold.PLP.Chemscore.Internal.Correction>
0.0053

> <Gold.Rescore>
     Score         DG    S(hbond)    S(metal)    S(lipo)     H(rot)  DE(clash)    DE(int)     intcor
     11.07     -15.47       1.79        0.00      63.49       1.34       0.27       4.13       ----

> <Gold.Chemscore.Fitness>
11.0688

> <Gold.Chemscore.DG>
-15.4682

> <Gold.Chemscore.ZeroCoef>
-5.4800

> <Gold.Chemscore.Hbond>
1.7895

> <Gold.Chemscore.Metal>
0.0000

> <Gold.Chemscore.Lipo>
63.4945

> <Gold.Chemscore.Internal_Hbond>
0.0000

> <Gold.Chemscore.DEClash>
0.2654

> <Gold.Chemscore.DEInternal>
4.1339

> <Gold.Chemscore.Rot>
1.3351

> <Gold.Chemscore.Internal.Correction>
   9.000000E+99

> <Gold.Chemscore.Hbonds>
donor molecule, donor type, donor heavy atom, donor atom, acceptor molecule, acceptor atom, score
      L1  H     8    28       P1  8028  0.83
      L1  H    11    32       P1  8028  0.58
      P1  H  7989  7998       L1     2  0.38

> <Gold.Chemscore.Hbond.Weighted>
-5.9770

> <Gold.Chemscore.Metal.Weighted>
-0.0000

> <Gold.Chemscore.Lipo.Weighted>
-7.4289

> <Gold.Chemscore.Internal_Hbond.Weighted>
0.0000

> <Gold.Chemscore.DEClash.Weighted>
0.2654

> <Gold.Chemscore.DEInternal.Weighted>
4.1339

> <Gold.Chemscore.Rot.Weighted>
3.4177

> <Gold.Chemscore.Internal.Correction.Weighted>
   9.000000E+99

> <Gold.Protein.RotatedTorsions>
[ 6907 6896 6895 6894 ] final   93.78 input  -60.11 | X-H torsion
[ 7974 7965 7964 7962 ] final  169.99 input  175.53 | X-H torsion
[ 8008 7997 7996 7995 ] final   31.83 input   59.86 | X-H torsion
[ 10167 10162 10161 10158 ] final  124.62 input  -65.29 | X-H torsion
[ 10718 10713 10712 10709 ] final -126.24 input   66.30 | X-H torsion
[ 10763 10752 10751 10750 ] final -154.54 input  -60.55 | X-H torsion
[ 11005 11000 10999 10996 ] final -150.39 input  -57.11 | X-H torsion

> <Gold.Protein.ActiveResidues>
 VAL166  LYS551  ARG553  GLY616  TRP617  ASP618  TYR619  PRO620  LYS621  CYS622 
 ASP623  PHE694  ASN695  SER759  ASP760  ASP761  ALA762  ILE779  LEU786  VAL792 
 PHE793  MET794  SER795  GLU796  ALA797  LYS798  CYS799  TRP800  GLU811  SER814 

> <Gold.Protein.RotatedAtoms>
  152.5451  134.1295  159.8432 H   0  0  0  0  0  0  0  0  0  0  0  0  # atno 6907 bound_to 6896
  151.1342  133.5008  159.2606 H   0  0  0  0  0  0  0  0  0  0  0  0  # atno 6908 bound_to 6896
  151.1642  135.0298  159.8778 H   0  0  0  0  0  0  0  0  0  0  0  0  # atno 6909 bound_to 6896
  144.7337  139.9136  143.6416 H   0  0  0  0  0  0  0  0  0  0  0  0  # atno 7974 bound_to 7965
  155.1127  140.3240  155.4517 H   0  0  0  0  0  0  0  0  0  0  0  0  # atno 8008 bound_to 7997
  156.2686  140.2041  156.6199 H   0  0  0  0  0  0  0  0  0  0  0  0  # atno 8009 bound_to 7997
  154.6744  140.0533  157.0186 H   0  0  0  0  0  0  0  0  0  0  0  0  # atno 8010 bound_to 7997
  139.5731  144.6949  151.3725 H   0  0  0  0  0  0  0  0  0  0  0  0  # atno 10167 bound_to 10162
  156.1748  130.6692  151.0227 H   0  0  0  0  0  0  0  0  0  0  0  0  # atno 10718 bound_to 10713
  154.7851  135.3187  154.7904 H   0  0  0  0  0  0  0  0  0  0  0  0  # atno 10763 bound_to 10752
  153.8606  135.6853  153.4787 H   0  0  0  0  0  0  0  0  0  0  0  0  # atno 10764 bound_to 10752
  153.1500  135.4703  154.9561 H   0  0  0  0  0  0  0  0  0  0  0  0  # atno 10765 bound_to 10752
  140.7407  134.3518  157.5148 H   0  0  0  0  0  0  0  0  0  0  0  0  # atno 11005 bound_to 11000
  146.0982  139.3976  143.0363 LP  0  0  0  0  0  0  0  0  0  0  0  0  # atno 17320 bound_to 7965
  145.7616  140.9933  143.1197 LP  0  0  0  0  0  0  0  0  0  0  0  0  # atno 17321 bound_to 7965
  140.7015  143.7620  150.7411 LP  0  0  0  0  0  0  0  0  0  0  0  0  # atno 17342 bound_to 10162
  140.1132  143.4680  152.2358 LP  0  0  0  0  0  0  0  0  0  0  0  0  # atno 17343 bound_to 10162
  157.6828  131.0833  150.7325 LP  0  0  0  0  0  0  0  0  0  0  0  0  # atno 17370 bound_to 10713
  156.7383  130.4731  149.5483 LP  0  0  0  0  0  0  0  0  0  0  0  0  # atno 17371 bound_to 10713
  139.8807  134.9079  156.2954 LP  0  0  0  0  0  0  0  0  0  0  0  0  # atno 17394 bound_to 11000
  140.9839  133.7250  156.0713 LP  0  0  0  0  0  0  0  0  0  0  0  0  # atno 17395 bound_to 11000

$$$$
