AV-unprocessed.smi:512|AV-procd|sdf|2769|dock8
  -GOLD-   2262023233D 1   1.00000     0.00000
 Structure written by MMmdl.
 48 50  0  0  0  0  0  0  0  0  1 V2000
  153.8523  139.2526  160.8732 C   0  0  0  0  0  0  0  0  0  0  0  0
  152.7418  138.7953  159.9248 C   0  0  0  0  0  0  0  0  0  0  0  0
  153.0781  139.1989  158.6099 O   0  0  0  0  0  0  0  0  0  0  0  0
  152.0634  138.9080  157.6629 C   0  0  0  0  0  0  0  0  0  0  0  0
  152.3444  139.6719  156.3615 C   0  0  0  0  0  0  0  0  0  0  0  0
  151.1843  140.4522  155.9343 N   0  0  0  0  0  0  0  0  0  0  0  0
  150.7653  141.6646  156.3897 C   0  0  0  0  0  0  0  0  0  0  0  0
  151.4673  142.3778  157.3615 N   0  0  0  0  0  0  0  0  0  0  0  0
  152.2658  141.8287  158.4547 C   0  0  0  0  0  0  0  0  0  0  0  0
  151.8976  142.4945  159.7949 C   0  0  0  0  0  0  0  0  0  0  0  0
  152.1751  143.9281  159.7112 N   0  0  0  0  0  0  0  0  0  0  0  0
  151.8225  144.5696  160.9691 C   0  0  0  0  0  0  0  0  0  0  0  0
  151.3773  144.4992  158.6259 C   0  0  0  0  0  0  0  0  0  0  0  0
  151.7439  143.8096  157.2965 C   0  0  0  0  0  0  0  0  0  0  0  0
  149.6071  142.0838  155.8735 N   0  0  0  0  0  0  0  0  0  0  0  0
  149.2689  141.0671  154.9943 C   0  0  0  0  0  0  0  0  0  0  0  0
  150.1957  140.0755  155.0212 C   0  0  0  0  0  0  0  0  0  0  0  0
  150.0563  138.8494  154.2212 C   0  0  0  0  0  0  0  0  0  0  0  0
  150.8709  137.9294  154.2354 O   0  0  0  0  0  0  0  0  0  0  0  0
  148.9293  138.8296  153.4691 N   0  0  0  0  0  0  0  0  0  0  0  0
  147.9618  139.7932  153.3947 C   0  0  0  0  0  0  0  0  0  0  0  0
  146.9819  139.6257  152.6687 O   0  0  0  0  0  0  0  0  0  0  0  0
  148.1299  140.9244  154.1513 N   0  0  0  0  0  0  0  0  0  0  0  0
  147.1242  141.9879  154.1163 C   0  0  0  0  0  0  0  0  0  0  0  0
  148.7839  138.0064  152.9031 H   0  0  0  0  0  0  0  0  0  0  0  0
  153.6370  138.9538  161.8991 H   0  0  0  0  0  0  0  0  0  0  0  0
  153.9589  140.3376  160.8550 H   0  0  0  0  0  0  0  0  0  0  0  0
  154.8111  138.8168  160.5912 H   0  0  0  0  0  0  0  0  0  0  0  0
  152.6362  137.7104  159.9701 H   0  0  0  0  0  0  0  0  0  0  0  0
  151.7894  139.2354  160.2232 H   0  0  0  0  0  0  0  0  0  0  0  0
  152.0362  137.8358  157.4632 H   0  0  0  0  0  0  0  0  0  0  0  0
  151.0878  139.1917  158.0597 H   0  0  0  0  0  0  0  0  0  0  0  0
  153.2069  140.3190  156.4900 H   0  0  0  0  0  0  0  0  0  0  0  0
  152.6327  138.9814  155.5721 H   0  0  0  0  0  0  0  0  0  0  0  0
  152.1406  140.7483  158.5117 H   0  0  0  0  0  0  0  0  0  0  0  0
  153.3231  141.9887  158.2380 H   0  0  0  0  0  0  0  0  0  0  0  0
  150.8476  142.3202  160.0354 H   0  0  0  0  0  0  0  0  0  0  0  0
  152.4901  142.0561  160.5988 H   0  0  0  0  0  0  0  0  0  0  0  0
  152.0253  145.6401  160.9218 H   0  0  0  0  0  0  0  0  0  0  0  0
  152.4122  144.1555  161.7876 H   0  0  0  0  0  0  0  0  0  0  0  0
  150.7661  144.4316  161.2048 H   0  0  0  0  0  0  0  0  0  0  0  0
  150.3118  144.3828  158.8319 H   0  0  0  0  0  0  0  0  0  0  0  0
  151.5765  145.5690  158.5522 H   0  0  0  0  0  0  0  0  0  0  0  0
  152.7951  143.9728  157.0540 H   0  0  0  0  0  0  0  0  0  0  0  0
  151.1640  144.2533  156.4864 H   0  0  0  0  0  0  0  0  0  0  0  0
  146.8710  142.2556  153.0892 H   0  0  0  0  0  0  0  0  0  0  0  0
  147.4651  142.8992  154.6078 H   0  0  0  0  0  0  0  0  0  0  0  0
  146.2125  141.6612  154.6178 H   0  0  0  0  0  0  0  0  0  0  0  0
  1  2  1  0  0  0  0
  1 26  1  0  0  0  0
  1 27  1  0  0  0  0
  1 28  1  0  0  0  0
  2  3  1  0  0  0  0
  2 29  1  0  0  0  0
  2 30  1  0  0  0  0
  3  4  1  0  0  0  0
  4  5  1  0  0  0  0
  4 31  1  0  0  0  0
  4 32  1  0  0  0  0
  5  6  1  0  0  0  0
  5 33  1  0  0  0  0
  5 34  1  0  0  0  0
  6 17  1  0  0  0  0
  6  7  1  0  0  0  0
  7  8  1  0  0  0  0
  7 15  2  0  0  0  0
  8 14  1  0  0  0  0
  8  9  1  0  0  0  0
  9 10  1  0  0  0  0
  9 35  1  0  0  0  0
  9 36  1  0  0  0  0
 10 11  1  0  0  0  0
 10 37  1  0  0  0  0
 10 38  1  0  0  0  0
 11 12  1  0  0  0  0
 11 13  1  0  0  0  0
 12 39  1  0  0  0  0
 12 40  1  0  0  0  0
 12 41  1  0  0  0  0
 13 14  1  0  0  0  0
 13 42  1  0  0  0  0
 13 43  1  0  0  0  0
 14 44  1  0  0  0  0
 14 45  1  0  0  0  0
 15 16  1  0  0  0  0
 16 23  1  0  0  0  0
 16 17  2  0  0  0  0
 17 18  1  0  0  0  0
 18 19  2  0  0  0  0
 18 20  1  0  0  0  0
 20 25  1  0  0  0  0
 20 21  1  0  0  0  0
 21 22  2  0  0  0  0
 21 23  1  0  0  0  0
 23 24  1  0  0  0  0
 24 46  1  0  0  0  0
 24 47  1  0  0  0  0
 24 48  1  0  0  0  0
M  END
> <s_m_source_file>
AV-unprocessed.smi

> <i_m_source_file_index>
512

> <i_lp_mmshare_version>
43012

> <i_f3d_flags>
0

> <s_epik_input>
W0NIM11uMWMoPU8pW25IXWMoPU8pYyhjMTIpbihbQ0gyXVtDSDJdT1tDSDJdW0NIM10pYyhuMilOM1tDSDJdW0NIMl1OKFtDSDNdKVtDSDJdW0NIMl0z

> <s_epik_cmdline>
J2VwaWtfcHl0aG9uJywgJy1waCcsICc3LjAnLCAnLXRuJywgJzgnLCAnLW1hJywgJzIwMCcsICctbWV0YWxfYmluZGluZycsICctaW1hZScsICc8aW5maWxlLm1hZT4nLCAnLW9tYWUnLCAnPG91dGZpbGUubWFlPic=

> <r_epik_Ionization_Penalty>
1.34391

> <r_epik_Ionization_Penalty_Charging>
1.55829e-05

> <r_epik_Ionization_Penalty_Neutral>
1.34389

> <r_epik_State_Penalty>
1.4212

> <r_epik_Charging_Adjusted_Penalty>
1.42122

> <i_epik_Tot_Q>
0

> <i_epik_Tot_abs_Q>
0

> <r_epik_Metal_State_Penalty>
1.44738

> <b_epik_Metal_Only>
0

> <s_lp_Force_Field>
OPLS_2005

> <r_lp_Energy>
48.5788

> <b_lp_Chiralities_Consistent>
1

> <s_lp_Variant>
AV-unprocessed.smi:512-2

> <Gold.Version>
5.8.1

> <Gold.Id.Protein>
6NUR|6NUR_protein|mol2

> <Gold.PLP.Fitness>
47.1787

> <Gold.PLP.PLP>
-43.3950

> <Gold.PLP.part.hbond>
-3.0000

> <Gold.PLP.part.metal>
0.0000

> <Gold.PLP.part.buried>
-4.4058

> <Gold.PLP.part.nonpolar>
-38.4889

> <Gold.PLP.part.repulsive>
2.5374

> <Gold.PLP.ligand.clash>
0.0000

> <Gold.PLP.ligand.torsion>
1.3376

> <Gold.PLP.Chemscore.Hbond>
2.0000

> <Gold.PLP.Chemscore.CHOScore>
0.0000

> <Gold.PLP.Chemscore.Metal>
0.0000

> <Gold.Chemscore.Hbonds>
donor molecule, donor type, donor heavy atom, donor atom, acceptor molecule, acceptor atom, score
      L1  H    20    25       P1  7948  0.98
      P1  H  7997  8009       L1     3  0.06

> <Gold.PLP.Chemscore.Internal.Correction>
0.4589

> <Gold.Rescore>
     Score         DG    S(hbond)    S(metal)    S(lipo)     H(rot)  DE(clash)    DE(int)     intcor
     11.65     -15.35       1.16        0.00      86.94       1.63       1.94       1.76       ----

> <Gold.Chemscore.Fitness>
11.6454

> <Gold.Chemscore.DG>
-15.3477

> <Gold.Chemscore.ZeroCoef>
-5.4800

> <Gold.Chemscore.Hbond>
1.1606

> <Gold.Chemscore.Metal>
0.0000

> <Gold.Chemscore.Lipo>
86.9354

> <Gold.Chemscore.Internal_Hbond>
0.0000

> <Gold.Chemscore.DEClash>
1.9401

> <Gold.Chemscore.DEInternal>
1.7622

> <Gold.Chemscore.Rot>
1.6328

> <Gold.Chemscore.Internal.Correction>
   9.000000E+99

> <Gold.Chemscore.Hbonds>
donor molecule, donor type, donor heavy atom, donor atom, acceptor molecule, acceptor atom, score
      L1  H    20    25       P1  7948  0.92
      P1  H  7997  8009       L1     3  0.04

> <Gold.Chemscore.Hbond.Weighted>
-3.8763

> <Gold.Chemscore.Metal.Weighted>
-0.0000

> <Gold.Chemscore.Lipo.Weighted>
-10.1714

> <Gold.Chemscore.Internal_Hbond.Weighted>
0.0000

> <Gold.Chemscore.DEClash.Weighted>
1.9401

> <Gold.Chemscore.DEInternal.Weighted>
1.7622

> <Gold.Chemscore.Rot.Weighted>
4.1800

> <Gold.Chemscore.Internal.Correction.Weighted>
   9.000000E+99

> <Gold.Protein.RotatedTorsions>
[ 6907 6896 6895 6894 ] final  -53.28 input  -60.11 | X-H torsion
[ 7974 7965 7964 7962 ] final  179.27 input  175.53 | X-H torsion
[ 8008 7997 7996 7995 ] final  132.34 input   59.86 | X-H torsion
[ 10167 10162 10161 10158 ] final -113.46 input  -65.29 | X-H torsion
[ 10718 10713 10712 10709 ] final -116.07 input   66.30 | X-H torsion
[ 10763 10752 10751 10750 ] final  -76.39 input  -60.55 | X-H torsion
[ 11005 11000 10999 10996 ] final  139.30 input  -57.11 | X-H torsion

> <Gold.Protein.ActiveResidues>
 VAL166  LYS551  ARG553  GLY616  TRP617  ASP618  TYR619  PRO620  LYS621  CYS622 
 ASP623  PHE694  ASN695  SER759  ASP760  ASP761  ALA762  ILE779  LEU786  VAL792 
 PHE793  MET794  SER795  GLU796  ALA797  LYS798  CYS799  TRP800  GLU811  SER814 

> <Gold.Protein.RotatedAtoms>
  150.8441  134.7744  159.6956 H   0  0  0  0  0  0  0  0  0  0  0  0  # atno 6907 bound_to 6896
  152.4522  134.5366  159.9836 H   0  0  0  0  0  0  0  0  0  0  0  0  # atno 6908 bound_to 6896
  151.5499  133.3381  159.2987 H   0  0  0  0  0  0  0  0  0  0  0  0  # atno 6909 bound_to 6896
  144.7147  140.0523  143.6435 H   0  0  0  0  0  0  0  0  0  0  0  0  # atno 7974 bound_to 7965
  156.2981  140.2549  156.3073 H   0  0  0  0  0  0  0  0  0  0  0  0  # atno 8008 bound_to 7997
  154.9360  140.0397  157.2091 H   0  0  0  0  0  0  0  0  0  0  0  0  # atno 8009 bound_to 7997
  154.8172  140.2854  155.5816 H   0  0  0  0  0  0  0  0  0  0  0  0  # atno 8010 bound_to 7997
  140.1117  143.4522  152.1748 H   0  0  0  0  0  0  0  0  0  0  0  0  # atno 10167 bound_to 10162
  156.0938  130.6115  150.8988 H   0  0  0  0  0  0  0  0  0  0  0  0  # atno 10718 bound_to 10713
  154.4992  135.5799  153.6517 H   0  0  0  0  0  0  0  0  0  0  0  0  # atno 10763 bound_to 10752
  152.9875  135.6131  154.3025 H   0  0  0  0  0  0  0  0  0  0  0  0  # atno 10764 bound_to 10752
  154.2931  135.2848  155.2625 H   0  0  0  0  0  0  0  0  0  0  0  0  # atno 10765 bound_to 10752
  140.0245  134.9381  157.0540 H   0  0  0  0  0  0  0  0  0  0  0  0  # atno 11005 bound_to 11000
  145.9933  139.3032  143.0971 LP  0  0  0  0  0  0  0  0  0  0  0  0  # atno 17320 bound_to 7965
  145.8877  140.9323  143.0568 LP  0  0  0  0  0  0  0  0  0  0  0  0  # atno 17321 bound_to 7965
  139.5616  144.7409  151.4139 LP  0  0  0  0  0  0  0  0  0  0  0  0  # atno 17342 bound_to 10162
  140.6922  143.7834  150.7272 LP  0  0  0  0  0  0  0  0  0  0  0  0  # atno 17343 bound_to 10162
  157.6094  131.0937  150.8821 LP  0  0  0  0  0  0  0  0  0  0  0  0  # atno 17370 bound_to 10713
  156.8964  130.5231  149.5284 LP  0  0  0  0  0  0  0  0  0  0  0  0  # atno 17371 bound_to 10713
  140.4330  134.1760  155.7169 LP  0  0  0  0  0  0  0  0  0  0  0  0  # atno 17394 bound_to 11000
  141.1794  133.8445  157.1310 LP  0  0  0  0  0  0  0  0  0  0  0  0  # atno 17395 bound_to 11000

$$$$
