AV-unprocessed.smi:705|AV-procd|sdf|3447|dock3
  -GOLD-   22720 0433D 1   1.00000     0.00000
 Structure written by MMmdl.
 29 30  0  0  0  0  0  0  0  0  2 V2000
  149.9377  137.9318  154.2147 N   0  0  0  0  0  0  0  0  0  0  0  0
  151.1264  137.7550  154.7988 C   0  0  0  0  0  0  0  0  0  0  0  0
  151.8961  136.8590  154.4582 O   0  0  0  0  0  0  0  0  0  0  0  0
  151.4649  138.6670  155.9112 C   0  0  0  0  0  0  0  0  0  0  0  0
  150.9059  139.8886  156.1581 C   0  0  0  0  0  0  0  0  0  0  0  0
  151.6118  140.3312  157.3181 C   0  0  0  0  0  0  0  0  0  0  0  0
  151.4151  141.6227  158.0705 C   0  0  1  0  0  0  0  0  0  0  0  0
  152.7375  142.1583  158.6530 C   0  0  0  0  0  0  0  0  0  0  0  0
  152.4970  143.4749  159.4075 C   0  0  0  0  0  0  0  0  0  0  0  0
  151.7866  144.5008  158.5084 C   0  0  0  0  0  0  0  0  0  0  0  0
  150.5226  143.9460  157.9766 N   0  3  0  0  0  0  0  0  0  0  0  0
  150.7162  142.6958  157.2092 C   0  0  0  0  0  0  0  0  0  0  0  0
  152.5291  139.4555  157.7268 N   0  0  0  0  0  0  0  0  0  0  0  0
  152.4388  138.4367  156.8494 N   0  0  0  0  0  0  0  0  0  0  0  0
  153.0256  137.6162  156.9073 H   0  0  0  0  0  0  0  0  0  0  0  0
  149.6590  137.3305  153.4530 H   0  0  0  0  0  0  0  0  0  0  0  0
  149.3209  138.6620  154.5390 H   0  0  0  0  0  0  0  0  0  0  0  0
  150.1212  140.3894  155.6102 H   0  0  0  0  0  0  0  0  0  0  0  0
  150.7564  141.4140  158.9151 H   0  0  0  0  0  0  0  0  0  0  0  0
  153.1819  141.4213  159.3230 H   0  0  0  0  0  0  0  0  0  0  0  0
  153.4593  142.3271  157.8525 H   0  0  0  0  0  0  0  0  0  0  0  0
  151.8940  143.2840  160.2964 H   0  0  0  0  0  0  0  0  0  0  0  0
  153.4458  143.8810  159.7594 H   0  0  0  0  0  0  0  0  0  0  0  0
  151.5683  145.4091  159.0706 H   0  0  0  0  0  0  0  0  0  0  0  0
  152.4312  144.7870  157.6762 H   0  0  0  0  0  0  0  0  0  0  0  0
  149.9052  143.7539  158.7524 H   0  0  0  0  0  0  0  0  0  0  0  0
  151.3030  142.9188  156.3168 H   0  0  0  0  0  0  0  0  0  0  0  0
  149.7438  142.3374  156.8697 H   0  0  0  0  0  0  0  0  0  0  0  0
  150.0889  144.6338  157.3774 H   0  0  0  0  0  0  0  0  0  0  0  0
  1  2  1  0  0  0  0
  1 16  1  0  0  0  0
  1 17  1  0  0  0  0
  2  3  2  0  0  0  0
  2  4  1  0  0  0  0
  4 14  1  0  0  0  0
  4  5  2  0  0  0  0
  5  6  1  0  0  0  0
  5 18  1  0  0  0  0
  6  7  1  0  0  0  0
  6 13  2  0  0  0  0
  7 12  1  0  0  0  0
  7  8  1  0  0  0  0
  7 19  1  0  0  0  0
  8  9  1  0  0  0  0
  8 20  1  0  0  0  0
  8 21  1  0  0  0  0
  9 10  1  0  0  0  0
  9 22  1  0  0  0  0
  9 23  1  0  0  0  0
 10 11  1  0  0  0  0
 10 24  1  0  0  0  0
 10 25  1  0  0  0  0
 11 12  1  0  0  0  0
 11 26  1  0  0  0  0
 11 29  1  0  0  0  0
 12 27  1  0  0  0  0
 12 28  1  0  0  0  0
 13 14  1  0  0  0  0
 14 15  1  0  0  0  0
M  CHG  1  11   1
M  END
> <s_m_source_file>
AV-unprocessed.smi

> <i_m_source_file_index>
705

> <i_lp_mmshare_version>
43012

> <i_f3d_flags>
0

> <s_epik_input>
W05IMl1DKD1PKWMxW2NIXWMoW25IXW4xKVtDQEBIXTJbQ0gyXVtDSDJdW0NIMl1bTkhdW0NIMl0y

> <s_epik_cmdline>
J2VwaWtfcHl0aG9uJywgJy1waCcsICc3LjAnLCAnLXRuJywgJzgnLCAnLW1hJywgJzIwMCcsICctbWV0YWxfYmluZGluZycsICctaW1hZScsICc8aW5maWxlLm1hZT4nLCAnLW9tYWUnLCAnPG91dGZpbGUubWFlPic=

> <r_lp_tautomer_probability>
0.5

> <r_epik_Ionization_Penalty>
0.000242638

> <r_epik_Ionization_Penalty_Charging>
0.000157527

> <r_epik_Ionization_Penalty_Neutral>
8.51112e-05

> <r_epik_State_Penalty>
0.41068

> <r_epik_Charging_Adjusted_Penalty>
0.410837

> <i_epik_Tot_Q>
1

> <i_epik_Tot_abs_Q>
1

> <r_epik_Metal_State_Penalty>
0.446108

> <b_epik_Metal_Only>
0

> <s_lp_Force_Field>
OPLS_2005

> <r_lp_Energy>
10.1374

> <b_lp_Chiralities_Consistent>
1

> <s_lp_Variant>
AV-unprocessed.smi:705-2

> <Gold.Version>
5.8.1

> <Gold.Id.Protein>
6NUR|6NUR_protein|mol2

> <Gold.PLP.Fitness>
38.1961

> <Gold.PLP.PLP>
-26.9079

> <Gold.PLP.part.hbond>
-3.9668

> <Gold.PLP.part.metal>
0.0000

> <Gold.PLP.part.buried>
-4.2658

> <Gold.PLP.part.nonpolar>
-20.5562

> <Gold.PLP.part.repulsive>
1.2884

> <Gold.PLP.ligand.clash>
0.0000

> <Gold.PLP.ligand.torsion>
0.8019

> <Gold.PLP.Chemscore.Hbond>
4.2864

> <Gold.PLP.Chemscore.CHOScore>
0.0000

> <Gold.PLP.Chemscore.Metal>
0.0000

> <Gold.Chemscore.Hbonds>
donor molecule, donor type, donor heavy atom, donor atom, acceptor molecule, acceptor atom, score
      L1  H     1    16       P1  7948  1.00
      L1  H    11    29       P1  8028  1.51
      P1  H  7997  8008       L1    13  0.26
      P1  H 10752 10765       L1     3  0.86

> <Gold.PLP.Chemscore.Internal.Correction>
0.0328

> <Gold.Rescore>
     Score         DG    S(hbond)    S(metal)    S(lipo)     H(rot)  DE(clash)    DE(int)     intcor
     16.15     -21.33       2.97        0.00      72.40       1.00       4.33       0.85       ----

> <Gold.Chemscore.Fitness>
16.1489

> <Gold.Chemscore.DG>
-21.3270

> <Gold.Chemscore.ZeroCoef>
-5.4800

> <Gold.Chemscore.Hbond>
2.9749

> <Gold.Chemscore.Metal>
0.0000

> <Gold.Chemscore.Lipo>
72.3995

> <Gold.Chemscore.Internal_Hbond>
0.0000

> <Gold.Chemscore.DEClash>
4.3259

> <Gold.Chemscore.DEInternal>
0.8522

> <Gold.Chemscore.Rot>
1.0000

> <Gold.Chemscore.Internal.Correction>
   9.000000E+99

> <Gold.Chemscore.Hbonds>
donor molecule, donor type, donor heavy atom, donor atom, acceptor molecule, acceptor atom, score
      L1  H     1    16       P1  7948  0.73
      L1  H    11    29       P1  8028  0.18
      P1  H  7997  8008       L1    13  0.02
      P1  H 10752 10765       L1     3  0.85

> <Gold.Chemscore.Hbond.Weighted>
-9.9363

> <Gold.Chemscore.Metal.Weighted>
-0.0000

> <Gold.Chemscore.Lipo.Weighted>
-8.4707

> <Gold.Chemscore.Internal_Hbond.Weighted>
0.0000

> <Gold.Chemscore.DEClash.Weighted>
4.3259

> <Gold.Chemscore.DEInternal.Weighted>
0.8522

> <Gold.Chemscore.Rot.Weighted>
2.5600

> <Gold.Chemscore.Internal.Correction.Weighted>
   9.000000E+99

> <Gold.Protein.RotatedTorsions>
[ 6907 6896 6895 6894 ] final  -83.11 input  -60.11 | X-H torsion
[ 7974 7965 7964 7962 ] final    2.81 input  175.53 | X-H torsion
[ 8008 7997 7996 7995 ] final  -88.52 input   59.86 | X-H torsion
[ 10167 10162 10161 10158 ] final  -39.48 input  -65.29 | X-H torsion
[ 10718 10713 10712 10709 ] final  -30.03 input   66.30 | X-H torsion
[ 10763 10752 10751 10750 ] final  143.86 input  -60.55 | X-H torsion
[ 11005 11000 10999 10996 ] final  168.33 input  -57.11 | X-H torsion

> <Gold.Protein.ActiveResidues>
 VAL166  LYS551  ARG553  GLY616  TRP617  ASP618  TYR619  PRO620  LYS621  CYS622 
 ASP623  PHE694  ASN695  SER759  ASP760  ASP761  ALA762  ILE779  LEU786  VAL792 
 PHE793  MET794  SER795  GLU796  ALA797  LYS798  CYS799  TRP800  GLU811  SER814 

> <Gold.Protein.RotatedAtoms>
  150.6889  134.3562  159.4930 H   0  0  0  0  0  0  0  0  0  0  0  0  # atno 6907 bound_to 6896
  152.1397  134.9069  160.0563 H   0  0  0  0  0  0  0  0  0  0  0  0  # atno 6908 bound_to 6896
  152.0207  133.3863  159.4294 H   0  0  0  0  0  0  0  0  0  0  0  0  # atno 6909 bound_to 6896
  146.2444  140.0780  142.8358 H   0  0  0  0  0  0  0  0  0  0  0  0  # atno 7974 bound_to 7965
  154.6758  140.0552  157.0214 H   0  0  0  0  0  0  0  0  0  0  0  0  # atno 8008 bound_to 7997
  155.1023  140.3230  155.4525 H   0  0  0  0  0  0  0  0  0  0  0  0  # atno 8009 bound_to 7997
  156.2675  140.2029  156.6149 H   0  0  0  0  0  0  0  0  0  0  0  0  # atno 8010 bound_to 7997
  140.7063  143.3211  151.2789 H   0  0  0  0  0  0  0  0  0  0  0  0  # atno 10167 bound_to 10162
  156.4050  130.4397  149.7294 H   0  0  0  0  0  0  0  0  0  0  0  0  # atno 10718 bound_to 10713
  153.9793  135.2943  155.3421 H   0  0  0  0  0  0  0  0  0  0  0  0  # atno 10763 bound_to 10752
  154.7278  135.5081  153.8917 H   0  0  0  0  0  0  0  0  0  0  0  0  # atno 10764 bound_to 10752
  153.0862  135.6694  154.0059 H   0  0  0  0  0  0  0  0  0  0  0  0  # atno 10765 bound_to 10752
  140.2861  134.7711  157.3799 H   0  0  0  0  0  0  0  0  0  0  0  0  # atno 11005 bound_to 11000
  145.0757  140.9187  143.4855 LP  0  0  0  0  0  0  0  0  0  0  0  0  # atno 17320 bound_to 7965
  145.0923  139.2881  143.5728 LP  0  0  0  0  0  0  0  0  0  0  0  0  # atno 17321 bound_to 7965
  139.6666  144.0095  152.2726 LP  0  0  0  0  0  0  0  0  0  0  0  0  # atno 17342 bound_to 10162
  139.9679  144.6513  150.8017 LP  0  0  0  0  0  0  0  0  0  0  0  0  # atno 17343 bound_to 10162
  156.4296  130.7808  151.2828 LP  0  0  0  0  0  0  0  0  0  0  0  0  # atno 17370 bound_to 10713
  157.7505  131.0158  150.3519 LP  0  0  0  0  0  0  0  0  0  0  0  0  # atno 17371 bound_to 10713
  140.1239  134.5184  155.8161 LP  0  0  0  0  0  0  0  0  0  0  0  0  # atno 17394 bound_to 11000
  141.2154  133.6766  156.6915 LP  0  0  0  0  0  0  0  0  0  0  0  0  # atno 17395 bound_to 11000

$$$$
