AV-unprocessed.smi:2786|AV-procd|sdf|10748|dock9
  -GOLD-   2272015183D 1   1.00000     0.00000
 Structure written by MMmdl.
 27 28  0  0  0  0  0  0  0  0  2 V2000
  151.9776  144.6360  159.1584 C   0  0  0  0  0  0  0  0  0  0  0  0
  152.3839  143.2813  159.4790 N   0  0  0  0  0  0  0  0  0  0  0  0
  153.1776  142.9044  160.5543 C   0  0  0  0  0  0  0  0  0  0  0  0
  153.3075  141.5384  160.4889 C   0  0  0  0  0  0  0  0  0  0  0  0
  152.6053  141.0615  159.3876 N   0  0  0  0  0  0  0  0  0  0  0  0
  152.0833  142.1457  158.8186 C   0  0  0  0  0  0  0  0  0  0  0  0
  151.2215  142.1152  157.5892 C   0  0  2  0  0  0  0  0  0  0  0  0
  149.7824  142.5833  157.8997 C   0  0  0  0  0  0  0  0  0  0  0  0
  148.9646  142.5870  156.6689 N   0  3  0  0  0  0  0  0  0  0  0  0
  148.9863  141.2659  156.0092 C   0  0  0  0  0  0  0  0  0  0  0  0
  150.4404  140.8378  155.7392 C   0  0  0  0  0  0  0  0  0  0  0  0
  151.1749  140.7770  156.9991 N   0  0  0  0  0  0  0  0  0  0  0  0
  152.3079  145.3223  159.9389 H   0  0  0  0  0  0  0  0  0  0  0  0
  150.8913  144.6892  159.0809 H   0  0  0  0  0  0  0  0  0  0  0  0
  152.4229  144.9399  158.2108 H   0  0  0  0  0  0  0  0  0  0  0  0
  153.5731  143.6199  161.2604 H   0  0  0  0  0  0  0  0  0  0  0  0
  153.8454  140.8683  161.1432 H   0  0  0  0  0  0  0  0  0  0  0  0
  151.6638  142.7833  156.8494 H   0  0  0  0  0  0  0  0  0  0  0  0
  149.3160  141.9356  158.6441 H   0  0  0  0  0  0  0  0  0  0  0  0
  149.7915  143.5914  158.3151 H   0  0  0  0  0  0  0  0  0  0  0  0
  148.0127  142.8368  156.8955 H   0  0  0  0  0  0  0  0  0  0  0  0
  148.4799  140.5340  156.6406 H   0  0  0  0  0  0  0  0  0  0  0  0
  148.4275  141.3246  155.0751 H   0  0  0  0  0  0  0  0  0  0  0  0
  150.4579  139.8515  155.2750 H   0  0  0  0  0  0  0  0  0  0  0  0
  150.9323  141.5249  155.0488 H   0  0  0  0  0  0  0  0  0  0  0  0
  150.6714  140.1675  157.6287 H   0  0  0  0  0  0  0  0  0  0  0  0
  149.3444  143.2718  156.0312 H   0  0  0  0  0  0  0  0  0  0  0  0
  1  2  1  0  0  0  0
  1 13  1  0  0  0  0
  1 14  1  0  0  0  0
  1 15  1  0  0  0  0
  2  6  1  0  0  0  0
  2  3  1  0  0  0  0
  3  4  2  0  0  0  0
  3 16  1  0  0  0  0
  4  5  1  0  0  0  0
  4 17  1  0  0  0  0
  5  6  2  0  0  0  0
  6  7  1  0  0  0  0
  7 12  1  0  0  0  0
  7  8  1  0  0  0  0
  7 18  1  0  0  0  0
  8  9  1  0  0  0  0
  8 19  1  0  0  0  0
  8 20  1  0  0  0  0
  9 10  1  0  0  0  0
  9 21  1  0  0  0  0
  9 27  1  0  0  0  0
 10 11  1  0  0  0  0
 10 22  1  0  0  0  0
 10 23  1  0  0  0  0
 11 12  1  0  0  0  0
 11 24  1  0  0  0  0
 11 25  1  0  0  0  0
 12 26  1  0  0  0  0
M  CHG  1   9   1
M  END
> <s_m_source_file>
AV-unprocessed.smi

> <i_m_source_file_index>
2786

> <i_lp_mmshare_version>
43012

> <i_f3d_flags>
0

> <s_epik_input>
W0NIM11uMVtjSF1bY0hdbmMxW0NAQEhdMltDSDJdW05IXVtDSDJdW0NIMl1bTkhdMg==

> <s_epik_cmdline>
J2VwaWtfcHl0aG9uJywgJy1waCcsICc3LjAnLCAnLXRuJywgJzgnLCAnLW1hJywgJzIwMCcsICctbWV0YWxfYmluZGluZycsICctaW1hZScsICc8aW5maWxlLm1hZT4nLCAnLW9tYWUnLCAnPG91dGZpbGUubWFlPic=

> <r_lp_tautomer_probability>
1

> <r_epik_Ionization_Penalty>
0.130484

> <r_epik_Ionization_Penalty_Charging>
0.130409

> <r_epik_Ionization_Penalty_Neutral>
7.57914e-05

> <r_epik_State_Penalty>
0.270147

> <r_epik_Charging_Adjusted_Penalty>
0.400555

> <i_epik_Tot_Q>
1

> <i_epik_Tot_abs_Q>
1

> <r_epik_Metal_State_Penalty>
0.136376

> <b_epik_Metal_Only>
0

> <s_lp_Force_Field>
OPLS_2005

> <r_lp_Energy>
9.37099

> <b_lp_Chiralities_Consistent>
1

> <s_lp_Variant>
AV-unprocessed.smi:2786-1

> <Gold.Version>
5.8.1

> <Gold.Id.Protein>
6NUR|6NUR_protein|mol2

> <Gold.PLP.Fitness>
33.4108

> <Gold.PLP.PLP>
-27.5365

> <Gold.PLP.part.hbond>
-0.9104

> <Gold.PLP.part.metal>
0.0000

> <Gold.PLP.part.buried>
-3.2985

> <Gold.PLP.part.nonpolar>
-23.1848

> <Gold.PLP.part.repulsive>
0.0035

> <Gold.PLP.ligand.clash>
0.0000

> <Gold.PLP.ligand.torsion>
0.0666

> <Gold.PLP.Chemscore.Hbond>
2.0000

> <Gold.PLP.Chemscore.CHOScore>
0.0000

> <Gold.PLP.Chemscore.Metal>
0.0000

> <Gold.Chemscore.Hbonds>
donor molecule, donor type, donor heavy atom, donor atom, acceptor molecule, acceptor atom, score
      L1  H     9    27       P1  8028  1.28

> <Gold.PLP.Chemscore.Internal.Correction>
0.0074

> <Gold.Rescore>
     Score         DG    S(hbond)    S(metal)    S(lipo)     H(rot)  DE(clash)    DE(int)     intcor
     13.00     -13.29       0.99        0.00      60.35       1.00       0.00       0.29       ----

> <Gold.Chemscore.Fitness>
13.0044

> <Gold.Chemscore.DG>
-13.2922

> <Gold.Chemscore.ZeroCoef>
-5.4800

> <Gold.Chemscore.Hbond>
0.9915

> <Gold.Chemscore.Metal>
0.0000

> <Gold.Chemscore.Lipo>
60.3473

> <Gold.Chemscore.Internal_Hbond>
0.0000

> <Gold.Chemscore.DEClash>
0.0000

> <Gold.Chemscore.DEInternal>
0.2879

> <Gold.Chemscore.Rot>
1.0000

> <Gold.Chemscore.Internal.Correction>
   9.000000E+99

> <Gold.Chemscore.Hbonds>
donor molecule, donor type, donor heavy atom, donor atom, acceptor molecule, acceptor atom, score
      L1  H     9    27       P1  8028  0.62

> <Gold.Chemscore.Hbond.Weighted>
-3.3116

> <Gold.Chemscore.Metal.Weighted>
-0.0000

> <Gold.Chemscore.Lipo.Weighted>
-7.0606

> <Gold.Chemscore.Internal_Hbond.Weighted>
0.0000

> <Gold.Chemscore.DEClash.Weighted>
0.0000

> <Gold.Chemscore.DEInternal.Weighted>
0.2879

> <Gold.Chemscore.Rot.Weighted>
2.5600

> <Gold.Chemscore.Internal.Correction.Weighted>
   9.000000E+99

> <Gold.Protein.RotatedTorsions>
[ 6907 6896 6895 6894 ] final  161.72 input  -60.11 | X-H torsion
[ 7974 7965 7964 7962 ] final -147.83 input  175.53 | X-H torsion
[ 8008 7997 7996 7995 ] final  155.68 input   59.86 | X-H torsion
[ 10167 10162 10161 10158 ] final  -34.37 input  -65.29 | X-H torsion
[ 10718 10713 10712 10709 ] final   77.73 input   66.30 | X-H torsion
[ 10763 10752 10751 10750 ] final  118.77 input  -60.55 | X-H torsion
[ 11005 11000 10999 10996 ] final   -7.37 input  -57.11 | X-H torsion

> <Gold.Protein.ActiveResidues>
 VAL166  LYS551  ARG553  GLY616  TRP617  ASP618  TYR619  PRO620  LYS621  CYS622 
 ASP623  PHE694  ASN695  SER759  ASP760  ASP761  ALA762  ILE779  LEU786  VAL792 
 PHE793  MET794  SER795  GLU796  ALA797  LYS798  CYS799  TRP800  GLU811  SER814 

> <Gold.Protein.RotatedAtoms>
  151.9513  133.3667  159.4000 H   0  0  0  0  0  0  0  0  0  0  0  0  # atno 6907 bound_to 6896
  150.6980  134.4338  159.5270 H   0  0  0  0  0  0  0  0  0  0  0  0  # atno 6908 bound_to 6896
  152.2011  134.8587  160.0558 H   0  0  0  0  0  0  0  0  0  0  0  0  # atno 6909 bound_to 6896
  144.8068  140.5275  143.5670 H   0  0  0  0  0  0  0  0  0  0  0  0  # atno 7974 bound_to 7965
  156.2465  140.1933  156.6839 H   0  0  0  0  0  0  0  0  0  0  0  0  # atno 8008 bound_to 7997
  154.6301  140.0597  156.9748 H   0  0  0  0  0  0  0  0  0  0  0  0  # atno 8009 bound_to 7997
  155.1723  140.3269  155.4393 H   0  0  0  0  0  0  0  0  0  0  0  0  # atno 8010 bound_to 7997
  140.7187  143.3552  151.2073 H   0  0  0  0  0  0  0  0  0  0  0  0  # atno 10167 bound_to 10162
  157.6720  130.9835  150.1683 H   0  0  0  0  0  0  0  0  0  0  0  0  # atno 10718 bound_to 10713
  153.5727  135.3499  155.2844 H   0  0  0  0  0  0  0  0  0  0  0  0  # atno 10763 bound_to 10752
  154.8679  135.4163  154.2707 H   0  0  0  0  0  0  0  0  0  0  0  0  # atno 10764 bound_to 10752
  153.3476  135.7053  153.6885 H   0  0  0  0  0  0  0  0  0  0  0  0  # atno 10765 bound_to 10752
  140.7121  133.8900  155.8758 H   0  0  0  0  0  0  0  0  0  0  0  0  # atno 11005 bound_to 11000
  145.5420  139.1475  143.3442 LP  0  0  0  0  0  0  0  0  0  0  0  0  # atno 17320 bound_to 7965
  146.2360  140.5559  142.8954 LP  0  0  0  0  0  0  0  0  0  0  0  0  # atno 17321 bound_to 7965
  139.7092  143.9404  152.2940 LP  0  0  0  0  0  0  0  0  0  0  0  0  # atno 17342 bound_to 10162
  139.9123  144.6849  150.8549 LP  0  0  0  0  0  0  0  0  0  0  0  0  # atno 17343 bound_to 10162
  156.2443  130.3694  149.8302 LP  0  0  0  0  0  0  0  0  0  0  0  0  # atno 17370 bound_to 10713
  156.6093  130.8580  151.3450 LP  0  0  0  0  0  0  0  0  0  0  0  0  # atno 17371 bound_to 10713
  141.0076  134.1065  157.4255 LP  0  0  0  0  0  0  0  0  0  0  0  0  # atno 17394 bound_to 11000
  139.8869  135.0085  156.6527 LP  0  0  0  0  0  0  0  0  0  0  0  0  # atno 17395 bound_to 11000

$$$$
