AV-unprocessed.smi:169|AV-procd|sdf|1399|dock5
  -GOLD-   2262019143D 1   1.00000     0.00000
 Structure written by MMmdl.
 56 60  0  0  0  0  0  0  0  0  2 V2000
  147.7840  132.8920  152.0016 C   0  0  0  0  0  0  0  0  0  0  0  0
  149.0657  132.8637  152.8540 C   0  0  0  0  0  0  0  0  0  0  0  0
  149.1583  133.9651  153.8486 N   0  3  1  0  0  0  0  0  0  0  0  0
  147.9264  134.1444  154.6574 C   0  0  0  0  0  0  0  0  0  0  0  0
  147.6210  135.6359  154.8907 C   0  0  0  0  0  0  0  0  0  0  0  0
  148.6626  136.4198  155.7169 C   0  0  1  0  0  0  0  0  0  0  0  0
  148.8655  135.8597  157.1293 C   0  0  0  0  0  0  0  0  0  0  0  0
  150.0774  134.9287  157.0075 C   0  0  0  0  0  0  0  0  0  0  0  0
  150.6306  135.1479  155.5841 C   0  0  1  0  0  0  0  0  0  0  0  0
  150.4174  133.9355  154.6429 C   0  0  0  0  0  0  0  0  0  0  0  0
  149.9869  136.3677  155.1001 N   0  0  0  0  0  0  0  0  0  0  0  0
  150.7834  137.4687  155.0750 C   0  0  0  0  0  0  0  0  0  0  0  0
  151.9085  137.4944  154.3126 N   0  0  0  0  0  0  0  0  0  0  0  0
  152.6755  138.5878  154.2768 C   0  0  0  0  0  0  0  0  0  0  0  0
  152.5058  139.7463  154.9162 N   0  0  0  0  0  0  0  0  0  0  0  0
  151.3845  139.7257  155.6912 C   0  0  0  0  0  0  0  0  0  0  0  0
  150.4756  138.6384  155.8248 C   0  0  0  0  0  0  0  0  0  0  0  0
  149.4495  138.9813  156.6970 N   0  0  0  0  0  0  0  0  0  0  0  0
  149.7300  140.2060  157.0501 C   0  0  0  0  0  0  0  0  0  0  0  0
  150.8803  140.7287  156.5014 N   0  0  0  0  0  0  0  0  0  0  0  0
  151.4189  142.0626  156.7250 C   0  0  0  0  0  0  0  0  0  0  0  0
  151.6535  142.4168  158.2070 C   0  0  0  0  0  0  0  0  0  0  0  0
  152.3072  141.2120  158.9154 C   0  0  0  0  0  0  0  0  0  0  0  0
  152.9002  141.5647  160.1495 O   0  0  0  0  0  0  0  0  0  0  0  0
  152.2912  143.7855  158.4872 C   0  0  0  0  0  0  0  0  0  0  0  0
  151.2243  144.1627  159.3854 O   0  0  0  0  0  0  0  0  0  0  0  0
  150.4424  143.0436  158.9142 C   0  0  0  0  0  0  0  0  0  0  0  0
  147.8030  132.0907  151.2625 H   0  0  0  0  0  0  0  0  0  0  0  0
  147.6766  133.8306  151.4582 H   0  0  0  0  0  0  0  0  0  0  0  0
  146.8889  132.7479  152.6058 H   0  0  0  0  0  0  0  0  0  0  0  0
  149.1390  131.9072  153.3729 H   0  0  0  0  0  0  0  0  0  0  0  0
  149.9365  132.9129  152.1991 H   0  0  0  0  0  0  0  0  0  0  0  0
  147.0752  133.7242  154.1200 H   0  0  0  0  0  0  0  0  0  0  0  0
  147.9901  133.5876  155.5926 H   0  0  0  0  0  0  0  0  0  0  0  0
  147.4963  136.1266  153.9245 H   0  0  0  0  0  0  0  0  0  0  0  0
  146.6531  135.7184  155.3864 H   0  0  0  0  0  0  0  0  0  0  0  0
  148.2920  137.4429  155.7880 H   0  0  0  0  0  0  0  0  0  0  0  0
  149.1031  136.6738  157.8153 H   0  0  0  0  0  0  0  0  0  0  0  0
  147.9810  135.3546  157.5184 H   0  0  0  0  0  0  0  0  0  0  0  0
  150.8257  135.1975  157.7542 H   0  0  0  0  0  0  0  0  0  0  0  0
  149.8034  133.8898  157.1921 H   0  0  0  0  0  0  0  0  0  0  0  0
  151.7078  135.2894  155.6862 H   0  0  0  0  0  0  0  0  0  0  0  0
  150.5064  133.0050  155.2031 H   0  0  0  0  0  0  0  0  0  0  0  0
  151.2391  133.9288  153.9256 H   0  0  0  0  0  0  0  0  0  0  0  0
  153.5488  138.5261  153.6440 H   0  0  0  0  0  0  0  0  0  0  0  0
  149.1048  140.7646  157.7316 H   0  0  0  0  0  0  0  0  0  0  0  0
  152.3478  142.1450  156.1590 H   0  0  0  0  0  0  0  0  0  0  0  0
  150.7364  142.7821  156.2711 H   0  0  0  0  0  0  0  0  0  0  0  0
  151.5739  140.4273  159.1037 H   0  0  0  0  0  0  0  0  0  0  0  0
  153.0923  140.7730  158.2995 H   0  0  0  0  0  0  0  0  0  0  0  0
  153.6676  141.0288  160.2804 H   0  0  0  0  0  0  0  0  0  0  0  0
  153.2611  143.7343  158.9825 H   0  0  0  0  0  0  0  0  0  0  0  0
  152.3317  144.4469  157.6213 H   0  0  0  0  0  0  0  0  0  0  0  0
  149.6506  143.3644  158.2355 H   0  0  0  0  0  0  0  0  0  0  0  0
  150.0316  142.4440  159.7271 H   0  0  0  0  0  0  0  0  0  0  0  0
  149.2204  134.8036  153.2887 H   0  0  0  0  0  0  0  0  0  0  0  0
  1  2  1  0  0  0  0
  1 28  1  0  0  0  0
  1 29  1  0  0  0  0
  1 30  1  0  0  0  0
  2  3  1  0  0  0  0
  2 31  1  0  0  0  0
  2 32  1  0  0  0  0
  3 10  1  0  0  0  0
  3  4  1  0  0  0  0
  3 56  1  0  0  0  0
  4  5  1  0  0  0  0
  4 33  1  0  0  0  0
  4 34  1  0  0  0  0
  5  6  1  0  0  0  0
  5 35  1  0  0  0  0
  5 36  1  0  0  0  0
  6 11  1  0  0  0  0
  6  7  1  0  0  0  0
  6 37  1  0  0  0  0
  7  8  1  0  0  0  0
  7 38  1  0  0  0  0
  7 39  1  0  0  0  0
  8  9  1  0  0  0  0
  8 40  1  0  0  0  0
  8 41  1  0  0  0  0
  9 10  1  0  0  0  0
  9 11  1  0  0  0  0
  9 42  1  0  0  0  0
 10 43  1  0  0  0  0
 10 44  1  0  0  0  0
 11 12  1  0  0  0  0
 12 17  1  0  0  0  0
 12 13  2  0  0  0  0
 13 14  1  0  0  0  0
 14 15  2  0  0  0  0
 14 45  1  0  0  0  0
 15 16  1  0  0  0  0
 16 20  1  0  0  0  0
 16 17  2  0  0  0  0
 17 18  1  0  0  0  0
 18 19  2  0  0  0  0
 19 20  1  0  0  0  0
 19 46  1  0  0  0  0
 20 21  1  0  0  0  0
 21 22  1  0  0  0  0
 21 47  1  0  0  0  0
 21 48  1  0  0  0  0
 22 27  1  0  0  0  0
 22 23  1  0  0  0  0
 22 25  1  0  0  0  0
 23 24  1  0  0  0  0
 23 49  1  0  0  0  0
 23 50  1  0  0  0  0
 24 51  1  0  0  0  0
 25 26  1  0  0  0  0
 25 52  1  0  0  0  0
 25 53  1  0  0  0  0
 26 27  1  0  0  0  0
 27 54  1  0  0  0  0
 27 55  1  0  0  0  0
M  CHG  1   3   1
M  END
> <s_m_source_file>
AV-unprocessed.smi

> <i_m_source_file_index>
169

> <i_lp_mmshare_version>
43012

> <i_f3d_flags>
0

> <s_epik_input>
W0NASF0xMltDSDJdW0NIMl1OKFtDSDJdW0NIM10pW0NIMl1bQ0BIXShbQ0gyXVtDSDJdMSlOMmMobltjSF1uMyljKGMzNCluW2NIXW40W0NIMl1DNShbQ0gyXVtPSF0pW0NIMl1PW0NIMl01

> <s_epik_cmdline>
J2VwaWtfcHl0aG9uJywgJy1waCcsICc3LjAnLCAnLXRuJywgJzgnLCAnLW1hJywgJzIwMCcsICctbWV0YWxfYmluZGluZycsICctaW1hZScsICc8aW5maWxlLm1hZT4nLCAnLW9tYWUnLCAnPG91dGZpbGUubWFlPic=

> <r_lp_tautomer_probability>
1

> <r_epik_Ionization_Penalty>
0.00274162

> <r_epik_Ionization_Penalty_Charging>
0.00243722

> <r_epik_Ionization_Penalty_Neutral>
0.000304399

> <r_epik_State_Penalty>
-0

> <r_epik_Charging_Adjusted_Penalty>
0.00243722

> <i_epik_Tot_Q>
1

> <i_epik_Tot_abs_Q>
1

> <r_epik_Metal_State_Penalty>
-0

> <b_epik_Metal_Only>
0

> <s_lp_Force_Field>
OPLS_2005

> <r_lp_Energy>
78.3459

> <b_lp_Chiralities_Consistent>
1

> <s_lp_Variant>
AV-unprocessed.smi:169-2

> <Gold.Version>
5.8.1

> <Gold.Id.Protein>
6NUR|6NUR_protein|mol2

> <Gold.PLP.Fitness>
47.8517

> <Gold.PLP.PLP>
-38.0843

> <Gold.PLP.part.hbond>
-3.2009

> <Gold.PLP.part.metal>
0.0000

> <Gold.PLP.part.buried>
-9.2253

> <Gold.PLP.part.nonpolar>
-27.4800

> <Gold.PLP.part.repulsive>
0.4000

> <Gold.PLP.ligand.clash>
0.0000

> <Gold.PLP.ligand.torsion>
0.6860

> <Gold.PLP.Chemscore.Hbond>
3.5395

> <Gold.PLP.Chemscore.CHOScore>
0.0000

> <Gold.PLP.Chemscore.Metal>
0.0000

> <Gold.Chemscore.Hbonds>
donor molecule, donor type, donor heavy atom, donor atom, acceptor molecule, acceptor atom, score
      L1  H     3    56       P1  7948  1.20
      P1  H  7989  7998       L1    15  0.44
      P1  H  7997  8010       L1    15  0.52
      P1  H 10752 10765       L1    13  0.80

> <Gold.PLP.Chemscore.Internal.Correction>
0.5208

> <Gold.Rescore>
     Score         DG    S(hbond)    S(metal)    S(lipo)     H(rot)  DE(clash)    DE(int)     intcor
     11.45     -15.24       2.04        0.00      82.70       2.62       1.71       2.09       ----

> <Gold.Chemscore.Fitness>
11.4458

> <Gold.Chemscore.DG>
-15.2439

> <Gold.Chemscore.ZeroCoef>
-5.4800

> <Gold.Chemscore.Hbond>
2.0354

> <Gold.Chemscore.Metal>
0.0000

> <Gold.Chemscore.Lipo>
82.7003

> <Gold.Chemscore.Internal_Hbond>
0.0000

> <Gold.Chemscore.DEClash>
1.7056

> <Gold.Chemscore.DEInternal>
2.0925

> <Gold.Chemscore.Rot>
2.6212

> <Gold.Chemscore.Internal.Correction>
   9.000000E+99

> <Gold.Chemscore.Hbonds>
donor molecule, donor type, donor heavy atom, donor atom, acceptor molecule, acceptor atom, score
      L1  H     3    56       P1  7948  0.04
      P1  H  7989  7998       L1    15  0.01
      P1  H  7997  8010       L1    15  0.30
      P1  H 10752 10765       L1    13  0.60

> <Gold.Chemscore.Hbond.Weighted>
-6.7982

> <Gold.Chemscore.Metal.Weighted>
-0.0000

> <Gold.Chemscore.Lipo.Weighted>
-9.6759

> <Gold.Chemscore.Internal_Hbond.Weighted>
0.0000

> <Gold.Chemscore.DEClash.Weighted>
1.7056

> <Gold.Chemscore.DEInternal.Weighted>
2.0925

> <Gold.Chemscore.Rot.Weighted>
6.7102

> <Gold.Chemscore.Internal.Correction.Weighted>
   9.000000E+99

> <Gold.Protein.RotatedTorsions>
[ 6907 6896 6895 6894 ] final  -82.78 input  -60.11 | X-H torsion
[ 7974 7965 7964 7962 ] final   62.51 input  175.53 | X-H torsion
[ 8008 7997 7996 7995 ] final  100.18 input   59.86 | X-H torsion
[ 10167 10162 10161 10158 ] final   -3.04 input  -65.29 | X-H torsion
[ 10718 10713 10712 10709 ] final  -69.44 input   66.30 | X-H torsion
[ 10763 10752 10751 10750 ] final  161.90 input  -60.55 | X-H torsion
[ 11005 11000 10999 10996 ] final  -49.37 input  -57.11 | X-H torsion

> <Gold.Protein.ActiveResidues>
 VAL166  LYS551  ARG553  GLY616  TRP617  ASP618  TYR619  PRO620  LYS621  CYS622 
 ASP623  PHE694  ASN695  SER759  ASP760  ASP761  ALA762  ILE779  LEU786  VAL792 
 PHE793  MET794  SER795  GLU796  ALA797  LYS798  CYS799  TRP800  GLU811  SER814 

> <Gold.Protein.RotatedAtoms>
  150.6893  134.3612  159.4950 H   0  0  0  0  0  0  0  0  0  0  0  0  # atno 6907 bound_to 6896
  152.1440  134.9037  160.0561 H   0  0  0  0  0  0  0  0  0  0  0  0  # atno 6908 bound_to 6896
  152.0160  133.3845  159.4276 H   0  0  0  0  0  0  0  0  0  0  0  0  # atno 6909 bound_to 6896
  145.8725  139.3387  143.0754 H   0  0  0  0  0  0  0  0  0  0  0  0  # atno 7974 bound_to 7965
  156.1178  140.3217  155.8164 H   0  0  0  0  0  0  0  0  0  0  0  0  # atno 8008 bound_to 7997
  155.4559  140.0536  157.3013 H   0  0  0  0  0  0  0  0  0  0  0  0  # atno 8009 bound_to 7997
  154.4805  140.2051  155.9788 H   0  0  0  0  0  0  0  0  0  0  0  0  # atno 8010 bound_to 7997
  140.6875  143.6586  150.8286 H   0  0  0  0  0  0  0  0  0  0  0  0  # atno 10167 bound_to 10162
  156.0455  130.4313  150.2148 H   0  0  0  0  0  0  0  0  0  0  0  0  # atno 10718 bound_to 10713
  154.2701  135.2766  155.2742 H   0  0  0  0  0  0  0  0  0  0  0  0  # atno 10763 bound_to 10752
  154.5309  135.5730  153.6762 H   0  0  0  0  0  0  0  0  0  0  0  0  # atno 10764 bound_to 10752
  152.9947  135.6227  154.2855 H   0  0  0  0  0  0  0  0  0  0  0  0  # atno 10765 bound_to 10752
  141.0755  133.6667  156.3576 H   0  0  0  0  0  0  0  0  0  0  0  0  # atno 11005 bound_to 11000
  145.9120  140.9174  143.0449 LP  0  0  0  0  0  0  0  0  0  0  0  0  # atno 17320 bound_to 7965
  144.6726  140.1173  143.7452 LP  0  0  0  0  0  0  0  0  0  0  0  0  # atno 17321 bound_to 7965
  140.0295  143.5458  152.2766 LP  0  0  0  0  0  0  0  0  0  0  0  0  # atno 17342 bound_to 10162
  139.6246  144.7635  151.2666 LP  0  0  0  0  0  0  0  0  0  0  0  0  # atno 17343 bound_to 10162
  157.0238  130.9987  151.3332 LP  0  0  0  0  0  0  0  0  0  0  0  0  # atno 17370 bound_to 10713
  157.5325  130.8068  149.7934 LP  0  0  0  0  0  0  0  0  0  0  0  0  # atno 17371 bound_to 10713
  140.5582  134.5960  157.5426 LP  0  0  0  0  0  0  0  0  0  0  0  0  # atno 17394 bound_to 11000
  139.9567  134.7522  156.0325 LP  0  0  0  0  0  0  0  0  0  0  0  0  # atno 17395 bound_to 11000

$$$$
