AV-unprocessed.smi:1535|AV-procd|sdf|6176|dock2
  -GOLD-   22720 6333D 1   1.00000     0.00000
 Structure written by MMmdl.
 47 48  0  0  0  0  0  0  0  0  2 V2000
  152.0833  144.4383  160.5669 C   0  0  0  0  0  0  0  0  0  0  0  0
  151.9346  143.3959  159.4719 C   0  0  0  0  0  0  0  0  0  0  0  0
  151.0597  143.6673  158.3959 C   0  0  0  0  0  0  0  0  0  0  0  0
  150.9452  142.6941  157.4102 C   0  0  0  0  0  0  0  0  0  0  0  0
  150.1779  142.6607  156.2440 N   0  3  0  0  0  0  0  0  0  0  0  0
  150.3990  141.4882  155.5879 C   0  0  0  0  0  0  0  0  0  0  0  0
  151.2976  140.7725  156.3169 N   0  0  0  0  0  0  0  0  0  0  0  0
  151.8745  139.4468  156.0535 C   0  0  0  0  0  0  0  0  0  0  0  0
  150.8994  138.2996  156.3869 C   0  0  2  0  0  0  0  0  0  0  0  0
  151.0566  137.8810  157.7280 O   0  0  0  0  0  0  0  0  0  0  0  0
  150.9656  137.0565  155.4702 C   0  0  0  0  0  0  0  0  0  0  0  0
  150.2224  135.8812  155.9383 N   0  0  0  0  0  0  0  0  0  0  0  0
  148.8676  136.2601  156.3284 C   0  0  0  0  0  0  0  0  0  0  0  0
  150.1796  134.8164  154.9307 C   0  0  0  0  0  0  0  0  0  0  0  0
  149.6157  133.4758  155.4353 C   0  0  1  0  0  0  0  0  0  0  0  0
  149.5704  132.4346  154.3106 C   0  0  0  0  0  0  0  0  0  0  0  0
  150.3943  132.9698  156.5781 C   0  0  0  0  0  0  0  0  0  0  0  0
  151.0068  132.5741  157.4767 N   0  0  0  0  0  0  0  0  0  0  0  0
  151.6645  141.4844  157.4657 C   0  0  0  0  0  0  0  0  0  0  0  0
  152.5278  141.2005  158.5216 C   0  0  0  0  0  0  0  0  0  0  0  0
  152.6593  142.1775  159.5337 C   0  0  0  0  0  0  0  0  0  0  0  0
  153.5975  141.8944  160.6945 C   0  0  0  0  0  0  0  0  0  0  0  0
  151.4617  145.3129  160.3728 H   0  0  0  0  0  0  0  0  0  0  0  0
  153.1182  144.7741  160.6380 H   0  0  0  0  0  0  0  0  0  0  0  0
  151.7853  144.0258  161.5308 H   0  0  0  0  0  0  0  0  0  0  0  0
  150.5037  144.5918  158.3428 H   0  0  0  0  0  0  0  0  0  0  0  0
  149.9433  141.1814  154.6574 H   0  0  0  0  0  0  0  0  0  0  0  0
  152.1355  139.4175  154.9950 H   0  0  0  0  0  0  0  0  0  0  0  0
  152.8070  139.3553  156.6089 H   0  0  0  0  0  0  0  0  0  0  0  0
  149.8868  138.6976  156.3110 H   0  0  0  0  0  0  0  0  0  0  0  0
  151.8247  138.3028  158.0824 H   0  0  0  0  0  0  0  0  0  0  0  0
  150.5784  137.3699  154.4991 H   0  0  0  0  0  0  0  0  0  0  0  0
  152.0062  136.7859  155.2837 H   0  0  0  0  0  0  0  0  0  0  0  0
  148.3174  135.4123  156.7344 H   0  0  0  0  0  0  0  0  0  0  0  0
  148.3083  136.6559  155.4795 H   0  0  0  0  0  0  0  0  0  0  0  0
  148.8890  137.0258  157.1047 H   0  0  0  0  0  0  0  0  0  0  0  0
  149.5991  135.1558  154.0715 H   0  0  0  0  0  0  0  0  0  0  0  0
  151.1741  134.6250  154.5354 H   0  0  0  0  0  0  0  0  0  0  0  0
  148.5979  133.6166  155.7970 H   0  0  0  0  0  0  0  0  0  0  0  0
  149.1481  131.4941  154.6658 H   0  0  0  0  0  0  0  0  0  0  0  0
  150.5692  132.2260  153.9255 H   0  0  0  0  0  0  0  0  0  0  0  0
  148.9559  132.7802  153.4791 H   0  0  0  0  0  0  0  0  0  0  0  0
  153.0764  140.2725  158.5756 H   0  0  0  0  0  0  0  0  0  0  0  0
  154.0681  140.9152  160.5979 H   0  0  0  0  0  0  0  0  0  0  0  0
  153.0544  141.9105  161.6396 H   0  0  0  0  0  0  0  0  0  0  0  0
  154.3901  142.6418  160.7366 H   0  0  0  0  0  0  0  0  0  0  0  0
  149.5482  143.3826  155.9182 H   0  0  0  0  0  0  0  0  0  0  0  0
  1  2  1  0  0  0  0
  1 23  1  0  0  0  0
  1 24  1  0  0  0  0
  1 25  1  0  0  0  0
  2 21  1  0  0  0  0
  2  3  2  0  0  0  0
  3  4  1  0  0  0  0
  3 26  1  0  0  0  0
  4 19  2  0  0  0  0
  4  5  1  0  0  0  0
  5  6  2  0  0  0  0
  5 47  1  0  0  0  0
  6  7  1  0  0  0  0
  6 27  1  0  0  0  0
  7  8  1  0  0  0  0
  7 19  1  0  0  0  0
  8  9  1  0  0  0  0
  8 28  1  0  0  0  0
  8 29  1  0  0  0  0
  9 10  1  0  0  0  0
  9 11  1  0  0  0  0
  9 30  1  0  0  0  0
 10 31  1  0  0  0  0
 11 12  1  0  0  0  0
 11 32  1  0  0  0  0
 11 33  1  0  0  0  0
 12 13  1  0  0  0  0
 12 14  1  0  0  0  0
 13 34  1  0  0  0  0
 13 35  1  0  0  0  0
 13 36  1  0  0  0  0
 14 15  1  0  0  0  0
 14 37  1  0  0  0  0
 14 38  1  0  0  0  0
 15 16  1  0  0  0  0
 15 17  1  0  0  0  0
 15 39  1  0  0  0  0
 16 40  1  0  0  0  0
 16 41  1  0  0  0  0
 16 42  1  0  0  0  0
 17 18  3  0  0  0  0
 19 20  1  0  0  0  0
 20 21  2  0  0  0  0
 20 43  1  0  0  0  0
 21 22  1  0  0  0  0
 22 44  1  0  0  0  0
 22 45  1  0  0  0  0
 22 46  1  0  0  0  0
M  CHG  1   5   1
M  END
> <s_m_source_file>
AV-unprocessed.smi

> <i_m_source_file_index>
1535

> <i_lp_mmshare_version>
43012

> <i_f3d_flags>
0

> <s_epik_input>
W0NIM11jKFtjSF0xKWMoW0NIM10pW2NIXWMoYzEyKW4oW2NIXW4yKVtDSDJdW0NASF0oW09IXSlbQ0gyXU4oW0NIM10pW0NIMl1bQ0BIXShbQ0gzXSlDI04=

> <s_epik_cmdline>
J2VwaWtfcHl0aG9uJywgJy1waCcsICc3LjAnLCAnLXRuJywgJzgnLCAnLW1hJywgJzIwMCcsICctbWV0YWxfYmluZGluZycsICctaW1hZScsICc8aW5maWxlLm1hZT4nLCAnLW9tYWUnLCAnPG91dGZpbGUubWFlPic=

> <r_epik_Ionization_Penalty>
1.22846

> <r_epik_Ionization_Penalty_Charging>
1.21333

> <r_epik_Ionization_Penalty_Neutral>
0.0151341

> <r_epik_State_Penalty>
1.27012

> <r_epik_Charging_Adjusted_Penalty>
2.48344

> <i_epik_Tot_Q>
1

> <i_epik_Tot_abs_Q>
1

> <r_epik_Metal_State_Penalty>
5.28751

> <b_epik_Metal_Only>
0

> <s_lp_Force_Field>
OPLS_2005

> <r_lp_Energy>
31.5295

> <b_lp_Chiralities_Consistent>
1

> <s_lp_Variant>
AV-unprocessed.smi:1535-7

> <Gold.Version>
5.8.1

> <Gold.Id.Protein>
6NUR|6NUR_protein|mol2

> <Gold.PLP.Fitness>
51.2660

> <Gold.PLP.PLP>
-43.8663

> <Gold.PLP.part.hbond>
-1.9763

> <Gold.PLP.part.metal>
0.0000

> <Gold.PLP.part.buried>
-5.9479

> <Gold.PLP.part.nonpolar>
-35.8682

> <Gold.PLP.part.repulsive>
0.1589

> <Gold.PLP.ligand.clash>
0.0000

> <Gold.PLP.ligand.torsion>
0.8397

> <Gold.PLP.Chemscore.Hbond>
3.0000

> <Gold.PLP.Chemscore.CHOScore>
0.0000

> <Gold.PLP.Chemscore.Metal>
0.0000

> <Gold.Chemscore.Hbonds>
donor molecule, donor type, donor heavy atom, donor atom, acceptor molecule, acceptor atom, score
      L1  H     5    47       P1  8028  1.92
      P1  H  6896  6907       L1    18  1.00

> <Gold.PLP.Chemscore.Internal.Correction>
0.0790

> <Gold.Rescore>
     Score         DG    S(hbond)    S(metal)    S(lipo)     H(rot)  DE(clash)    DE(int)     intcor
     18.15     -18.98       1.98        0.00     115.45       2.59       0.05       0.78       ----

> <Gold.Chemscore.Fitness>
18.1528

> <Gold.Chemscore.DG>
-18.9820

> <Gold.Chemscore.ZeroCoef>
-5.4800

> <Gold.Chemscore.Hbond>
1.9847

> <Gold.Chemscore.Metal>
0.0000

> <Gold.Chemscore.Lipo>
115.4543

> <Gold.Chemscore.Internal_Hbond>
0.0000

> <Gold.Chemscore.DEClash>
0.0462

> <Gold.Chemscore.DEInternal>
0.7830

> <Gold.Chemscore.Rot>
2.5918

> <Gold.Chemscore.Internal.Correction>
   9.000000E+99

> <Gold.Chemscore.Hbonds>
donor molecule, donor type, donor heavy atom, donor atom, acceptor molecule, acceptor atom, score
      L1  H     5    47       P1  8028  0.91
      P1  H  6896  6907       L1    18  0.99

> <Gold.Chemscore.Hbond.Weighted>
-6.6290

> <Gold.Chemscore.Metal.Weighted>
-0.0000

> <Gold.Chemscore.Lipo.Weighted>
-13.5081

> <Gold.Chemscore.Internal_Hbond.Weighted>
0.0000

> <Gold.Chemscore.DEClash.Weighted>
0.0462

> <Gold.Chemscore.DEInternal.Weighted>
0.7830

> <Gold.Chemscore.Rot.Weighted>
6.6351

> <Gold.Chemscore.Internal.Correction.Weighted>
   9.000000E+99

> <Gold.Protein.RotatedTorsions>
[ 6907 6896 6895 6894 ] final -159.83 input  -60.11 | X-H torsion
[ 7974 7965 7964 7962 ] final  161.68 input  175.53 | X-H torsion
[ 8008 7997 7996 7995 ] final  -16.02 input   59.86 | X-H torsion
[ 10167 10162 10161 10158 ] final  137.19 input  -65.29 | X-H torsion
[ 10718 10713 10712 10709 ] final  135.18 input   66.30 | X-H torsion
[ 10763 10752 10751 10750 ] final   58.88 input  -60.55 | X-H torsion
[ 11005 11000 10999 10996 ] final -144.33 input  -57.11 | X-H torsion

> <Gold.Protein.ActiveResidues>
 VAL166  LYS551  ARG553  GLY616  TRP617  ASP618  TYR619  PRO620  LYS621  CYS622 
 ASP623  PHE694  ASN695  SER759  ASP760  ASP761  ALA762  ILE779  LEU786  VAL792 
 PHE793  MET794  SER795  GLU796  ALA797  LYS798  CYS799  TRP800  GLU811  SER814 

> <Gold.Protein.RotatedAtoms>
  151.3396  133.3968  159.2669 H   0  0  0  0  0  0  0  0  0  0  0  0  # atno 6907 bound_to 6896
  150.9889  134.9229  159.7898 H   0  0  0  0  0  0  0  0  0  0  0  0  # atno 6908 bound_to 6896
  152.5241  134.3361  159.9252 H   0  0  0  0  0  0  0  0  0  0  0  0  # atno 6909 bound_to 6896
  144.7673  139.7932  143.6310 H   0  0  0  0  0  0  0  0  0  0  0  0  # atno 7974 bound_to 7965
  154.5085  140.2180  155.9203 H   0  0  0  0  0  0  0  0  0  0  0  0  # atno 8008 bound_to 7997
  156.1523  140.3159  155.8635 H   0  0  0  0  0  0  0  0  0  0  0  0  # atno 8009 bound_to 7997
  155.3914  140.0478  157.3031 H   0  0  0  0  0  0  0  0  0  0  0  0  # atno 8010 bound_to 7997
  139.5153  144.6423  151.5535 H   0  0  0  0  0  0  0  0  0  0  0  0  # atno 10167 bound_to 10162
  157.4597  131.1072  150.9935 H   0  0  0  0  0  0  0  0  0  0  0  0  # atno 10718 bound_to 10713
  152.9881  135.5591  154.5623 H   0  0  0  0  0  0  0  0  0  0  0  0  # atno 10763 bound_to 10752
  154.5040  135.2799  155.1400 H   0  0  0  0  0  0  0  0  0  0  0  0  # atno 10764 bound_to 10752
  154.2818  135.6343  153.5403 H   0  0  0  0  0  0  0  0  0  0  0  0  # atno 10765 bound_to 10752
  140.8035  134.2829  157.4969 H   0  0  0  0  0  0  0  0  0  0  0  0  # atno 11005 bound_to 11000
  146.1792  139.4977  142.9877 LP  0  0  0  0  0  0  0  0  0  0  0  0  # atno 17320 bound_to 7965
  145.6429  141.0280  143.1802 LP  0  0  0  0  0  0  0  0  0  0  0  0  # atno 17321 bound_to 7965
  140.6195  143.9286  150.6515 LP  0  0  0  0  0  0  0  0  0  0  0  0  # atno 17342 bound_to 10162
  140.2554  143.3562  152.1369 LP  0  0  0  0  0  0  0  0  0  0  0  0  # atno 17343 bound_to 10162
  157.0736  130.5874  149.5407 LP  0  0  0  0  0  0  0  0  0  0  0  0  # atno 17370 bound_to 10713
  156.0023  130.5104  150.7707 LP  0  0  0  0  0  0  0  0  0  0  0  0  # atno 17371 bound_to 10713
  139.8719  134.9443  156.3877 LP  0  0  0  0  0  0  0  0  0  0  0  0  # atno 17394 bound_to 11000
  140.9270  133.7605  155.9978 LP  0  0  0  0  0  0  0  0  0  0  0  0  # atno 17395 bound_to 11000

$$$$
