AV-unprocessed.smi:2807|AV-procd|sdf|10821|dock2
  -GOLD-   2272015253D 1   1.00000     0.00000
 Structure written by MMmdl.
 31 32  0  0  0  0  0  0  0  0  2 V2000
  151.1754  140.4094  158.1750 O   0  0  0  0  0  0  0  0  0  0  0  0
  150.7894  141.4272  157.5881 C   0  0  0  0  0  0  0  0  0  0  0  0
  150.0269  141.5487  156.4640 N   0  5  0  0  0  0  0  0  0  0  0  0
  149.0136  140.5760  156.0401 C   0  0  1  0  0  0  0  0  0  0  0  0
  147.6337  141.2510  156.0298 C   0  0  0  0  0  0  0  0  0  0  0  0
  147.4633  141.8926  154.6398 C   0  0  0  0  0  0  0  0  0  0  0  0
  148.5686  141.3105  153.7453 C   0  0  0  0  0  0  0  0  0  0  0  0
  149.1904  140.1714  154.5624 C   0  0  1  0  0  0  0  0  0  0  0  0
  150.5227  139.8914  154.1755 O   0  0  0  0  0  0  0  0  0  0  0  0
  151.2234  142.8032  158.1352 C   0  0  0  0  0  0  0  0  0  0  0  0
  151.8949  143.4692  157.1897 F   0  0  0  0  0  0  0  0  0  0  0  0
  150.1332  143.5159  158.4297 F   0  0  0  0  0  0  0  0  0  0  0  0
  152.0589  142.6424  159.4051 C   0  0  0  0  0  0  0  0  0  0  0  0
  153.2045  141.8144  159.4097 C   0  0  0  0  0  0  0  0  0  0  0  0
  153.9597  141.7111  160.5932 C   0  0  0  0  0  0  0  0  0  0  0  0
  153.5448  142.4330  161.7281 C   0  0  0  0  0  0  0  0  0  0  0  0
  152.3877  143.2300  161.6268 C   0  0  0  0  0  0  0  0  0  0  0  0
  151.6558  143.3346  160.4979 N   0  0  0  0  0  0  0  0  0  0  0  0
  148.9962  139.6921  156.6797 H   0  0  0  0  0  0  0  0  0  0  0  0
  146.8667  140.4867  156.1605 H   0  0  0  0  0  0  0  0  0  0  0  0
  147.5012  141.9704  156.8393 H   0  0  0  0  0  0  0  0  0  0  0  0
  146.4731  141.6764  154.2369 H   0  0  0  0  0  0  0  0  0  0  0  0
  147.5580  142.9782  154.6964 H   0  0  0  0  0  0  0  0  0  0  0  0
  148.1847  140.9615  152.7863 H   0  0  0  0  0  0  0  0  0  0  0  0
  149.3104  142.0843  153.5333 H   0  0  0  0  0  0  0  0  0  0  0  0
  148.6045  139.2672  154.3917 H   0  0  0  0  0  0  0  0  0  0  0  0
  150.8306  139.1657  154.6966 H   0  0  0  0  0  0  0  0  0  0  0  0
  153.5026  141.2800  158.5199 H   0  0  0  0  0  0  0  0  0  0  0  0
  154.8428  141.0907  160.6286 H   0  0  0  0  0  0  0  0  0  0  0  0
  154.1000  142.3797  162.6526 H   0  0  0  0  0  0  0  0  0  0  0  0
  152.0396  143.7979  162.4771 H   0  0  0  0  0  0  0  0  0  0  0  0
  1  2  2  0  0  0  0
  2  3  1  0  0  0  0
  2 10  1  0  0  0  0
  3  4  1  0  0  0  0
  4  8  1  0  0  0  0
  4  5  1  0  0  0  0
  4 19  1  0  0  0  0
  5  6  1  0  0  0  0
  5 20  1  0  0  0  0
  5 21  1  0  0  0  0
  6  7  1  0  0  0  0
  6 22  1  0  0  0  0
  6 23  1  0  0  0  0
  7  8  1  0  0  0  0
  7 24  1  0  0  0  0
  7 25  1  0  0  0  0
  8  9  1  0  0  0  0
  8 26  1  0  0  0  0
  9 27  1  0  0  0  0
 10 11  1  0  0  0  0
 10 12  1  0  0  0  0
 10 13  1  0  0  0  0
 13 18  1  0  0  0  0
 13 14  2  0  0  0  0
 14 15  1  0  0  0  0
 14 28  1  0  0  0  0
 15 16  2  0  0  0  0
 15 29  1  0  0  0  0
 16 17  1  0  0  0  0
 16 30  1  0  0  0  0
 17 18  2  0  0  0  0
 17 31  1  0  0  0  0
M  CHG  1   3  -1
M  END
> <s_m_source_file>
AV-unprocessed.smi

> <i_m_source_file_index>
2807

> <i_lp_mmshare_version>
43012

> <i_f3d_flags>
0

> <s_epik_input>
bjFbY0hdW2NIXVtjSF1bY0hdYzFDKEYpKEYpQyg9TylbTkhdW0NAQEhdMltDSDJdW0NIMl1bQ0gyXVtDQEhdMltPSF0=

> <s_epik_cmdline>
J2VwaWtfcHl0aG9uJywgJy1waCcsICc3LjAnLCAnLXRuJywgJzgnLCAnLW1hJywgJzIwMCcsICctbWV0YWxfYmluZGluZycsICctaW1hZScsICc8aW5maWxlLm1hZT4nLCAnLW9tYWUnLCAnPG91dGZpbGUubWFlPic=

> <r_lp_tautomer_probability>
1

> <r_epik_Ionization_Penalty>
5.72231

> <r_epik_Ionization_Penalty_Charging>
5.72231

> <r_epik_Ionization_Penalty_Neutral>
5.49816e-06

> <r_epik_State_Penalty>
5.72227

> <r_epik_Charging_Adjusted_Penalty>
11.4446

> <i_epik_Tot_Q>
-1

> <i_epik_Tot_abs_Q>
1

> <r_epik_Metal_State_Penalty>
1.70075

> <b_epik_Metal_Only>
1

> <s_lp_Force_Field>
OPLS_2005

> <r_lp_Energy>
37.2022

> <b_lp_Chiralities_Consistent>
1

> <s_lp_Variant>
AV-unprocessed.smi:2807-6

> <Gold.Version>
5.8.1

> <Gold.Id.Protein>
6NUR|6NUR_protein|mol2

> <Gold.PLP.Fitness>
41.3727

> <Gold.PLP.PLP>
-39.0703

> <Gold.PLP.part.hbond>
-2.6086

> <Gold.PLP.part.metal>
0.0000

> <Gold.PLP.part.buried>
-4.4920

> <Gold.PLP.part.nonpolar>
-32.2906

> <Gold.PLP.part.repulsive>
0.1933

> <Gold.PLP.ligand.clash>
0.0000

> <Gold.PLP.ligand.torsion>
0.3829

> <Gold.PLP.Chemscore.Hbond>
1.0000

> <Gold.PLP.Chemscore.CHOScore>
0.0000

> <Gold.PLP.Chemscore.Metal>
0.0000

> <Gold.Chemscore.Hbonds>
donor molecule, donor type, donor heavy atom, donor atom, acceptor molecule, acceptor atom, score
      P1  H  7989  7998       L1     9  1.00

> <Gold.PLP.Chemscore.Internal.Correction>
0.0681

> <Gold.Rescore>
     Score         DG    S(hbond)    S(metal)    S(lipo)     H(rot)  DE(clash)    DE(int)     intcor
     12.66     -14.43       0.99        0.00      91.81       2.00       0.28       1.49       ----

> <Gold.Chemscore.Fitness>
12.6629

> <Gold.Chemscore.DG>
-14.4320

> <Gold.Chemscore.ZeroCoef>
-5.4800

> <Gold.Chemscore.Hbond>
0.9944

> <Gold.Chemscore.Metal>
0.0000

> <Gold.Chemscore.Lipo>
91.8090

> <Gold.Chemscore.Internal_Hbond>
0.0000

> <Gold.Chemscore.DEClash>
0.2798

> <Gold.Chemscore.DEInternal>
1.4894

> <Gold.Chemscore.Rot>
1.9964

> <Gold.Chemscore.Internal.Correction>
   9.000000E+99

> <Gold.Chemscore.Hbonds>
donor molecule, donor type, donor heavy atom, donor atom, acceptor molecule, acceptor atom, score
      P1  H  7989  7998       L1     9  0.96

> <Gold.Chemscore.Hbond.Weighted>
-3.3212

> <Gold.Chemscore.Metal.Weighted>
-0.0000

> <Gold.Chemscore.Lipo.Weighted>
-10.7417

> <Gold.Chemscore.Internal_Hbond.Weighted>
0.0000

> <Gold.Chemscore.DEClash.Weighted>
0.2798

> <Gold.Chemscore.DEInternal.Weighted>
1.4894

> <Gold.Chemscore.Rot.Weighted>
5.1108

> <Gold.Chemscore.Internal.Correction.Weighted>
   9.000000E+99

> <Gold.Protein.RotatedTorsions>
[ 6907 6896 6895 6894 ] final  -36.37 input  -60.11 | X-H torsion
[ 7974 7965 7964 7962 ] final   56.98 input  175.53 | X-H torsion
[ 8008 7997 7996 7995 ] final   99.38 input   59.86 | X-H torsion
[ 10167 10162 10161 10158 ] final   -1.58 input  -65.29 | X-H torsion
[ 10718 10713 10712 10709 ] final   -0.22 input   66.30 | X-H torsion
[ 10763 10752 10751 10750 ] final   69.71 input  -60.55 | X-H torsion
[ 11005 11000 10999 10996 ] final   49.90 input  -57.11 | X-H torsion

> <Gold.Protein.ActiveResidues>
 VAL166  LYS551  ARG553  GLY616  TRP617  ASP618  TYR619  PRO620  LYS621  CYS622 
 ASP623  PHE694  ASN695  SER759  ASP760  ASP761  ALA762  ILE779  LEU786  VAL792 
 PHE793  MET794  SER795  GLU796  ALA797  LYS798  CYS799  TRP800  GLU811  SER814 

> <Gold.Protein.RotatedAtoms>
  151.0280  134.9518  159.8095 H   0  0  0  0  0  0  0  0  0  0  0  0  # atno 6907 bound_to 6896
  152.5339  134.2817  159.9020 H   0  0  0  0  0  0  0  0  0  0  0  0  # atno 6908 bound_to 6896
  151.2826  133.4160  159.2662 H   0  0  0  0  0  0  0  0  0  0  0  0  # atno 6909 bound_to 6896
  145.9339  139.3831  143.0404 H   0  0  0  0  0  0  0  0  0  0  0  0  # atno 7974 bound_to 7965
  156.1099  140.3229  155.8058 H   0  0  0  0  0  0  0  0  0  0  0  0  # atno 8008 bound_to 7997
  155.4691  140.0545  157.2999 H   0  0  0  0  0  0  0  0  0  0  0  0  # atno 8009 bound_to 7997
  154.4753  140.2029  155.9908 H   0  0  0  0  0  0  0  0  0  0  0  0  # atno 8010 bound_to 7997
  140.6816  143.6758  150.8146 H   0  0  0  0  0  0  0  0  0  0  0  0  # atno 10167 bound_to 10162
  156.8236  130.5465  149.5694 H   0  0  0  0  0  0  0  0  0  0  0  0  # atno 10718 bound_to 10713
  153.0301  135.5201  154.7329 H   0  0  0  0  0  0  0  0  0  0  0  0  # atno 10763 bound_to 10752
  154.6352  135.2905  155.0172 H   0  0  0  0  0  0  0  0  0  0  0  0  # atno 10764 bound_to 10752
  154.1110  135.6622  153.4937 H   0  0  0  0  0  0  0  0  0  0  0  0  # atno 10765 bound_to 10752
  140.1064  134.5013  155.8716 H   0  0  0  0  0  0  0  0  0  0  0  0  # atno 11005 bound_to 11000
  145.8389  140.9591  143.0810 LP  0  0  0  0  0  0  0  0  0  0  0  0  # atno 17320 bound_to 7965
  144.6769  140.0258  143.7483 LP  0  0  0  0  0  0  0  0  0  0  0  0  # atno 17321 bound_to 7965
  140.0459  143.5298  152.2696 LP  0  0  0  0  0  0  0  0  0  0  0  0  # atno 17342 bound_to 10162
  139.6143  144.7616  151.2882 LP  0  0  0  0  0  0  0  0  0  0  0  0  # atno 17343 bound_to 10162
  156.0974  130.5943  150.9837 LP  0  0  0  0  0  0  0  0  0  0  0  0  # atno 17370 bound_to 10713
  157.6444  131.0906  150.8185 LP  0  0  0  0  0  0  0  0  0  0  0  0  # atno 17371 bound_to 10713
  141.2119  133.6712  156.6619 LP  0  0  0  0  0  0  0  0  0  0  0  0  # atno 17394 bound_to 11000
  140.3150  134.8055  157.4207 LP  0  0  0  0  0  0  0  0  0  0  0  0  # atno 17395 bound_to 11000

$$$$
