AV-unprocessed.smi:2812|AV-procd|sdf|10836|dock4
  -GOLD-   2272015273D 1   1.00000     0.00000
 Structure written by MMmdl.
 55 56  0  0  0  0  0  0  0  0  2 V2000
  154.7930  138.8427  160.3192 C   0  0  0  0  0  0  0  0  0  0  0  0
  153.8920  140.0538  160.1376 C   0  0  0  0  0  0  0  0  0  0  0  0
  154.1005  141.2188  160.9723 C   0  0  0  0  0  0  0  0  0  0  0  0
  153.3035  142.2859  160.8263 C   0  0  0  0  0  0  0  0  0  0  0  0
  152.2771  142.3131  159.8714 N   0  0  0  0  0  0  0  0  0  0  0  0
  151.4698  143.5325  159.7779 C   0  0  0  0  0  0  0  0  0  0  0  0
  152.0389  141.2689  159.0269 C   0  0  0  0  0  0  0  0  0  0  0  0
  151.1788  141.3523  158.1468 O   0  0  0  0  0  0  0  0  0  0  0  0
  152.8831  140.0654  159.2271 C   0  0  0  0  0  0  0  0  0  0  0  0
  152.6921  138.9414  158.4075 N   0  0  0  0  0  0  0  0  0  0  0  0
  151.5179  138.3360  158.1562 C   0  0  0  0  0  0  0  0  0  0  0  0
  150.4331  138.6800  158.6276 O   0  0  0  0  0  0  0  0  0  0  0  0
  151.6666  137.2940  157.3266 N   0  0  0  0  0  0  0  0  0  0  0  0
  150.5716  136.4582  156.8454 C   0  0  0  0  0  0  0  0  0  0  0  0
  150.4659  136.4558  155.2945 C   0  0  1  0  0  0  0  0  0  0  0  0
  151.4673  135.4974  154.6089 C   0  0  0  0  0  0  0  0  0  0  0  0
  151.0836  134.0240  154.8117 C   0  0  0  0  0  0  0  0  0  0  0  0
  149.6421  133.7865  154.3440 C   0  0  0  0  0  0  0  0  0  0  0  0
  148.6656  134.7613  155.0224 C   0  0  0  0  0  0  0  0  0  0  0  0
  149.0853  136.1722  154.8036 N   0  3  1  0  0  0  0  0  0  0  0  0
  148.0746  137.1729  155.2352 C   0  0  0  0  0  0  0  0  0  0  0  0
  148.2231  138.5201  154.4976 C   0  0  0  0  0  0  0  0  0  0  0  0
  149.4509  139.3064  154.9878 C   0  0  0  0  0  0  0  0  0  0  0  0
  146.9492  139.3641  154.6516 C   0  0  0  0  0  0  0  0  0  0  0  0
  155.4928  138.9914  161.1418 H   0  0  0  0  0  0  0  0  0  0  0  0
  155.3719  138.6592  159.4138 H   0  0  0  0  0  0  0  0  0  0  0  0
  154.2024  137.9530  160.5402 H   0  0  0  0  0  0  0  0  0  0  0  0
  154.8859  141.2310  161.7138 H   0  0  0  0  0  0  0  0  0  0  0  0
  153.4090  143.1812  161.4215 H   0  0  0  0  0  0  0  0  0  0  0  0
  150.4067  143.2997  159.8586 H   0  0  0  0  0  0  0  0  0  0  0  0
  151.6381  144.0280  158.8209 H   0  0  0  0  0  0  0  0  0  0  0  0
  151.7010  144.2512  160.5646 H   0  0  0  0  0  0  0  0  0  0  0  0
  153.5317  138.4970  158.0665 H   0  0  0  0  0  0  0  0  0  0  0  0
  152.5942  137.0741  156.9937 H   0  0  0  0  0  0  0  0  0  0  0  0
  150.7378  135.4521  157.2283 H   0  0  0  0  0  0  0  0  0  0  0  0
  149.6438  136.8041  157.3028 H   0  0  0  0  0  0  0  0  0  0  0  0
  150.7123  137.4595  154.9449 H   0  0  0  0  0  0  0  0  0  0  0  0
  151.4862  135.7117  153.5394 H   0  0  0  0  0  0  0  0  0  0  0  0
  152.4835  135.6734  154.9624 H   0  0  0  0  0  0  0  0  0  0  0  0
  151.7667  133.3793  154.2578 H   0  0  0  0  0  0  0  0  0  0  0  0
  151.1849  133.7494  155.8620 H   0  0  0  0  0  0  0  0  0  0  0  0
  149.5860  133.9115  153.2617 H   0  0  0  0  0  0  0  0  0  0  0  0
  149.3473  132.7574  154.5511 H   0  0  0  0  0  0  0  0  0  0  0  0
  147.6695  134.5993  154.6119 H   0  0  0  0  0  0  0  0  0  0  0  0
  148.5941  134.5494  156.0895 H   0  0  0  0  0  0  0  0  0  0  0  0
  147.0748  136.7609  155.0884 H   0  0  0  0  0  0  0  0  0  0  0  0
  148.1715  137.3595  156.3061 H   0  0  0  0  0  0  0  0  0  0  0  0
  148.3507  138.3318  153.4319 H   0  0  0  0  0  0  0  0  0  0  0  0
  149.3786  139.5331  156.0520 H   0  0  0  0  0  0  0  0  0  0  0  0
  149.5488  140.2521  154.4540 H   0  0  0  0  0  0  0  0  0  0  0  0
  150.3740  138.7486  154.8284 H   0  0  0  0  0  0  0  0  0  0  0  0
  146.7499  139.5952  155.6986 H   0  0  0  0  0  0  0  0  0  0  0  0
  146.0791  138.8399  154.2553 H   0  0  0  0  0  0  0  0  0  0  0  0
  147.0353  140.3085  154.1134 H   0  0  0  0  0  0  0  0  0  0  0  0
  149.1472  136.2843  153.8017 H   0  0  0  0  0  0  0  0  0  0  0  0
  1  2  1  0  0  0  0
  1 25  1  0  0  0  0
  1 26  1  0  0  0  0
  1 27  1  0  0  0  0
  2  9  2  0  0  0  0
  2  3  1  0  0  0  0
  3  4  2  0  0  0  0
  3 28  1  0  0  0  0
  4  5  1  0  0  0  0
  4 29  1  0  0  0  0
  5  6  1  0  0  0  0
  5  7  1  0  0  0  0
  6 30  1  0  0  0  0
  6 31  1  0  0  0  0
  6 32  1  0  0  0  0
  7  8  2  0  0  0  0
  7  9  1  0  0  0  0
  9 10  1  0  0  0  0
 10 11  1  0  0  0  0
 10 33  1  0  0  0  0
 11 12  2  0  0  0  0
 11 13  1  0  0  0  0
 13 14  1  0  0  0  0
 13 34  1  0  0  0  0
 14 15  1  0  0  0  0
 14 35  1  0  0  0  0
 14 36  1  0  0  0  0
 15 20  1  0  0  0  0
 15 16  1  0  0  0  0
 15 37  1  0  0  0  0
 16 17  1  0  0  0  0
 16 38  1  0  0  0  0
 16 39  1  0  0  0  0
 17 18  1  0  0  0  0
 17 40  1  0  0  0  0
 17 41  1  0  0  0  0
 18 19  1  0  0  0  0
 18 42  1  0  0  0  0
 18 43  1  0  0  0  0
 19 20  1  0  0  0  0
 19 44  1  0  0  0  0
 19 45  1  0  0  0  0
 20 21  1  0  0  0  0
 20 55  1  0  0  0  0
 21 22  1  0  0  0  0
 21 46  1  0  0  0  0
 21 47  1  0  0  0  0
 22 23  1  0  0  0  0
 22 24  1  0  0  0  0
 22 48  1  0  0  0  0
 23 49  1  0  0  0  0
 23 50  1  0  0  0  0
 23 51  1  0  0  0  0
 24 52  1  0  0  0  0
 24 53  1  0  0  0  0
 24 54  1  0  0  0  0
M  CHG  1  20   1
M  END
> <s_m_source_file>
AV-unprocessed.smi

> <i_m_source_file_index>
2812

> <i_lp_mmshare_version>
43012

> <i_f3d_flags>
0

> <s_epik_input>
W0NIM11jMVtjSF1bY0hdbihbQ0gzXSljKD1PKWMxW05IXUMoPU8pW05IXVtDSDJdW0NAQEhdMltDSDJdW0NIMl1bQ0gyXVtDSDJdTjJbQ0gyXVtDSF0oW0NIM10pW0NIM10=

> <s_epik_cmdline>
J2VwaWtfcHl0aG9uJywgJy1waCcsICc3LjAnLCAnLXRuJywgJzgnLCAnLW1hJywgJzIwMCcsICctbWV0YWxfYmluZGluZycsICctaW1hZScsICc8aW5maWxlLm1hZT4nLCAnLW9tYWUnLCAnPG91dGZpbGUubWFlPic=

> <r_lp_tautomer_probability>
1

> <r_epik_Ionization_Penalty>
0.0010902

> <r_epik_Ionization_Penalty_Charging>
0.00107091

> <r_epik_Ionization_Penalty_Neutral>
1.92854e-05

> <r_epik_State_Penalty>
0.000697184

> <r_epik_Charging_Adjusted_Penalty>
0.0017681

> <i_epik_Tot_Q>
1

> <i_epik_Tot_abs_Q>
1

> <r_epik_Metal_State_Penalty>
-0

> <b_epik_Metal_Only>
0

> <s_lp_Force_Field>
OPLS_2005

> <r_lp_Energy>
38.3811

> <b_lp_Chiralities_Consistent>
1

> <s_lp_Variant>
AV-unprocessed.smi:2812-4

> <Gold.Version>
5.8.1

> <Gold.Id.Protein>
6NUR|6NUR_protein|mol2

> <Gold.PLP.Fitness>
44.2023

> <Gold.PLP.PLP>
-39.4314

> <Gold.PLP.part.hbond>
-1.0000

> <Gold.PLP.part.metal>
0.0000

> <Gold.PLP.part.buried>
-3.0209

> <Gold.PLP.part.nonpolar>
-34.5627

> <Gold.PLP.part.repulsive>
0.1577

> <Gold.PLP.ligand.clash>
0.0000

> <Gold.PLP.ligand.torsion>
0.9538

> <Gold.PLP.Chemscore.Hbond>
2.0000

> <Gold.PLP.Chemscore.CHOScore>
0.0000

> <Gold.PLP.Chemscore.Metal>
0.0000

> <Gold.Chemscore.Hbonds>
donor molecule, donor type, donor heavy atom, donor atom, acceptor molecule, acceptor atom, score
      L1  H    20    55       P1  7948  2.00

> <Gold.PLP.Chemscore.Internal.Correction>
0.6786

> <Gold.Rescore>
     Score         DG    S(hbond)    S(metal)    S(lipo)     H(rot)  DE(clash)    DE(int)     intcor
     14.63     -16.99       1.00        0.00     103.09       1.52       0.26       2.10       ----

> <Gold.Chemscore.Fitness>
14.6273

> <Gold.Chemscore.DG>
-16.9925

> <Gold.Chemscore.ZeroCoef>
-5.4800

> <Gold.Chemscore.Hbond>
0.9975

> <Gold.Chemscore.Metal>
0.0000

> <Gold.Chemscore.Lipo>
103.0852

> <Gold.Chemscore.Internal_Hbond>
0.0000

> <Gold.Chemscore.DEClash>
0.2620

> <Gold.Chemscore.DEInternal>
2.1032

> <Gold.Chemscore.Rot>
1.5157

> <Gold.Chemscore.Internal.Correction>
   9.000000E+99

> <Gold.Chemscore.Hbonds>
donor molecule, donor type, donor heavy atom, donor atom, acceptor molecule, acceptor atom, score
      L1  H    20    55       P1  7948  0.95

> <Gold.Chemscore.Hbond.Weighted>
-3.3318

> <Gold.Chemscore.Metal.Weighted>
-0.0000

> <Gold.Chemscore.Lipo.Weighted>
-12.0610

> <Gold.Chemscore.Internal_Hbond.Weighted>
0.0000

> <Gold.Chemscore.DEClash.Weighted>
0.2620

> <Gold.Chemscore.DEInternal.Weighted>
2.1032

> <Gold.Chemscore.Rot.Weighted>
3.8803

> <Gold.Chemscore.Internal.Correction.Weighted>
   9.000000E+99

> <Gold.Protein.RotatedTorsions>
[ 6907 6896 6895 6894 ] final  100.31 input  -60.11 | X-H torsion
[ 7974 7965 7964 7962 ] final  -48.49 input  175.53 | X-H torsion
[ 8008 7997 7996 7995 ] final  122.29 input   59.86 | X-H torsion
[ 10167 10162 10161 10158 ] final   -9.71 input  -65.29 | X-H torsion
[ 10718 10713 10712 10709 ] final  -57.78 input   66.30 | X-H torsion
[ 10763 10752 10751 10750 ] final -114.87 input  -60.55 | X-H torsion
[ 11005 11000 10999 10996 ] final -114.64 input  -57.11 | X-H torsion

> <Gold.Protein.ActiveResidues>
 VAL166  LYS551  ARG553  GLY616  TRP617  ASP618  TYR619  PRO620  LYS621  CYS622 
 ASP623  PHE694  ASN695  SER759  ASP760  ASP761  ALA762  ILE779  LEU786  VAL792 
 PHE793  MET794  SER795  GLU796  ALA797  LYS798  CYS799  TRP800  GLU811  SER814 

> <Gold.Protein.RotatedAtoms>
  152.5374  134.0296  159.8018 H   0  0  0  0  0  0  0  0  0  0  0  0  # atno 6907 bound_to 6896
  151.0469  133.5650  159.2653 H   0  0  0  0  0  0  0  0  0  0  0  0  # atno 6908 bound_to 6896
  151.2599  135.0658  159.9148 H   0  0  0  0  0  0  0  0  0  0  0  0  # atno 6909 bound_to 6896
  145.9506  140.7576  142.9506 H   0  0  0  0  0  0  0  0  0  0  0  0  # atno 7974 bound_to 7965
  156.2722  140.2789  156.1445 H   0  0  0  0  0  0  0  0  0  0  0  0  # atno 8008 bound_to 7997
  155.0919  140.0388  157.2689 H   0  0  0  0  0  0  0  0  0  0  0  0  # atno 8009 bound_to 7997
  154.6883  140.2623  155.6844 H   0  0  0  0  0  0  0  0  0  0  0  0  # atno 8010 bound_to 7997
  140.7095  143.5828  150.8974 H   0  0  0  0  0  0  0  0  0  0  0  0  # atno 10167 bound_to 10162
  156.1184  130.4168  150.0488 H   0  0  0  0  0  0  0  0  0  0  0  0  # atno 10718 bound_to 10713
  154.8458  135.4402  154.1574 H   0  0  0  0  0  0  0  0  0  0  0  0  # atno 10763 bound_to 10752
  153.2719  135.6946  153.7478 H   0  0  0  0  0  0  0  0  0  0  0  0  # atno 10764 bound_to 10752
  153.6715  135.3418  155.3130 H   0  0  0  0  0  0  0  0  0  0  0  0  # atno 10765 bound_to 10752
  141.0539  133.9644  157.2789 H   0  0  0  0  0  0  0  0  0  0  0  0  # atno 11005 bound_to 11000
  144.6795  140.2429  143.7341 LP  0  0  0  0  0  0  0  0  0  0  0  0  # atno 17320 bound_to 7965
  145.8176  139.2030  143.1957 LP  0  0  0  0  0  0  0  0  0  0  0  0  # atno 17321 bound_to 7965
  139.9554  143.6225  152.3017 LP  0  0  0  0  0  0  0  0  0  0  0  0  # atno 17342 bound_to 10162
  139.6758  144.7658  151.1699 LP  0  0  0  0  0  0  0  0  0  0  0  0  # atno 17343 bound_to 10162
  156.8432  130.9433  151.3630 LP  0  0  0  0  0  0  0  0  0  0  0  0  # atno 17370 bound_to 10713
  157.6368  130.8773  149.9373 LP  0  0  0  0  0  0  0  0  0  0  0  0  # atno 17371 bound_to 10713
  139.9373  135.0195  156.8597 LP  0  0  0  0  0  0  0  0  0  0  0  0  # atno 17394 bound_to 11000
  140.6003  134.0178  155.7534 LP  0  0  0  0  0  0  0  0  0  0  0  0  # atno 17395 bound_to 11000

$$$$
