#       Name:                AV-unprocessed.smi:953
#       Creating user name   scv26
#       Creation time:       Fri Mar 27 02:16:44 2020


#       File generated by GOLD software.
#

@<TRIPOS>MOLECULE
AV-unprocessed.smi:953
    26    27     1
SMALL
NO_CHARGES


@<TRIPOS>ATOM
      1 ****        -2.0971   2.3624  -1.2622 N.4            1 S1                 1.0000
      2 ****        -1.6416   0.9628  -1.2185 C.3            1 S1                 0.0000
      3 ****        -0.1142   0.8752  -1.0985 C.3            1 S1                 0.0000
      4 ****         0.3760  -0.5392  -1.0696 C.2            1 S1                 0.0000
      5 ****         0.6092  -1.2561  -2.1750 N.2            1 S1                 0.0000
      6 ****         0.9891  -2.5071  -1.7334 N.2            1 S1                 0.0000
      7 ****         0.9410  -2.4225  -0.4046 C.2            1 S1                 0.0000
      8 ****         0.5829  -1.2209   0.0766 N.pl3          1 S1                 0.0000
      9 ****         0.3865  -0.8107   1.4573 C.3            1 S1                 0.0000
     10 ****         1.4352   0.1469   1.9747 C.3            1 S1                 0.0000
     11 ****         1.4386  -1.2951   2.4306 C.3            1 S1                 0.0000
     12 ****        -3.1041   2.3864  -1.3383 H              1 S1                 0.0000
     13 ****        -1.6901   2.8245  -2.0631 H              1 S1                 0.0000
     14 ****        -2.1175   0.4649  -0.3730 H              1 S1                 0.0000
     15 ****        -1.9810   0.4575  -2.1233 H              1 S1                 0.0000
     16 ****         0.3537   1.3818  -1.9438 H              1 S1                 0.0000
     17 ****         0.2248   1.3995  -0.2053 H              1 S1                 0.0000
     18 ****         1.1695  -3.2633   0.2339 H              1 S1                 0.0000
     19 ****        -0.6577  -0.7171   1.7492 H              1 S1                 0.0000
     20 ****         2.2279   0.4587   1.2967 H              1 S1                 0.0000
     21 ****         1.1161   0.8986   2.6936 H              1 S1                 0.0000
     22 ****         1.1209  -1.4957   3.4519 H              1 S1                 0.0000
     23 ****         2.2437  -1.9289   2.0635 H              1 S1                 0.0000
     24 ****        -1.8125   2.8386  -0.4183 H              1 S1                 0.0000
     25 ****         0.5257  -0.9495  -3.1232 LP             1 S1                 0.0000
     26 ****         1.2437  -3.3001  -2.2871 LP             1 S1                 0.0000
@<TRIPOS>BOND
    1    1    2 1     
    2    1   12 1     
    3    1   13 1     
    4    1   24 1     
    5    2    3 1     
    6    2   14 1     
    7    2   15 1     
    8    3    4 1     
    9    3   16 1     
   10    3   17 1     
   11    4    8 1     
   12    4    5 2     
   13    5    6 1     
   14    6    7 2     
   15    7    8 1     
   16    7   18 1     
   17    8    9 1     
   18    9   11 1     
   19    9   10 1     
   20    9   19 1     
   21   10   11 1     
   22   10   20 1     
   23   10   21 1     
   24   11   22 1     
   25   11   23 1     
   26    5   25 1     
   27    6   26 1     
@<TRIPOS>SUBSTRUCTURE
      1 S1             1
@<TRIPOS>SET
LONE_PAIRS      STATIC     ATOMS    <user>   **** ""
2 25 26
DONOR_HYDROGENS      STATIC     ATOMS    <user>   **** ""
3 12 13 24
ATOM$BLUE        STATIC     ATOMS    COLORGROUP SYSTEM
2 25 26
ATOM$RED        STATIC     ATOMS    COLORGROUP SYSTEM
3 12 13 24
