AV-unprocessed.smi:1203|AV-procd|sdf|5034|dock3
  -GOLD-   22720 4 53D 1   1.00000     0.00000
 Structure written by MMmdl.
 39 40  0  0  0  0  0  0  0  0  1 V2000
  146.0213  135.5496  162.2059 C   0  0  0  0  0  0  0  0  0  0  0  0
  147.1170  136.8983  161.6071 S   0  0  0  0  0  0  0  0  0  0  0  0
  146.2932  137.9795  161.0457 O   0  0  0  0  0  0  0  0  0  0  0  0
  148.0963  137.1940  162.6639 O   0  0  0  0  0  0  0  0  0  0  0  0
  147.9678  136.1473  160.3003 N   0  0  0  0  0  0  0  0  0  0  0  0
  147.6608  134.7489  159.9653 C   0  0  0  0  0  0  0  0  0  0  0  0
  147.9677  134.6032  158.4764 C   0  0  0  0  0  0  0  0  0  0  0  0
  147.7070  136.0032  157.9393 C   0  0  0  0  0  0  0  0  0  0  0  0
  148.2091  136.9221  159.0682 C   0  0  2  0  0  0  0  0  0  0  0  0
  149.6790  137.3540  158.9194 C   0  0  0  0  0  0  0  0  0  0  0  0
  150.5984  136.5409  159.0191 O   0  0  0  0  0  0  0  0  0  0  0  0
  149.8865  138.6611  158.6986 N   0  0  0  0  0  0  0  0  0  0  0  0
  151.1882  139.3176  158.6665 C   0  0  0  0  0  0  0  0  0  0  0  0
  151.1301  140.7087  158.0033 C   0  0  0  0  0  0  0  0  0  0  0  0
  152.1087  141.7073  158.6000 C   0  0  0  0  0  0  0  0  0  0  0  0
  152.9014  141.3674  159.7163 C   0  0  0  0  0  0  0  0  0  0  0  0
  153.7867  142.3296  160.2384 C   0  0  0  0  0  0  0  0  0  0  0  0
  153.8432  143.5939  159.6194 C   0  0  0  0  0  0  0  0  0  0  0  0
  153.0861  143.9322  158.5535 N   0  0  0  0  0  0  0  0  0  0  0  0
  152.2401  143.0033  158.0583 C   0  0  0  0  0  0  0  0  0  0  0  0
  145.4309  135.9099  163.0480 H   0  0  0  0  0  0  0  0  0  0  0  0
  146.6305  134.7062  162.5283 H   0  0  0  0  0  0  0  0  0  0  0  0
  145.3532  135.2329  161.4057 H   0  0  0  0  0  0  0  0  0  0  0  0
  148.2455  134.0650  160.5802 H   0  0  0  0  0  0  0  0  0  0  0  0
  146.6038  134.5531  160.1488 H   0  0  0  0  0  0  0  0  0  0  0  0
  149.0163  134.3379  158.3346 H   0  0  0  0  0  0  0  0  0  0  0  0
  147.3567  133.8418  157.9912 H   0  0  0  0  0  0  0  0  0  0  0  0
  148.1763  136.1712  156.9696 H   0  0  0  0  0  0  0  0  0  0  0  0
  146.6347  136.1502  157.8019 H   0  0  0  0  0  0  0  0  0  0  0  0
  147.6051  137.8303  159.0792 H   0  0  0  0  0  0  0  0  0  0  0  0
  149.0747  139.2569  158.6164 H   0  0  0  0  0  0  0  0  0  0  0  0
  151.6077  139.3866  159.6712 H   0  0  0  0  0  0  0  0  0  0  0  0
  151.8572  138.6731  158.0958 H   0  0  0  0  0  0  0  0  0  0  0  0
  151.3323  140.6135  156.9357 H   0  0  0  0  0  0  0  0  0  0  0  0
  150.1200  141.1118  158.0819 H   0  0  0  0  0  0  0  0  0  0  0  0
  152.8288  140.3903  160.1708 H   0  0  0  0  0  0  0  0  0  0  0  0
  154.4063  142.1042  161.0937 H   0  0  0  0  0  0  0  0  0  0  0  0
  154.5098  144.3563  159.9948 H   0  0  0  0  0  0  0  0  0  0  0  0
  151.6474  143.3044  157.2071 H   0  0  0  0  0  0  0  0  0  0  0  0
  1  2  1  0  0  0  0
  1 21  1  0  0  0  0
  1 22  1  0  0  0  0
  1 23  1  0  0  0  0
  2  3  2  0  0  0  0
  2  4  2  0  0  0  0
  2  5  1  0  0  0  0
  5  9  1  0  0  0  0
  5  6  1  0  0  0  0
  6  7  1  0  0  0  0
  6 24  1  0  0  0  0
  6 25  1  0  0  0  0
  7  8  1  0  0  0  0
  7 26  1  0  0  0  0
  7 27  1  0  0  0  0
  8  9  1  0  0  0  0
  8 28  1  0  0  0  0
  8 29  1  0  0  0  0
  9 10  1  0  0  0  0
  9 30  1  0  0  0  0
 10 11  2  0  0  0  0
 10 12  1  0  0  0  0
 12 13  1  0  0  0  0
 12 31  1  0  0  0  0
 13 14  1  0  0  0  0
 13 32  1  0  0  0  0
 13 33  1  0  0  0  0
 14 15  1  0  0  0  0
 14 34  1  0  0  0  0
 14 35  1  0  0  0  0
 15 20  1  0  0  0  0
 15 16  2  0  0  0  0
 16 17  1  0  0  0  0
 16 36  1  0  0  0  0
 17 18  2  0  0  0  0
 17 37  1  0  0  0  0
 18 19  1  0  0  0  0
 18 38  1  0  0  0  0
 19 20  2  0  0  0  0
 20 39  1  0  0  0  0
M  END
> <s_m_source_file>
AV-unprocessed.smi

> <i_m_source_file_index>
1203

> <i_lp_mmshare_version>
43012

> <i_f3d_flags>
0

> <s_epik_input>
W0NIM11TKD1PKSg9TylOMVtDSDJdW0NIMl1bQ0gyXVtDQEhdMUMoPU8pW05IXVtDSDJdW0NIMl1jMltjSF1bY0hdW2NIXW5bY0hdMg==

> <s_epik_cmdline>
J2VwaWtfcHl0aG9uJywgJy1waCcsICc3LjAnLCAnLXRuJywgJzgnLCAnLW1hJywgJzIwMCcsICctbWV0YWxfYmluZGluZycsICctaW1hZScsICc8aW5maWxlLm1hZT4nLCAnLW9tYWUnLCAnPG91dGZpbGUubWFlPic=

> <r_epik_Ionization_Penalty>
0.0126915

> <r_epik_Ionization_Penalty_Charging>
0

> <r_epik_Ionization_Penalty_Neutral>
0.0126915

> <r_epik_State_Penalty>
0.0098379

> <r_epik_Charging_Adjusted_Penalty>
0.0098379

> <i_epik_Tot_Q>
0

> <i_epik_Tot_abs_Q>
0

> <r_epik_Metal_State_Penalty>
0.00962905

> <b_epik_Metal_Only>
0

> <s_lp_Force_Field>
OPLS_2005

> <r_lp_Energy>
4.44391

> <b_lp_Chiralities_Consistent>
1

> <s_lp_Variant>
AV-unprocessed.smi:1203-2

> <Gold.Version>
5.8.1

> <Gold.Id.Protein>
6NUR|6NUR_protein|mol2

> <Gold.PLP.Fitness>
46.0011

> <Gold.PLP.PLP>
-35.4370

> <Gold.PLP.part.hbond>
-2.7959

> <Gold.PLP.part.metal>
0.0000

> <Gold.PLP.part.buried>
-6.5756

> <Gold.PLP.part.nonpolar>
-26.5727

> <Gold.PLP.part.repulsive>
0.2886

> <Gold.PLP.ligand.clash>
0.0000

> <Gold.PLP.ligand.torsion>
0.8609

> <Gold.PLP.Chemscore.Hbond>
2.8960

> <Gold.PLP.Chemscore.CHOScore>
1.0000

> <Gold.PLP.Chemscore.Metal>
0.0000

> <Gold.Chemscore.Hbonds>
donor molecule, donor type, donor heavy atom, donor atom, acceptor molecule, acceptor atom, score
      P1  H  6896  6908       L1    11  1.00
      P1  H  6931  6943       L1     4  0.86
      P1  H  6934  6947       L1     3  0.57

> <Gold.PLP.Chemscore.Internal.Correction>
0.5980

> <Gold.Rescore>
     Score         DG    S(hbond)    S(metal)    S(lipo)     H(rot)  DE(clash)    DE(int)     intcor
     16.53     -17.11       2.30        0.00      75.35       1.90       0.00       0.58       ----

> <Gold.Chemscore.Fitness>
16.5297

> <Gold.Chemscore.DG>
-17.1071

> <Gold.Chemscore.ZeroCoef>
-5.4800

> <Gold.Chemscore.Hbond>
2.2971

> <Gold.Chemscore.Metal>
0.0000

> <Gold.Chemscore.Lipo>
75.3515

> <Gold.Chemscore.Internal_Hbond>
0.0000

> <Gold.Chemscore.DEClash>
0.0009

> <Gold.Chemscore.DEInternal>
0.5764

> <Gold.Chemscore.Rot>
1.8990

> <Gold.Chemscore.Internal.Correction>
   9.000000E+99

> <Gold.Chemscore.Hbonds>
donor molecule, donor type, donor heavy atom, donor atom, acceptor molecule, acceptor atom, score
      P1  H  6896  6908       L1    11  0.98
      P1  H  6931  6943       L1     4  0.29
      P1  H  6934  6947       L1     3  0.28

> <Gold.Chemscore.Hbond.Weighted>
-7.6723

> <Gold.Chemscore.Metal.Weighted>
-0.0000

> <Gold.Chemscore.Lipo.Weighted>
-8.8161

> <Gold.Chemscore.Internal_Hbond.Weighted>
0.0000

> <Gold.Chemscore.DEClash.Weighted>
0.0009

> <Gold.Chemscore.DEInternal.Weighted>
0.5764

> <Gold.Chemscore.Rot.Weighted>
4.8613

> <Gold.Chemscore.Internal.Correction.Weighted>
   9.000000E+99

> <Gold.Protein.RotatedTorsions>
[ 6907 6896 6895 6894 ] final -162.89 input  -60.11 | X-H torsion
[ 7974 7965 7964 7962 ] final  -89.13 input  175.53 | X-H torsion
[ 8008 7997 7996 7995 ] final  -76.16 input   59.86 | X-H torsion
[ 10167 10162 10161 10158 ] final   32.05 input  -65.29 | X-H torsion
[ 10718 10713 10712 10709 ] final  -65.13 input   66.30 | X-H torsion
[ 10763 10752 10751 10750 ] final  129.61 input  -60.55 | X-H torsion
[ 11005 11000 10999 10996 ] final   26.28 input  -57.11 | X-H torsion

> <Gold.Protein.ActiveResidues>
 VAL166  LYS551  ARG553  GLY616  TRP617  ASP618  TYR619  PRO620  LYS621  CYS622 
 ASP623  PHE694  ASN695  SER759  ASP760  ASP761  ALA762  ILE779  LEU786  VAL792 
 PHE793  MET794  SER795  GLU796  ALA797  LYS798  CYS799  TRP800  GLU811  SER814 

> <Gold.Protein.RotatedAtoms>
  151.3874  133.3800  159.2716 H   0  0  0  0  0  0  0  0  0  0  0  0  # atno 6907 bound_to 6896
  150.9531  134.8930  159.7695 H   0  0  0  0  0  0  0  0  0  0  0  0  # atno 6908 bound_to 6896
  152.5120  134.3830  159.9410 H   0  0  0  0  0  0  0  0  0  0  0  0  # atno 6909 bound_to 6896
  145.4440  140.9559  143.2059 H   0  0  0  0  0  0  0  0  0  0  0  0  # atno 7974 bound_to 7965
  154.5481  140.0732  156.8622 H   0  0  0  0  0  0  0  0  0  0  0  0  # atno 8008 bound_to 7997
  155.3048  140.3386  155.4228 H   0  0  0  0  0  0  0  0  0  0  0  0  # atno 8009 bound_to 7997
  156.1936  140.1695  156.8029 H   0  0  0  0  0  0  0  0  0  0  0  0  # atno 8010 bound_to 7997
  140.4534  144.1015  150.6196 H   0  0  0  0  0  0  0  0  0  0  0  0  # atno 10167 bound_to 10162
  156.0688  130.4243  150.1519 H   0  0  0  0  0  0  0  0  0  0  0  0  # atno 10718 bound_to 10713
  153.7445  135.3219  155.3310 H   0  0  0  0  0  0  0  0  0  0  0  0  # atno 10763 bound_to 10752
  154.8284  135.4552  154.0993 H   0  0  0  0  0  0  0  0  0  0  0  0  # atno 10764 bound_to 10752
  153.2178  135.6944  153.8119 H   0  0  0  0  0  0  0  0  0  0  0  0  # atno 10765 bound_to 10752
  140.3387  134.2357  155.7692 H   0  0  0  0  0  0  0  0  0  0  0  0  # atno 11005 bound_to 11000
  144.8104  139.5973  143.7032 LP  0  0  0  0  0  0  0  0  0  0  0  0  # atno 17320 bound_to 7965
  146.2541  139.6263  142.9407 LP  0  0  0  0  0  0  0  0  0  0  0  0  # atno 17321 bound_to 7965
  140.4180  143.2625  151.9750 LP  0  0  0  0  0  0  0  0  0  0  0  0  # atno 17342 bound_to 10162
  139.4799  144.5856  151.7859 LP  0  0  0  0  0  0  0  0  0  0  0  0  # atno 17343 bound_to 10162
  156.9574  130.9794  151.3486 LP  0  0  0  0  0  0  0  0  0  0  0  0  # atno 17370 bound_to 10713
  157.5746  130.8334  149.8438 LP  0  0  0  0  0  0  0  0  0  0  0  0  # atno 17371 bound_to 10713
  141.2044  133.7887  157.0288 LP  0  0  0  0  0  0  0  0  0  0  0  0  # atno 17394 bound_to 11000
  140.0799  134.9654  157.1607 LP  0  0  0  0  0  0  0  0  0  0  0  0  # atno 17395 bound_to 11000

$$$$
