AV-unprocessed.smi:3279|AV-procd|sdf|12550|dock6
  -GOLD-   2272018463D 1   1.00000     0.00000
 Structure written by MMmdl.
 36 36  0  0  0  0  0  0  0  0  1 V2000
  153.8590  137.6927  162.5365 C   0  0  0  0  0  0  0  0  0  0  0  0
  154.4128  137.5042  161.1131 C   0  0  2  0  0  0  0  0  0  0  0  0
  153.5604  138.1842  160.0199 C   0  0  0  0  0  0  0  0  0  0  0  0
  153.4937  139.6343  160.1781 N   0  0  0  0  0  0  0  0  0  0  0  0
  153.1636  140.5116  159.2174 C   0  0  0  0  0  0  0  0  0  0  0  0
  152.8455  140.1831  158.0748 O   0  0  0  0  0  0  0  0  0  0  0  0
  153.1808  141.9854  159.6138 C   0  0  0  0  0  0  0  0  0  0  0  0
  151.8827  142.5265  159.3862 O   0  0  0  0  0  0  0  0  0  0  0  0
  151.7132  143.9424  159.4912 C   0  0  0  0  0  0  0  0  0  0  0  0
  152.1111  144.4300  160.8982 C   0  0  0  0  0  0  0  0  0  0  0  0
  150.2737  144.3692  159.1392 C   0  0  0  0  0  0  0  0  0  0  0  0
  152.6878  144.5207  158.4529 C   0  0  0  0  0  0  0  0  0  0  0  0
  154.6142  136.0517  160.8075 C   0  0  0  0  0  0  0  0  0  0  0  0
  154.0277  135.3606  159.8370 N   0  0  0  0  0  0  0  0  0  0  0  0
  154.5450  134.0837  159.9826 N   0  0  0  0  0  0  0  0  0  0  0  0
  155.3841  134.0214  160.9777 N   0  0  0  0  0  0  0  0  0  0  0  0
  155.4344  135.2643  161.5072 N   0  0  0  0  0  0  0  0  0  0  0  0
  156.0097  135.5091  162.3002 H   0  0  0  0  0  0  0  0  0  0  0  0
  154.4985  137.2024  163.2713 H   0  0  0  0  0  0  0  0  0  0  0  0
  152.8590  137.2684  162.6310 H   0  0  0  0  0  0  0  0  0  0  0  0
  153.8014  138.7452  162.8117 H   0  0  0  0  0  0  0  0  0  0  0  0
  155.3985  137.9717  161.0913 H   0  0  0  0  0  0  0  0  0  0  0  0
  154.0052  137.9916  159.0429 H   0  0  0  0  0  0  0  0  0  0  0  0
  152.5607  137.7474  159.9865 H   0  0  0  0  0  0  0  0  0  0  0  0
  153.7401  140.0049  161.0847 H   0  0  0  0  0  0  0  0  0  0  0  0
  153.4631  142.0675  160.6634 H   0  0  0  0  0  0  0  0  0  0  0  0
  153.9408  142.4918  159.0196 H   0  0  0  0  0  0  0  0  0  0  0  0
  152.1267  145.5196  160.9437 H   0  0  0  0  0  0  0  0  0  0  0  0
  153.1050  144.0751  161.1720 H   0  0  0  0  0  0  0  0  0  0  0  0
  151.4135  144.0916  161.6639 H   0  0  0  0  0  0  0  0  0  0  0  0
  149.5533  144.0355  159.8861 H   0  0  0  0  0  0  0  0  0  0  0  0
  149.9668  143.9649  158.1740 H   0  0  0  0  0  0  0  0  0  0  0  0
  150.1908  145.4550  159.0823 H   0  0  0  0  0  0  0  0  0  0  0  0
  152.6586  145.6108  158.4422 H   0  0  0  0  0  0  0  0  0  0  0  0
  152.4438  144.1749  157.4477 H   0  0  0  0  0  0  0  0  0  0  0  0
  153.7150  144.2198  158.6629 H   0  0  0  0  0  0  0  0  0  0  0  0
  1  2  1  0  0  0  0
  1 19  1  0  0  0  0
  1 20  1  0  0  0  0
  1 21  1  0  0  0  0
  2  3  1  0  0  0  0
  2 13  1  0  0  0  0
  2 22  1  0  0  0  0
  3  4  1  0  0  0  0
  3 23  1  0  0  0  0
  3 24  1  0  0  0  0
  4  5  1  0  0  0  0
  4 25  1  0  0  0  0
  5  6  2  0  0  0  0
  5  7  1  0  0  0  0
  7  8  1  0  0  0  0
  7 26  1  0  0  0  0
  7 27  1  0  0  0  0
  8  9  1  0  0  0  0
  9 10  1  0  0  0  0
  9 11  1  0  0  0  0
  9 12  1  0  0  0  0
 10 28  1  0  0  0  0
 10 29  1  0  0  0  0
 10 30  1  0  0  0  0
 11 31  1  0  0  0  0
 11 32  1  0  0  0  0
 11 33  1  0  0  0  0
 12 34  1  0  0  0  0
 12 35  1  0  0  0  0
 12 36  1  0  0  0  0
 13 17  1  0  0  0  0
 13 14  2  0  0  0  0
 14 15  1  0  0  0  0
 15 16  2  0  0  0  0
 16 17  1  0  0  0  0
 17 18  1  0  0  0  0
M  END
> <s_m_source_file>
AV-unprocessed.smi

> <i_m_source_file_index>
3279

> <i_lp_mmshare_version>
43012

> <i_f3d_flags>
0

> <s_epik_input>
W25IXTFubm5jMVtDQEhdKFtDSDNdKVtDSDJdW05IXUMoPU8pW0NIMl1PQyhbQ0gzXSkoW0NIM10pW0NIM10=

> <s_epik_cmdline>
J2VwaWtfcHl0aG9uJywgJy1waCcsICc3LjAnLCAnLXRuJywgJzgnLCAnLW1hJywgJzIwMCcsICctbWV0YWxfYmluZGluZycsICctaW1hZScsICc8aW5maWxlLm1hZT4nLCAnLW9tYWUnLCAnPG91dGZpbGUubWFlPic=

> <r_lp_tautomer_probability>
0.3

> <r_epik_Ionization_Penalty>
1.45055

> <r_epik_Ionization_Penalty_Charging>
0

> <r_epik_Ionization_Penalty_Neutral>
1.45055

> <r_epik_State_Penalty>
2.31845

> <r_epik_Charging_Adjusted_Penalty>
2.31845

> <i_epik_Tot_Q>
0

> <i_epik_Tot_abs_Q>
0

> <r_epik_Metal_State_Penalty>
2.36898

> <b_epik_Metal_Only>
0

> <s_lp_Force_Field>
OPLS_2005

> <r_lp_Energy>
6.97201

> <b_lp_Chiralities_Consistent>
1

> <s_lp_Variant>
AV-unprocessed.smi:3279-3

> <Gold.Version>
5.8.1

> <Gold.Id.Protein>
6NUR|6NUR_protein|mol2

> <Gold.PLP.Fitness>
35.6163

> <Gold.PLP.PLP>
-30.7858

> <Gold.PLP.part.hbond>
-3.0000

> <Gold.PLP.part.metal>
0.0000

> <Gold.PLP.part.buried>
-4.5239

> <Gold.PLP.part.nonpolar>
-23.2590

> <Gold.PLP.part.repulsive>
0.1061

> <Gold.PLP.ligand.clash>
0.0000

> <Gold.PLP.ligand.torsion>
0.2461

> <Gold.PLP.Chemscore.Hbond>
1.7344

> <Gold.PLP.Chemscore.CHOScore>
0.0000

> <Gold.PLP.Chemscore.Metal>
0.0000

> <Gold.Chemscore.Hbonds>
donor molecule, donor type, donor heavy atom, donor atom, acceptor molecule, acceptor atom, score
      P1  H  6896  6907       L1    14  0.72
      P1  H  7997  8008       L1     6  0.99

> <Gold.PLP.Chemscore.Internal.Correction>
0.1194

> <Gold.Rescore>
     Score         DG    S(hbond)    S(metal)    S(lipo)     H(rot)  DE(clash)    DE(int)     intcor
     11.16     -11.48       1.17        0.00      77.02       2.71       0.00       0.32       ----

> <Gold.Chemscore.Fitness>
11.1564

> <Gold.Chemscore.DG>
-11.4758

> <Gold.Chemscore.ZeroCoef>
-5.4800

> <Gold.Chemscore.Hbond>
1.1739

> <Gold.Chemscore.Metal>
0.0000

> <Gold.Chemscore.Lipo>
77.0170

> <Gold.Chemscore.Internal_Hbond>
0.0000

> <Gold.Chemscore.DEClash>
0.0009

> <Gold.Chemscore.DEInternal>
0.3185

> <Gold.Chemscore.Rot>
2.7094

> <Gold.Chemscore.Internal.Correction>
   9.000000E+99

> <Gold.Chemscore.Hbonds>
donor molecule, donor type, donor heavy atom, donor atom, acceptor molecule, acceptor atom, score
      P1  H  6896  6907       L1    14  0.08
      P1  H  7997  8008       L1     6  0.62

> <Gold.Chemscore.Hbond.Weighted>
-3.9208

> <Gold.Chemscore.Metal.Weighted>
-0.0000

> <Gold.Chemscore.Lipo.Weighted>
-9.0110

> <Gold.Chemscore.Internal_Hbond.Weighted>
0.0000

> <Gold.Chemscore.DEClash.Weighted>
0.0009

> <Gold.Chemscore.DEInternal.Weighted>
0.3185

> <Gold.Chemscore.Rot.Weighted>
6.9360

> <Gold.Chemscore.Internal.Correction.Weighted>
   9.000000E+99

> <Gold.Protein.RotatedTorsions>
[ 6907 6896 6895 6894 ] final   44.80 input  -60.11 | X-H torsion
[ 7974 7965 7964 7962 ] final   32.51 input  175.53 | X-H torsion
[ 8008 7997 7996 7995 ] final  -78.38 input   59.86 | X-H torsion
[ 10167 10162 10161 10158 ] final   76.51 input  -65.29 | X-H torsion
[ 10718 10713 10712 10709 ] final  -53.59 input   66.30 | X-H torsion
[ 10763 10752 10751 10750 ] final  -23.83 input  -60.55 | X-H torsion
[ 11005 11000 10999 10996 ] final -118.20 input  -57.11 | X-H torsion

> <Gold.Protein.ActiveResidues>
 VAL166  LYS551  ARG553  GLY616  TRP617  ASP618  TYR619  PRO620  LYS621  CYS622 
 ASP623  PHE694  ASN695  SER759  ASP760  ASP761  ALA762  ILE779  LEU786  VAL792 
 PHE793  MET794  SER795  GLU796  ALA797  LYS798  CYS799  TRP800  GLU811  SER814 

> <Gold.Protein.RotatedAtoms>
  152.2369  134.8267  160.0465 H   0  0  0  0  0  0  0  0  0  0  0  0  # atno 6907 bound_to 6896
  151.8995  133.3529  159.3834 H   0  0  0  0  0  0  0  0  0  0  0  0  # atno 6908 bound_to 6896
  150.7042  134.4768  159.5495 H   0  0  0  0  0  0  0  0  0  0  0  0  # atno 6909 bound_to 6896
  146.1482  139.6517  142.9117 H   0  0  0  0  0  0  0  0  0  0  0  0  # atno 7974 bound_to 7965
  154.5684  140.0695  156.8927 H   0  0  0  0  0  0  0  0  0  0  0  0  # atno 8008 bound_to 7997
  155.2679  140.3363  155.4249 H   0  0  0  0  0  0  0  0  0  0  0  0  # atno 8009 bound_to 7997
  156.2099  140.1755  156.7703 H   0  0  0  0  0  0  0  0  0  0  0  0  # atno 8010 bound_to 7997
  139.9915  144.5753  150.7814 H   0  0  0  0  0  0  0  0  0  0  0  0  # atno 10167 bound_to 10162
  156.1522  130.4151  149.9927 H   0  0  0  0  0  0  0  0  0  0  0  0  # atno 10718 bound_to 10713
  153.6740  135.6970  153.5138 H   0  0  0  0  0  0  0  0  0  0  0  0  # atno 10763 bound_to 10752
  153.2535  135.4267  155.0821 H   0  0  0  0  0  0  0  0  0  0  0  0  # atno 10764 bound_to 10752
  154.8418  135.3537  154.6284 H   0  0  0  0  0  0  0  0  0  0  0  0  # atno 10765 bound_to 10752
  141.0302  133.9992  157.3154 H   0  0  0  0  0  0  0  0  0  0  0  0  # atno 11005 bound_to 11000
  145.4887  141.0438  143.2605 LP  0  0  0  0  0  0  0  0  0  0  0  0  # atno 17320 bound_to 7965
  144.7871  139.6403  143.7129 LP  0  0  0  0  0  0  0  0  0  0  0  0  # atno 17321 bound_to 7965
  140.7453  143.2873  151.3428 LP  0  0  0  0  0  0  0  0  0  0  0  0  # atno 17342 bound_to 10162
  139.6336  144.0673  152.2497 LP  0  0  0  0  0  0  0  0  0  0  0  0  # atno 17343 bound_to 10162
  156.7781  130.9211  151.3645 LP  0  0  0  0  0  0  0  0  0  0  0  0  # atno 17370 bound_to 10713
  157.6666  130.9013  149.9945 LP  0  0  0  0  0  0  0  0  0  0  0  0  # atno 17371 bound_to 10713
  139.9203  135.0200  156.8038 LP  0  0  0  0  0  0  0  0  0  0  0  0  # atno 17394 bound_to 11000
  140.6419  133.9810  155.7712 LP  0  0  0  0  0  0  0  0  0  0  0  0  # atno 17395 bound_to 11000

$$$$
