AV-unprocessed.smi:3240|AV-procd|sdf|12384|dock6
  -GOLD-   2272018253D 1   1.00000     0.00000
 Structure written by MMmdl.
 43 44  0  0  0  0  0  0  0  0  1 V2000
  144.8922  130.9245  151.3375 C   0  0  0  0  0  0  0  0  0  0  0  0
  144.8287  132.4182  151.1991 C   0  0  0  0  0  0  0  0  0  0  0  0
  143.8555  133.1901  150.5032 C   0  0  0  0  0  0  0  0  0  0  0  0
  144.0862  134.4910  150.5708 N   0  0  0  0  0  0  0  0  0  0  0  0
  145.2148  134.5960  151.3042 N   0  0  0  0  0  0  0  0  0  0  0  0
  145.7784  135.9048  151.5867 C   0  0  0  0  0  0  0  0  0  0  0  0
  144.7160  136.9396  152.0129 C   0  0  1  0  0  0  0  0  0  0  0  0
  143.8681  136.4592  153.2095 C   0  0  0  0  0  0  0  0  0  0  0  0
  145.3786  138.2175  152.2922 N   0  0  0  0  0  0  0  0  0  0  0  0
  146.2451  138.2384  153.4748 C   0  0  0  0  0  0  0  0  0  0  0  0
  147.1377  139.4989  153.5327 C   0  0  0  0  0  0  0  0  0  0  0  0
  147.4019  139.8768  152.1936 O   0  0  0  0  0  0  0  0  0  0  0  0
  146.4675  140.6734  154.2908 C   0  0  0  0  0  0  0  0  0  0  0  0
  147.4038  141.8818  154.4749 C   0  0  0  0  0  0  0  0  0  0  0  0
  148.7185  141.4765  155.1551 C   0  0  0  0  0  0  0  0  0  0  0  0
  149.4168  140.3565  154.3724 C   0  0  0  0  0  0  0  0  0  0  0  0
  148.4909  139.1402  154.1921 C   0  0  0  0  0  0  0  0  0  0  0  0
  145.6814  133.3607  151.7005 C   0  0  0  0  0  0  0  0  0  0  0  0
  143.8976  130.4801  151.3751 H   0  0  0  0  0  0  0  0  0  0  0  0
  145.4122  130.6234  152.2471 H   0  0  0  0  0  0  0  0  0  0  0  0
  145.4179  130.4667  150.4993 H   0  0  0  0  0  0  0  0  0  0  0  0
  142.9917  132.8446  149.9543 H   0  0  0  0  0  0  0  0  0  0  0  0
  146.5404  135.8029  152.3618 H   0  0  0  0  0  0  0  0  0  0  0  0
  146.2949  136.2456  150.6882 H   0  0  0  0  0  0  0  0  0  0  0  0
  144.0425  137.0778  151.1662 H   0  0  0  0  0  0  0  0  0  0  0  0
  143.3876  135.5034  153.0012 H   0  0  0  0  0  0  0  0  0  0  0  0
  143.0662  137.1561  153.4496 H   0  0  0  0  0  0  0  0  0  0  0  0
  144.4815  136.3321  154.1021 H   0  0  0  0  0  0  0  0  0  0  0  0
  144.6811  138.9505  152.3723 H   0  0  0  0  0  0  0  0  0  0  0  0
  145.6253  138.2027  154.3716 H   0  0  0  0  0  0  0  0  0  0  0  0
  146.8783  137.3519  153.5037 H   0  0  0  0  0  0  0  0  0  0  0  0
  148.3120  139.6994  152.0095 H   0  0  0  0  0  0  0  0  0  0  0  0
  145.5641  141.0011  153.7753 H   0  0  0  0  0  0  0  0  0  0  0  0
  146.1462  140.3270  155.2740 H   0  0  0  0  0  0  0  0  0  0  0  0
  147.6181  142.3333  153.5055 H   0  0  0  0  0  0  0  0  0  0  0  0
  146.9042  142.6496  155.0659 H   0  0  0  0  0  0  0  0  0  0  0  0
  149.3781  142.3411  155.2356 H   0  0  0  0  0  0  0  0  0  0  0  0
  148.5176  141.1428  156.1738 H   0  0  0  0  0  0  0  0  0  0  0  0
  149.7304  140.7314  153.3974 H   0  0  0  0  0  0  0  0  0  0  0  0
  150.3265  140.0542  154.8914 H   0  0  0  0  0  0  0  0  0  0  0  0
  148.3066  138.6988  155.1726 H   0  0  0  0  0  0  0  0  0  0  0  0
  149.0040  138.3733  153.6103 H   0  0  0  0  0  0  0  0  0  0  0  0
  146.5747  133.2561  152.2983 H   0  0  0  0  0  0  0  0  0  0  0  0
  1  2  1  0  0  0  0
  1 19  1  0  0  0  0
  1 20  1  0  0  0  0
  1 21  1  0  0  0  0
  2 18  2  0  0  0  0
  2  3  1  0  0  0  0
  3  4  2  0  0  0  0
  3 22  1  0  0  0  0
  4  5  1  0  0  0  0
  5  6  1  0  0  0  0
  5 18  1  0  0  0  0
  6  7  1  0  0  0  0
  6 23  1  0  0  0  0
  6 24  1  0  0  0  0
  7  8  1  0  0  0  0
  7  9  1  0  0  0  0
  7 25  1  0  0  0  0
  8 26  1  0  0  0  0
  8 27  1  0  0  0  0
  8 28  1  0  0  0  0
  9 10  1  0  0  0  0
  9 29  1  0  0  0  0
 10 11  1  0  0  0  0
 10 30  1  0  0  0  0
 10 31  1  0  0  0  0
 11 17  1  0  0  0  0
 11 12  1  0  0  0  0
 11 13  1  0  0  0  0
 12 32  1  0  0  0  0
 13 14  1  0  0  0  0
 13 33  1  0  0  0  0
 13 34  1  0  0  0  0
 14 15  1  0  0  0  0
 14 35  1  0  0  0  0
 14 36  1  0  0  0  0
 15 16  1  0  0  0  0
 15 37  1  0  0  0  0
 15 38  1  0  0  0  0
 16 17  1  0  0  0  0
 16 39  1  0  0  0  0
 16 40  1  0  0  0  0
 17 41  1  0  0  0  0
 17 42  1  0  0  0  0
 18 43  1  0  0  0  0
M  END
> <s_m_source_file>
AV-unprocessed.smi

> <i_m_source_file_index>
3240

> <i_lp_mmshare_version>
43012

> <i_f3d_flags>
0

> <s_epik_input>
W0NIM11jMVtjSF1ubihbY0hdMSlbQ0gyXVtDQEhdKFtDSDNdKVtOSF1bQ0gyXUMyKFtPSF0pW0NIMl1bQ0gyXVtDSDJdW0NIMl1bQ0gyXTI=

> <s_epik_cmdline>
J2VwaWtfcHl0aG9uJywgJy1waCcsICc3LjAnLCAnLXRuJywgJzgnLCAnLW1hJywgJzIwMCcsICctbWV0YWxfYmluZGluZycsICctaW1hZScsICc8aW5maWxlLm1hZT4nLCAnLW9tYWUnLCAnPG91dGZpbGUubWFlPic=

> <r_lp_tautomer_probability>
1

> <r_epik_Ionization_Penalty>
2.35969

> <r_epik_Ionization_Penalty_Charging>
0

> <r_epik_Ionization_Penalty_Neutral>
2.35969

> <r_epik_State_Penalty>
2.51455

> <r_epik_Charging_Adjusted_Penalty>
2.51455

> <i_epik_Tot_Q>
0

> <i_epik_Tot_abs_Q>
0

> <r_epik_Metal_State_Penalty>
2.51446

> <b_epik_Metal_Only>
0

> <s_lp_Force_Field>
OPLS_2005

> <r_lp_Energy>
22.6589

> <b_lp_Chiralities_Consistent>
1

> <s_lp_Variant>
AV-unprocessed.smi:3240-4

> <Gold.Version>
5.8.1

> <Gold.Id.Protein>
6NUR|6NUR_protein|mol2

> <Gold.PLP.Fitness>
39.7735

> <Gold.PLP.PLP>
-32.9925

> <Gold.PLP.part.hbond>
-2.5525

> <Gold.PLP.part.metal>
0.0000

> <Gold.PLP.part.buried>
-2.0687

> <Gold.PLP.part.nonpolar>
-28.9523

> <Gold.PLP.part.repulsive>
0.2247

> <Gold.PLP.ligand.clash>
0.0000

> <Gold.PLP.ligand.torsion>
0.8433

> <Gold.PLP.Chemscore.Hbond>
1.9920

> <Gold.PLP.Chemscore.CHOScore>
0.8092

> <Gold.PLP.Chemscore.Metal>
0.0000

> <Gold.Chemscore.Hbonds>
donor molecule, donor type, donor heavy atom, donor atom, acceptor molecule, acceptor atom, score
      L1  H     9    29       P1 10175  1.00
      L1  H    12    32       P1  7957  0.94
      L1  C     3    22       P1 10186  0.74

> <Gold.PLP.Chemscore.Internal.Correction>
0.0640

> <Gold.Rescore>
     Score         DG    S(hbond)    S(metal)    S(lipo)     H(rot)  DE(clash)    DE(int)     intcor
     15.21     -17.56       1.99        0.00      91.10       2.04       1.48       0.88       ----

> <Gold.Chemscore.Fitness>
15.2072

> <Gold.Chemscore.DG>
-17.5617

> <Gold.Chemscore.ZeroCoef>
-5.4800

> <Gold.Chemscore.Hbond>
1.9934

> <Gold.Chemscore.Metal>
0.0000

> <Gold.Chemscore.Lipo>
91.0953

> <Gold.Chemscore.Internal_Hbond>
0.0000

> <Gold.Chemscore.DEClash>
1.4788

> <Gold.Chemscore.DEInternal>
0.8757

> <Gold.Chemscore.Rot>
2.0447

> <Gold.Chemscore.Internal.Correction>
   9.000000E+99

> <Gold.Chemscore.Hbonds>
donor molecule, donor type, donor heavy atom, donor atom, acceptor molecule, acceptor atom, score
      L1  H     9    29       P1 10175  1.00
      L1  H    12    32       P1  7957  0.88

> <Gold.Chemscore.Hbond.Weighted>
-6.6580

> <Gold.Chemscore.Metal.Weighted>
-0.0000

> <Gold.Chemscore.Lipo.Weighted>
-10.6582

> <Gold.Chemscore.Internal_Hbond.Weighted>
0.0000

> <Gold.Chemscore.DEClash.Weighted>
1.4788

> <Gold.Chemscore.DEInternal.Weighted>
0.8757

> <Gold.Chemscore.Rot.Weighted>
5.2344

> <Gold.Chemscore.Internal.Correction.Weighted>
   9.000000E+99

> <Gold.Protein.RotatedTorsions>
[ 6907 6896 6895 6894 ] final  -27.05 input  -60.11 | X-H torsion
[ 7974 7965 7964 7962 ] final   46.63 input  175.53 | X-H torsion
[ 8008 7997 7996 7995 ] final  119.34 input   59.86 | X-H torsion
[ 10167 10162 10161 10158 ] final -109.40 input  -65.29 | X-H torsion
[ 10718 10713 10712 10709 ] final   74.11 input   66.30 | X-H torsion
[ 10763 10752 10751 10750 ] final   91.66 input  -60.55 | X-H torsion
[ 11005 11000 10999 10996 ] final   -1.94 input  -57.11 | X-H torsion

> <Gold.Protein.ActiveResidues>
 VAL166  LYS551  ARG553  GLY616  TRP617  ASP618  TYR619  PRO620  LYS621  CYS622 
 ASP623  PHE694  ASN695  SER759  ASP760  ASP761  ALA762  ILE779  LEU786  VAL792 
 PHE793  MET794  SER795  GLU796  ALA797  LYS798  CYS799  TRP800  GLU811  SER814 

> <Gold.Protein.RotatedAtoms>
  151.1524  135.0234  159.8673 H   0  0  0  0  0  0  0  0  0  0  0  0  # atno 6907 bound_to 6896
  152.5452  134.1373  159.8474 H   0  0  0  0  0  0  0  0  0  0  0  0  # atno 6908 bound_to 6896
  151.1460  133.4893  159.2628 H   0  0  0  0  0  0  0  0  0  0  0  0  # atno 6909 bound_to 6896
  146.0372  139.4836  142.9800 H   0  0  0  0  0  0  0  0  0  0  0  0  # atno 7974 bound_to 7965
  156.2591  140.2855  156.0977 H   0  0  0  0  0  0  0  0  0  0  0  0  # atno 8008 bound_to 7997
  155.1394  140.0395  157.2812 H   0  0  0  0  0  0  0  0  0  0  0  0  # atno 8009 bound_to 7997
  154.6541  140.2551  155.7187 H   0  0  0  0  0  0  0  0  0  0  0  0  # atno 8010 bound_to 7997
  140.1557  143.4162  152.1462 H   0  0  0  0  0  0  0  0  0  0  0  0  # atno 10167 bound_to 10162
  157.6578  130.9661  150.1164 H   0  0  0  0  0  0  0  0  0  0  0  0  # atno 10718 bound_to 10713
  153.2106  135.4390  155.0375 H   0  0  0  0  0  0  0  0  0  0  0  0  # atno 10763 bound_to 10752
  154.8198  135.3332  154.7074 H   0  0  0  0  0  0  0  0  0  0  0  0  # atno 10764 bound_to 10752
  153.7512  135.6998  153.5001 H   0  0  0  0  0  0  0  0  0  0  0  0  # atno 10765 bound_to 10752
  140.6529  133.9388  155.8390 H   0  0  0  0  0  0  0  0  0  0  0  0  # atno 11005 bound_to 11000
  145.6943  141.0155  143.1538 LP  0  0  0  0  0  0  0  0  0  0  0  0  # atno 17320 bound_to 7965
  144.7057  139.8570  143.7430 LP  0  0  0  0  0  0  0  0  0  0  0  0  # atno 17321 bound_to 7965
  139.5404  144.7251  151.4751 LP  0  0  0  0  0  0  0  0  0  0  0  0  # atno 17342 bound_to 10162
  140.6674  143.8367  150.6959 LP  0  0  0  0  0  0  0  0  0  0  0  0  # atno 17343 bound_to 10162
  156.2047  130.3662  149.8744 LP  0  0  0  0  0  0  0  0  0  0  0  0  # atno 17370 bound_to 10713
  156.6639  130.8793  151.3551 LP  0  0  0  0  0  0  0  0  0  0  0  0  # atno 17371 bound_to 10713
  141.0523  134.0467  157.3767 LP  0  0  0  0  0  0  0  0  0  0  0  0  # atno 17394 bound_to 11000
  139.9039  135.0174  156.7399 LP  0  0  0  0  0  0  0  0  0  0  0  0  # atno 17395 bound_to 11000

$$$$
