#       Name:                AV-unprocessed.smi:1213
#       Creating user name   scv26
#       Creation time:       Fri Mar 27 04:14:02 2020


#       File generated by GOLD software.
#

@<TRIPOS>MOLECULE
AV-unprocessed.smi:1213
    42    43     1
SMALL
NO_CHARGES


@<TRIPOS>ATOM
      1 ****        -5.1750   2.7331  -0.3023 N.pl3          1 S1                -1.0000
      2 ****        -4.5270   2.1753  -1.3426 C.2            1 S1                 0.0000
      3 ****        -4.1805   2.7123  -2.3927 O.2            1 S1                 0.0000
      4 ****        -4.1966   0.6985  -1.1032 C.3            1 S1                 0.0000
      5 ****        -2.7267   0.5093  -1.0256 N.4            1 S1                 1.0000
      6 ****        -2.3133  -0.8642  -1.4099 C.3            1 S1                 0.0000
      7 ****        -0.7813  -0.9899  -1.4623 C.3            1 S1                 0.0000
      8 ****        -0.1450  -0.5923  -0.1208 C.3            1 S1                 0.0000
      9 ****         1.3105  -0.6395  -0.2255 N.am           1 S1                 0.0000
     10 ****         2.1517  -0.7975   0.8071 C.2            1 S1                 0.0000
     11 ****         1.7761  -0.9317   1.9721 O.2            1 S1                 0.0000
     12 ****         3.4329  -0.7831   0.3994 N.am           1 S1                 0.0000
     13 ****         4.6056  -0.9087   1.1898 C.2            1 S1                 0.0000
     14 ****         4.6059  -1.0997   2.5143 N.2            1 S1                 0.0000
     15 ****         5.9010  -1.1869   3.0313 C.2            1 S1                 0.0000
     16 ****         6.8818  -1.0584   2.0796 C.2            1 S1                 0.0000
     17 ****         6.2140  -0.8246   0.4862 S.3            1 S1                 0.0000
     18 ****        -0.6191   0.8178   0.2750 C.3            1 S1                 0.0000
     19 ****        -2.1537   0.9047   0.2894 C.3            1 S1                 0.0000
     20 ****        -5.4417   3.7234  -0.3614 H              1 S1                 0.0000
     21 ****        -4.6825   0.2943  -0.2123 H              1 S1                 0.0000
     22 ****        -4.5999   0.1449  -1.9523 H              1 S1                 0.0000
     23 ****        -2.7274  -1.5816  -0.6995 H              1 S1                 0.0000
     24 ****        -2.7249  -1.1126  -2.3889 H              1 S1                 0.0000
     25 ****        -0.5050  -2.0132  -1.7191 H              1 S1                 0.0000
     26 ****        -0.3944  -0.3548  -2.2609 H              1 S1                 0.0000
     27 ****        -0.4736  -1.3057   0.6378 H              1 S1                 0.0000
     28 ****         1.7051  -0.5366  -1.1490 H              1 S1                 0.0000
     29 ****         3.5900  -0.6603  -0.5900 H              1 S1                 0.0000
     30 ****         6.0333  -1.3408   4.0920 H              1 S1                 0.0000
     31 ****         7.9522  -1.0871   2.2192 H              1 S1                 0.0000
     32 ****        -0.2298   1.0856   1.2580 H              1 S1                 0.0000
     33 ****        -0.2224   1.5544  -0.4255 H              1 S1                 0.0000
     34 ****        -2.4476   1.9244   0.5392 H              1 S1                 0.0000
     35 ****        -2.5579   0.2610   1.0723 H              1 S1                 0.0000
     36 ****        -2.3333   1.1308  -1.7179 H              1 S1                 0.0000
     37 ****        -5.3923   2.1941   0.5115 LP             1 S1                 0.0000
     38 ****        -4.3777   3.6803  -2.5481 LP             1 S1                 0.0000
     39 ****        -3.7015   2.1811  -3.0916 LP             1 S1                 0.0000
     40 ****         0.7993  -0.9262   2.1863 LP             1 S1                 0.0000
     41 ****         2.4478  -1.0462   2.7039 LP             1 S1                 0.0000
     42 ****         3.7768  -1.1716   3.0687 LP             1 S1                 0.0000
@<TRIPOS>BOND
    1    1    2 1     
    2    1   20 1     
    3    2    3 2     
    4    2    4 1     
    5    4    5 1     
    6    4   21 1     
    7    4   22 1     
    8    5   19 1     
    9    5    6 1     
   10    5   36 1     
   11    6    7 1     
   12    6   23 1     
   13    6   24 1     
   14    7    8 1     
   15    7   25 1     
   16    7   26 1     
   17    8    9 1     
   18    8   18 1     
   19    8   27 1     
   20    9   10 am    
   21    9   28 1     
   22   10   11 2     
   23   10   12 am    
   24   12   13 1     
   25   12   29 1     
   26   13   17 1     
   27   13   14 2     
   28   14   15 1     
   29   15   16 2     
   30   15   30 1     
   31   16   17 1     
   32   16   31 1     
   33   18   19 1     
   34   18   32 1     
   35   18   33 1     
   36   19   34 1     
   37   19   35 1     
   38    1   37 1     
   39    3   38 1     
   40    3   39 1     
   41   11   40 1     
   42   11   41 1     
   43   14   42 1     
@<TRIPOS>SUBSTRUCTURE
      1 S1             1
@<TRIPOS>SET
LONE_PAIRS      STATIC     ATOMS    <user>   **** ""
6 37 38 39 40 41 42
DONOR_HYDROGENS      STATIC     ATOMS    <user>   **** ""
4 20 36 28 29
ATOM$BLUE        STATIC     ATOMS    COLORGROUP SYSTEM
6 37 38 39 40 41 42
ATOM$RED        STATIC     ATOMS    COLORGROUP SYSTEM
4 20 36 28 29
