AV-unprocessed.smi:3241|AV-procd|sdf|12392|dock1
  -GOLD-   2272018263D 1   1.00000     0.00000
 Structure written by MMmdl.
 43 44  0  0  0  0  0  0  0  0  1 V2000
  147.6004  142.0927  154.0514 C   0  0  0  0  0  0  0  0  0  0  0  0
  148.7731  141.1085  154.1927 C   0  0  1  0  0  0  0  0  0  0  0  0
  149.7319  141.5660  155.3104 C   0  0  0  0  0  0  0  0  0  0  0  0
  150.9136  140.6000  155.4790 C   0  0  0  0  0  0  0  0  0  0  0  0
  150.4203  139.1716  155.7445 C   0  0  0  0  0  0  0  0  0  0  0  0
  149.4763  138.6992  154.6293 C   0  0  0  0  0  0  0  0  0  0  0  0
  148.2836  139.6632  154.4442 C   0  0  2  0  0  0  0  0  0  0  0  0
  147.5112  139.2697  153.3158 O   0  0  0  0  0  0  0  0  0  0  0  0
  147.0487  137.9271  153.3444 C   0  0  0  0  0  0  0  0  0  0  0  0
  145.9593  137.7624  152.2798 C   0  0  0  0  0  0  0  0  0  0  0  0
  146.4937  137.1224  151.0829 N   0  0  0  0  0  0  0  0  0  0  0  0
  145.5756  136.1714  150.4641 C   0  0  0  0  0  0  0  0  0  0  0  0
  144.9933  135.1924  151.4969 C   0  0  0  0  0  0  0  0  0  0  0  0
  144.9382  133.8309  150.9944 N   0  0  0  0  0  0  0  0  0  0  0  0
  143.8250  133.0505  150.7628 C   0  0  0  0  0  0  0  0  0  0  0  0
  144.2632  131.8485  150.2858 C   0  0  0  0  0  0  0  0  0  0  0  0
  145.6789  131.9916  150.2589 C   0  0  0  0  0  0  0  0  0  0  0  0
  146.0802  133.1773  150.6879 N   0  0  0  0  0  0  0  0  0  0  0  0
  146.9924  142.1177  154.9563 H   0  0  0  0  0  0  0  0  0  0  0  0
  146.9494  141.8194  153.2206 H   0  0  0  0  0  0  0  0  0  0  0  0
  147.9592  143.1049  153.8637 H   0  0  0  0  0  0  0  0  0  0  0  0
  149.3281  141.1181  153.2531 H   0  0  0  0  0  0  0  0  0  0  0  0
  150.1089  142.5656  155.0917 H   0  0  0  0  0  0  0  0  0  0  0  0
  149.1890  141.6415  156.2538 H   0  0  0  0  0  0  0  0  0  0  0  0
  151.5308  140.6139  154.5798 H   0  0  0  0  0  0  0  0  0  0  0  0
  151.5520  140.9314  156.2984 H   0  0  0  0  0  0  0  0  0  0  0  0
  151.2703  138.4936  155.8248 H   0  0  0  0  0  0  0  0  0  0  0  0
  149.9023  139.1342  156.7037 H   0  0  0  0  0  0  0  0  0  0  0  0
  150.0307  138.6213  153.6930 H   0  0  0  0  0  0  0  0  0  0  0  0
  149.1286  137.6941  154.8651 H   0  0  0  0  0  0  0  0  0  0  0  0
  147.6628  139.6571  155.3423 H   0  0  0  0  0  0  0  0  0  0  0  0
  147.8555  137.2145  153.1729 H   0  0  0  0  0  0  0  0  0  0  0  0
  146.6278  137.7124  154.3275 H   0  0  0  0  0  0  0  0  0  0  0  0
  145.1549  137.1509  152.6900 H   0  0  0  0  0  0  0  0  0  0  0  0
  145.5238  138.7321  152.0358 H   0  0  0  0  0  0  0  0  0  0  0  0
  147.3749  136.6663  151.2965 H   0  0  0  0  0  0  0  0  0  0  0  0
  144.7569  136.7121  149.9881 H   0  0  0  0  0  0  0  0  0  0  0  0
  146.0820  135.6166  149.6733 H   0  0  0  0  0  0  0  0  0  0  0  0
  145.5702  135.2153  152.4232 H   0  0  0  0  0  0  0  0  0  0  0  0
  143.9781  135.4944  151.7560 H   0  0  0  0  0  0  0  0  0  0  0  0
  142.8255  133.4125  150.9534 H   0  0  0  0  0  0  0  0  0  0  0  0
  143.6638  130.9975  149.9979 H   0  0  0  0  0  0  0  0  0  0  0  0
  146.4216  131.2729  149.9452 H   0  0  0  0  0  0  0  0  0  0  0  0
  1  2  1  0  0  0  0
  1 19  1  0  0  0  0
  1 20  1  0  0  0  0
  1 21  1  0  0  0  0
  2  7  1  0  0  0  0
  2  3  1  0  0  0  0
  2 22  1  0  0  0  0
  3  4  1  0  0  0  0
  3 23  1  0  0  0  0
  3 24  1  0  0  0  0
  4  5  1  0  0  0  0
  4 25  1  0  0  0  0
  4 26  1  0  0  0  0
  5  6  1  0  0  0  0
  5 27  1  0  0  0  0
  5 28  1  0  0  0  0
  6  7  1  0  0  0  0
  6 29  1  0  0  0  0
  6 30  1  0  0  0  0
  7  8  1  0  0  0  0
  7 31  1  0  0  0  0
  8  9  1  0  0  0  0
  9 10  1  0  0  0  0
  9 32  1  0  0  0  0
  9 33  1  0  0  0  0
 10 11  1  0  0  0  0
 10 34  1  0  0  0  0
 10 35  1  0  0  0  0
 11 12  1  0  0  0  0
 11 36  1  0  0  0  0
 12 13  1  0  0  0  0
 12 37  1  0  0  0  0
 12 38  1  0  0  0  0
 13 14  1  0  0  0  0
 13 39  1  0  0  0  0
 13 40  1  0  0  0  0
 14 18  1  0  0  0  0
 14 15  1  0  0  0  0
 15 16  2  0  0  0  0
 15 41  1  0  0  0  0
 16 17  1  0  0  0  0
 16 42  1  0  0  0  0
 17 18  2  0  0  0  0
 17 43  1  0  0  0  0
M  END
> <s_m_source_file>
AV-unprocessed.smi

> <i_m_source_file_index>
3241

> <i_lp_mmshare_version>
43012

> <i_f3d_flags>
0

> <s_epik_input>
W0NIM11bQ0BASF0xW0NIMl1bQ0gyXVtDSDJdW0NIMl1bQ0BIXTFPW0NIMl1bQ0gyXVtOSF1bQ0gyXVtDSDJdbjJbY0hdW2NIXVtjSF1uMg==

> <s_epik_cmdline>
J2VwaWtfcHl0aG9uJywgJy1waCcsICc3LjAnLCAnLXRuJywgJzgnLCAnLW1hJywgJzIwMCcsICctbWV0YWxfYmluZGluZycsICctaW1hZScsICc8aW5maWxlLm1hZT4nLCAnLW9tYWUnLCAnPG91dGZpbGUubWFlPic=

> <r_lp_tautomer_probability>
1

> <r_epik_Ionization_Penalty>
2.47055

> <r_epik_Ionization_Penalty_Charging>
0

> <r_epik_Ionization_Penalty_Neutral>
2.47055

> <r_epik_State_Penalty>
2.6322

> <r_epik_Charging_Adjusted_Penalty>
2.6322

> <i_epik_Tot_Q>
0

> <i_epik_Tot_abs_Q>
0

> <r_epik_Metal_State_Penalty>
2.63108

> <b_epik_Metal_Only>
0

> <s_lp_Force_Field>
OPLS_2005

> <r_lp_Energy>
16.4595

> <b_lp_Chiralities_Consistent>
1

> <s_lp_Variant>
AV-unprocessed.smi:3241-8

> <Gold.Version>
5.8.1

> <Gold.Id.Protein>
6NUR|6NUR_protein|mol2

> <Gold.PLP.Fitness>
42.2457

> <Gold.PLP.PLP>
-34.9562

> <Gold.PLP.part.hbond>
-2.1670

> <Gold.PLP.part.metal>
0.0000

> <Gold.PLP.part.buried>
-0.1738

> <Gold.PLP.part.nonpolar>
-34.3712

> <Gold.PLP.part.repulsive>
0.4124

> <Gold.PLP.ligand.clash>
0.0000

> <Gold.PLP.ligand.torsion>
0.9567

> <Gold.PLP.Chemscore.Hbond>
1.0000

> <Gold.PLP.Chemscore.CHOScore>
1.9985

> <Gold.PLP.Chemscore.Metal>
0.0000

> <Gold.Chemscore.Hbonds>
donor molecule, donor type, donor heavy atom, donor atom, acceptor molecule, acceptor atom, score
      L1  H    11    36       P1  7948  1.00
      L1  C    15    41       P1 10186  1.00
      L1  C    17    43       P1 10747  0.84

> <Gold.PLP.Chemscore.Internal.Correction>
0.2075

> <Gold.Rescore>
     Score         DG    S(hbond)    S(metal)    S(lipo)     H(rot)  DE(clash)    DE(int)     intcor
     13.72     -15.43       1.00        0.00      95.69       1.79       0.41       1.29       ----

> <Gold.Chemscore.Fitness>
13.7240

> <Gold.Chemscore.DG>
-15.4280

> <Gold.Chemscore.ZeroCoef>
-5.4800

> <Gold.Chemscore.Hbond>
0.9985

> <Gold.Chemscore.Metal>
0.0000

> <Gold.Chemscore.Lipo>
95.6895

> <Gold.Chemscore.Internal_Hbond>
0.0000

> <Gold.Chemscore.DEClash>
0.4131

> <Gold.Chemscore.DEInternal>
1.2909

> <Gold.Chemscore.Rot>
1.7901

> <Gold.Chemscore.Internal.Correction>
   9.000000E+99

> <Gold.Chemscore.Hbonds>
donor molecule, donor type, donor heavy atom, donor atom, acceptor molecule, acceptor atom, score
      L1  H    11    36       P1  7948  1.00

> <Gold.Chemscore.Hbond.Weighted>
-3.3351

> <Gold.Chemscore.Metal.Weighted>
-0.0000

> <Gold.Chemscore.Lipo.Weighted>
-11.1957

> <Gold.Chemscore.Internal_Hbond.Weighted>
0.0000

> <Gold.Chemscore.DEClash.Weighted>
0.4131

> <Gold.Chemscore.DEInternal.Weighted>
1.2909

> <Gold.Chemscore.Rot.Weighted>
4.5827

> <Gold.Chemscore.Internal.Correction.Weighted>
   9.000000E+99

> <Gold.Protein.RotatedTorsions>
[ 6907 6896 6895 6894 ] final  119.90 input  -60.11 | X-H torsion
[ 7974 7965 7964 7962 ] final -143.91 input  175.53 | X-H torsion
[ 8008 7997 7996 7995 ] final -121.63 input   59.86 | X-H torsion
[ 10167 10162 10161 10158 ] final  115.31 input  -65.29 | X-H torsion
[ 10718 10713 10712 10709 ] final -108.76 input   66.30 | X-H torsion
[ 10763 10752 10751 10750 ] final   85.42 input  -60.55 | X-H torsion
[ 11005 11000 10999 10996 ] final  -16.39 input  -57.11 | X-H torsion

> <Gold.Protein.ActiveResidues>
 VAL166  LYS551  ARG553  GLY616  TRP617  ASP618  TYR619  PRO620  LYS621  CYS622 
 ASP623  PHE694  ASN695  SER759  ASP760  ASP761  ALA762  ILE779  LEU786  VAL792 
 PHE793  MET794  SER795  GLU796  ALA797  LYS798  CYS799  TRP800  GLU811  SER814 

> <Gold.Protein.RotatedAtoms>
  152.4438  133.7497  159.6686 H   0  0  0  0  0  0  0  0  0  0  0  0  # atno 6907 bound_to 6896
  150.8333  133.8044  159.3096 H   0  0  0  0  0  0  0  0  0  0  0  0  # atno 6908 bound_to 6896
  151.5691  135.1065  160.0042 H   0  0  0  0  0  0  0  0  0  0  0  0  # atno 6909 bound_to 6896
  144.8335  140.5776  143.5499 H   0  0  0  0  0  0  0  0  0  0  0  0  # atno 7974 bound_to 7965
  155.1511  140.0404  157.2821 H   0  0  0  0  0  0  0  0  0  0  0  0  # atno 8008 bound_to 7997
  154.6404  140.2545  155.7302 H   0  0  0  0  0  0  0  0  0  0  0  0  # atno 8009 bound_to 7997
  156.2529  140.2857  156.0795 H   0  0  0  0  0  0  0  0  0  0  0  0  # atno 8010 bound_to 7997
  139.6326  144.7116  151.2400 H   0  0  0  0  0  0  0  0  0  0  0  0  # atno 10167 bound_to 10162
  156.0502  130.5729  150.8005 H   0  0  0  0  0  0  0  0  0  0  0  0  # atno 10718 bound_to 10713
  153.1474  135.4618  154.9586 H   0  0  0  0  0  0  0  0  0  0  0  0  # atno 10763 bound_to 10752
  154.7797  135.3184  154.8019 H   0  0  0  0  0  0  0  0  0  0  0  0  # atno 10764 bound_to 10752
  153.8530  135.6919  153.4844 H   0  0  0  0  0  0  0  0  0  0  0  0  # atno 10765 bound_to 10752
  140.8063  133.8175  155.9519 H   0  0  0  0  0  0  0  0  0  0  0  0  # atno 11005 bound_to 11000
  145.4844  139.1493  143.3744 LP  0  0  0  0  0  0  0  0  0  0  0  0  # atno 17320 bound_to 7965
  146.2636  140.4981  142.8843 LP  0  0  0  0  0  0  0  0  0  0  0  0  # atno 17321 bound_to 7965
  140.7448  143.6453  150.8298 LP  0  0  0  0  0  0  0  0  0  0  0  0  # atno 17342 bound_to 10162
  140.0080  143.5673  152.2850 LP  0  0  0  0  0  0  0  0  0  0  0  0  # atno 17343 bound_to 10162
  157.5420  131.0941  150.9815 LP  0  0  0  0  0  0  0  0  0  0  0  0  # atno 17370 bound_to 10713
  157.0095  130.5631  149.5319 LP  0  0  0  0  0  0  0  0  0  0  0  0  # atno 17371 bound_to 10713
  140.9243  134.2102  157.4906 LP  0  0  0  0  0  0  0  0  0  0  0  0  # atno 17394 bound_to 11000
  139.8717  134.9806  156.5082 LP  0  0  0  0  0  0  0  0  0  0  0  0  # atno 17395 bound_to 11000

$$$$
