#       Name:                AV-unprocessed.smi:1220
#       Creating user name   scv26
#       Creation time:       Fri Mar 27 04:17:22 2020


#       File generated by GOLD software.
#

@<TRIPOS>MOLECULE
AV-unprocessed.smi:1220
    38    39     1
SMALL
NO_CHARGES


@<TRIPOS>ATOM
      1 ****        -0.3920  -1.8883  -2.0902 C.3            1 S1                 0.0000
      2 ****         0.0310  -1.3670  -0.7069 C.3            1 S1                 0.0000
      3 ****         1.5612  -1.3919  -0.4925 C.3            1 S1                 0.0000
      4 ****         2.1384  -2.7114  -0.6734 N.pl3          1 S1                 0.0000
      5 ****         2.9670  -3.1547  -1.6826 C.2            1 S1                 0.0000
      6 ****         3.2570  -4.4637  -1.4241 C.2            1 S1                 0.0000
      7 ****         2.5549  -4.7333  -0.2161 C.2            1 S1                 0.0000
      8 ****         1.8886  -3.6816   0.2322 N.2            1 S1                 0.0000
      9 ****        -0.4797  -0.0105  -0.5304 N.am           1 S1                 0.0000
     10 ****        -0.7320   0.5774   0.6498 C.2            1 S1                 0.0000
     11 ****        -0.5605   0.0181   1.7333 O.2            1 S1                 0.0000
     12 ****        -1.2515   2.0194   0.5964 C.3            1 S1                 0.0000
     13 ****        -0.2934   3.0045   1.3000 C.3            1 S1                 0.0000
     14 ****        -1.0216   4.3389   1.4860 C.3            1 S1                 0.0000
     15 ****        -2.7707   3.9021   1.8037 S.o2           1 S1                 0.0000
     16 ****        -3.0226   3.9215   3.2524 O.2            1 S1                 0.0000
     17 ****        -3.6293   4.6532   0.8754 O.2            1 S1                 0.0000
     18 ****        -2.6397   2.1598   1.2487 C.3            1 S1                 0.0000
     19 ****        -0.1042  -2.9305  -2.2303 H              1 S1                 0.0000
     20 ****         0.0661  -1.3061  -2.8904 H              1 S1                 0.0000
     21 ****        -1.4739  -1.8336  -2.2153 H              1 S1                 0.0000
     22 ****        -0.4376  -2.0111   0.0397 H              1 S1                 0.0000
     23 ****         2.0492  -0.7065  -1.1869 H              1 S1                 0.0000
     24 ****         1.8138  -1.0475   0.5115 H              1 S1                 0.0000
     25 ****         3.2761  -2.5102  -2.4924 H              1 S1                 0.0000
     26 ****         3.8777  -5.1273  -2.0077 H              1 S1                 0.0000
     27 ****         2.5110  -5.6550   0.3453 H              1 S1                 0.0000
     28 ****        -0.6514   0.5226  -1.3706 H              1 S1                 0.0000
     29 ****        -1.3396   2.3328  -0.4455 H              1 S1                 0.0000
     30 ****        -0.0155   2.6186   2.2823 H              1 S1                 0.0000
     31 ****         0.6314   3.1377   0.7375 H              1 S1                 0.0000
     32 ****        -0.6244   4.9348   2.3078 H              1 S1                 0.0000
     33 ****        -0.9818   4.9317   0.5718 H              1 S1                 0.0000
     34 ****        -3.4504   1.9367   0.5549 H              1 S1                 0.0000
     35 ****        -2.7526   1.5205   2.1256 H              1 S1                 0.0000
     36 ****         1.3262  -3.6192   1.0567 LP             1 S1                 0.0000
     37 ****        -0.2171  -0.9206   1.7626 LP             1 S1                 0.0000
     38 ****        -0.7646   0.5026   2.5840 LP             1 S1                 0.0000
@<TRIPOS>BOND
    1    1    2 1     
    2    1   19 1     
    3    1   20 1     
    4    1   21 1     
    5    2    3 1     
    6    2    9 1     
    7    2   22 1     
    8    3    4 1     
    9    3   23 1     
   10    3   24 1     
   11    4    8 1     
   12    4    5 1     
   13    5    6 2     
   14    5   25 1     
   15    6    7 1     
   16    6   26 1     
   17    7    8 2     
   18    7   27 1     
   19    9   10 am    
   20    9   28 1     
   21   10   11 2     
   22   10   12 1     
   23   12   18 1     
   24   12   13 1     
   25   12   29 1     
   26   13   14 1     
   27   13   30 1     
   28   13   31 1     
   29   14   15 1     
   30   14   32 1     
   31   14   33 1     
   32   15   16 2     
   33   15   17 2     
   34   15   18 1     
   35   18   34 1     
   36   18   35 1     
   37    8   36 1     
   38   11   37 1     
   39   11   38 1     
@<TRIPOS>SUBSTRUCTURE
      1 S1             1
@<TRIPOS>SET
LONE_PAIRS      STATIC     ATOMS    <user>   **** ""
5 36 37 38 16 17
DONOR_HYDROGENS      STATIC     ATOMS    <user>   **** ""
1 28
ATOM$BLUE        STATIC     ATOMS    COLORGROUP SYSTEM
5 36 37 38 16 17
ATOM$RED        STATIC     ATOMS    COLORGROUP SYSTEM
1 28
