AV-unprocessed.smi:281|AV-procd|sdf|2107|dock1
  -GOLD-   2262021403D 1   1.00000     0.00000
 Structure written by MMmdl.
 55 59  0  0  0  0  0  0  0  0  1 V2000
  141.5183  135.1494  153.6113 C   0  0  0  0  0  0  0  0  0  0  0  0
  142.9883  135.0023  153.2067 C   0  0  2  0  0  0  0  0  0  0  0  0
  143.6763  136.3662  153.0281 C   0  0  0  0  0  0  0  0  0  0  0  0
  145.0367  136.1733  152.5445 N   0  0  0  0  0  0  0  0  0  0  0  0
  145.8692  137.2358  152.6764 C   0  0  0  0  0  0  0  0  0  0  0  0
  146.2405  137.9466  151.5781 N   0  0  0  0  0  0  0  0  0  0  0  0
  147.0646  138.9914  151.6975 C   0  0  0  0  0  0  0  0  0  0  0  0
  147.6298  139.4867  152.7999 N   0  0  0  0  0  0  0  0  0  0  0  0
  147.2655  138.7757  153.9052 C   0  0  0  0  0  0  0  0  0  0  0  0
  146.3987  137.6467  153.9324 C   0  0  0  0  0  0  0  0  0  0  0  0
  146.2806  137.1738  155.2341 N   0  0  0  0  0  0  0  0  0  0  0  0
  147.0285  137.9803  155.9361 C   0  0  0  0  0  0  0  0  0  0  0  0
  147.6518  138.9771  155.2194 N   0  0  0  0  0  0  0  0  0  0  0  0
  148.5445  140.0014  155.7407 C   0  0  0  0  0  0  0  0  0  0  0  0
  149.9018  140.0817  155.0024 C   0  0  2  0  0  0  0  0  0  0  0  0
  149.7245  140.7649  153.7737 O   0  0  0  0  0  0  0  0  0  0  0  0
  150.4900  138.7077  154.7054 C   0  0  0  0  0  0  0  0  0  0  0  0
  151.9891  138.9725  154.7110 C   0  0  0  0  0  0  0  0  0  0  0  0
  152.1425  139.8872  155.7825 O   0  0  0  0  0  0  0  0  0  0  0  0
  151.0306  140.7778  155.7916 C   0  0  0  0  0  0  0  0  0  0  0  0
  145.1140  135.3750  151.3245 C   0  0  0  0  0  0  0  0  0  0  0  0
  144.3610  134.0293  151.4900 C   0  0  1  0  0  0  0  0  0  0  0  0
  144.2042  133.3406  150.1403 C   0  0  0  0  0  0  0  0  0  0  0  0
  145.4554  132.4830  150.0493 C   0  0  0  0  0  0  0  0  0  0  0  0
  145.5978  131.9748  151.3642 O   0  0  0  0  0  0  0  0  0  0  0  0
  145.0911  132.9205  152.3043 C   0  0  1  0  0  0  0  0  0  0  0  0
  146.2322  133.3516  153.2421 C   0  0  0  0  0  0  0  0  0  0  0  0
  143.0395  134.2840  151.9752 O   0  0  0  0  0  0  0  0  0  0  0  0
  141.4236  135.6846  154.5563 H   0  0  0  0  0  0  0  0  0  0  0  0
  141.0491  134.1729  153.7338 H   0  0  0  0  0  0  0  0  0  0  0  0
  140.9541  135.6983  152.8567 H   0  0  0  0  0  0  0  0  0  0  0  0
  143.5004  134.4331  153.9832 H   0  0  0  0  0  0  0  0  0  0  0  0
  143.1296  136.9721  152.3043 H   0  0  0  0  0  0  0  0  0  0  0  0
  143.6596  136.9105  153.9718 H   0  0  0  0  0  0  0  0  0  0  0  0
  147.3074  139.5024  150.7774 H   0  0  0  0  0  0  0  0  0  0  0  0
  147.1492  137.8646  157.0032 H   0  0  0  0  0  0  0  0  0  0  0  0
  148.0285  140.9606  155.6834 H   0  0  0  0  0  0  0  0  0  0  0  0
  148.7061  139.8062  156.8017 H   0  0  0  0  0  0  0  0  0  0  0  0
  149.5020  140.1323  153.1079 H   0  0  0  0  0  0  0  0  0  0  0  0
  150.2509  138.0116  155.5103 H   0  0  0  0  0  0  0  0  0  0  0  0
  150.1344  138.2694  153.7720 H   0  0  0  0  0  0  0  0  0  0  0  0
  152.5782  138.0684  154.8657 H   0  0  0  0  0  0  0  0  0  0  0  0
  152.3092  139.4402  153.7786 H   0  0  0  0  0  0  0  0  0  0  0  0
  151.3139  141.7352  155.3512 H   0  0  0  0  0  0  0  0  0  0  0  0
  150.7582  140.9637  156.8301 H   0  0  0  0  0  0  0  0  0  0  0  0
  144.6613  135.9525  150.5168 H   0  0  0  0  0  0  0  0  0  0  0  0
  146.1529  135.1996  151.0429 H   0  0  0  0  0  0  0  0  0  0  0  0
  143.3278  132.6903  150.1475 H   0  0  0  0  0  0  0  0  0  0  0  0
  144.0969  134.0303  149.3025 H   0  0  0  0  0  0  0  0  0  0  0  0
  145.3678  131.6810  149.3163 H   0  0  0  0  0  0  0  0  0  0  0  0
  146.3272  133.0879  149.7961 H   0  0  0  0  0  0  0  0  0  0  0  0
  144.3527  132.3778  152.8959 H   0  0  0  0  0  0  0  0  0  0  0  0
  145.8825  134.0352  154.0151 H   0  0  0  0  0  0  0  0  0  0  0  0
  147.0412  133.8381  152.6976 H   0  0  0  0  0  0  0  0  0  0  0  0
  146.6580  132.4848  153.7477 H   0  0  0  0  0  0  0  0  0  0  0  0
  1  2  1  0  0  0  0
  1 29  1  0  0  0  0
  1 30  1  0  0  0  0
  1 31  1  0  0  0  0
  2 28  1  0  0  0  0
  2  3  1  0  0  0  0
  2 32  1  0  0  0  0
  3  4  1  0  0  0  0
  3 33  1  0  0  0  0
  3 34  1  0  0  0  0
  4  5  1  0  0  0  0
  4 21  1  0  0  0  0
  5 10  1  0  0  0  0
  5  6  2  0  0  0  0
  6  7  1  0  0  0  0
  7  8  2  0  0  0  0
  7 35  1  0  0  0  0
  8  9  1  0  0  0  0
  9 13  1  0  0  0  0
  9 10  2  0  0  0  0
 10 11  1  0  0  0  0
 11 12  2  0  0  0  0
 12 13  1  0  0  0  0
 12 36  1  0  0  0  0
 13 14  1  0  0  0  0
 14 15  1  0  0  0  0
 14 37  1  0  0  0  0
 14 38  1  0  0  0  0
 15 20  1  0  0  0  0
 15 16  1  0  0  0  0
 15 17  1  0  0  0  0
 16 39  1  0  0  0  0
 17 18  1  0  0  0  0
 17 40  1  0  0  0  0
 17 41  1  0  0  0  0
 18 19  1  0  0  0  0
 18 42  1  0  0  0  0
 18 43  1  0  0  0  0
 19 20  1  0  0  0  0
 20 44  1  0  0  0  0
 20 45  1  0  0  0  0
 21 22  1  0  0  0  0
 21 46  1  0  0  0  0
 21 47  1  0  0  0  0
 22 26  1  0  0  0  0
 22 23  1  0  0  0  0
 22 28  1  0  0  0  0
 23 24  1  0  0  0  0
 23 48  1  0  0  0  0
 23 49  1  0  0  0  0
 24 25  1  0  0  0  0
 24 50  1  0  0  0  0
 24 51  1  0  0  0  0
 25 26  1  0  0  0  0
 26 27  1  0  0  0  0
 26 52  1  0  0  0  0
 27 53  1  0  0  0  0
 27 54  1  0  0  0  0
 27 55  1  0  0  0  0
M  END
> <s_m_source_file>
AV-unprocessed.smi

> <i_m_source_file_index>
281

> <i_lp_mmshare_version>
43012

> <i_f3d_flags>
0

> <s_epik_input>
W0NIM11bQ0BASF0xT1tDSDJdW0NIMl1bQ0BAXTEyW0NIMl1OKFtDSDJdW0NASF0oTzIpW0NIM10pYyhuW2NIXW4zKWMoYzM0KW5bY0hdbjRbQ0gyXVtDQEBdNShbT0hdKVtDSDJdW0NIMl1PW0NIMl01

> <s_epik_cmdline>
J2VwaWtfcHl0aG9uJywgJy1waCcsICc3LjAnLCAnLXRuJywgJzgnLCAnLW1hJywgJzIwMCcsICctbWV0YWxfYmluZGluZycsICctaW1hZScsICc8aW5maWxlLm1hZT4nLCAnLW9tYWUnLCAnPG91dGZpbGUubWFlPic=

> <r_lp_tautomer_probability>
1

> <r_epik_Ionization_Penalty>
0.00571331

> <r_epik_Ionization_Penalty_Charging>
0

> <r_epik_Ionization_Penalty_Neutral>
0.00571331

> <r_epik_State_Penalty>
0.00399586

> <r_epik_Charging_Adjusted_Penalty>
0.00399586

> <i_epik_Tot_Q>
0

> <i_epik_Tot_abs_Q>
0

> <r_epik_Metal_State_Penalty>
-0

> <b_epik_Metal_Only>
0

> <s_lp_Force_Field>
OPLS_2005

> <r_lp_Energy>
55.2886

> <b_lp_Chiralities_Consistent>
1

> <s_lp_Variant>
AV-unprocessed.smi:281-7

> <Gold.Version>
5.8.1

> <Gold.Id.Protein>
6NUR|6NUR_protein|mol2

> <Gold.PLP.Fitness>
44.1702

> <Gold.PLP.PLP>
-38.5319

> <Gold.PLP.part.hbond>
-2.9759

> <Gold.PLP.part.metal>
0.0000

> <Gold.PLP.part.buried>
-6.0542

> <Gold.PLP.part.nonpolar>
-34.3138

> <Gold.PLP.part.repulsive>
4.9182

> <Gold.PLP.ligand.clash>
0.0000

> <Gold.PLP.ligand.torsion>
0.8100

> <Gold.PLP.Chemscore.Hbond>
1.8363

> <Gold.PLP.Chemscore.CHOScore>
0.4517

> <Gold.PLP.Chemscore.Metal>
0.0000

> <Gold.Chemscore.Hbonds>
donor molecule, donor type, donor heavy atom, donor atom, acceptor molecule, acceptor atom, score
      L1  H    16    39       P1  7957  0.72
      P1  H  7989  7998       L1    16  0.29
      P1  H  7997  8008       L1    19  0.44
      P1  H  8011  8017       L1    16  0.39
      L1  C     7    35       P1  7957  0.44

> <Gold.PLP.Chemscore.Internal.Correction>
0.3945

> <Gold.Rescore>
     Score         DG    S(hbond)    S(metal)    S(lipo)     H(rot)  DE(clash)    DE(int)     intcor
     10.91     -15.23       1.59        0.00      83.81       2.09       3.51       0.81       ----

> <Gold.Chemscore.Fitness>
10.9093

> <Gold.Chemscore.DG>
-15.2301

> <Gold.Chemscore.ZeroCoef>
-5.4800

> <Gold.Chemscore.Hbond>
1.5873

> <Gold.Chemscore.Metal>
0.0000

> <Gold.Chemscore.Lipo>
83.8121

> <Gold.Chemscore.Internal_Hbond>
0.0000

> <Gold.Chemscore.DEClash>
3.5075

> <Gold.Chemscore.DEInternal>
0.8133

> <Gold.Chemscore.Rot>
2.0927

> <Gold.Chemscore.Internal.Correction>
   9.000000E+99

> <Gold.Chemscore.Hbonds>
donor molecule, donor type, donor heavy atom, donor atom, acceptor molecule, acceptor atom, score
      L1  H    16    39       P1  7957  0.71
      P1  H  7989  7998       L1    16  0.01
      P1  H  7997  8008       L1    19  0.30
      P1  H  8011  8017       L1    16  0.03

> <Gold.Chemscore.Hbond.Weighted>
-5.3015

> <Gold.Chemscore.Metal.Weighted>
-0.0000

> <Gold.Chemscore.Lipo.Weighted>
-9.8060

> <Gold.Chemscore.Internal_Hbond.Weighted>
0.0000

> <Gold.Chemscore.DEClash.Weighted>
3.5075

> <Gold.Chemscore.DEInternal.Weighted>
0.8133

> <Gold.Chemscore.Rot.Weighted>
5.3573

> <Gold.Chemscore.Internal.Correction.Weighted>
   9.000000E+99

> <Gold.Protein.RotatedTorsions>
[ 6907 6896 6895 6894 ] final  -78.48 input  -60.11 | X-H torsion
[ 7974 7965 7964 7962 ] final -149.24 input  175.53 | X-H torsion
[ 8008 7997 7996 7995 ] final  -36.30 input   59.86 | X-H torsion
[ 10167 10162 10161 10158 ] final -114.49 input  -65.29 | X-H torsion
[ 10718 10713 10712 10709 ] final   13.15 input   66.30 | X-H torsion
[ 10763 10752 10751 10750 ] final -103.35 input  -60.55 | X-H torsion
[ 11005 11000 10999 10996 ] final -109.90 input  -57.11 | X-H torsion

> <Gold.Protein.ActiveResidues>
 VAL166  LYS551  ARG553  GLY616  TRP617  ASP618  TYR619  PRO620  LYS621  CYS622 
 ASP623  PHE694  ASN695  SER759  ASP760  ASP761  ALA762  ILE779  LEU786  VAL792 
 PHE793  MET794  SER795  GLU796  ALA797  LYS798  CYS799  TRP800  GLU811  SER814 

> <Gold.Protein.RotatedAtoms>
  150.6972  134.4265  159.5228 H   0  0  0  0  0  0  0  0  0  0  0  0  # atno 6907 bound_to 6896
  152.1999  134.8594  160.0518 H   0  0  0  0  0  0  0  0  0  0  0  0  # atno 6908 bound_to 6896
  151.9518  133.3633  159.4040 H   0  0  0  0  0  0  0  0  0  0  0  0  # atno 6909 bound_to 6896
  144.7980  140.5091  143.5727 H   0  0  0  0  0  0  0  0  0  0  0  0  # atno 7974 bound_to 7965
  154.4076  140.1634  156.2352 H   0  0  0  0  0  0  0  0  0  0  0  0  # atno 8008 bound_to 7997
  155.9249  140.3419  155.6179 H   0  0  0  0  0  0  0  0  0  0  0  0  # atno 8009 bound_to 7997
  155.7178  140.0764  157.2334 H   0  0  0  0  0  0  0  0  0  0  0  0  # atno 8010 bound_to 7997
  140.1004  143.4618  152.1816 H   0  0  0  0  0  0  0  0  0  0  0  0  # atno 10167 bound_to 10162
  157.0205  130.6153  149.5720 H   0  0  0  0  0  0  0  0  0  0  0  0  # atno 10718 bound_to 10713
  154.7801  135.4826  153.9826 H   0  0  0  0  0  0  0  0  0  0  0  0  # atno 10763 bound_to 10752
  153.1482  135.6786  153.8929 H   0  0  0  0  0  0  0  0  0  0  0  0  # atno 10764 bound_to 10752
  153.8582  135.3158  155.3414 H   0  0  0  0  0  0  0  0  0  0  0  0  # atno 10765 bound_to 10752
  141.0822  133.9200  157.2264 H   0  0  0  0  0  0  0  0  0  0  0  0  # atno 11005 bound_to 11000
  145.5625  139.1480  143.3333 LP  0  0  0  0  0  0  0  0  0  0  0  0  # atno 17320 bound_to 7965
  146.2253  140.5761  142.8999 LP  0  0  0  0  0  0  0  0  0  0  0  0  # atno 17321 bound_to 7965
  139.5675  144.7443  151.3983 LP  0  0  0  0  0  0  0  0  0  0  0  0  # atno 17342 bound_to 10162
  140.6981  143.7699  150.7359 LP  0  0  0  0  0  0  0  0  0  0  0  0  # atno 17343 bound_to 10162
  156.0104  130.5195  150.7969 LP  0  0  0  0  0  0  0  0  0  0  0  0  # atno 17370 bound_to 10713
  157.5253  131.0934  151.0025 LP  0  0  0  0  0  0  0  0  0  0  0  0  # atno 17371 bound_to 10713
  139.9637  135.0147  156.9329 LP  0  0  0  0  0  0  0  0  0  0  0  0  # atno 17394 bound_to 11000
  140.5443  134.0689  155.7350 LP  0  0  0  0  0  0  0  0  0  0  0  0  # atno 17395 bound_to 11000

$$$$
