AV-unprocessed.smi:2222|AV-procd|sdf|8988|dock4
  -GOLD-   2272012203D 1   1.00000     0.00000
 Structure written by MMmdl.
 34 35  0  0  0  0  0  0  0  0  1 V2000
  149.1020  145.2202  160.3832 C   0  0  0  0  0  0  0  0  0  0  0  0
  149.8576  144.7462  159.2781 O   0  0  0  0  0  0  0  0  0  0  0  0
  150.9636  143.9584  159.5319 C   0  0  0  0  0  0  0  0  0  0  0  0
  151.7530  144.0683  160.7050 C   0  0  0  0  0  0  0  0  0  0  0  0
  152.8624  143.2218  160.8731 C   0  0  0  0  0  0  0  0  0  0  0  0
  153.1459  142.2890  159.8598 C   0  0  0  0  0  0  0  0  0  0  0  0
  154.3247  141.3454  159.9733 C   0  0  0  0  0  0  0  0  0  0  0  0
  152.4034  142.1754  158.7404 N   0  0  0  0  0  0  0  0  0  0  0  0
  151.3307  142.9864  158.5658 C   0  0  0  0  0  0  0  0  0  0  0  0
  150.5005  142.9307  157.4131 N   0  0  0  0  0  0  0  0  0  0  0  0
  150.3932  141.9486  156.4962 C   0  0  0  0  0  0  0  0  0  0  0  0
  150.9961  140.8778  156.5429 O   0  0  0  0  0  0  0  0  0  0  0  0
  149.5190  142.2093  155.5075 N   0  0  0  0  0  0  0  0  0  0  0  0
  149.1797  141.3775  154.3918 C   0  0  1  0  0  0  0  0  0  0  0  0
  149.0933  139.8910  154.6598 C   0  0  0  0  0  0  0  0  0  0  0  0
  147.8365  140.6772  154.3992 C   0  0  2  0  0  0  0  0  0  0  0  0
  147.0642  140.4640  153.1156 C   0  0  0  0  0  0  0  0  0  0  0  0
  148.2720  145.8248  160.0176 H   0  0  0  0  0  0  0  0  0  0  0  0
  149.7052  145.8506  161.0381 H   0  0  0  0  0  0  0  0  0  0  0  0
  148.6802  144.3968  160.9611 H   0  0  0  0  0  0  0  0  0  0  0  0
  151.5307  144.7853  161.4804 H   0  0  0  0  0  0  0  0  0  0  0  0
  153.4772  143.2901  161.7585 H   0  0  0  0  0  0  0  0  0  0  0  0
  154.8003  141.4225  160.9512 H   0  0  0  0  0  0  0  0  0  0  0  0
  155.0690  141.5782  159.2114 H   0  0  0  0  0  0  0  0  0  0  0  0
  154.0009  140.3135  159.8343 H   0  0  0  0  0  0  0  0  0  0  0  0
  149.9234  143.7451  157.2620 H   0  0  0  0  0  0  0  0  0  0  0  0
  148.9912  143.0662  155.5911 H   0  0  0  0  0  0  0  0  0  0  0  0
  149.5937  141.6409  153.4196 H   0  0  0  0  0  0  0  0  0  0  0  0
  149.4446  139.2211  153.8775 H   0  0  0  0  0  0  0  0  0  0  0  0
  149.2631  139.5437  155.6771 H   0  0  0  0  0  0  0  0  0  0  0  0
  147.2018  140.8622  155.2640 H   0  0  0  0  0  0  0  0  0  0  0  0
  147.7417  140.2842  152.2803 H   0  0  0  0  0  0  0  0  0  0  0  0
  146.4626  141.3446  152.8913 H   0  0  0  0  0  0  0  0  0  0  0  0
  146.4006  139.6051  153.2165 H   0  0  0  0  0  0  0  0  0  0  0  0
  1  2  1  0  0  0  0
  1 18  1  0  0  0  0
  1 19  1  0  0  0  0
  1 20  1  0  0  0  0
  2  3  1  0  0  0  0
  3  9  1  0  0  0  0
  3  4  2  0  0  0  0
  4  5  1  0  0  0  0
  4 21  1  0  0  0  0
  5  6  2  0  0  0  0
  5 22  1  0  0  0  0
  6  7  1  0  0  0  0
  6  8  1  0  0  0  0
  7 23  1  0  0  0  0
  7 24  1  0  0  0  0
  7 25  1  0  0  0  0
  8  9  2  0  0  0  0
  9 10  1  0  0  0  0
 10 11  1  0  0  0  0
 10 26  1  0  0  0  0
 11 12  2  0  0  0  0
 11 13  1  0  0  0  0
 13 14  1  0  0  0  0
 13 27  1  0  0  0  0
 14 16  1  0  0  0  0
 14 15  1  0  0  0  0
 14 28  1  0  0  0  0
 15 16  1  0  0  0  0
 15 29  1  0  0  0  0
 15 30  1  0  0  0  0
 16 17  1  0  0  0  0
 16 31  1  0  0  0  0
 17 32  1  0  0  0  0
 17 33  1  0  0  0  0
 17 34  1  0  0  0  0
M  END
> <s_m_source_file>
AV-unprocessed.smi

> <i_m_source_file_index>
2222

> <i_lp_mmshare_version>
43012

> <i_f3d_flags>
0

> <s_epik_input>
W0NIM11PYzFbY0hdW2NIXWMoW0NIM10pbmMxW05IXUMoPU8pW05IXVtDQEBIXTJbQ0gyXVtDQEhdMltDSDNd

> <s_epik_cmdline>
J2VwaWtfcHl0aG9uJywgJy1waCcsICc3LjAnLCAnLXRuJywgJzgnLCAnLW1hJywgJzIwMCcsICctbWV0YWxfYmluZGluZycsICctaW1hZScsICc8aW5maWxlLm1hZT4nLCAnLW9tYWUnLCAnPG91dGZpbGUubWFlPic=

> <r_lp_tautomer_probability>
1

> <r_epik_Ionization_Penalty>
6.59103e-05

> <r_epik_Ionization_Penalty_Charging>
0

> <r_epik_Ionization_Penalty_Neutral>
6.59103e-05

> <r_epik_State_Penalty>
-0

> <r_epik_Charging_Adjusted_Penalty>
0

> <i_epik_Tot_Q>
0

> <i_epik_Tot_abs_Q>
0

> <r_epik_Metal_State_Penalty>
-0

> <b_epik_Metal_Only>
0

> <s_lp_Force_Field>
OPLS_2005

> <r_lp_Energy>
33.3795

> <b_lp_Chiralities_Consistent>
1

> <s_lp_Variant>
AV-unprocessed.smi:2222-4

> <Gold.Version>
5.8.1

> <Gold.Id.Protein>
6NUR|6NUR_protein|mol2

> <Gold.PLP.Fitness>
39.5756

> <Gold.PLP.PLP>
-36.0680

> <Gold.PLP.part.hbond>
-2.0000

> <Gold.PLP.part.metal>
0.0000

> <Gold.PLP.part.buried>
-4.0306

> <Gold.PLP.part.nonpolar>
-29.8886

> <Gold.PLP.part.repulsive>
0.8959

> <Gold.PLP.ligand.clash>
0.0000

> <Gold.PLP.ligand.torsion>
0.6802

> <Gold.PLP.Chemscore.Hbond>
1.6115

> <Gold.PLP.Chemscore.CHOScore>
0.0000

> <Gold.PLP.Chemscore.Metal>
0.0000

> <Gold.Chemscore.Hbonds>
donor molecule, donor type, donor heavy atom, donor atom, acceptor molecule, acceptor atom, score
      L1  H    10    26       P1  8028  0.61
      L1  H    13    27       P1  8028  1.00

> <Gold.PLP.Chemscore.Internal.Correction>
0.0335

> <Gold.Rescore>
     Score         DG    S(hbond)    S(metal)    S(lipo)     H(rot)  DE(clash)    DE(int)     intcor
     15.72     -18.74       1.79        0.00      88.72       1.22       0.32       2.70       ----

> <Gold.Chemscore.Fitness>
15.7201

> <Gold.Chemscore.DG>
-18.7397

> <Gold.Chemscore.ZeroCoef>
-5.4800

> <Gold.Chemscore.Hbond>
1.7947

> <Gold.Chemscore.Metal>
0.0000

> <Gold.Chemscore.Lipo>
88.7212

> <Gold.Chemscore.Internal_Hbond>
0.0000

> <Gold.Chemscore.DEClash>
0.3161

> <Gold.Chemscore.DEInternal>
2.7036

> <Gold.Chemscore.Rot>
1.2168

> <Gold.Chemscore.Internal.Correction>
   9.000000E+99

> <Gold.Chemscore.Hbonds>
donor molecule, donor type, donor heavy atom, donor atom, acceptor molecule, acceptor atom, score
      L1  H    10    26       P1  8028  0.52
      L1  H    13    27       P1  8028  0.97

> <Gold.Chemscore.Hbond.Weighted>
-5.9944

> <Gold.Chemscore.Metal.Weighted>
-0.0000

> <Gold.Chemscore.Lipo.Weighted>
-10.3804

> <Gold.Chemscore.Internal_Hbond.Weighted>
0.0000

> <Gold.Chemscore.DEClash.Weighted>
0.3161

> <Gold.Chemscore.DEInternal.Weighted>
2.7036

> <Gold.Chemscore.Rot.Weighted>
3.1150

> <Gold.Chemscore.Internal.Correction.Weighted>
   9.000000E+99

> <Gold.Protein.RotatedTorsions>
[ 6907 6896 6895 6894 ] final  177.98 input  -60.11 | X-H torsion
[ 7974 7965 7964 7962 ] final  158.81 input  175.53 | X-H torsion
[ 8008 7997 7996 7995 ] final   76.19 input   59.86 | X-H torsion
[ 10167 10162 10161 10158 ] final  115.43 input  -65.29 | X-H torsion
[ 10718 10713 10712 10709 ] final -174.61 input   66.30 | X-H torsion
[ 10763 10752 10751 10750 ] final   18.26 input  -60.55 | X-H torsion
[ 11005 11000 10999 10996 ] final  -23.80 input  -57.11 | X-H torsion

> <Gold.Protein.ActiveResidues>
 VAL166  LYS551  ARG553  GLY616  TRP617  ASP618  TYR619  PRO620  LYS621  CYS622 
 ASP623  PHE694  ASN695  SER759  ASP760  ASP761  ALA762  ILE779  LEU786  VAL792 
 PHE793  MET794  SER795  GLU796  ALA797  LYS798  CYS799  TRP800  GLU811  SER814 

> <Gold.Protein.RotatedAtoms>
  151.6953  133.3311  159.3252 H   0  0  0  0  0  0  0  0  0  0  0  0  # atno 6907 bound_to 6896
  150.7760  134.6663  159.6376 H   0  0  0  0  0  0  0  0  0  0  0  0  # atno 6908 bound_to 6896
  152.3803  134.6604  160.0197 H   0  0  0  0  0  0  0  0  0  0  0  0  # atno 6909 bound_to 6896
  144.7825  139.7530  143.6254 H   0  0  0  0  0  0  0  0  0  0  0  0  # atno 7974 bound_to 7965
  155.8237  140.3469  155.5530 H   0  0  0  0  0  0  0  0  0  0  0  0  # atno 8008 bound_to 7997
  155.8315  140.0928  157.1810 H   0  0  0  0  0  0  0  0  0  0  0  0  # atno 8009 bound_to 7997
  154.4004  140.1411  156.3607 H   0  0  0  0  0  0  0  0  0  0  0  0  # atno 8010 bound_to 7997
  139.6318  144.7115  151.2417 H   0  0  0  0  0  0  0  0  0  0  0  0  # atno 10167 bound_to 10162
  156.7876  130.9506  151.3120 H   0  0  0  0  0  0  0  0  0  0  0  0  # atno 10718 bound_to 10713
  153.1265  135.6731  153.9248 H   0  0  0  0  0  0  0  0  0  0  0  0  # atno 10763 bound_to 10752
  153.8748  135.3065  155.3444 H   0  0  0  0  0  0  0  0  0  0  0  0  # atno 10764 bound_to 10752
  154.7669  135.4959  153.9653 H   0  0  0  0  0  0  0  0  0  0  0  0  # atno 10765 bound_to 10752
  140.8785  133.7670  156.0273 H   0  0  0  0  0  0  0  0  0  0  0  0  # atno 11005 bound_to 11000
  146.2040  139.5352  142.9725 LP  0  0  0  0  0  0  0  0  0  0  0  0  # atno 17320 bound_to 7965
  145.6012  141.0355  143.2017 LP  0  0  0  0  0  0  0  0  0  0  0  0  # atno 17321 bound_to 7965
  140.7443  143.6467  150.8285 LP  0  0  0  0  0  0  0  0  0  0  0  0  # atno 17342 bound_to 10162
  140.0093  143.5660  152.2845 LP  0  0  0  0  0  0  0  0  0  0  0  0  # atno 17343 bound_to 10162
  157.6616  130.8971  149.9842 LP  0  0  0  0  0  0  0  0  0  0  0  0  # atno 17370 bound_to 10713
  156.1179  130.3647  149.9937 LP  0  0  0  0  0  0  0  0  0  0  0  0  # atno 17371 bound_to 10713
  140.8489  134.2978  157.5283 LP  0  0  0  0  0  0  0  0  0  0  0  0  # atno 17394 bound_to 11000
  139.8717  134.9457  156.3917 LP  0  0  0  0  0  0  0  0  0  0  0  0  # atno 17395 bound_to 11000

$$$$
