#       Name:                AV-unprocessed.smi:2648
#       Creating user name   scv26
#       Creation time:       Fri Mar 27 14:30:07 2020


#       File generated by GOLD software.
#

@<TRIPOS>MOLECULE
AV-unprocessed.smi:2648
    39    40     1
SMALL
NO_CHARGES


@<TRIPOS>ATOM
      1 ****        -0.3794   1.4085  -0.4882 O.2            1 S1                 0.0000
      2 ****        -0.8674   0.2813  -0.5670 C.2            1 S1                 0.0000
      3 ****        -0.1337  -0.8394  -0.6200 N.am           1 S1                 0.0000
      4 ****         1.3227  -0.8846  -0.5866 C.3            1 S1                 0.0000
      5 ****         1.8549  -0.7917   0.8547 C.3            1 S1                 0.0000
      6 ****         3.3175  -0.8736   0.8836 N.am           1 S1                 0.0000
      7 ****         4.0050  -2.0156   0.9792 C.2            1 S1                 0.0000
      8 ****         3.5614  -3.1607   1.0697 O.2            1 S1                 0.0000
      9 ****         5.4747  -1.6661   0.9462 C.3            1 S1                 0.0000
     10 ****         5.4467  -0.2270   0.8136 N.pl3          1 S1                -1.0000
     11 ****         4.1548   0.1760   0.7782 C.2            1 S1                 0.0000
     12 ****         3.7485   1.3318   0.6616 O.2            1 S1                 0.0000
     13 ****        -2.1823   0.0018  -0.5897 N.am           1 S1                 0.0000
     14 ****        -3.2820   0.9020  -0.5621 C.ar           1 S1                 0.0000
     15 ****        -4.5373   0.3932  -0.1693 C.ar           1 S1                 0.0000
     16 ****        -5.6467   1.2621  -0.1492 C.ar           1 S1                 0.0000
     17 ****        -5.5754   2.5639  -0.4978 N.ar           1 S1                 0.0000
     18 ****        -4.3763   3.0457  -0.8878 C.ar           1 S1                 0.0000
     19 ****        -3.2054   2.2635  -0.9427 C.ar           1 S1                 0.0000
     20 ****        -0.6146  -1.7248  -0.6788 H              1 S1                 0.0000
     21 ****         1.6408  -1.8231  -1.0418 H              1 S1                 0.0000
     22 ****         1.7384  -0.0852  -1.2027 H              1 S1                 0.0000
     23 ****         1.5267   0.1394   1.3199 H              1 S1                 0.0000
     24 ****         1.4267  -1.5903   1.4630 H              1 S1                 0.0000
     25 ****         5.9573  -2.0052   1.8632 H              1 S1                 0.0000
     26 ****         5.9567  -2.1667   0.1058 H              1 S1                 0.0000
     27 ****        -2.4260  -0.9775  -0.5712 H              1 S1                 0.0000
     28 ****        -4.6523  -0.6419   0.1177 H              1 S1                 0.0000
     29 ****        -6.6183   0.9004   0.1532 H              1 S1                 0.0000
     30 ****        -4.3496   4.0873  -1.1720 H              1 S1                 0.0000
     31 ****        -2.2875   2.7169  -1.2834 H              1 S1                 0.0000
     32 ****         0.6137   1.5226  -0.4606 LP             1 S1                 0.0000
     33 ****        -0.9760   2.2102  -0.4518 LP             1 S1                 0.0000
     34 ****         2.5735  -3.3150   1.0775 LP             1 S1                 0.0000
     35 ****         4.1892  -3.9364   1.1354 LP             1 S1                 0.0000
     36 ****         6.2468   0.3702   0.7575 LP             1 S1                 0.0000
     37 ****         2.7660   1.5169   0.6426 LP             1 S1                 0.0000
     38 ****         4.4009   2.0859   0.5859 LP             1 S1                 0.0000
     39 ****        -6.3837   3.1518  -0.4682 LP             1 S1                 0.0000
@<TRIPOS>BOND
    1    1    2 2     
    2    2    3 am    
    3    2   13 am    
    4    3    4 1     
    5    3   20 1     
    6    4    5 1     
    7    4   21 1     
    8    4   22 1     
    9    5    6 1     
   10    5   23 1     
   11    5   24 1     
   12    6   11 am    
   13    6    7 am    
   14    7    8 2     
   15    7    9 1     
   16    9   10 1     
   17    9   25 1     
   18    9   26 1     
   19   10   11 1     
   20   11   12 2     
   21   13   14 1     
   22   13   27 1     
   23   14   19 ar    
   24   14   15 ar    
   25   15   16 ar    
   26   15   28 1     
   27   16   17 ar    
   28   16   29 1     
   29   17   18 ar    
   30   18   19 ar    
   31   18   30 1     
   32   19   31 1     
   33    1   32 1     
   34    1   33 1     
   35    8   34 1     
   36    8   35 1     
   37   10   36 1     
   38   12   37 1     
   39   12   38 1     
   40   17   39 1     
@<TRIPOS>SUBSTRUCTURE
      1 S1             1
@<TRIPOS>SET
LONE_PAIRS      STATIC     ATOMS    <user>   **** ""
8 32 33 34 35 36 37 38 39
DONOR_HYDROGENS      STATIC     ATOMS    <user>   **** ""
2 20 27
ATOM$BLUE        STATIC     ATOMS    COLORGROUP SYSTEM
8 32 33 34 35 36 37 38 39
ATOM$RED        STATIC     ATOMS    COLORGROUP SYSTEM
2 20 27
