AV-unprocessed.smi:1876|AV-procd|sdf|7620|dock10
  -GOLD-   22720 9343D 1   1.00000     0.00000
 Structure written by MMmdl.
 31 32  0  0  0  0  0  0  0  0  1 V2000
  154.2473  141.3131  161.1030 C   0  0  0  0  0  0  0  0  0  0  0  0
  153.4508  140.9940  159.8843 C   0  0  0  0  0  0  0  0  0  0  0  0
  152.2273  141.4070  159.4365 C   0  0  0  0  0  0  0  0  0  0  0  0
  152.0826  140.7070  158.2090 C   0  0  0  0  0  0  0  0  0  0  0  0
  150.9188  140.8645  157.4131 N   0  0  0  0  0  0  0  0  0  0  0  0
  150.7715  140.5674  156.1105 C   0  0  0  0  0  0  0  0  0  0  0  0
  151.6478  140.0888  155.3897 O   0  0  0  0  0  0  0  0  0  0  0  0
  149.5336  140.8565  155.6803 N   0  0  0  0  0  0  0  0  0  0  0  0
  149.0301  140.6262  154.3253 C   0  0  2  0  0  0  0  0  0  0  0  0
  147.5748  141.1304  154.2683 C   0  0  0  0  0  0  0  0  0  0  0  0
  146.9446  140.7922  152.9147 C   0  0  0  0  0  0  0  0  0  0  0  0
  146.9212  139.2715  152.7024 C   0  0  0  0  0  0  0  0  0  0  0  0
  148.1393  138.6040  153.1620 N   0  0  0  0  0  0  0  0  0  0  0  0
  149.0860  139.1212  153.9666 C   0  0  0  0  0  0  0  0  0  0  0  0
  150.0120  138.4212  154.3740 O   0  0  0  0  0  0  0  0  0  0  0  0
  153.1248  139.9383  157.9316 N   0  0  0  0  0  0  0  0  0  0  0  0
  154.0068  140.1184  159.0038 O   0  0  0  0  0  0  0  0  0  0  0  0
  153.7092  142.0055  161.7506 H   0  0  0  0  0  0  0  0  0  0  0  0
  155.1987  141.7721  160.8339 H   0  0  0  0  0  0  0  0  0  0  0  0
  154.4567  140.4089  161.6748 H   0  0  0  0  0  0  0  0  0  0  0  0
  151.5476  142.0975  159.9134 H   0  0  0  0  0  0  0  0  0  0  0  0
  150.1124  141.2433  157.8866 H   0  0  0  0  0  0  0  0  0  0  0  0
  148.8795  141.2432  156.3446 H   0  0  0  0  0  0  0  0  0  0  0  0
  149.6288  141.1732  153.5949 H   0  0  0  0  0  0  0  0  0  0  0  0
  146.9813  140.6884  155.0708 H   0  0  0  0  0  0  0  0  0  0  0  0
  147.5506  142.2097  154.4235 H   0  0  0  0  0  0  0  0  0  0  0  0
  145.9344  141.1970  152.8480 H   0  0  0  0  0  0  0  0  0  0  0  0
  147.5220  141.2655  152.1194 H   0  0  0  0  0  0  0  0  0  0  0  0
  146.0855  138.8409  153.2552 H   0  0  0  0  0  0  0  0  0  0  0  0
  146.7537  139.0369  151.6508 H   0  0  0  0  0  0  0  0  0  0  0  0
  148.2358  137.6310  152.9097 H   0  0  0  0  0  0  0  0  0  0  0  0
  1  2  1  0  0  0  0
  1 18  1  0  0  0  0
  1 19  1  0  0  0  0
  1 20  1  0  0  0  0
  2 17  1  0  0  0  0
  2  3  2  0  0  0  0
  3  4  1  0  0  0  0
  3 21  1  0  0  0  0
  4  5  1  0  0  0  0
  4 16  2  0  0  0  0
  5  6  1  0  0  0  0
  5 22  1  0  0  0  0
  6  7  2  0  0  0  0
  6  8  1  0  0  0  0
  8  9  1  0  0  0  0
  8 23  1  0  0  0  0
  9 14  1  0  0  0  0
  9 10  1  0  0  0  0
  9 24  1  0  0  0  0
 10 11  1  0  0  0  0
 10 25  1  0  0  0  0
 10 26  1  0  0  0  0
 11 12  1  0  0  0  0
 11 27  1  0  0  0  0
 11 28  1  0  0  0  0
 12 13  1  0  0  0  0
 12 29  1  0  0  0  0
 12 30  1  0  0  0  0
 13 14  1  0  0  0  0
 13 31  1  0  0  0  0
 14 15  2  0  0  0  0
 16 17  1  0  0  0  0
M  END
> <s_m_source_file>
AV-unprocessed.smi

> <i_m_source_file_index>
1876

> <i_lp_mmshare_version>
43012

> <i_f3d_flags>
0

> <s_epik_input>
W0NIM11jMVtjSF1jKG5vMSlbTkhdQyg9TylbTkhdW0NAQEhdMltDSDJdW0NIMl1bQ0gyXVtOSF1DMj1P

> <s_epik_cmdline>
J2VwaWtfcHl0aG9uJywgJy1waCcsICc3LjAnLCAnLXRuJywgJzgnLCAnLW1hJywgJzIwMCcsICctbWV0YWxfYmluZGluZycsICctaW1hZScsICc8aW5maWxlLm1hZT4nLCAnLW9tYWUnLCAnPG91dGZpbGUubWFlPic=

> <r_lp_tautomer_probability>
1

> <r_epik_Ionization_Penalty>
2.33177e-05

> <r_epik_Ionization_Penalty_Charging>
0

> <r_epik_Ionization_Penalty_Neutral>
2.33177e-05

> <r_epik_State_Penalty>
-0

> <r_epik_Charging_Adjusted_Penalty>
0

> <i_epik_Tot_Q>
0

> <i_epik_Tot_abs_Q>
0

> <r_epik_Metal_State_Penalty>
-0

> <b_epik_Metal_Only>
0

> <s_lp_Force_Field>
OPLS_2005

> <r_lp_Energy>
8.43972

> <b_lp_Chiralities_Consistent>
1

> <s_lp_Variant>
AV-unprocessed.smi:1876-1

> <Gold.Version>
5.8.1

> <Gold.Id.Protein>
6NUR|6NUR_protein|mol2

> <Gold.PLP.Fitness>
37.2241

> <Gold.PLP.PLP>
-29.4940

> <Gold.PLP.part.hbond>
-5.0000

> <Gold.PLP.part.metal>
0.0000

> <Gold.PLP.part.buried>
-1.1324

> <Gold.PLP.part.nonpolar>
-23.5799

> <Gold.PLP.part.repulsive>
0.4162

> <Gold.PLP.ligand.clash>
0.0000

> <Gold.PLP.ligand.torsion>
0.0765

> <Gold.PLP.Chemscore.Hbond>
2.6276

> <Gold.PLP.Chemscore.CHOScore>
0.0000

> <Gold.PLP.Chemscore.Metal>
0.0000

> <Gold.Chemscore.Hbonds>
donor molecule, donor type, donor heavy atom, donor atom, acceptor molecule, acceptor atom, score
      L1  H    13    31       P1  7948  1.00
      P1  H  7989  7998       L1     7  0.92
      P1  H  7997  8009       L1    16  0.65

> <Gold.PLP.Chemscore.Internal.Correction>
0.0003

> <Gold.Rescore>
     Score         DG    S(hbond)    S(metal)    S(lipo)     H(rot)  DE(clash)    DE(int)     intcor
     12.14     -16.16       1.91        0.00      58.78       1.00       0.31       3.71       ----

> <Gold.Chemscore.Fitness>
12.1418

> <Gold.Chemscore.DG>
-16.1606

> <Gold.Chemscore.ZeroCoef>
-5.4800

> <Gold.Chemscore.Hbond>
1.9052

> <Gold.Chemscore.Metal>
0.0000

> <Gold.Chemscore.Lipo>
58.7802

> <Gold.Chemscore.Internal_Hbond>
0.0000

> <Gold.Chemscore.DEClash>
0.3062

> <Gold.Chemscore.DEInternal>
3.7127

> <Gold.Chemscore.Rot>
1.0000

> <Gold.Chemscore.Internal.Correction>
   9.000000E+99

> <Gold.Chemscore.Hbonds>
donor molecule, donor type, donor heavy atom, donor atom, acceptor molecule, acceptor atom, score
      L1  H    13    31       P1  7948  0.95
      P1  H  7989  7998       L1     7  0.72
      P1  H  7997  8009       L1    16  0.10

> <Gold.Chemscore.Hbond.Weighted>
-6.3633

> <Gold.Chemscore.Metal.Weighted>
-0.0000

> <Gold.Chemscore.Lipo.Weighted>
-6.8773

> <Gold.Chemscore.Internal_Hbond.Weighted>
0.0000

> <Gold.Chemscore.DEClash.Weighted>
0.3062

> <Gold.Chemscore.DEInternal.Weighted>
3.7127

> <Gold.Chemscore.Rot.Weighted>
2.5600

> <Gold.Chemscore.Internal.Correction.Weighted>
   9.000000E+99

> <Gold.Protein.RotatedTorsions>
[ 6907 6896 6895 6894 ] final  -42.38 input  -60.11 | X-H torsion
[ 7974 7965 7964 7962 ] final  164.30 input  175.53 | X-H torsion
[ 8008 7997 7996 7995 ] final -177.06 input   59.86 | X-H torsion
[ 10167 10162 10161 10158 ] final -124.11 input  -65.29 | X-H torsion
[ 10718 10713 10712 10709 ] final  152.26 input   66.30 | X-H torsion
[ 10763 10752 10751 10750 ] final  -22.12 input  -60.55 | X-H torsion
[ 11005 11000 10999 10996 ] final  -80.11 input  -57.11 | X-H torsion

> <Gold.Protein.ActiveResidues>
 VAL166  LYS551  ARG553  GLY616  TRP617  ASP618  TYR619  PRO620  LYS621  CYS622 
 ASP623  PHE694  ASN695  SER759  ASP760  ASP761  ALA762  ILE779  LEU786  VAL792 
 PHE793  MET794  SER795  GLU796  ALA797  LYS798  CYS799  TRP800  GLU811  SER814 

> <Gold.Protein.RotatedAtoms>
  150.9558  134.8953  159.7700 H   0  0  0  0  0  0  0  0  0  0  0  0  # atno 6907 bound_to 6896
  152.5137  134.3742  159.9338 H   0  0  0  0  0  0  0  0  0  0  0  0  # atno 6908 bound_to 6896
  151.3756  133.3799  159.2739 H   0  0  0  0  0  0  0  0  0  0  0  0  # atno 6909 bound_to 6896
  144.7551  139.8307  143.6352 H   0  0  0  0  0  0  0  0  0  0  0  0  # atno 7974 bound_to 7965
  156.0023  140.1223  157.0535 H   0  0  0  0  0  0  0  0  0  0  0  0  # atno 8008 bound_to 7997
  154.4247  140.1104  156.5783 H   0  0  0  0  0  0  0  0  0  0  0  0  # atno 8009 bound_to 7997
  155.6195  140.3472  155.4649 H   0  0  0  0  0  0  0  0  0  0  0  0  # atno 8010 bound_to 7997
  139.9963  143.5588  152.2322 H   0  0  0  0  0  0  0  0  0  0  0  0  # atno 10167 bound_to 10162
  157.2601  131.0796  151.1671 H   0  0  0  0  0  0  0  0  0  0  0  0  # atno 10718 bound_to 10713
  153.6469  135.6982  153.5222 H   0  0  0  0  0  0  0  0  0  0  0  0  # atno 10763 bound_to 10752
  153.2738  135.4207  155.1012 H   0  0  0  0  0  0  0  0  0  0  0  0  # atno 10764 bound_to 10752
  154.8486  135.3585  154.6013 H   0  0  0  0  0  0  0  0  0  0  0  0  # atno 10765 bound_to 10752
  141.1668  133.7135  156.8223 H   0  0  0  0  0  0  0  0  0  0  0  0  # atno 11005 bound_to 11000
  146.1551  139.4646  143.0024 LP  0  0  0  0  0  0  0  0  0  0  0  0  # atno 17320 bound_to 7965
  145.6808  141.0191  143.1608 LP  0  0  0  0  0  0  0  0  0  0  0  0  # atno 17321 bound_to 7965
  139.6304  144.7643  151.2549 LP  0  0  0  0  0  0  0  0  0  0  0  0  # atno 17342 bound_to 10162
  140.7436  143.6490  150.8266 LP  0  0  0  0  0  0  0  0  0  0  0  0  # atno 17343 bound_to 10162
  157.3184  130.6925  149.6255 LP  0  0  0  0  0  0  0  0  0  0  0  0  # atno 17370 bound_to 10713
  155.9664  130.4342  150.5041 LP  0  0  0  0  0  0  0  0  0  0  0  0  # atno 17371 bound_to 10713
  140.2110  134.8827  157.3274 LP  0  0  0  0  0  0  0  0  0  0  0  0  # atno 17394 bound_to 11000
  140.2087  134.4166  155.7624 LP  0  0  0  0  0  0  0  0  0  0  0  0  # atno 17395 bound_to 11000

$$$$
