AV-unprocessed.smi:1033|AV-procd|sdf|4510|dock7
  -GOLD-   22720 2513D 1   1.00000     0.00000
 Structure written by MMmdl.
 57 59  0  0  0  0  0  0  0  0  3 V2000
  153.0489  143.6415  161.8507 C   0  0  0  0  0  0  0  0  0  0  0  0
  152.5286  143.0977  160.5317 C   0  0  0  0  0  0  0  0  0  0  0  0
  152.8339  141.7664  160.1688 C   0  0  0  0  0  0  0  0  0  0  0  0
  152.3686  141.2227  158.9515 C   0  0  0  0  0  0  0  0  0  0  0  0
  152.5428  139.9636  158.4025 N   0  0  0  0  0  0  0  0  0  0  0  0
  151.8683  140.0717  157.2614 C   0  0  0  0  0  0  0  0  0  0  0  0
  151.2695  141.2521  157.0098 N   0  0  0  0  0  0  0  0  0  0  0  0
  150.4735  141.6077  155.8493 C   0  0  0  0  0  0  0  0  0  0  0  0
  150.2391  140.4034  154.9179 C   0  0  2  0  0  0  0  0  0  0  0  0
  149.7196  140.8625  153.6848 O   0  0  0  0  0  0  0  0  0  0  0  0
  149.2516  139.3874  155.5248 C   0  0  0  0  0  0  0  0  0  0  0  0
  147.8900  139.4924  154.9386 N   0  3  2  0  0  0  0  0  0  0  0  0
  146.8222  139.3239  155.9558 C   0  0  0  0  0  0  0  0  0  0  0  0
  145.4207  139.5238  155.3423 C   0  0  0  0  0  0  0  0  0  0  0  0
  145.1943  138.6573  154.1554 N   0  3  2  0  0  0  0  0  0  0  0  0
  144.8902  137.2345  154.4698 C   0  0  0  0  0  0  0  0  0  0  0  0
  143.6607  136.7135  153.6996 C   0  0  2  0  0  0  0  0  0  0  0  0
  143.6226  135.1811  153.6385 C   0  0  0  0  0  0  0  0  0  0  0  0
  143.7005  137.2066  152.3759 O   0  0  0  0  0  0  0  0  0  0  0  0
  146.2789  138.8268  153.1563 C   0  0  0  0  0  0  0  0  0  0  0  0
  147.6695  138.5936  153.7759 C   0  0  0  0  0  0  0  0  0  0  0  0
  151.5812  142.0534  158.1023 C   0  0  0  0  0  0  0  0  0  0  0  0
  151.2732  143.3805  158.4503 C   0  0  0  0  0  0  0  0  0  0  0  0
  151.7475  143.9085  159.6691 C   0  0  0  0  0  0  0  0  0  0  0  0
  151.4120  145.3434  160.0356 C   0  0  0  0  0  0  0  0  0  0  0  0
  153.6182  142.8878  162.3954 H   0  0  0  0  0  0  0  0  0  0  0  0
  152.2223  143.9595  162.4865 H   0  0  0  0  0  0  0  0  0  0  0  0
  153.7035  144.4964  161.6797 H   0  0  0  0  0  0  0  0  0  0  0  0
  153.4304  141.1496  160.8248 H   0  0  0  0  0  0  0  0  0  0  0  0
  151.7989  139.2425  156.5722 H   0  0  0  0  0  0  0  0  0  0  0  0
  149.5206  142.0023  156.2042 H   0  0  0  0  0  0  0  0  0  0  0  0
  150.9690  142.4201  155.3151 H   0  0  0  0  0  0  0  0  0  0  0  0
  151.1998  139.9279  154.7246 H   0  0  0  0  0  0  0  0  0  0  0  0
  149.7199  140.1424  153.0712 H   0  0  0  0  0  0  0  0  0  0  0  0
  149.6215  138.3692  155.3956 H   0  0  0  0  0  0  0  0  0  0  0  0
  149.2014  139.5584  156.6016 H   0  0  0  0  0  0  0  0  0  0  0  0
  146.9060  138.3362  156.4113 H   0  0  0  0  0  0  0  0  0  0  0  0
  146.9649  140.0491  156.7579 H   0  0  0  0  0  0  0  0  0  0  0  0
  144.6510  139.3653  156.0966 H   0  0  0  0  0  0  0  0  0  0  0  0
  145.3166  140.5619  155.0238 H   0  0  0  0  0  0  0  0  0  0  0  0
  145.7464  136.6092  154.2114 H   0  0  0  0  0  0  0  0  0  0  0  0
  144.7452  137.1127  155.5435 H   0  0  0  0  0  0  0  0  0  0  0  0
  142.7387  137.0606  154.1649 H   0  0  0  0  0  0  0  0  0  0  0  0
  143.5728  134.7508  154.6393 H   0  0  0  0  0  0  0  0  0  0  0  0
  144.5091  134.7781  153.1473 H   0  0  0  0  0  0  0  0  0  0  0  0
  142.7485  134.8312  153.0879 H   0  0  0  0  0  0  0  0  0  0  0  0
  143.7773  138.1486  152.4029 H   0  0  0  0  0  0  0  0  0  0  0  0
  146.1201  138.1652  152.3038 H   0  0  0  0  0  0  0  0  0  0  0  0
  146.2254  139.8428  152.7622 H   0  0  0  0  0  0  0  0  0  0  0  0
  148.4249  138.7665  153.0107 H   0  0  0  0  0  0  0  0  0  0  0  0
  147.7752  137.5541  154.0903 H   0  0  0  0  0  0  0  0  0  0  0  0
  150.6778  143.9873  157.7843 H   0  0  0  0  0  0  0  0  0  0  0  0
  150.8003  145.8180  159.2677 H   0  0  0  0  0  0  0  0  0  0  0  0
  152.3232  145.9313  160.1481 H   0  0  0  0  0  0  0  0  0  0  0  0
  150.8578  145.3799  160.9736 H   0  0  0  0  0  0  0  0  0  0  0  0
  144.3558  139.0008  153.7072 H   0  0  0  0  0  0  0  0  0  0  0  0
  147.8090  140.4411  154.5992 H   0  0  0  0  0  0  0  0  0  0  0  0
  1  2  1  0  0  0  0
  1 26  1  0  0  0  0
  1 27  1  0  0  0  0
  1 28  1  0  0  0  0
  2 24  1  0  0  0  0
  2  3  2  0  0  0  0
  3  4  1  0  0  0  0
  3 29  1  0  0  0  0
  4 22  2  0  0  0  0
  4  5  1  0  0  0  0
  5  6  2  0  0  0  0
  6  7  1  0  0  0  0
  6 30  1  0  0  0  0
  7  8  1  0  0  0  0
  7 22  1  0  0  0  0
  8  9  1  0  0  0  0
  8 31  1  0  0  0  0
  8 32  1  0  0  0  0
  9 10  1  0  0  0  0
  9 11  1  0  0  0  0
  9 33  1  0  0  0  0
 10 34  1  0  0  0  0
 11 12  1  0  0  0  0
 11 35  1  0  0  0  0
 11 36  1  0  0  0  0
 12 21  1  0  0  0  0
 12 13  1  0  0  0  0
 12 57  1  0  0  0  0
 13 14  1  0  0  0  0
 13 37  1  0  0  0  0
 13 38  1  0  0  0  0
 14 15  1  0  0  0  0
 14 39  1  0  0  0  0
 14 40  1  0  0  0  0
 15 16  1  0  0  0  0
 15 20  1  0  0  0  0
 15 56  1  0  0  0  0
 16 17  1  0  0  0  0
 16 41  1  0  0  0  0
 16 42  1  0  0  0  0
 17 18  1  0  0  0  0
 17 19  1  0  0  0  0
 17 43  1  0  0  0  0
 18 44  1  0  0  0  0
 18 45  1  0  0  0  0
 18 46  1  0  0  0  0
 19 47  1  0  0  0  0
 20 21  1  0  0  0  0
 20 48  1  0  0  0  0
 20 49  1  0  0  0  0
 21 50  1  0  0  0  0
 21 51  1  0  0  0  0
 22 23  1  0  0  0  0
 23 24  2  0  0  0  0
 23 52  1  0  0  0  0
 24 25  1  0  0  0  0
 25 53  1  0  0  0  0
 25 54  1  0  0  0  0
 25 55  1  0  0  0  0
M  CHG  1  12   1
M  CHG  1  15   1
M  END
> <s_m_source_file>
AV-unprocessed.smi

> <i_m_source_file_index>
1033

> <i_lp_mmshare_version>
43012

> <i_f3d_flags>
0

> <s_epik_input>
W0NIM11jKFtjSF0xKWMoW0NIM10pW2NIXWMoYzEyKW4oW2NIXW4yKVtDSDJdW0NASF0oW09IXSlbQ0gyXU4zW0NIMl1bQ0gyXU4oW0NIMl1bQ0gyXTMpW0NIMl1bQ0BIXShbQ0gzXSlbT0hd

> <s_epik_cmdline>
J2VwaWtfcHl0aG9uJywgJy1waCcsICc3LjAnLCAnLXRuJywgJzgnLCAnLW1hJywgJzIwMCcsICctbWV0YWxfYmluZGluZycsICctaW1hZScsICc8aW5maWxlLm1hZT4nLCAnLW9tYWUnLCAnPG91dGZpbGUubWFlPic=

> <r_epik_Ionization_Penalty>
3.16016

> <r_epik_Ionization_Penalty_Charging>
3.07679

> <r_epik_Ionization_Penalty_Neutral>
0.083365

> <r_epik_State_Penalty>
2.09701

> <r_epik_Charging_Adjusted_Penalty>
5.1738

> <i_epik_Tot_Q>
2

> <i_epik_Tot_abs_Q>
2

> <r_epik_Metal_State_Penalty>
2.02534

> <b_epik_Metal_Only>
0

> <s_lp_Force_Field>
OPLS_2005

> <r_lp_Energy>
28.3009

> <b_lp_Chiralities_Consistent>
1

> <s_lp_Variant>
AV-unprocessed.smi:1033-21

> <Gold.Version>
5.8.1

> <Gold.Id.Protein>
6NUR|6NUR_protein|mol2

> <Gold.PLP.Fitness>
54.8728

> <Gold.PLP.PLP>
-44.6497

> <Gold.PLP.part.hbond>
-5.4804

> <Gold.PLP.part.metal>
0.0000

> <Gold.PLP.part.buried>
-2.2970

> <Gold.PLP.part.nonpolar>
-36.2253

> <Gold.PLP.part.repulsive>
0.0000

> <Gold.PLP.ligand.clash>
0.0000

> <Gold.PLP.ligand.torsion>
1.9717

> <Gold.PLP.Chemscore.Hbond>
4.6560

> <Gold.PLP.Chemscore.CHOScore>
0.0000

> <Gold.PLP.Chemscore.Metal>
0.0000

> <Gold.Chemscore.Hbonds>
donor molecule, donor type, donor heavy atom, donor atom, acceptor molecule, acceptor atom, score
      L1  H    10    34       P1  7957  0.67
      L1  H    15    56       P1 10175  1.73
      L1  H    19    47       P1 10175  0.36
      P1  H  8011  8017       L1    10  0.83

> <Gold.PLP.Chemscore.Internal.Correction>
0.1985

> <Gold.Rescore>
     Score         DG    S(hbond)    S(metal)    S(lipo)     H(rot)  DE(clash)    DE(int)     intcor
     18.39     -21.09       2.85        0.00     120.77       3.14       0.67       2.04       ----

> <Gold.Chemscore.Fitness>
18.3889

> <Gold.Chemscore.DG>
-21.0915

> <Gold.Chemscore.ZeroCoef>
-5.4800

> <Gold.Chemscore.Hbond>
2.8487

> <Gold.Chemscore.Metal>
0.0000

> <Gold.Chemscore.Lipo>
120.7687

> <Gold.Chemscore.Internal_Hbond>
0.0000

> <Gold.Chemscore.DEClash>
0.6668

> <Gold.Chemscore.DEInternal>
2.0358

> <Gold.Chemscore.Rot>
3.1380

> <Gold.Chemscore.Internal.Correction>
   9.000000E+99

> <Gold.Chemscore.Hbonds>
donor molecule, donor type, donor heavy atom, donor atom, acceptor molecule, acceptor atom, score
      L1  H    10    34       P1  7957  0.66
      L1  H    15    56       P1 10175  0.79
      L1  H    19    47       P1 10175  0.35
      P1  H  8011  8017       L1    10  0.15

> <Gold.Chemscore.Hbond.Weighted>
-9.5148

> <Gold.Chemscore.Metal.Weighted>
-0.0000

> <Gold.Chemscore.Lipo.Weighted>
-14.1299

> <Gold.Chemscore.Internal_Hbond.Weighted>
0.0000

> <Gold.Chemscore.DEClash.Weighted>
0.6668

> <Gold.Chemscore.DEInternal.Weighted>
2.0358

> <Gold.Chemscore.Rot.Weighted>
8.0332

> <Gold.Chemscore.Internal.Correction.Weighted>
   9.000000E+99

> <Gold.Protein.RotatedTorsions>
[ 6907 6896 6895 6894 ] final -154.55 input  -60.11 | X-H torsion
[ 7974 7965 7964 7962 ] final  -49.03 input  175.53 | X-H torsion
[ 8008 7997 7996 7995 ] final   29.37 input   59.86 | X-H torsion
[ 10167 10162 10161 10158 ] final  147.27 input  -65.29 | X-H torsion
[ 10718 10713 10712 10709 ] final   44.74 input   66.30 | X-H torsion
[ 10763 10752 10751 10750 ] final  127.66 input  -60.55 | X-H torsion
[ 11005 11000 10999 10996 ] final  159.54 input  -57.11 | X-H torsion

> <Gold.Protein.ActiveResidues>
 VAL166  LYS551  ARG553  GLY616  TRP617  ASP618  TYR619  PRO620  LYS621  CYS622 
 ASP623  PHE694  ASN695  SER759  ASP760  ASP761  ALA762  ILE779  LEU786  VAL792 
 PHE793  MET794  SER795  GLU796  ALA797  LYS798  CYS799  TRP800  GLU811  SER814 

> <Gold.Protein.RotatedAtoms>
  151.2592  133.4310  159.2615 H   0  0  0  0  0  0  0  0  0  0  0  0  # atno 6907 bound_to 6896
  151.0546  134.9696  159.8239 H   0  0  0  0  0  0  0  0  0  0  0  0  # atno 6908 bound_to 6896
  152.5388  134.2545  159.8964 H   0  0  0  0  0  0  0  0  0  0  0  0  # atno 6909 bound_to 6896
  145.9449  140.7627  142.9533 H   0  0  0  0  0  0  0  0  0  0  0  0  # atno 7974 bound_to 7965
  155.0734  140.3202  155.4623 H   0  0  0  0  0  0  0  0  0  0  0  0  # atno 8008 bound_to 7997
  156.2785  140.2108  156.5806 H   0  0  0  0  0  0  0  0  0  0  0  0  # atno 8009 bound_to 7997
  154.7037  140.0504  157.0470 H   0  0  0  0  0  0  0  0  0  0  0  0  # atno 8010 bound_to 7997
  139.4893  144.5768  151.6950 H   0  0  0  0  0  0  0  0  0  0  0  0  # atno 10167 bound_to 10162
  157.4301  130.8019  149.7595 H   0  0  0  0  0  0  0  0  0  0  0  0  # atno 10718 bound_to 10713
  153.7130  135.3265  155.3250 H   0  0  0  0  0  0  0  0  0  0  0  0  # atno 10763 bound_to 10752
  154.8379  135.4481  154.1294 H   0  0  0  0  0  0  0  0  0  0  0  0  # atno 10764 bound_to 10752
  153.2393  135.6969  153.7880 H   0  0  0  0  0  0  0  0  0  0  0  0  # atno 10765 bound_to 10752
  140.1971  134.8364  157.2977 H   0  0  0  0  0  0  0  0  0  0  0  0  # atno 11005 bound_to 11000
  144.6785  140.2340  143.7352 LP  0  0  0  0  0  0  0  0  0  0  0  0  # atno 17320 bound_to 7965
  145.8250  139.2060  143.1916 LP  0  0  0  0  0  0  0  0  0  0  0  0  # atno 17321 bound_to 7965
  140.5365  144.0647  150.6072 LP  0  0  0  0  0  0  0  0  0  0  0  0  # atno 17342 bound_to 10162
  140.3655  143.2884  152.0337 LP  0  0  0  0  0  0  0  0  0  0  0  0  # atno 17343 bound_to 10162
  155.9910  130.3940  150.3003 LP  0  0  0  0  0  0  0  0  0  0  0  0  # atno 17370 bound_to 10713
  157.1159  131.0234  151.3029 LP  0  0  0  0  0  0  0  0  0  0  0  0  # atno 17371 bound_to 10713
  140.2095  134.4156  155.7620 LP  0  0  0  0  0  0  0  0  0  0  0  0  # atno 17394 bound_to 11000
  141.2227  133.7111  156.8314 LP  0  0  0  0  0  0  0  0  0  0  0  0  # atno 17395 bound_to 11000

$$$$
