AV-unprocessed.smi:464|AV-procd|sdf|2638|dock1
  -GOLD-   2262023 43D 1   1.00000     0.00000
 Structure written by MMmdl.
 24 25  0  0  0  0  0  0  0  0  2 V2000
  149.3622  140.4961  154.7456 O   0  0  0  0  0  0  0  0  0  0  0  0
  150.0974  140.8978  155.6447 C   0  0  0  0  0  0  0  0  0  0  0  0
  149.9118  142.1617  156.0841 N   0  0  0  0  0  0  0  0  0  0  0  0
  150.6979  142.7090  157.0998 C   0  0  0  0  0  0  0  0  0  0  0  0
  151.6802  141.9948  157.6878 C   0  0  0  0  0  0  0  0  0  0  0  0
  152.4799  142.5111  158.6964 N   0  0  0  0  0  0  0  0  0  0  0  0
  152.9755  141.7125  159.8085 C   0  0  0  0  0  0  0  0  0  0  0  0
  152.4316  142.2618  161.1394 C   0  0  0  0  0  0  0  0  0  0  0  0
  152.7691  143.6413  161.2601 O   0  0  0  0  0  0  0  0  0  0  0  0
  152.2063  144.4247  160.2109 C   0  0  0  0  0  0  0  0  0  0  0  0
  152.7446  143.9341  158.8548 C   0  0  0  0  0  0  0  0  0  0  0  0
  151.8931  140.6152  157.2225 C   0  0  0  0  0  0  0  0  0  0  0  0
  152.7750  139.9224  157.7306 O   0  0  0  0  0  0  0  0  0  0  0  0
  151.0849  140.1473  156.2230 N   0  5  0  0  0  0  0  0  0  0  0  0
  149.1910  142.7385  155.6754 H   0  0  0  0  0  0  0  0  0  0  0  0
  150.4481  143.7280  157.3551 H   0  0  0  0  0  0  0  0  0  0  0  0
  152.6828  140.6690  159.6851 H   0  0  0  0  0  0  0  0  0  0  0  0
  154.0657  141.7384  159.8062 H   0  0  0  0  0  0  0  0  0  0  0  0
  151.3499  142.1343  161.2017 H   0  0  0  0  0  0  0  0  0  0  0  0
  152.8646  141.7152  161.9771 H   0  0  0  0  0  0  0  0  0  0  0  0
  151.1173  144.3660  160.2428 H   0  0  0  0  0  0  0  0  0  0  0  0
  152.4731  145.4701  160.3659 H   0  0  0  0  0  0  0  0  0  0  0  0
  153.8197  144.1052  158.7902 H   0  0  0  0  0  0  0  0  0  0  0  0
  152.2841  144.4975  158.0422 H   0  0  0  0  0  0  0  0  0  0  0  0
  1  2  2  0  0  0  0
  2 14  1  0  0  0  0
  2  3  1  0  0  0  0
  3 15  1  0  0  0  0
  3  4  1  0  0  0  0
  4  5  2  0  0  0  0
  4 16  1  0  0  0  0
  5  6  1  0  0  0  0
  5 12  1  0  0  0  0
  6 11  1  0  0  0  0
  6  7  1  0  0  0  0
  7  8  1  0  0  0  0
  7 17  1  0  0  0  0
  7 18  1  0  0  0  0
  8  9  1  0  0  0  0
  8 19  1  0  0  0  0
  8 20  1  0  0  0  0
  9 10  1  0  0  0  0
 10 11  1  0  0  0  0
 10 21  1  0  0  0  0
 10 22  1  0  0  0  0
 11 23  1  0  0  0  0
 11 24  1  0  0  0  0
 12 13  2  0  0  0  0
 12 14  1  0  0  0  0
M  CHG  1  14  -1
M  END
> <s_m_source_file>
AV-unprocessed.smi

> <i_m_source_file_index>
464

> <i_lp_mmshare_version>
43012

> <i_f3d_flags>
0

> <s_epik_input>
Tz1jMVtuSF1bY0hdYyhjKD1PKVtuSF0xKU4yW0NIMl1bQ0gyXU9bQ0gyXVtDSDJdMg==

> <s_epik_cmdline>
J2VwaWtfcHl0aG9uJywgJy1waCcsICc3LjAnLCAnLXRuJywgJzgnLCAnLW1hJywgJzIwMCcsICctbWV0YWxfYmluZGluZycsICctaW1hZScsICc8aW5maWxlLm1hZT4nLCAnLW9tYWUnLCAnPG91dGZpbGUubWFlPic=

> <r_lp_tautomer_probability>
0.999801

> <r_epik_Ionization_Penalty>
3.03283

> <r_epik_Ionization_Penalty_Charging>
1.33068e-05

> <r_epik_Ionization_Penalty_Neutral>
3.03282

> <r_epik_State_Penalty>
3.03418

> <r_epik_Charging_Adjusted_Penalty>
3.03419

> <i_epik_Tot_Q>
-1

> <i_epik_Tot_abs_Q>
1

> <r_epik_Metal_State_Penalty>
0.478531

> <b_epik_Metal_Only>
1

> <s_lp_Force_Field>
OPLS_2005

> <r_lp_Energy>
27.0677

> <b_lp_Chiralities_Consistent>
1

> <s_lp_Variant>
AV-unprocessed.smi:464-3

> <Gold.Version>
5.8.1

> <Gold.Id.Protein>
6NUR|6NUR_protein|mol2

> <Gold.PLP.Fitness>
34.2990

> <Gold.PLP.PLP>
-27.3377

> <Gold.PLP.part.hbond>
-2.0000

> <Gold.PLP.part.metal>
0.0000

> <Gold.PLP.part.buried>
-1.7865

> <Gold.PLP.part.nonpolar>
-23.1639

> <Gold.PLP.part.repulsive>
0.2997

> <Gold.PLP.ligand.clash>
0.0008

> <Gold.PLP.ligand.torsion>
0.3932

> <Gold.PLP.Chemscore.Hbond>
1.6720

> <Gold.PLP.Chemscore.CHOScore>
0.6487

> <Gold.PLP.Chemscore.Metal>
0.0000

> <Gold.Chemscore.Hbonds>
donor molecule, donor type, donor heavy atom, donor atom, acceptor molecule, acceptor atom, score
      L1  H     3    15       P1  8028  0.66
      P1  H  7997  8008       L1    13  0.99
      L1  C     4    16       P1  8028  0.64

> <Gold.PLP.Chemscore.Internal.Correction>
0.7863

> <Gold.Rescore>
     Score         DG    S(hbond)    S(metal)    S(lipo)     H(rot)  DE(clash)    DE(int)     intcor
     16.94     -18.88       1.82        0.00      62.59       0.00       0.07       1.87       ----

> <Gold.Chemscore.Fitness>
16.9438

> <Gold.Chemscore.DG>
-18.8756

> <Gold.Chemscore.ZeroCoef>
-5.4800

> <Gold.Chemscore.Hbond>
1.8180

> <Gold.Chemscore.Metal>
0.0000

> <Gold.Chemscore.Lipo>
62.5942

> <Gold.Chemscore.Internal_Hbond>
0.0000

> <Gold.Chemscore.DEClash>
0.0665

> <Gold.Chemscore.DEInternal>
1.8654

> <Gold.Chemscore.Rot>
0.0000

> <Gold.Chemscore.Internal.Correction>
   9.000000E+99

> <Gold.Chemscore.Hbonds>
donor molecule, donor type, donor heavy atom, donor atom, acceptor molecule, acceptor atom, score
      L1  H     3    15       P1  8028  0.63
      P1  H  7997  8008       L1    13  0.90

> <Gold.Chemscore.Hbond.Weighted>
-6.0721

> <Gold.Chemscore.Metal.Weighted>
-0.0000

> <Gold.Chemscore.Lipo.Weighted>
-7.3235

> <Gold.Chemscore.Internal_Hbond.Weighted>
0.0000

> <Gold.Chemscore.DEClash.Weighted>
0.0665

> <Gold.Chemscore.DEInternal.Weighted>
1.8654

> <Gold.Chemscore.Rot.Weighted>
0.0000

> <Gold.Chemscore.Internal.Correction.Weighted>
   9.000000E+99

> <Gold.Protein.RotatedTorsions>
[ 6907 6896 6895 6894 ] final  131.64 input  -60.11 | X-H torsion
[ 7974 7965 7964 7962 ] final   28.25 input  175.53 | X-H torsion
[ 8008 7997 7996 7995 ] final  -86.93 input   59.86 | X-H torsion
[ 10167 10162 10161 10158 ] final  140.97 input  -65.29 | X-H torsion
[ 10718 10713 10712 10709 ] final  114.84 input   66.30 | X-H torsion
[ 10763 10752 10751 10750 ] final  -44.25 input  -60.55 | X-H torsion
[ 11005 11000 10999 10996 ] final   36.96 input  -57.11 | X-H torsion

> <Gold.Protein.ActiveResidues>
 VAL166  LYS551  ARG553  GLY616  TRP617  ASP618  TYR619  PRO620  LYS621  CYS622 
 ASP623  PHE694  ASN695  SER759  ASP760  ASP761  ALA762  ILE779  LEU786  VAL792 
 PHE793  MET794  SER795  GLU796  ALA797  LYS798  CYS799  TRP800  GLU811  SER814 

> <Gold.Protein.RotatedAtoms>
  152.3405  133.6061  159.5872 H   0  0  0  0  0  0  0  0  0  0  0  0  # atno 6907 bound_to 6896
  150.7476  133.9729  159.3560 H   0  0  0  0  0  0  0  0  0  0  0  0  # atno 6908 bound_to 6896
  151.7594  135.0814  160.0394 H   0  0  0  0  0  0  0  0  0  0  0  0  # atno 6909 bound_to 6896
  146.1739  139.7081  142.8948 H   0  0  0  0  0  0  0  0  0  0  0  0  # atno 7974 bound_to 7965
  154.6574  140.0572  157.0024 H   0  0  0  0  0  0  0  0  0  0  0  0  # atno 8008 bound_to 7997
  155.1279  140.3254  155.4462 H   0  0  0  0  0  0  0  0  0  0  0  0  # atno 8009 bound_to 7997
  156.2603  140.1986  156.6399 H   0  0  0  0  0  0  0  0  0  0  0  0  # atno 8010 bound_to 7997
  139.5033  144.6201  151.6072 H   0  0  0  0  0  0  0  0  0  0  0  0  # atno 10167 bound_to 10162
  157.6258  131.1004  150.7243 H   0  0  0  0  0  0  0  0  0  0  0  0  # atno 10718 bound_to 10713
  154.0090  135.6684  153.4764 H   0  0  0  0  0  0  0  0  0  0  0  0  # atno 10763 bound_to 10752
  153.0629  135.5017  154.8130 H   0  0  0  0  0  0  0  0  0  0  0  0  # atno 10764 bound_to 10752
  154.7007  135.3078  154.9309 H   0  0  0  0  0  0  0  0  0  0  0  0  # atno 10765 bound_to 10752
  140.2274  134.3569  155.7978 H   0  0  0  0  0  0  0  0  0  0  0  0  # atno 11005 bound_to 11000
  145.4265  141.0411  143.2934 LP  0  0  0  0  0  0  0  0  0  0  0  0  # atno 17320 bound_to 7965
  144.8206  139.5799  143.6989 LP  0  0  0  0  0  0  0  0  0  0  0  0  # atno 17321 bound_to 7965
  140.5900  143.9796  150.6319 LP  0  0  0  0  0  0  0  0  0  0  0  0  # atno 17342 bound_to 10162
  140.2974  143.3283  152.1005 LP  0  0  0  0  0  0  0  0  0  0  0  0  # atno 17343 bound_to 10162
  156.7592  130.4793  149.5440 LP  0  0  0  0  0  0  0  0  0  0  0  0  # atno 17370 bound_to 10713
  156.1429  130.6257  151.0491 LP  0  0  0  0  0  0  0  0  0  0  0  0  # atno 17371 bound_to 10713
  141.2220  133.7226  156.8675 LP  0  0  0  0  0  0  0  0  0  0  0  0  # atno 17394 bound_to 11000
  140.1786  134.9049  157.2921 LP  0  0  0  0  0  0  0  0  0  0  0  0  # atno 17395 bound_to 11000

$$$$
