#       Name:                AV-unprocessed.smi:1667
#       Creating user name   scv26
#       Creation time:       Fri Mar 27 07:39:24 2020


#       File generated by GOLD software.
#

@<TRIPOS>MOLECULE
AV-unprocessed.smi:1667
    50    52     1
SMALL
NO_CHARGES


@<TRIPOS>ATOM
      1 ****        -3.3824   1.9084   1.9235 C.3            1 S1                 0.0000
      2 ****        -2.5635   0.6575   2.2221 C.2            1 S1                 0.0000
      3 ****        -1.9880   0.5414   3.3035 O.2            1 S1                 0.0000
      4 ****        -2.5202  -0.2664   1.2475 N.am           1 S1                 0.0000
      5 ****        -1.7976  -1.5381   1.2711 C.3            1 S1                 0.0000
      6 ****        -2.4107  -2.5178   2.2903 C.3            1 S1                 0.0000
      7 ****        -0.3138  -1.3656   1.4547 C.2            1 S1                 0.0000
      8 ****         0.3760  -1.5323   2.6204 N.pl3          1 S1                 1.0000
      9 ****         1.7300  -1.2724   2.4154 C.ar           1 S1                 0.0000
     10 ****         2.8095  -1.3183   3.2922 C.ar           1 S1                 0.0000
     11 ****         4.0737  -0.9973   2.7558 C.ar           1 S1                 0.0000
     12 ****         4.2280  -0.6482   1.3983 C.ar           1 S1                 0.0000
     13 ****         3.1250  -0.6033   0.5201 C.ar           1 S1                 0.0000
     14 ****         1.8782  -0.9196   1.0594 C.ar           1 S1                 0.0000
     15 ****         0.5921  -0.9723   0.5095 N.pl3          1 S1                 0.0000
     16 ****         0.4144  -0.6326  -0.9124 C.3            1 S1                 0.0000
     17 ****         0.4786   0.8835  -1.1961 C.3            1 S1                 0.0000
     18 ****        -0.4669   1.5693  -0.4003 O.3            1 S1                 0.0000
     19 ****         0.2963   1.1735  -2.6770 C.ar           1 S1                 0.0000
     20 ****        -0.9833   1.0989  -3.2706 C.ar           1 S1                 0.0000
     21 ****        -1.1448   1.3620  -4.6447 C.ar           1 S1                 0.0000
     22 ****        -0.0282   1.6996  -5.4334 C.ar           1 S1                 0.0000
     23 ****         1.2503   1.7717  -4.8477 C.ar           1 S1                 0.0000
     24 ****         2.3250   2.0929  -5.6058 F              1 S1                 0.0000
     25 ****         1.4122   1.5087  -3.4736 C.ar           1 S1                 0.0000
     26 ****        -1.9499  -1.9821   0.2877 H              1 S1                 0.0000
     27 ****        -3.1145   2.3192   0.9496 H              1 S1                 0.0000
     28 ****        -3.2050   2.6766   2.6768 H              1 S1                 0.0000
     29 ****        -4.4465   1.6721   1.9186 H              1 S1                 0.0000
     30 ****        -3.0271  -0.0614   0.3984 H              1 S1                 0.0000
     31 ****        -1.9371  -3.4976   2.2226 H              1 S1                 0.0000
     32 ****        -3.4759  -2.6569   2.1043 H              1 S1                 0.0000
     33 ****        -2.2996  -2.1675   3.3168 H              1 S1                 0.0000
     34 ****         2.6929  -1.5864   4.3320 H              1 S1                 0.0000
     35 ****         4.9424  -1.0203   3.3979 H              1 S1                 0.0000
     36 ****         5.2125  -0.4094   1.0228 H              1 S1                 0.0000
     37 ****         3.2543  -0.3350  -0.5178 H              1 S1                 0.0000
     38 ****         1.1751  -1.1649  -1.4851 H              1 S1                 0.0000
     39 ****        -0.5454  -1.0342  -1.2364 H              1 S1                 0.0000
     40 ****         1.4560   1.2616  -0.8958 H              1 S1                 0.0000
     41 ****        -0.3404   2.4984  -0.5195 H              1 S1                 0.0000
     42 ****        -1.8450   0.8371  -2.6738 H              1 S1                 0.0000
     43 ****        -2.1252   1.3042  -5.0941 H              1 S1                 0.0000
     44 ****        -0.1521   1.9014  -6.4872 H              1 S1                 0.0000
     45 ****         2.3977   1.5651  -3.0349 H              1 S1                 0.0000
     46 ****        -0.0572  -1.8016   3.4942 H              1 S1                 0.0000
     47 ****        -2.0572   1.2678   3.9873 LP             1 S1                 0.0000
     48 ****        -1.4511  -0.2794   3.4986 LP             1 S1                 0.0000
     49 ****        -0.3343   1.3313   0.5619 LP             1 S1                 0.0000
     50 ****        -1.3923   1.3157  -0.6819 LP             1 S1                 0.0000
@<TRIPOS>BOND
    1    1    2 1     
    2    1   27 1     
    3    1   28 1     
    4    1   29 1     
    5    2    3 2     
    6    2    4 am    
    7    4    5 1     
    8    4   30 1     
    9    5   26 1     
   10    5    6 1     
   11    5    7 1     
   12    6   31 1     
   13    6   32 1     
   14    6   33 1     
   15    7   15 1     
   16    7    8 2     
   17    8    9 1     
   18    8   46 1     
   19    9   14 ar    
   20    9   10 ar    
   21   10   11 ar    
   22   10   34 1     
   23   11   12 ar    
   24   11   35 1     
   25   12   13 ar    
   26   12   36 1     
   27   13   14 ar    
   28   13   37 1     
   29   14   15 1     
   30   15   16 1     
   31   16   17 1     
   32   16   38 1     
   33   16   39 1     
   34   17   18 1     
   35   17   19 1     
   36   17   40 1     
   37   18   41 1     
   38   19   25 ar    
   39   19   20 ar    
   40   20   21 ar    
   41   20   42 1     
   42   21   22 ar    
   43   21   43 1     
   44   22   23 ar    
   45   22   44 1     
   46   23   24 1     
   47   23   25 ar    
   48   25   45 1     
   49    3   47 1     
   50    3   48 1     
   51   18   49 1     
   52   18   50 1     
@<TRIPOS>SUBSTRUCTURE
      1 S1             1
@<TRIPOS>SET
LONE_PAIRS      STATIC     ATOMS    <user>   **** ""
4 47 48 49 50
DONOR_HYDROGENS      STATIC     ATOMS    <user>   **** ""
3 30 46 41
ATOM$BLUE        STATIC     ATOMS    COLORGROUP SYSTEM
4 47 48 49 50
ATOM$RED        STATIC     ATOMS    COLORGROUP SYSTEM
3 30 46 41
