AV-unprocessed.smi:1692|AV-procd|sdf|6784|dock2
  -GOLD-   22720 7543D 1   1.00000     0.00000
 Structure written by MMmdl.
 45 46  0  0  0  0  0  0  0  0  1 V2000
  152.3145  137.8622  155.9683 C   0  0  0  0  0  0  0  0  0  0  0  0
  151.8708  138.7268  154.7760 C   0  0  1  0  0  0  0  0  0  0  0  0
  150.5223  138.2869  154.1705 C   0  0  0  0  0  0  0  0  0  0  0  0
  149.3800  138.6499  155.0073 N   0  0  0  0  0  0  0  0  0  0  0  0
  148.1018  138.2644  154.4107 C   0  0  0  0  0  0  0  0  0  0  0  0
  147.5968  139.1931  153.2932 C   0  0  0  0  0  0  0  0  0  0  0  0
  146.0640  139.1754  153.1748 C   0  0  0  0  0  0  0  0  0  0  0  0
  145.6123  138.2437  152.1474 N   0  0  0  0  0  0  0  0  0  0  0  0
  145.7838  136.9141  152.1865 C   0  0  0  0  0  0  0  0  0  0  0  0
  146.3483  136.3304  153.1122 O   0  0  0  0  0  0  0  0  0  0  0  0
  145.2636  136.3235  151.0960 N   0  0  0  0  0  0  0  0  0  0  0  0
  145.2360  134.9396  150.7758 C   0  0  0  0  0  0  0  0  0  0  0  0
  144.0787  134.5065  150.0897 C   0  0  0  0  0  0  0  0  0  0  0  0
  143.9535  133.1508  149.7288 C   0  0  0  0  0  0  0  0  0  0  0  0
  144.9901  132.2616  150.0634 C   0  0  0  0  0  0  0  0  0  0  0  0
  146.1086  132.7744  150.7460 C   0  0  0  0  0  0  0  0  0  0  0  0
  146.2305  134.0731  151.0931 N   0  0  0  0  0  0  0  0  0  0  0  0
  149.4208  140.0834  155.2674 C   0  0  0  0  0  0  0  0  0  0  0  0
  150.7398  140.5115  155.9353 C   0  0  2  0  0  0  0  0  0  0  0  0
  150.8193  142.0285  156.1354 C   0  0  0  0  0  0  0  0  0  0  0  0
  151.8355  140.1145  155.1128 O   0  0  0  0  0  0  0  0  0  0  0  0
  152.4448  136.8231  155.6662 H   0  0  0  0  0  0  0  0  0  0  0  0
  151.5862  137.8760  156.7786 H   0  0  0  0  0  0  0  0  0  0  0  0
  153.2664  138.2115  156.3683 H   0  0  0  0  0  0  0  0  0  0  0  0
  152.6341  138.6183  154.0050 H   0  0  0  0  0  0  0  0  0  0  0  0
  150.4108  138.7485  153.1882 H   0  0  0  0  0  0  0  0  0  0  0  0
  150.5486  137.2108  154.0030 H   0  0  0  0  0  0  0  0  0  0  0  0
  148.2047  137.2651  153.9852 H   0  0  0  0  0  0  0  0  0  0  0  0
  147.3406  138.1817  155.1879 H   0  0  0  0  0  0  0  0  0  0  0  0
  147.9278  140.2146  153.4799 H   0  0  0  0  0  0  0  0  0  0  0  0
  148.0378  138.8911  152.3421 H   0  0  0  0  0  0  0  0  0  0  0  0
  145.6217  138.8702  154.1235 H   0  0  0  0  0  0  0  0  0  0  0  0
  145.6849  140.1767  152.9637 H   0  0  0  0  0  0  0  0  0  0  0  0
  145.1387  138.6410  151.3494 H   0  0  0  0  0  0  0  0  0  0  0  0
  144.8344  136.9341  150.4169 H   0  0  0  0  0  0  0  0  0  0  0  0
  143.2913  135.2029  149.8402 H   0  0  0  0  0  0  0  0  0  0  0  0
  143.0768  132.8002  149.2045 H   0  0  0  0  0  0  0  0  0  0  0  0
  144.9302  131.2152  149.8038 H   0  0  0  0  0  0  0  0  0  0  0  0
  146.9270  132.1255  151.0208 H   0  0  0  0  0  0  0  0  0  0  0  0
  149.2904  140.6314  154.3325 H   0  0  0  0  0  0  0  0  0  0  0  0
  148.5865  140.3647  155.9109 H   0  0  0  0  0  0  0  0  0  0  0  0
  150.8264  140.0328  156.9112 H   0  0  0  0  0  0  0  0  0  0  0  0
  150.0131  142.3820  156.7786 H   0  0  0  0  0  0  0  0  0  0  0  0
  150.7460  142.5565  155.1843 H   0  0  0  0  0  0  0  0  0  0  0  0
  151.7636  142.3106  156.6013 H   0  0  0  0  0  0  0  0  0  0  0  0
  1  2  1  0  0  0  0
  1 22  1  0  0  0  0
  1 23  1  0  0  0  0
  1 24  1  0  0  0  0
  2 21  1  0  0  0  0
  2  3  1  0  0  0  0
  2 25  1  0  0  0  0
  3  4  1  0  0  0  0
  3 26  1  0  0  0  0
  3 27  1  0  0  0  0
  4  5  1  0  0  0  0
  4 18  1  0  0  0  0
  5  6  1  0  0  0  0
  5 28  1  0  0  0  0
  5 29  1  0  0  0  0
  6  7  1  0  0  0  0
  6 30  1  0  0  0  0
  6 31  1  0  0  0  0
  7  8  1  0  0  0  0
  7 32  1  0  0  0  0
  7 33  1  0  0  0  0
  8  9  1  0  0  0  0
  8 34  1  0  0  0  0
  9 10  2  0  0  0  0
  9 11  1  0  0  0  0
 11 12  1  0  0  0  0
 11 35  1  0  0  0  0
 12 17  1  0  0  0  0
 12 13  2  0  0  0  0
 13 14  1  0  0  0  0
 13 36  1  0  0  0  0
 14 15  2  0  0  0  0
 14 37  1  0  0  0  0
 15 16  1  0  0  0  0
 15 38  1  0  0  0  0
 16 17  2  0  0  0  0
 16 39  1  0  0  0  0
 18 19  1  0  0  0  0
 18 40  1  0  0  0  0
 18 41  1  0  0  0  0
 19 20  1  0  0  0  0
 19 21  1  0  0  0  0
 19 42  1  0  0  0  0
 20 43  1  0  0  0  0
 20 44  1  0  0  0  0
 20 45  1  0  0  0  0
M  END
> <s_m_source_file>
AV-unprocessed.smi

> <i_m_source_file_index>
1692

> <i_lp_mmshare_version>
43012

> <i_f3d_flags>
0

> <s_epik_input>
W0NIM11bQ0BASF0xW0NIMl1OKFtDSDJdW0NASF0oTzEpW0NIM10pW0NIMl1bQ0gyXVtDSDJdW05IXUMoPU8pW05IXWMyW2NIXVtjSF1bY0hdW2NIXW4y

> <s_epik_cmdline>
J2VwaWtfcHl0aG9uJywgJy1waCcsICc3LjAnLCAnLXRuJywgJzgnLCAnLW1hJywgJzIwMCcsICctbWV0YWxfYmluZGluZycsICctaW1hZScsICc8aW5maWxlLm1hZT4nLCAnLW9tYWUnLCAnPG91dGZpbGUubWFlPic=

> <r_epik_Ionization_Penalty>
0.594711

> <r_epik_Ionization_Penalty_Charging>
0

> <r_epik_Ionization_Penalty_Neutral>
0.594711

> <r_epik_State_Penalty>
0.608529

> <r_epik_Charging_Adjusted_Penalty>
0.608529

> <i_epik_Tot_Q>
0

> <i_epik_Tot_abs_Q>
0

> <r_epik_Metal_State_Penalty>
0.608528

> <b_epik_Metal_Only>
0

> <s_lp_Force_Field>
OPLS_2005

> <r_lp_Energy>
25.6838

> <b_lp_Chiralities_Consistent>
1

> <s_lp_Variant>
AV-unprocessed.smi:1692-7

> <Gold.Version>
5.8.1

> <Gold.Id.Protein>
6NUR|6NUR_protein|mol2

> <Gold.PLP.Fitness>
43.6595

> <Gold.PLP.PLP>
-33.6077

> <Gold.PLP.part.hbond>
-4.0000

> <Gold.PLP.part.metal>
0.0000

> <Gold.PLP.part.buried>
-1.2280

> <Gold.PLP.part.nonpolar>
-30.9340

> <Gold.PLP.part.repulsive>
2.1898

> <Gold.PLP.ligand.clash>
0.0000

> <Gold.PLP.ligand.torsion>
0.7987

> <Gold.PLP.Chemscore.Hbond>
2.8713

> <Gold.PLP.Chemscore.CHOScore>
1.0000

> <Gold.PLP.Chemscore.Metal>
0.0000

> <Gold.Chemscore.Hbonds>
donor molecule, donor type, donor heavy atom, donor atom, acceptor molecule, acceptor atom, score
      L1  H     8    34       P1 10171  1.00
      L1  H    11    35       P1 10171  1.00
      P1  H  7989  7998       L1    21  0.88
      L1  C    16    39       P1 10747  1.00

> <Gold.PLP.Chemscore.Internal.Correction>
0.0354

> <Gold.Rescore>
     Score         DG    S(hbond)    S(metal)    S(lipo)     H(rot)  DE(clash)    DE(int)     intcor
     13.92     -18.59       2.02        0.00      92.23       1.73       1.86       2.81       ----

> <Gold.Chemscore.Fitness>
13.9188

> <Gold.Chemscore.DG>
-18.5915

> <Gold.Chemscore.ZeroCoef>
-5.4800

> <Gold.Chemscore.Hbond>
2.0183

> <Gold.Chemscore.Metal>
0.0000

> <Gold.Chemscore.Lipo>
92.2254

> <Gold.Chemscore.Internal_Hbond>
0.0000

> <Gold.Chemscore.DEClash>
1.8602

> <Gold.Chemscore.DEInternal>
2.8126

> <Gold.Chemscore.Rot>
1.7266

> <Gold.Chemscore.Internal.Correction>
   9.000000E+99

> <Gold.Chemscore.Hbonds>
donor molecule, donor type, donor heavy atom, donor atom, acceptor molecule, acceptor atom, score
      L1  H     8    34       P1 10171  0.95
      L1  H    11    35       P1 10171  0.95
      P1  H  7989  7998       L1    21  0.21

> <Gold.Chemscore.Hbond.Weighted>
-6.7412

> <Gold.Chemscore.Metal.Weighted>
-0.0000

> <Gold.Chemscore.Lipo.Weighted>
-10.7904

> <Gold.Chemscore.Internal_Hbond.Weighted>
0.0000

> <Gold.Chemscore.DEClash.Weighted>
1.8602

> <Gold.Chemscore.DEInternal.Weighted>
2.8126

> <Gold.Chemscore.Rot.Weighted>
4.4200

> <Gold.Chemscore.Internal.Correction.Weighted>
   9.000000E+99

> <Gold.Protein.RotatedTorsions>
[ 6907 6896 6895 6894 ] final -141.42 input  -60.11 | X-H torsion
[ 7974 7965 7964 7962 ] final -121.23 input  175.53 | X-H torsion
[ 8008 7997 7996 7995 ] final -167.70 input   59.86 | X-H torsion
[ 10167 10162 10161 10158 ] final  140.97 input  -65.29 | X-H torsion
[ 10718 10713 10712 10709 ] final  -27.68 input   66.30 | X-H torsion
[ 10763 10752 10751 10750 ] final -116.52 input  -60.55 | X-H torsion
[ 11005 11000 10999 10996 ] final  -60.29 input  -57.11 | X-H torsion

> <Gold.Protein.ActiveResidues>
 VAL166  LYS551  ARG553  GLY616  TRP617  ASP618  TYR619  PRO620  LYS621  CYS622 
 ASP623  PHE694  ASN695  SER759  ASP760  ASP761  ALA762  ILE779  LEU786  VAL792 
 PHE793  MET794  SER795  GLU796  ALA797  LYS798  CYS799  TRP800  GLU811  SER814 

> <Gold.Protein.RotatedAtoms>
  151.0736  133.5446  159.2625 H   0  0  0  0  0  0  0  0  0  0  0  0  # atno 6907 bound_to 6896
  151.2376  135.0577  159.9022 H   0  0  0  0  0  0  0  0  0  0  0  0  # atno 6908 bound_to 6896
  152.5415  134.0515  159.8166 H   0  0  0  0  0  0  0  0  0  0  0  0  # atno 6909 bound_to 6896
  145.0426  140.8157  143.4257 H   0  0  0  0  0  0  0  0  0  0  0  0  # atno 7974 bound_to 7965
  155.8813  140.1009  157.1483 H   0  0  0  0  0  0  0  0  0  0  0  0  # atno 8008 bound_to 7997
  154.4005  140.1328  156.4263 H   0  0  0  0  0  0  0  0  0  0  0  0  # atno 8009 bound_to 7997
  155.7640  140.3462  155.5215 H   0  0  0  0  0  0  0  0  0  0  0  0  # atno 8010 bound_to 7997
  139.5033  144.6201  151.6071 H   0  0  0  0  0  0  0  0  0  0  0  0  # atno 10167 bound_to 10162
  156.4350  130.4453  149.7091 H   0  0  0  0  0  0  0  0  0  0  0  0  # atno 10718 bound_to 10713
  154.8522  135.4343  154.1834 H   0  0  0  0  0  0  0  0  0  0  0  0  # atno 10763 bound_to 10752
  153.2919  135.6962  153.7291 H   0  0  0  0  0  0  0  0  0  0  0  0  # atno 10764 bound_to 10752
  153.6455  135.3460  155.3059 H   0  0  0  0  0  0  0  0  0  0  0  0  # atno 10765 bound_to 10752
  141.1281  133.6621  156.5201 H   0  0  0  0  0  0  0  0  0  0  0  0  # atno 11005 bound_to 11000
  145.1628  139.2449  143.5383 LP  0  0  0  0  0  0  0  0  0  0  0  0  # atno 17320 bound_to 7965
  146.3511  140.1359  142.8596 LP  0  0  0  0  0  0  0  0  0  0  0  0  # atno 17321 bound_to 7965
  140.5900  143.9796  150.6319 LP  0  0  0  0  0  0  0  0  0  0  0  0  # atno 17342 bound_to 10162
  140.2973  143.3284  152.1005 LP  0  0  0  0  0  0  0  0  0  0  0  0  # atno 17343 bound_to 10162
  156.3979  130.7660  151.2665 LP  0  0  0  0  0  0  0  0  0  0  0  0  # atno 17370 bound_to 10713
  157.7507  131.0248  150.3894 LP  0  0  0  0  0  0  0  0  0  0  0  0  # atno 17371 bound_to 10713
  140.4299  134.7111  157.4936 LP  0  0  0  0  0  0  0  0  0  0  0  0  # atno 17394 bound_to 11000
  140.0301  134.6419  155.9118 LP  0  0  0  0  0  0  0  0  0  0  0  0  # atno 17395 bound_to 11000

$$$$
