AV-unprocessed.smi:1777|AV-procd|sdf|7178|dock3
  -GOLD-   22720 8413D 1   1.00000     0.00000
 Structure written by MMmdl.
 38 39  0  0  0  0  0  0  0  0  2 V2000
  145.2046  138.1988  153.7761 O   0  0  0  0  0  0  0  0  0  0  0  0
  146.1692  137.7777  153.1379 C   0  0  0  0  0  0  0  0  0  0  0  0
  146.1513  136.6383  152.4311 N   0  0  0  0  0  0  0  0  0  0  0  0
  145.0063  135.7391  152.2915 C   0  0  0  0  0  0  0  0  0  0  0  0
  145.1714  134.7102  151.1450 C   0  0  0  0  0  0  0  0  0  0  0  0
  145.0878  135.4378  149.9323 O   0  0  0  0  0  0  0  0  0  0  0  0
  146.5204  133.9470  151.1910 C   0  0  0  0  0  0  0  0  0  0  0  0
  146.6185  132.8304  150.1354 C   0  0  0  0  0  0  0  0  0  0  0  0
  145.4367  131.8567  150.2354 C   0  0  0  0  0  0  0  0  0  0  0  0
  144.1019  132.6037  150.1140 C   0  0  0  0  0  0  0  0  0  0  0  0
  143.9868  133.7142  151.1731 C   0  0  0  0  0  0  0  0  0  0  0  0
  147.3740  138.3706  153.0753 N   0  0  0  0  0  0  0  0  0  0  0  0
  147.7838  139.5996  153.6604 C   0  0  0  0  0  0  0  0  0  0  0  0
  149.0969  139.6752  154.1757 C   0  0  0  0  0  0  0  0  0  0  0  0
  149.5511  140.8807  154.7486 C   0  0  0  0  0  0  0  0  0  0  0  0
  148.7337  141.9548  154.7913 N   0  3  0  0  0  0  0  0  0  0  0  0
  147.4767  141.9356  154.2985 C   0  0  0  0  0  0  0  0  0  0  0  0
  146.9674  140.7583  153.7139 C   0  0  0  0  0  0  0  0  0  0  0  0
  146.9952  136.3620  151.9511 H   0  0  0  0  0  0  0  0  0  0  0  0
  144.8312  135.2145  153.2325 H   0  0  0  0  0  0  0  0  0  0  0  0
  144.1146  136.3457  152.1281 H   0  0  0  0  0  0  0  0  0  0  0  0
  145.5368  134.9487  149.2596 H   0  0  0  0  0  0  0  0  0  0  0  0
  147.3569  134.6335  151.0564 H   0  0  0  0  0  0  0  0  0  0  0  0
  146.6462  133.5049  152.1801 H   0  0  0  0  0  0  0  0  0  0  0  0
  146.6485  133.2676  149.1367 H   0  0  0  0  0  0  0  0  0  0  0  0
  147.5558  132.2873  150.2594 H   0  0  0  0  0  0  0  0  0  0  0  0
  145.5118  131.0979  149.4560 H   0  0  0  0  0  0  0  0  0  0  0  0
  145.4766  131.3276  151.1884 H   0  0  0  0  0  0  0  0  0  0  0  0
  144.0089  133.0311  149.1150 H   0  0  0  0  0  0  0  0  0  0  0  0
  143.2745  131.9023  150.2243 H   0  0  0  0  0  0  0  0  0  0  0  0
  143.9370  133.2453  152.1569 H   0  0  0  0  0  0  0  0  0  0  0  0
  143.0422  134.2454  151.0469 H   0  0  0  0  0  0  0  0  0  0  0  0
  148.0963  137.8558  152.5931 H   0  0  0  0  0  0  0  0  0  0  0  0
  149.7516  138.8162  154.1398 H   0  0  0  0  0  0  0  0  0  0  0  0
  150.5365  141.0179  155.1693 H   0  0  0  0  0  0  0  0  0  0  0  0
  146.9214  142.8589  154.3794 H   0  0  0  0  0  0  0  0  0  0  0  0
  145.9677  140.7711  153.3073 H   0  0  0  0  0  0  0  0  0  0  0  0
  149.0818  142.8186  155.2083 H   0  0  0  0  0  0  0  0  0  0  0  0
  1  2  2  0  0  0  0
  2  3  1  0  0  0  0
  2 12  1  0  0  0  0
  3  4  1  0  0  0  0
  3 19  1  0  0  0  0
  4  5  1  0  0  0  0
  4 20  1  0  0  0  0
  4 21  1  0  0  0  0
  5 11  1  0  0  0  0
  5  6  1  0  0  0  0
  5  7  1  0  0  0  0
  6 22  1  0  0  0  0
  7  8  1  0  0  0  0
  7 23  1  0  0  0  0
  7 24  1  0  0  0  0
  8  9  1  0  0  0  0
  8 25  1  0  0  0  0
  8 26  1  0  0  0  0
  9 10  1  0  0  0  0
  9 27  1  0  0  0  0
  9 28  1  0  0  0  0
 10 11  1  0  0  0  0
 10 29  1  0  0  0  0
 10 30  1  0  0  0  0
 11 31  1  0  0  0  0
 11 32  1  0  0  0  0
 12 13  1  0  0  0  0
 12 33  1  0  0  0  0
 13 18  1  0  0  0  0
 13 14  2  0  0  0  0
 14 15  1  0  0  0  0
 14 34  1  0  0  0  0
 15 16  2  0  0  0  0
 15 35  1  0  0  0  0
 16 17  1  0  0  0  0
 16 38  1  0  0  0  0
 17 18  2  0  0  0  0
 17 36  1  0  0  0  0
 18 37  1  0  0  0  0
M  CHG  1  16   1
M  END
> <s_m_source_file>
AV-unprocessed.smi

> <i_m_source_file_index>
1777

> <i_lp_mmshare_version>
43012

> <i_f3d_flags>
0

> <s_epik_input>
W2NIXTFbY0hdbltjSF1bY0hdYzFbTkhdQyg9TylbTkhdW0NIMl1DMihbT0hdKVtDSDJdW0NIMl1bQ0gyXVtDSDJdW0NIMl0y

> <s_epik_cmdline>
J2VwaWtfcHl0aG9uJywgJy1waCcsICc3LjAnLCAnLXRuJywgJzgnLCAnLW1hJywgJzIwMCcsICctbWV0YWxfYmluZGluZycsICctaW1hZScsICc8aW5maWxlLm1hZT4nLCAnLW9tYWUnLCAnPG91dGZpbGUubWFlPic=

> <r_epik_Ionization_Penalty>
0.972463

> <r_epik_Ionization_Penalty_Charging>
0.972441

> <r_epik_Ionization_Penalty_Neutral>
2.25472e-05

> <r_epik_State_Penalty>
1.01855

> <r_epik_Charging_Adjusted_Penalty>
1.99099

> <i_epik_Tot_Q>
1

> <i_epik_Tot_abs_Q>
1

> <r_epik_Metal_State_Penalty>
1.12508

> <b_epik_Metal_Only>
0

> <s_lp_Force_Field>
OPLS_2005

> <r_lp_Energy>
24.5751

> <b_lp_Chiralities_Consistent>
1

> <s_lp_Variant>
AV-unprocessed.smi:1777-2

> <Gold.Version>
5.8.1

> <Gold.Id.Protein>
6NUR|6NUR_protein|mol2

> <Gold.PLP.Fitness>
48.6438

> <Gold.PLP.PLP>
-34.7781

> <Gold.PLP.part.hbond>
-3.9377

> <Gold.PLP.part.metal>
0.0000

> <Gold.PLP.part.buried>
-2.6686

> <Gold.PLP.part.nonpolar>
-29.7058

> <Gold.PLP.part.repulsive>
2.1121

> <Gold.PLP.ligand.clash>
0.0000

> <Gold.PLP.ligand.torsion>
0.4387

> <Gold.PLP.Chemscore.Hbond>
4.9120

> <Gold.PLP.Chemscore.CHOScore>
0.0000

> <Gold.PLP.Chemscore.Metal>
0.0000

> <Gold.Chemscore.Hbonds>
donor molecule, donor type, donor heavy atom, donor atom, acceptor molecule, acceptor atom, score
      L1  H     3    19       P1  7948  1.00
      L1  H     6    22       P1  7921  1.00
      L1  H    12    33       P1  7948  1.00
      L1  H    16    38       P1  8028  2.00

> <Gold.PLP.Chemscore.Internal.Correction>
0.0071

> <Gold.Rescore>
     Score         DG    S(hbond)    S(metal)    S(lipo)     H(rot)  DE(clash)    DE(int)     intcor
     20.45     -22.55       3.52        0.00      84.03       1.77       0.99       1.11       ----

> <Gold.Chemscore.Fitness>
20.4483

> <Gold.Chemscore.DG>
-22.5467

> <Gold.Chemscore.ZeroCoef>
-5.4800

> <Gold.Chemscore.Hbond>
3.5201

> <Gold.Chemscore.Metal>
0.0000

> <Gold.Chemscore.Lipo>
84.0308

> <Gold.Chemscore.Internal_Hbond>
0.0000

> <Gold.Chemscore.DEClash>
0.9896

> <Gold.Chemscore.DEInternal>
1.1088

> <Gold.Chemscore.Rot>
1.7664

> <Gold.Chemscore.Internal.Correction>
   9.000000E+99

> <Gold.Chemscore.Hbonds>
donor molecule, donor type, donor heavy atom, donor atom, acceptor molecule, acceptor atom, score
      L1  H     3    19       P1  7948  0.95
      L1  H     6    22       P1  7921  0.94
      L1  H    12    33       P1  7948  0.97
      L1  H    16    38       P1  8028  0.94

> <Gold.Chemscore.Hbond.Weighted>
-11.7571

> <Gold.Chemscore.Metal.Weighted>
-0.0000

> <Gold.Chemscore.Lipo.Weighted>
-9.8316

> <Gold.Chemscore.Internal_Hbond.Weighted>
0.0000

> <Gold.Chemscore.DEClash.Weighted>
0.9896

> <Gold.Chemscore.DEInternal.Weighted>
1.1088

> <Gold.Chemscore.Rot.Weighted>
4.5219

> <Gold.Chemscore.Internal.Correction.Weighted>
   9.000000E+99

> <Gold.Protein.RotatedTorsions>
[ 6907 6896 6895 6894 ] final  -58.78 input  -60.11 | X-H torsion
[ 7974 7965 7964 7962 ] final -127.92 input  175.53 | X-H torsion
[ 8008 7997 7996 7995 ] final  158.04 input   59.86 | X-H torsion
[ 10167 10162 10161 10158 ] final   44.56 input  -65.29 | X-H torsion
[ 10718 10713 10712 10709 ] final -129.71 input   66.30 | X-H torsion
[ 10763 10752 10751 10750 ] final  -54.74 input  -60.55 | X-H torsion
[ 11005 11000 10999 10996 ] final -127.79 input  -57.11 | X-H torsion

> <Gold.Protein.ActiveResidues>
 VAL166  LYS551  ARG553  GLY616  TRP617  ASP618  TYR619  PRO620  LYS621  CYS622 
 ASP623  PHE694  ASN695  SER759  ASP760  ASP761  ALA762  ILE779  LEU786  VAL792 
 PHE793  MET794  SER795  GLU796  ALA797  LYS798  CYS799  TRP800  GLU811  SER814 

> <Gold.Protein.RotatedAtoms>
  150.7981  134.7055  159.6573 H   0  0  0  0  0  0  0  0  0  0  0  0  # atno 6907 bound_to 6896
  152.4095  134.6146  160.0044 H   0  0  0  0  0  0  0  0  0  0  0  0  # atno 6908 bound_to 6896
  151.6393  133.3290  159.3162 H   0  0  0  0  0  0  0  0  0  0  0  0  # atno 6909 bound_to 6896
  144.9722  140.7557  143.4663 H   0  0  0  0  0  0  0  0  0  0  0  0  # atno 7974 bound_to 7965
  156.2327  140.1869  156.7199 H   0  0  0  0  0  0  0  0  0  0  0  0  # atno 8008 bound_to 7997
  154.6051  140.0630  156.9448 H   0  0  0  0  0  0  0  0  0  0  0  0  # atno 8009 bound_to 7997
  155.2108  140.3300  155.4331 H   0  0  0  0  0  0  0  0  0  0  0  0  # atno 8010 bound_to 7997
  140.3331  144.2564  150.6165 H   0  0  0  0  0  0  0  0  0  0  0  0  # atno 10167 bound_to 10162
  156.2074  130.6896  151.0610 H   0  0  0  0  0  0  0  0  0  0  0  0  # atno 10718 bound_to 10713
  154.1796  135.6445  153.5030 H   0  0  0  0  0  0  0  0  0  0  0  0  # atno 10763 bound_to 10752
  153.0062  135.5403  154.6528 H   0  0  0  0  0  0  0  0  0  0  0  0  # atno 10764 bound_to 10752
  154.5889  135.2932  155.0629 H   0  0  0  0  0  0  0  0  0  0  0  0  # atno 10765 bound_to 10752
  140.9570  134.0988  157.4006 H   0  0  0  0  0  0  0  0  0  0  0  0  # atno 11005 bound_to 11000
  145.2542  139.2019  143.4926 LP  0  0  0  0  0  0  0  0  0  0  0  0  # atno 17320 bound_to 7965
  146.3385  140.2460  142.8597 LP  0  0  0  0  0  0  0  0  0  0  0  0  # atno 17321 bound_to 7965
  140.5379  143.2229  151.8133 LP  0  0  0  0  0  0  0  0  0  0  0  0  # atno 17342 bound_to 10162
  139.4853  144.4638  151.9509 LP  0  0  0  0  0  0  0  0  0  0  0  0  # atno 17343 bound_to 10162
  157.7019  131.0772  150.6791 LP  0  0  0  0  0  0  0  0  0  0  0  0  # atno 17370 bound_to 10713
  156.6850  130.4578  149.5616 LP  0  0  0  0  0  0  0  0  0  0  0  0  # atno 17371 bound_to 10713
  139.8865  135.0082  156.6504 LP  0  0  0  0  0  0  0  0  0  0  0  0  # atno 17394 bound_to 11000
  140.7522  133.8888  155.8355 LP  0  0  0  0  0  0  0  0  0  0  0  0  # atno 17395 bound_to 11000

$$$$
