AV-unprocessed.smi:21|AV-procd|sdf|157|dock3
  -GOLD-   2262015383D 1   1.00000     0.00000
 Structure written by MMmdl.
 61 64  0  0  0  0  0  0  0  0  1 V2000
  144.0290  132.8587  149.8326 C   0  0  0  0  0  0  0  0  0  0  0  0
  144.0410  134.0264  150.6381 O   0  0  0  0  0  0  0  0  0  0  0  0
  145.3328  134.6007  150.7839 C   0  0  1  0  0  0  0  0  0  0  0  0
  145.2778  135.9702  151.4826 C   0  0  0  0  0  0  0  0  0  0  0  0
  146.3199  135.8612  152.6009 C   0  0  1  0  0  0  0  0  0  0  0  0
  146.0803  136.8589  153.7537 C   0  0  0  0  0  0  0  0  0  0  0  0
  146.6862  138.1681  153.5115 N   0  0  0  0  0  0  0  0  0  0  0  0
  146.5737  138.7298  152.1676 C   0  0  0  0  0  0  0  0  0  0  0  0
  147.8452  138.3976  154.1811 C   0  0  0  0  0  0  0  0  0  0  0  0
  148.5607  137.3497  154.6712 N   0  0  0  0  0  0  0  0  0  0  0  0
  149.6953  137.5619  155.3438 C   0  0  0  0  0  0  0  0  0  0  0  0
  150.2911  138.7205  155.6299 N   0  0  0  0  0  0  0  0  0  0  0  0
  149.5869  139.7768  155.1319 C   0  0  0  0  0  0  0  0  0  0  0  0
  148.3632  139.7045  154.4074 C   0  0  0  0  0  0  0  0  0  0  0  0
  147.9434  140.9835  154.0655 N   0  0  0  0  0  0  0  0  0  0  0  0
  148.8584  141.7663  154.5664 C   0  0  0  0  0  0  0  0  0  0  0  0
  149.8943  141.1256  155.2088 N   0  0  0  0  0  0  0  0  0  0  0  0
  151.0444  141.7483  155.8501 C   0  0  0  0  0  0  0  0  0  0  0  0
  151.0932  141.5746  157.3935 C   0  0  1  0  0  0  0  0  0  0  0  0
  151.4044  140.1170  157.8075 C   0  0  0  0  0  0  0  0  0  0  0  0
  152.7939  139.8688  157.7652 O   0  0  0  0  0  0  0  0  0  0  0  0
  152.0646  142.5758  158.0731 C   0  0  2  0  0  0  0  0  0  0  0  0
  152.0174  142.5871  159.5924 C   0  0  0  0  0  0  0  0  0  0  0  0
  152.6556  143.9296  159.9366 C   0  0  0  0  0  0  0  0  0  0  0  0
  152.3762  144.7887  158.8370 O   0  0  0  0  0  0  0  0  0  0  0  0
  151.7548  144.0501  157.7918 C   0  0  0  0  0  0  0  0  0  0  0  0
  146.2685  134.4626  152.9916 N   0  0  0  0  0  0  0  0  0  0  0  0
  147.4064  134.0313  153.7927 C   0  0  0  0  0  0  0  0  0  0  0  0
  146.1791  133.7420  151.7336 C   0  0  0  0  0  0  0  0  0  0  0  0
  145.8346  134.6659  149.8169 H   0  0  0  0  0  0  0  0  0  0  0  0
  147.2999  136.0518  152.1613 H   0  0  0  0  0  0  0  0  0  0  0  0
  143.0146  132.4644  149.7786 H   0  0  0  0  0  0  0  0  0  0  0  0
  144.6676  132.0822  150.2554 H   0  0  0  0  0  0  0  0  0  0  0  0
  144.3598  133.0677  148.8148 H   0  0  0  0  0  0  0  0  0  0  0  0
  145.4787  136.7987  150.8028 H   0  0  0  0  0  0  0  0  0  0  0  0
  144.2887  136.1227  151.9142 H   0  0  0  0  0  0  0  0  0  0  0  0
  145.0099  136.9440  153.9429 H   0  0  0  0  0  0  0  0  0  0  0  0
  146.5128  136.4693  154.6752 H   0  0  0  0  0  0  0  0  0  0  0  0
  146.9640  139.7478  152.1349 H   0  0  0  0  0  0  0  0  0  0  0  0
  145.5332  138.7720  151.8481 H   0  0  0  0  0  0  0  0  0  0  0  0
  147.1256  138.1240  151.4482 H   0  0  0  0  0  0  0  0  0  0  0  0
  150.1971  136.6767  155.7057 H   0  0  0  0  0  0  0  0  0  0  0  0
  148.8006  142.8399  154.4722 H   0  0  0  0  0  0  0  0  0  0  0  0
  151.9475  141.3452  155.3919 H   0  0  0  0  0  0  0  0  0  0  0  0
  151.0423  142.8086  155.5949 H   0  0  0  0  0  0  0  0  0  0  0  0
  150.0933  141.8038  157.7658 H   0  0  0  0  0  0  0  0  0  0  0  0
  151.0211  139.8944  158.8033 H   0  0  0  0  0  0  0  0  0  0  0  0
  150.9379  139.4070  157.1256 H   0  0  0  0  0  0  0  0  0  0  0  0
  153.1450  139.9735  158.6364 H   0  0  0  0  0  0  0  0  0  0  0  0
  153.0907  142.3641  157.7694 H   0  0  0  0  0  0  0  0  0  0  0  0
  150.9837  142.5664  159.9416 H   0  0  0  0  0  0  0  0  0  0  0  0
  152.5478  141.7512  160.0493 H   0  0  0  0  0  0  0  0  0  0  0  0
  152.2729  144.3417  160.8706 H   0  0  0  0  0  0  0  0  0  0  0  0
  153.7373  143.8264  160.0289 H   0  0  0  0  0  0  0  0  0  0  0  0
  152.1097  144.3848  156.8177 H   0  0  0  0  0  0  0  0  0  0  0  0
  150.6803  144.2332  157.8362 H   0  0  0  0  0  0  0  0  0  0  0  0
  147.3419  132.9640  154.0061 H   0  0  0  0  0  0  0  0  0  0  0  0
  147.4345  134.5554  154.7476 H   0  0  0  0  0  0  0  0  0  0  0  0
  148.3481  134.2172  153.2746 H   0  0  0  0  0  0  0  0  0  0  0  0
  145.7668  132.7426  151.8766 H   0  0  0  0  0  0  0  0  0  0  0  0
  147.1745  133.6238  151.3022 H   0  0  0  0  0  0  0  0  0  0  0  0
  1  2  1  0  0  0  0
  1 32  1  0  0  0  0
  1 33  1  0  0  0  0
  1 34  1  0  0  0  0
  2  3  1  0  0  0  0
  3 30  1  0  0  0  0
  3 29  1  0  0  0  0
  3  4  1  0  0  0  0
  4  5  1  0  0  0  0
  4 35  1  0  0  0  0
  4 36  1  0  0  0  0
  5 31  1  0  0  0  0
  5  6  1  0  0  0  0
  5 27  1  0  0  0  0
  6  7  1  0  0  0  0
  6 37  1  0  0  0  0
  6 38  1  0  0  0  0
  7  8  1  0  0  0  0
  7  9  1  0  0  0  0
  8 39  1  0  0  0  0
  8 40  1  0  0  0  0
  8 41  1  0  0  0  0
  9 14  1  0  0  0  0
  9 10  2  0  0  0  0
 10 11  1  0  0  0  0
 11 12  2  0  0  0  0
 11 42  1  0  0  0  0
 12 13  1  0  0  0  0
 13 17  1  0  0  0  0
 13 14  2  0  0  0  0
 14 15  1  0  0  0  0
 15 16  2  0  0  0  0
 16 17  1  0  0  0  0
 16 43  1  0  0  0  0
 17 18  1  0  0  0  0
 18 19  1  0  0  0  0
 18 44  1  0  0  0  0
 18 45  1  0  0  0  0
 19 20  1  0  0  0  0
 19 22  1  0  0  0  0
 19 46  1  0  0  0  0
 20 21  1  0  0  0  0
 20 47  1  0  0  0  0
 20 48  1  0  0  0  0
 21 49  1  0  0  0  0
 22 26  1  0  0  0  0
 22 23  1  0  0  0  0
 22 50  1  0  0  0  0
 23 24  1  0  0  0  0
 23 51  1  0  0  0  0
 23 52  1  0  0  0  0
 24 25  1  0  0  0  0
 24 53  1  0  0  0  0
 24 54  1  0  0  0  0
 25 26  1  0  0  0  0
 26 55  1  0  0  0  0
 26 56  1  0  0  0  0
 27 28  1  0  0  0  0
 27 29  1  0  0  0  0
 28 57  1  0  0  0  0
 28 58  1  0  0  0  0
 28 59  1  0  0  0  0
 29 60  1  0  0  0  0
 29 61  1  0  0  0  0
M  END
> <s_m_source_file>
AV-unprocessed.smi

> <i_m_source_file_index>
21

> <i_lp_mmshare_version>
43012

> <i_f3d_flags>
0

> <s_epik_input>
W0NIM11PW0NASF0xW0NIMl1bQ0BIXShOKFtDSDNdKVtDSDJdMSlbQ0gyXU4oW0NIM10pYyhuW2NIXW4yKWMoYzIzKW5bY0hdbjNbQ0gyXVtDQEhdKFtDSDJdW09IXSlbQ0BASF00W0NIMl1bQ0gyXU9bQ0gyXTQ=

> <s_epik_cmdline>
J2VwaWtfcHl0aG9uJywgJy1waCcsICc3LjAnLCAnLXRuJywgJzgnLCAnLW1hJywgJzIwMCcsICctbWV0YWxfYmluZGluZycsICctaW1hZScsICc8aW5maWxlLm1hZT4nLCAnLW9tYWUnLCAnPG91dGZpbGUubWFlPic=

> <r_lp_tautomer_probability>
1

> <r_epik_Ionization_Penalty>
2.17574

> <r_epik_Ionization_Penalty_Charging>
0

> <r_epik_Ionization_Penalty_Neutral>
2.17574

> <r_epik_State_Penalty>
2.31336

> <r_epik_Charging_Adjusted_Penalty>
2.31336

> <i_epik_Tot_Q>
0

> <i_epik_Tot_abs_Q>
0

> <r_epik_Metal_State_Penalty>
2.31025

> <b_epik_Metal_Only>
0

> <s_lp_Force_Field>
OPLS_2005

> <r_lp_Energy>
71.0879

> <b_lp_Chiralities_Consistent>
1

> <s_lp_Variant>
AV-unprocessed.smi:21-37

> <Gold.Version>
5.8.1

> <Gold.Id.Protein>
6NUR|6NUR_protein|mol2

> <Gold.PLP.Fitness>
48.8840

> <Gold.PLP.PLP>
-44.3885

> <Gold.PLP.part.hbond>
-1.0000

> <Gold.PLP.part.metal>
0.0000

> <Gold.PLP.part.buried>
-4.0323

> <Gold.PLP.part.nonpolar>
-39.9374

> <Gold.PLP.part.repulsive>
1.2255

> <Gold.PLP.ligand.clash>
0.0000

> <Gold.PLP.ligand.torsion>
1.3567

> <Gold.PLP.Chemscore.Hbond>
1.0000

> <Gold.PLP.Chemscore.CHOScore>
1.0000

> <Gold.PLP.Chemscore.Metal>
0.0000

> <Gold.Chemscore.Hbonds>
donor molecule, donor type, donor heavy atom, donor atom, acceptor molecule, acceptor atom, score
      P1  H  7997  8010       L1    21  0.95
      L1  C    16    43       P1  8028  1.00

> <Gold.PLP.Chemscore.Internal.Correction>
1.2088

> <Gold.Rescore>
     Score         DG    S(hbond)    S(metal)    S(lipo)     H(rot)  DE(clash)    DE(int)     intcor
      6.13     -10.17       0.01        0.00     111.00       3.26       1.10       2.94       ----

> <Gold.Chemscore.Fitness>
6.1279

> <Gold.Chemscore.DG>
-10.1653

> <Gold.Chemscore.ZeroCoef>
-5.4800

> <Gold.Chemscore.Hbond>
0.0113

> <Gold.Chemscore.Metal>
0.0000

> <Gold.Chemscore.Lipo>
111.0017

> <Gold.Chemscore.Internal_Hbond>
0.0000

> <Gold.Chemscore.DEClash>
1.1023

> <Gold.Chemscore.DEInternal>
2.9351

> <Gold.Chemscore.Rot>
3.2576

> <Gold.Chemscore.Internal.Correction>
   9.000000E+99

> <Gold.Chemscore.Hbonds>
donor molecule, donor type, donor heavy atom, donor atom, acceptor molecule, acceptor atom, score
      P1  H  7997  8010       L1    21  0.21

> <Gold.Chemscore.Hbond.Weighted>
-0.0376

> <Gold.Chemscore.Metal.Weighted>
-0.0000

> <Gold.Chemscore.Lipo.Weighted>
-12.9872

> <Gold.Chemscore.Internal_Hbond.Weighted>
0.0000

> <Gold.Chemscore.DEClash.Weighted>
1.1023

> <Gold.Chemscore.DEInternal.Weighted>
2.9351

> <Gold.Chemscore.Rot.Weighted>
8.3395

> <Gold.Chemscore.Internal.Correction.Weighted>
   9.000000E+99

> <Gold.Protein.RotatedTorsions>
[ 6907 6896 6895 6894 ] final   83.84 input  -60.11 | X-H torsion
[ 7974 7965 7964 7962 ] final  131.94 input  175.53 | X-H torsion
[ 8008 7997 7996 7995 ] final   54.02 input   59.86 | X-H torsion
[ 10167 10162 10161 10158 ] final  111.34 input  -65.29 | X-H torsion
[ 10718 10713 10712 10709 ] final  -91.95 input   66.30 | X-H torsion
[ 10763 10752 10751 10750 ] final  134.44 input  -60.55 | X-H torsion
[ 11005 11000 10999 10996 ] final  144.88 input  -57.11 | X-H torsion

> <Gold.Protein.ActiveResidues>
 VAL166  LYS551  ARG553  GLY616  TRP617  ASP618  TYR619  PRO620  LYS621  CYS622 
 ASP623  PHE694  ASN695  SER759  ASP760  ASP761  ALA762  ILE779  LEU786  VAL792 
 PHE793  MET794  SER795  GLU796  ALA797  LYS798  CYS799  TRP800  GLU811  SER814 

> <Gold.Protein.RotatedAtoms>
  152.5337  134.2833  159.9015 H   0  0  0  0  0  0  0  0  0  0  0  0  # atno 6907 bound_to 6896
  151.2786  133.4214  159.2633 H   0  0  0  0  0  0  0  0  0  0  0  0  # atno 6908 bound_to 6896
  151.0303  134.9550  159.8164 H   0  0  0  0  0  0  0  0  0  0  0  0  # atno 6909 bound_to 6896
  145.0021  139.4302  143.5287 H   0  0  0  0  0  0  0  0  0  0  0  0  # atno 7974 bound_to 7965
  155.4779  140.3467  155.4335 H   0  0  0  0  0  0  0  0  0  0  0  0  # atno 8008 bound_to 7997
  156.1058  140.1447  156.9434 H   0  0  0  0  0  0  0  0  0  0  0  0  # atno 8009 bound_to 7997
  154.4723  140.0896  156.7155 H   0  0  0  0  0  0  0  0  0  0  0  0  # atno 8010 bound_to 7997
  139.6619  144.7128  151.1850 H   0  0  0  0  0  0  0  0  0  0  0  0  # atno 10167 bound_to 10162
  155.9998  130.4968  150.5552 H   0  0  0  0  0  0  0  0  0  0  0  0  # atno 10718 bound_to 10713
  153.8236  135.3113  155.3412 H   0  0  0  0  0  0  0  0  0  0  0  0  # atno 10763 bound_to 10752
  154.8002  135.4731  154.0261 H   0  0  0  0  0  0  0  0  0  0  0  0  # atno 10764 bound_to 10752
  153.1678  135.6872  153.8741 H   0  0  0  0  0  0  0  0  0  0  0  0  # atno 10765 bound_to 10752
  140.0667  134.9174  157.1276 H   0  0  0  0  0  0  0  0  0  0  0  0  # atno 11005 bound_to 11000
  146.3454  139.9415  142.8740 LP  0  0  0  0  0  0  0  0  0  0  0  0  # atno 17320 bound_to 7965
  145.2139  140.9907  143.4084 LP  0  0  0  0  0  0  0  0  0  0  0  0  # atno 17321 bound_to 7965
  140.7583  143.5981  150.8727 LP  0  0  0  0  0  0  0  0  0  0  0  0  # atno 17342 bound_to 10162
  139.9639  143.6132  152.2994 LP  0  0  0  0  0  0  0  0  0  0  0  0  # atno 17343 bound_to 10162
  157.3469  131.0726  151.1744 LP  0  0  0  0  0  0  0  0  0  0  0  0  # atno 17370 bound_to 10713
  157.2574  130.6642  149.5959 LP  0  0  0  0  0  0  0  0  0  0  0  0  # atno 17371 bound_to 10713
  140.3688  134.2413  155.7180 LP  0  0  0  0  0  0  0  0  0  0  0  0  # atno 17394 bound_to 11000
  141.1995  133.8009  157.0531 LP  0  0  0  0  0  0  0  0  0  0  0  0  # atno 17395 bound_to 11000

$$$$
