AV-unprocessed.smi:1245|AV-procd|sdf|5240|dock7
  -GOLD-   22720 4353D 1   1.00000     0.00000
 Structure written by MMmdl.
 44 45  0  0  0  0  0  0  0  0  2 V2000
  151.5780  139.3886  154.4153 O   0  0  0  0  0  0  0  0  0  0  0  0
  151.0352  139.6884  155.4794 C   0  0  0  0  0  0  0  0  0  0  0  0
  151.2652  141.0601  156.1202 C   0  0  0  0  0  0  0  0  0  0  0  0
  150.7763  141.1396  157.5777 C   0  0  0  0  0  0  0  0  0  0  0  0
  152.1559  140.8674  158.7843 S   0  0  0  0  0  0  0  0  0  0  0  0
  151.5592  140.3985  160.0442 O   0  0  0  0  0  0  0  0  0  0  0  0
  153.2056  140.0714  158.1290 O   0  0  0  0  0  0  0  0  0  0  0  0
  152.8250  142.5725  159.0791 C   0  0  0  0  0  0  0  0  0  0  0  0
  152.8614  142.9532  160.5716 C   0  0  0  0  0  0  0  0  0  0  0  0
  151.9836  144.2010  160.7167 C   0  0  0  0  0  0  0  0  0  0  0  0
  151.9853  144.8447  159.3314 C   0  0  0  0  0  0  0  0  0  0  0  0
  152.0085  143.6616  158.3642 C   0  0  0  0  0  0  0  0  0  0  0  0
  150.2189  138.8577  156.1455 N   0  0  0  0  0  0  0  0  0  0  0  0
  149.8560  137.5123  155.7150 C   0  0  0  0  0  0  0  0  0  0  0  0
  151.0978  136.6457  155.4444 C   0  0  0  0  0  0  0  0  0  0  0  0
  150.7567  135.1727  155.3268 C   0  0  0  0  0  0  0  0  0  0  0  0
  151.2825  134.2066  156.2121 C   0  0  0  0  0  0  0  0  0  0  0  0
  150.9280  132.8516  156.0429 C   0  0  0  0  0  0  0  0  0  0  0  0
  150.0577  132.4916  154.9932 C   0  0  0  0  0  0  0  0  0  0  0  0
  149.5639  133.4969  154.1369 C   0  0  0  0  0  0  0  0  0  0  0  0
  149.9272  134.7839  154.3312 N   0  3  0  0  0  0  0  0  0  0  0  0
  152.3306  141.2883  156.0736 H   0  0  0  0  0  0  0  0  0  0  0  0
  150.7553  141.8138  155.5193 H   0  0  0  0  0  0  0  0  0  0  0  0
  150.3077  142.1007  157.7793 H   0  0  0  0  0  0  0  0  0  0  0  0
  150.0233  140.3735  157.7660 H   0  0  0  0  0  0  0  0  0  0  0  0
  153.8450  142.5802  158.6929 H   0  0  0  0  0  0  0  0  0  0  0  0
  152.5245  142.1488  161.2261 H   0  0  0  0  0  0  0  0  0  0  0  0
  153.8865  143.1889  160.8599 H   0  0  0  0  0  0  0  0  0  0  0  0
  150.9670  143.9120  160.9843 H   0  0  0  0  0  0  0  0  0  0  0  0
  152.3458  144.8773  161.4914 H   0  0  0  0  0  0  0  0  0  0  0  0
  151.1287  145.5003  159.1719 H   0  0  0  0  0  0  0  0  0  0  0  0
  152.8899  145.4410  159.2044 H   0  0  0  0  0  0  0  0  0  0  0  0
  152.4303  143.9266  157.3942 H   0  0  0  0  0  0  0  0  0  0  0  0
  150.9867  143.3276  158.1907 H   0  0  0  0  0  0  0  0  0  0  0  0
  149.8118  139.1867  157.0094 H   0  0  0  0  0  0  0  0  0  0  0  0
  149.2504  137.0615  156.5017 H   0  0  0  0  0  0  0  0  0  0  0  0
  149.2234  137.5625  154.8270 H   0  0  0  0  0  0  0  0  0  0  0  0
  151.5917  136.9668  154.5264 H   0  0  0  0  0  0  0  0  0  0  0  0
  151.8259  136.7763  156.2463 H   0  0  0  0  0  0  0  0  0  0  0  0
  151.9500  134.4971  157.0105 H   0  0  0  0  0  0  0  0  0  0  0  0
  151.3196  132.0977  156.7101 H   0  0  0  0  0  0  0  0  0  0  0  0
  149.7742  131.4595  154.8468 H   0  0  0  0  0  0  0  0  0  0  0  0
  148.8948  133.3123  153.3092 H   0  0  0  0  0  0  0  0  0  0  0  0
  149.5575  135.4946  153.6993 H   0  0  0  0  0  0  0  0  0  0  0  0
  1  2  2  0  0  0  0
  2  3  1  0  0  0  0
  2 13  1  0  0  0  0
  3  4  1  0  0  0  0
  3 22  1  0  0  0  0
  3 23  1  0  0  0  0
  4  5  1  0  0  0  0
  4 24  1  0  0  0  0
  4 25  1  0  0  0  0
  5  6  2  0  0  0  0
  5  7  2  0  0  0  0
  5  8  1  0  0  0  0
  8 12  1  0  0  0  0
  8  9  1  0  0  0  0
  8 26  1  0  0  0  0
  9 10  1  0  0  0  0
  9 27  1  0  0  0  0
  9 28  1  0  0  0  0
 10 11  1  0  0  0  0
 10 29  1  0  0  0  0
 10 30  1  0  0  0  0
 11 12  1  0  0  0  0
 11 31  1  0  0  0  0
 11 32  1  0  0  0  0
 12 33  1  0  0  0  0
 12 34  1  0  0  0  0
 13 14  1  0  0  0  0
 13 35  1  0  0  0  0
 14 15  1  0  0  0  0
 14 36  1  0  0  0  0
 14 37  1  0  0  0  0
 15 16  1  0  0  0  0
 15 38  1  0  0  0  0
 15 39  1  0  0  0  0
 16 21  1  0  0  0  0
 16 17  2  0  0  0  0
 17 18  1  0  0  0  0
 17 40  1  0  0  0  0
 18 19  2  0  0  0  0
 18 41  1  0  0  0  0
 19 20  1  0  0  0  0
 19 42  1  0  0  0  0
 20 21  2  0  0  0  0
 20 43  1  0  0  0  0
 21 44  1  0  0  0  0
M  CHG  1  21   1
M  END
> <s_m_source_file>
AV-unprocessed.smi

> <i_m_source_file_index>
1245

> <i_lp_mmshare_version>
43012

> <i_f3d_flags>
0

> <s_epik_input>
W0NIMl0xW0NIMl1bQ0gyXVtDSDJdW0NIXTFTKD1PKSg9TylbQ0gyXVtDSDJdQyg9TylbTkhdW0NIMl1bQ0gyXWMyW2NIXVtjSF1bY0hdW2NIXW4y

> <s_epik_cmdline>
J2VwaWtfcHl0aG9uJywgJy1waCcsICc3LjAnLCAnLXRuJywgJzgnLCAnLW1hJywgJzIwMCcsICctbWV0YWxfYmluZGluZycsICctaW1hZScsICc8aW5maWxlLm1hZT4nLCAnLW9tYWUnLCAnPG91dGZpbGUubWFlPic=

> <r_epik_Ionization_Penalty>
1.90383

> <r_epik_Ionization_Penalty_Charging>
1.90383

> <r_epik_Ionization_Penalty_Neutral>
6.52612e-08

> <r_epik_State_Penalty>
2.02532

> <r_epik_Charging_Adjusted_Penalty>
3.92915

> <i_epik_Tot_Q>
1

> <i_epik_Tot_abs_Q>
1

> <r_epik_Metal_State_Penalty>
2.0489

> <b_epik_Metal_Only>
0

> <s_lp_Force_Field>
OPLS_2005

> <r_lp_Energy>
22.4311

> <b_lp_Chiralities_Consistent>
1

> <s_lp_Variant>
AV-unprocessed.smi:1245-2

> <Gold.Version>
5.8.1

> <Gold.Id.Protein>
6NUR|6NUR_protein|mol2

> <Gold.PLP.Fitness>
50.6408

> <Gold.PLP.PLP>
-40.5561

> <Gold.PLP.part.hbond>
-4.2509

> <Gold.PLP.part.metal>
0.0000

> <Gold.PLP.part.buried>
-0.2240

> <Gold.PLP.part.nonpolar>
-35.9786

> <Gold.PLP.part.repulsive>
0.1811

> <Gold.PLP.ligand.clash>
0.0000

> <Gold.PLP.ligand.torsion>
1.1401

> <Gold.PLP.Chemscore.Hbond>
4.0000

> <Gold.PLP.Chemscore.CHOScore>
0.0000

> <Gold.PLP.Chemscore.Metal>
0.0000

> <Gold.Chemscore.Hbonds>
donor molecule, donor type, donor heavy atom, donor atom, acceptor molecule, acceptor atom, score
      L1  H    21    44       P1  7948  1.80
      P1  H  7989  7998       L1     1  1.00
      P1  H  7997  8010       L1     7  1.00

> <Gold.PLP.Chemscore.Internal.Correction>
0.3648

> <Gold.Rescore>
     Score         DG    S(hbond)    S(metal)    S(lipo)     H(rot)  DE(clash)    DE(int)     intcor
     18.11     -20.77       2.62        0.00     102.64       2.14       1.50       1.16       ----

> <Gold.Chemscore.Fitness>
18.1137

> <Gold.Chemscore.DG>
-20.7731

> <Gold.Chemscore.ZeroCoef>
-5.4800

> <Gold.Chemscore.Hbond>
2.6240

> <Gold.Chemscore.Metal>
0.0000

> <Gold.Chemscore.Lipo>
102.6447

> <Gold.Chemscore.Internal_Hbond>
0.0000

> <Gold.Chemscore.DEClash>
1.4993

> <Gold.Chemscore.DEInternal>
1.1601

> <Gold.Chemscore.Rot>
2.1408

> <Gold.Chemscore.Internal.Correction>
   9.000000E+99

> <Gold.Chemscore.Hbonds>
donor molecule, donor type, donor heavy atom, donor atom, acceptor molecule, acceptor atom, score
      L1  H    21    44       P1  7948  0.16
      P1  H  7989  7998       L1     1  0.54
      P1  H  7997  8010       L1     7  0.94

> <Gold.Chemscore.Hbond.Weighted>
-8.7641

> <Gold.Chemscore.Metal.Weighted>
-0.0000

> <Gold.Chemscore.Lipo.Weighted>
-12.0094

> <Gold.Chemscore.Internal_Hbond.Weighted>
0.0000

> <Gold.Chemscore.DEClash.Weighted>
1.4993

> <Gold.Chemscore.DEInternal.Weighted>
1.1601

> <Gold.Chemscore.Rot.Weighted>
5.4805

> <Gold.Chemscore.Internal.Correction.Weighted>
   9.000000E+99

> <Gold.Protein.RotatedTorsions>
[ 6907 6896 6895 6894 ] final -130.86 input  -60.11 | X-H torsion
[ 7974 7965 7964 7962 ] final  178.98 input  175.53 | X-H torsion
[ 8008 7997 7996 7995 ] final   29.96 input   59.86 | X-H torsion
[ 10167 10162 10161 10158 ] final  -25.03 input  -65.29 | X-H torsion
[ 10718 10713 10712 10709 ] final   40.62 input   66.30 | X-H torsion
[ 10763 10752 10751 10750 ] final  -20.45 input  -60.55 | X-H torsion
[ 11005 11000 10999 10996 ] final  -81.24 input  -57.11 | X-H torsion

> <Gold.Protein.ActiveResidues>
 VAL166  LYS551  ARG553  GLY616  TRP617  ASP618  TYR619  PRO620  LYS621  CYS622 
 ASP623  PHE694  ASN695  SER759  ASP760  ASP761  ALA762  ILE779  LEU786  VAL792 
 PHE793  MET794  SER795  GLU796  ALA797  LYS798  CYS799  TRP800  GLU811  SER814 

> <Gold.Protein.RotatedAtoms>
  150.9445  133.6619  159.2783 H   0  0  0  0  0  0  0  0  0  0  0  0  # atno 6907 bound_to 6896
  151.3996  135.0968  159.9561 H   0  0  0  0  0  0  0  0  0  0  0  0  # atno 6908 bound_to 6896
  152.5084  133.8941  159.7463 H   0  0  0  0  0  0  0  0  0  0  0  0  # atno 6909 bound_to 6896
  144.7150  140.0479  143.6436 H   0  0  0  0  0  0  0  0  0  0  0  0  # atno 7974 bound_to 7965
  155.0828  140.3212  155.4596 H   0  0  0  0  0  0  0  0  0  0  0  0  # atno 8008 bound_to 7997
  156.2763  140.2092  156.5901 H   0  0  0  0  0  0  0  0  0  0  0  0  # atno 8009 bound_to 7997
  154.6965  140.0511  157.0403 H   0  0  0  0  0  0  0  0  0  0  0  0  # atno 8010 bound_to 7997
  140.7287  143.4300  151.0816 H   0  0  0  0  0  0  0  0  0  0  0  0  # atno 10167 bound_to 10162
  157.3842  130.7770  149.7217 H   0  0  0  0  0  0  0  0  0  0  0  0  # atno 10718 bound_to 10713
  153.6206  135.6993  153.5312 H   0  0  0  0  0  0  0  0  0  0  0  0  # atno 10763 bound_to 10752
  153.2941  135.4148  155.1193 H   0  0  0  0  0  0  0  0  0  0  0  0  # atno 10764 bound_to 10752
  154.8544  135.3632  154.5746 H   0  0  0  0  0  0  0  0  0  0  0  0  # atno 10765 bound_to 10752
  141.1667  133.7187  156.8393 H   0  0  0  0  0  0  0  0  0  0  0  0  # atno 11005 bound_to 11000
  145.9968  139.3059  143.0951 LP  0  0  0  0  0  0  0  0  0  0  0  0  # atno 17320 bound_to 7965
  145.8839  140.9346  143.0587 LP  0  0  0  0  0  0  0  0  0  0  0  0  # atno 17321 bound_to 7965
  139.7956  143.8156  152.3157 LP  0  0  0  0  0  0  0  0  0  0  0  0  # atno 17342 bound_to 10162
  139.8155  144.7318  150.9641 LP  0  0  0  0  0  0  0  0  0  0  0  0  # atno 17343 bound_to 10162
  155.9783  130.4053  150.3659 LP  0  0  0  0  0  0  0  0  0  0  0  0  # atno 17370 bound_to 10713
  157.1767  131.0382  151.2769 LP  0  0  0  0  0  0  0  0  0  0  0  0  # atno 17371 bound_to 10713
  140.1995  134.8907  157.3152 LP  0  0  0  0  0  0  0  0  0  0  0  0  # atno 17394 bound_to 11000
  140.2203  134.4031  155.7569 LP  0  0  0  0  0  0  0  0  0  0  0  0  # atno 17395 bound_to 11000

$$$$
