AV-unprocessed.smi:2090|AV-procd|sdf|8532|dock8
  -GOLD-   2272011253D 1   1.00000     0.00000
 Structure written by MMmdl.
 42 43  0  0  0  0  0  0  0  0  2 V2000
  151.4452  140.7556  158.2080 C   0  0  0  0  0  0  0  0  0  0  0  0
  151.0971  140.4353  156.7949 C   0  0  0  0  0  0  0  0  0  0  0  0
  149.9093  140.2138  156.1567 C   0  0  0  0  0  0  0  0  0  0  0  0
  150.3080  139.9717  154.8154 C   0  0  0  0  0  0  0  0  0  0  0  0
  149.3473  139.7037  153.8073 N   0  0  0  0  0  0  0  0  0  0  0  0
  148.1305  139.1554  153.9637 C   0  0  0  0  0  0  0  0  0  0  0  0
  147.6338  138.8229  155.0404 O   0  0  0  0  0  0  0  0  0  0  0  0
  147.5064  139.0015  152.7867 N   0  0  0  0  0  0  0  0  0  0  0  0
  146.1803  138.4175  152.6204 C   0  0  0  0  0  0  0  0  0  0  0  0
  146.0544  137.0810  153.3777 C   0  0  0  0  0  0  0  0  0  0  0  0
  145.9122  135.9205  152.4630 N   0  3  2  0  0  0  0  0  0  0  0  0
  144.8965  136.1637  151.4060 C   0  0  0  0  0  0  0  0  0  0  0  0
  144.8636  135.0106  150.3891 C   0  0  0  0  0  0  0  0  0  0  0  0
  144.5977  133.6642  151.0823 C   0  0  1  0  0  0  0  0  0  0  0  0
  144.5868  132.5006  150.0813 C   0  0  0  0  0  0  0  0  0  0  0  0
  145.6417  133.4536  152.1915 C   0  0  0  0  0  0  0  0  0  0  0  0
  145.6617  134.6377  153.1728 C   0  0  0  0  0  0  0  0  0  0  0  0
  151.6204  140.0348  154.6504 N   0  0  0  0  0  0  0  0  0  0  0  0
  152.1331  140.3316  155.9186 O   0  0  0  0  0  0  0  0  0  0  0  0
  150.5530  141.0070  158.7814 H   0  0  0  0  0  0  0  0  0  0  0  0
  152.1275  141.6046  158.2558 H   0  0  0  0  0  0  0  0  0  0  0  0
  151.9282  139.9050  158.6886 H   0  0  0  0  0  0  0  0  0  0  0  0
  148.9172  140.2280  156.5833 H   0  0  0  0  0  0  0  0  0  0  0  0
  149.6250  139.9364  152.8654 H   0  0  0  0  0  0  0  0  0  0  0  0
  147.9819  139.3053  151.9493 H   0  0  0  0  0  0  0  0  0  0  0  0
  145.4190  139.1226  152.9588 H   0  0  0  0  0  0  0  0  0  0  0  0
  146.0215  138.2770  151.5521 H   0  0  0  0  0  0  0  0  0  0  0  0
  146.9072  136.9288  154.0414 H   0  0  0  0  0  0  0  0  0  0  0  0
  145.1730  137.1314  154.0188 H   0  0  0  0  0  0  0  0  0  0  0  0
  143.9146  136.2909  151.8649 H   0  0  0  0  0  0  0  0  0  0  0  0
  145.1237  137.0924  150.8810 H   0  0  0  0  0  0  0  0  0  0  0  0
  144.0945  135.2044  149.6406 H   0  0  0  0  0  0  0  0  0  0  0  0
  145.8127  134.9713  149.8525 H   0  0  0  0  0  0  0  0  0  0  0  0
  143.6118  133.7101  151.5473 H   0  0  0  0  0  0  0  0  0  0  0  0
  145.5503  132.3960  149.5811 H   0  0  0  0  0  0  0  0  0  0  0  0
  143.8280  132.6511  149.3129 H   0  0  0  0  0  0  0  0  0  0  0  0
  144.3666  131.5565  150.5806 H   0  0  0  0  0  0  0  0  0  0  0  0
  145.4290  132.5318  152.7341 H   0  0  0  0  0  0  0  0  0  0  0  0
  146.6319  133.3302  151.7505 H   0  0  0  0  0  0  0  0  0  0  0  0
  146.4334  134.4589  153.9203 H   0  0  0  0  0  0  0  0  0  0  0  0
  144.7126  134.6963  153.7080 H   0  0  0  0  0  0  0  0  0  0  0  0
  146.7964  135.8264  151.9837 H   0  0  0  0  0  0  0  0  0  0  0  0
  1  2  1  0  0  0  0
  1 20  1  0  0  0  0
  1 21  1  0  0  0  0
  1 22  1  0  0  0  0
  2 19  1  0  0  0  0
  2  3  2  0  0  0  0
  3  4  1  0  0  0  0
  3 23  1  0  0  0  0
  4  5  1  0  0  0  0
  4 18  2  0  0  0  0
  5  6  1  0  0  0  0
  5 24  1  0  0  0  0
  6  7  2  0  0  0  0
  6  8  1  0  0  0  0
  8  9  1  0  0  0  0
  8 25  1  0  0  0  0
  9 10  1  0  0  0  0
  9 26  1  0  0  0  0
  9 27  1  0  0  0  0
 10 11  1  0  0  0  0
 10 28  1  0  0  0  0
 10 29  1  0  0  0  0
 11 17  1  0  0  0  0
 11 12  1  0  0  0  0
 11 42  1  0  0  0  0
 12 13  1  0  0  0  0
 12 30  1  0  0  0  0
 12 31  1  0  0  0  0
 13 14  1  0  0  0  0
 13 32  1  0  0  0  0
 13 33  1  0  0  0  0
 14 15  1  0  0  0  0
 14 16  1  0  0  0  0
 14 34  1  0  0  0  0
 15 35  1  0  0  0  0
 15 36  1  0  0  0  0
 15 37  1  0  0  0  0
 16 17  1  0  0  0  0
 16 38  1  0  0  0  0
 16 39  1  0  0  0  0
 17 40  1  0  0  0  0
 17 41  1  0  0  0  0
 18 19  1  0  0  0  0
M  CHG  1  11   1
M  END
> <s_m_source_file>
AV-unprocessed.smi

> <i_m_source_file_index>
2090

> <i_lp_mmshare_version>
43012

> <i_f3d_flags>
0

> <s_epik_input>
W0NIM11jMVtjSF1jKG5vMSlbTkhdQyg9TylbTkhdW0NIMl1bQ0gyXU4yW0NIMl1bQ0gyXVtDSF0oW0NIM10pW0NIMl1bQ0gyXTI=

> <s_epik_cmdline>
J2VwaWtfcHl0aG9uJywgJy1waCcsICc3LjAnLCAnLXRuJywgJzgnLCAnLW1hJywgJzIwMCcsICctbWV0YWxfYmluZGluZycsICctaW1hZScsICc8aW5maWxlLm1hZT4nLCAnLW9tYWUnLCAnPG91dGZpbGUubWFlPic=

> <r_epik_Ionization_Penalty>
0.00176265

> <r_epik_Ionization_Penalty_Charging>
0.00172695

> <r_epik_Ionization_Penalty_Neutral>
3.56992e-05

> <r_epik_State_Penalty>
0.00116803

> <r_epik_Charging_Adjusted_Penalty>
0.00289498

> <i_epik_Tot_Q>
1

> <i_epik_Tot_abs_Q>
1

> <r_epik_Metal_State_Penalty>
0.0215312

> <b_epik_Metal_Only>
0

> <s_lp_Force_Field>
OPLS_2005

> <r_lp_Energy>
12.7246

> <b_lp_Chiralities_Consistent>
1

> <s_lp_Variant>
AV-unprocessed.smi:2090-1

> <Gold.Version>
5.8.1

> <Gold.Id.Protein>
6NUR|6NUR_protein|mol2

> <Gold.PLP.Fitness>
45.9250

> <Gold.PLP.PLP>
-30.5657

> <Gold.PLP.part.hbond>
-6.0000

> <Gold.PLP.part.metal>
0.0000

> <Gold.PLP.part.buried>
-2.2602

> <Gold.PLP.part.nonpolar>
-22.2111

> <Gold.PLP.part.repulsive>
0.2916

> <Gold.PLP.ligand.clash>
0.0000

> <Gold.PLP.ligand.torsion>
0.6155

> <Gold.PLP.Chemscore.Hbond>
5.5224

> <Gold.PLP.Chemscore.CHOScore>
0.0000

> <Gold.PLP.Chemscore.Metal>
0.0000

> <Gold.Chemscore.Hbonds>
donor molecule, donor type, donor heavy atom, donor atom, acceptor molecule, acceptor atom, score
      L1  H     5    24       P1  7957  1.00
      L1  H     8    25       P1  7957  0.98
      L1  H    11    42       P1  7948  1.30
      P1  H  7989  7998       L1    18  0.68
      P1  H  7997  8009       L1    19  0.50

> <Gold.PLP.Chemscore.Internal.Correction>
0.0232

> <Gold.Rescore>
     Score         DG    S(hbond)    S(metal)    S(lipo)     H(rot)  DE(clash)    DE(int)     intcor
     18.13     -21.31       3.75        0.00      62.68       1.57       0.58       2.60       ----

> <Gold.Chemscore.Fitness>
18.1322

> <Gold.Chemscore.DG>
-21.3144

> <Gold.Chemscore.ZeroCoef>
-5.4800

> <Gold.Chemscore.Hbond>
3.7484

> <Gold.Chemscore.Metal>
0.0000

> <Gold.Chemscore.Lipo>
62.6761

> <Gold.Chemscore.Internal_Hbond>
0.0000

> <Gold.Chemscore.DEClash>
0.5844

> <Gold.Chemscore.DEInternal>
2.5978

> <Gold.Chemscore.Rot>
1.5697

> <Gold.Chemscore.Internal.Correction>
   9.000000E+99

> <Gold.Chemscore.Hbonds>
donor molecule, donor type, donor heavy atom, donor atom, acceptor molecule, acceptor atom, score
      L1  H     5    24       P1  7957  1.00
      L1  H     8    25       P1  7957  0.93
      L1  H    11    42       P1  7948  0.62
      P1  H  7989  7998       L1    18  0.15
      P1  H  7997  8009       L1    19  0.47

> <Gold.Chemscore.Hbond.Weighted>
-12.5198

> <Gold.Chemscore.Metal.Weighted>
-0.0000

> <Gold.Chemscore.Lipo.Weighted>
-7.3331

> <Gold.Chemscore.Internal_Hbond.Weighted>
0.0000

> <Gold.Chemscore.DEClash.Weighted>
0.5844

> <Gold.Chemscore.DEInternal.Weighted>
2.5978

> <Gold.Chemscore.Rot.Weighted>
4.0185

> <Gold.Chemscore.Internal.Correction.Weighted>
   9.000000E+99

> <Gold.Protein.RotatedTorsions>
[ 6907 6896 6895 6894 ] final -159.96 input  -60.11 | X-H torsion
[ 7974 7965 7964 7962 ] final   84.07 input  175.53 | X-H torsion
[ 8008 7997 7996 7995 ] final -155.43 input   59.86 | X-H torsion
[ 10167 10162 10161 10158 ] final -112.96 input  -65.29 | X-H torsion
[ 10718 10713 10712 10709 ] final   12.58 input   66.30 | X-H torsion
[ 10763 10752 10751 10750 ] final  -33.29 input  -60.55 | X-H torsion
[ 11005 11000 10999 10996 ] final   79.50 input  -57.11 | X-H torsion

> <Gold.Protein.ActiveResidues>
 VAL166  LYS551  ARG553  GLY616  TRP617  ASP618  TYR619  PRO620  LYS621  CYS622 
 ASP623  PHE694  ASN695  SER759  ASP760  ASP761  ALA762  ILE779  LEU786  VAL792 
 PHE793  MET794  SER795  GLU796  ALA797  LYS798  CYS799  TRP800  GLU811  SER814 

> <Gold.Protein.RotatedAtoms>
  151.3416  133.3960  159.2671 H   0  0  0  0  0  0  0  0  0  0  0  0  # atno 6907 bound_to 6896
  150.9873  134.9216  159.7890 H   0  0  0  0  0  0  0  0  0  0  0  0  # atno 6908 bound_to 6896
  152.5236  134.3381  159.9259 H   0  0  0  0  0  0  0  0  0  0  0  0  # atno 6909 bound_to 6896
  145.6036  139.2356  143.2232 H   0  0  0  0  0  0  0  0  0  0  0  0  # atno 7974 bound_to 7965
  155.7018  140.0767  157.2407 H   0  0  0  0  0  0  0  0  0  0  0  0  # atno 8008 bound_to 7997
  154.4072  140.1646  156.2252 H   0  0  0  0  0  0  0  0  0  0  0  0  # atno 8009 bound_to 7997
  155.9361  140.3388  155.6292 H   0  0  0  0  0  0  0  0  0  0  0  0  # atno 8010 bound_to 7997
  140.1171  143.4476  152.1715 H   0  0  0  0  0  0  0  0  0  0  0  0  # atno 10167 bound_to 10162
  157.0122  130.6121  149.5709 H   0  0  0  0  0  0  0  0  0  0  0  0  # atno 10718 bound_to 10713
  153.8277  135.6869  153.4818 H   0  0  0  0  0  0  0  0  0  0  0  0  # atno 10763 bound_to 10752
  153.1530  135.4610  154.9662 H   0  0  0  0  0  0  0  0  0  0  0  0  # atno 10764 bound_to 10752
  154.7900  135.3298  154.7743 H   0  0  0  0  0  0  0  0  0  0  0  0  # atno 10765 bound_to 10752
  139.9170  134.7847  156.1786 H   0  0  0  0  0  0  0  0  0  0  0  0  # atno 11005 bound_to 11000
  146.1558  140.6860  142.9301 LP  0  0  0  0  0  0  0  0  0  0  0  0  # atno 17320 bound_to 7965
  144.7299  140.4641  143.6945 LP  0  0  0  0  0  0  0  0  0  0  0  0  # atno 17321 bound_to 7965
  139.5588  144.7392  151.4214 LP  0  0  0  0  0  0  0  0  0  0  0  0  # atno 17342 bound_to 10162
  140.6893  143.7899  150.7232 LP  0  0  0  0  0  0  0  0  0  0  0  0  # atno 17343 bound_to 10162
  156.0132  130.5225  150.8054 LP  0  0  0  0  0  0  0  0  0  0  0  0  # atno 17370 bound_to 10713
  157.5312  131.0936  150.9952 LP  0  0  0  0  0  0  0  0  0  0  0  0  # atno 17371 bound_to 10713
  141.0656  133.6821  156.2038 LP  0  0  0  0  0  0  0  0  0  0  0  0  # atno 17394 bound_to 11000
  140.6590  134.4987  157.5582 LP  0  0  0  0  0  0  0  0  0  0  0  0  # atno 17395 bound_to 11000

$$$$
