AV-unprocessed.smi:601|AV-procd|sdf|3031|dock7
  -GOLD-   2262023543D 1   1.00000     0.00000
 Structure written by MMmdl.
 50 51  0  0  0  0  0  0  0  0  1 V2000
  145.0416  143.7791  154.5413 C   0  0  0  0  0  0  0  0  0  0  0  0
  146.2474  143.2149  153.7787 C   0  0  0  0  0  0  0  0  0  0  0  0
  146.6611  141.8051  154.2300 C   0  0  0  0  0  0  0  0  0  0  0  0
  148.1442  141.4816  153.9578 C   0  0  0  0  0  0  0  0  0  0  0  0
  148.4999  140.0978  154.3096 N   0  0  0  0  0  0  0  0  0  0  0  0
  149.7657  139.7735  154.6856 C   0  0  0  0  0  0  0  0  0  0  0  0
  150.6634  140.6168  154.7336 O   0  0  0  0  0  0  0  0  0  0  0  0
  150.0956  138.3040  155.0571 C   0  0  2  0  0  0  0  0  0  0  0  0
  150.8000  138.1187  156.4072 C   0  0  0  0  0  0  0  0  0  0  0  0
  152.2735  138.3466  156.0971 C   0  0  0  0  0  0  0  0  0  0  0  0
  152.3642  138.1946  154.5754 C   0  0  0  0  0  0  0  0  0  0  0  0
  151.0676  137.7740  154.1622 O   0  0  0  0  0  0  0  0  0  0  0  0
  147.4472  139.1660  154.3514 C   0  0  0  0  0  0  0  0  0  0  0  0
  146.8576  138.6874  153.2155 C   0  0  0  0  0  0  0  0  0  0  0  0
  147.3112  139.0868  151.9676 N   0  0  0  0  0  0  0  0  0  0  0  0
  145.8087  137.7647  153.2671 N   0  0  0  0  0  0  0  0  0  0  0  0
  145.1722  137.2084  152.0899 C   0  0  0  0  0  0  0  0  0  0  0  0
  145.3500  135.6840  151.9895 C   0  0  0  0  0  0  0  0  0  0  0  0
  144.5625  135.0803  150.8226 C   0  0  0  0  0  0  0  0  0  0  0  0
  145.3502  137.2794  154.5155 C   0  0  0  0  0  0  0  0  0  0  0  0
  144.4626  136.4337  154.6328 O   0  0  0  0  0  0  0  0  0  0  0  0
  145.9505  137.7987  155.6572 N   0  0  0  0  0  0  0  0  0  0  0  0
  146.9807  138.7352  155.6756 C   0  0  0  0  0  0  0  0  0  0  0  0
  147.4265  139.1244  156.7543 O   0  0  0  0  0  0  0  0  0  0  0  0
  145.6153  137.4629  156.5483 H   0  0  0  0  0  0  0  0  0  0  0  0
  144.7445  144.7445  154.1312 H   0  0  0  0  0  0  0  0  0  0  0  0
  145.2678  143.9279  155.5971 H   0  0  0  0  0  0  0  0  0  0  0  0
  144.1833  143.1105  154.4713 H   0  0  0  0  0  0  0  0  0  0  0  0
  145.9997  143.1814  152.7172 H   0  0  0  0  0  0  0  0  0  0  0  0
  147.0937  143.8967  153.8688 H   0  0  0  0  0  0  0  0  0  0  0  0
  146.4400  141.6920  155.2906 H   0  0  0  0  0  0  0  0  0  0  0  0
  146.0297  141.0829  153.7119 H   0  0  0  0  0  0  0  0  0  0  0  0
  148.3817  141.6653  152.9086 H   0  0  0  0  0  0  0  0  0  0  0  0
  148.7758  142.1696  154.5212 H   0  0  0  0  0  0  0  0  0  0  0  0
  149.1836  137.7081  155.0264 H   0  0  0  0  0  0  0  0  0  0  0  0
  150.4269  138.7731  157.1960 H   0  0  0  0  0  0  0  0  0  0  0  0
  150.6542  137.0929  156.7475 H   0  0  0  0  0  0  0  0  0  0  0  0
  152.5889  139.3463  156.3983 H   0  0  0  0  0  0  0  0  0  0  0  0
  152.9032  137.6252  156.6189 H   0  0  0  0  0  0  0  0  0  0  0  0
  152.6065  139.1488  154.1056 H   0  0  0  0  0  0  0  0  0  0  0  0
  153.1188  137.4681  154.2731 H   0  0  0  0  0  0  0  0  0  0  0  0
  148.0801  139.7342  151.8683 H   0  0  0  0  0  0  0  0  0  0  0  0
  146.9945  138.6374  151.1206 H   0  0  0  0  0  0  0  0  0  0  0  0
  144.1209  137.5013  152.0991 H   0  0  0  0  0  0  0  0  0  0  0  0
  145.5979  137.7189  151.2263 H   0  0  0  0  0  0  0  0  0  0  0  0
  146.4076  135.4449  151.8710 H   0  0  0  0  0  0  0  0  0  0  0  0
  145.0303  135.2113  152.9189 H   0  0  0  0  0  0  0  0  0  0  0  0
  144.7128  134.0019  150.7696 H   0  0  0  0  0  0  0  0  0  0  0  0
  144.8789  135.5079  149.8709 H   0  0  0  0  0  0  0  0  0  0  0  0
  143.4933  135.2629  150.9339 H   0  0  0  0  0  0  0  0  0  0  0  0
  1  2  1  0  0  0  0
  1 26  1  0  0  0  0
  1 27  1  0  0  0  0
  1 28  1  0  0  0  0
  2  3  1  0  0  0  0
  2 29  1  0  0  0  0
  2 30  1  0  0  0  0
  3  4  1  0  0  0  0
  3 31  1  0  0  0  0
  3 32  1  0  0  0  0
  4  5  1  0  0  0  0
  4 33  1  0  0  0  0
  4 34  1  0  0  0  0
  5  6  1  0  0  0  0
  5 13  1  0  0  0  0
  6  7  2  0  0  0  0
  6  8  1  0  0  0  0
  8 12  1  0  0  0  0
  8  9  1  0  0  0  0
  8 35  1  0  0  0  0
  9 10  1  0  0  0  0
  9 36  1  0  0  0  0
  9 37  1  0  0  0  0
 10 11  1  0  0  0  0
 10 38  1  0  0  0  0
 10 39  1  0  0  0  0
 11 12  1  0  0  0  0
 11 40  1  0  0  0  0
 11 41  1  0  0  0  0
 13 23  1  0  0  0  0
 13 14  2  0  0  0  0
 14 15  1  0  0  0  0
 14 16  1  0  0  0  0
 15 42  1  0  0  0  0
 15 43  1  0  0  0  0
 16 17  1  0  0  0  0
 16 20  1  0  0  0  0
 17 18  1  0  0  0  0
 17 44  1  0  0  0  0
 17 45  1  0  0  0  0
 18 19  1  0  0  0  0
 18 46  1  0  0  0  0
 18 47  1  0  0  0  0
 19 48  1  0  0  0  0
 19 49  1  0  0  0  0
 19 50  1  0  0  0  0
 20 21  2  0  0  0  0
 20 22  1  0  0  0  0
 22 25  1  0  0  0  0
 22 23  1  0  0  0  0
 23 24  2  0  0  0  0
M  END
> <s_m_source_file>
AV-unprocessed.smi

> <i_m_source_file_index>
601

> <i_lp_mmshare_version>
43012

> <i_f3d_flags>
0

> <s_epik_input>
TzFbQ0gyXVtDSDJdW0NIMl1bQ0BIXTFDKD1PKU4oW0NIMl1bQ0gyXVtDSDJdW0NIM10pYzJjKFtOSDJdKW4oW0NIMl1bQ0gyXVtDSDNdKWMoPU8pW25IXWMyPU8=

> <s_epik_cmdline>
J2VwaWtfcHl0aG9uJywgJy1waCcsICc3LjAnLCAnLXRuJywgJzgnLCAnLW1hJywgJzIwMCcsICctbWV0YWxfYmluZGluZycsICctaW1hZScsICc8aW5maWxlLm1hZT4nLCAnLW9tYWUnLCAnPG91dGZpbGUubWFlPic=

> <r_lp_tautomer_probability>
1

> <r_epik_Ionization_Penalty>
6.19718e-05

> <r_epik_Ionization_Penalty_Charging>
2.78773e-05

> <r_epik_Ionization_Penalty_Neutral>
3.40944e-05

> <r_epik_State_Penalty>
-0

> <r_epik_Charging_Adjusted_Penalty>
2.78773e-05

> <i_epik_Tot_Q>
0

> <i_epik_Tot_abs_Q>
0

> <r_epik_Metal_State_Penalty>
0.0271358

> <b_epik_Metal_Only>
0

> <s_lp_Force_Field>
OPLS_2005

> <r_lp_Energy>
42.1273

> <b_lp_Chiralities_Consistent>
1

> <s_lp_Variant>
AV-unprocessed.smi:601-1

> <Gold.Version>
5.8.1

> <Gold.Id.Protein>
6NUR|6NUR_protein|mol2

> <Gold.PLP.Fitness>
40.6916

> <Gold.PLP.PLP>
-37.1020

> <Gold.PLP.part.hbond>
-1.7213

> <Gold.PLP.part.metal>
0.0000

> <Gold.PLP.part.buried>
-4.4520

> <Gold.PLP.part.nonpolar>
-31.5000

> <Gold.PLP.part.repulsive>
0.4268

> <Gold.PLP.ligand.clash>
0.0000

> <Gold.PLP.ligand.torsion>
1.9271

> <Gold.PLP.Chemscore.Hbond>
1.7280

> <Gold.PLP.Chemscore.CHOScore>
0.0000

> <Gold.PLP.Chemscore.Metal>
0.0000

> <Gold.Chemscore.Hbonds>
donor molecule, donor type, donor heavy atom, donor atom, acceptor molecule, acceptor atom, score
      L1  H    15    42       P1  7957  0.91
      P1  H  7989  7998       L1     7  0.98

> <Gold.PLP.Chemscore.Internal.Correction>
2.2599

> <Gold.Rescore>
     Score         DG    S(hbond)    S(metal)    S(lipo)     H(rot)  DE(clash)    DE(int)     intcor
     10.08     -14.89       1.91        0.00      68.63       1.96       0.26       4.55       ----

> <Gold.Chemscore.Fitness>
10.0769

> <Gold.Chemscore.DG>
-14.8852

> <Gold.Chemscore.ZeroCoef>
-5.4800

> <Gold.Chemscore.Hbond>
1.9144

> <Gold.Chemscore.Metal>
0.0000

> <Gold.Chemscore.Lipo>
68.6294

> <Gold.Chemscore.Internal_Hbond>
0.0000

> <Gold.Chemscore.DEClash>
0.2603

> <Gold.Chemscore.DEInternal>
4.5481

> <Gold.Chemscore.Rot>
1.9603

> <Gold.Chemscore.Internal.Correction>
   9.000000E+99

> <Gold.Chemscore.Hbonds>
donor molecule, donor type, donor heavy atom, donor atom, acceptor molecule, acceptor atom, score
      L1  H    15    42       P1  7957  0.90
      P1  H  7989  7998       L1     7  0.90

> <Gold.Chemscore.Hbond.Weighted>
-6.3941

> <Gold.Chemscore.Metal.Weighted>
-0.0000

> <Gold.Chemscore.Lipo.Weighted>
-8.0296

> <Gold.Chemscore.Internal_Hbond.Weighted>
0.0000

> <Gold.Chemscore.DEClash.Weighted>
0.2603

> <Gold.Chemscore.DEInternal.Weighted>
4.5481

> <Gold.Chemscore.Rot.Weighted>
5.0185

> <Gold.Chemscore.Internal.Correction.Weighted>
   9.000000E+99

> <Gold.Protein.RotatedTorsions>
[ 6907 6896 6895 6894 ] final  -22.77 input  -60.11 | X-H torsion
[ 7974 7965 7964 7962 ] final  109.11 input  175.53 | X-H torsion
[ 8008 7997 7996 7995 ] final   99.01 input   59.86 | X-H torsion
[ 10167 10162 10161 10158 ] final  176.69 input  -65.29 | X-H torsion
[ 10718 10713 10712 10709 ] final    8.90 input   66.30 | X-H torsion
[ 10763 10752 10751 10750 ] final  126.47 input  -60.55 | X-H torsion
[ 11005 11000 10999 10996 ] final -139.38 input  -57.11 | X-H torsion

> <Gold.Protein.ActiveResidues>
 VAL166  LYS551  ARG553  GLY616  TRP617  ASP618  TYR619  PRO620  LYS621  CYS622 
 ASP623  PHE694  ASN695  SER759  ASP760  ASP761  ALA762  ILE779  LEU786  VAL792 
 PHE793  MET794  SER795  GLU796  ALA797  LYS798  CYS799  TRP800  GLU811  SER814 

> <Gold.Protein.RotatedAtoms>
  151.2138  135.0491  159.8921 H   0  0  0  0  0  0  0  0  0  0  0  0  # atno 6907 bound_to 6896
  152.5422  134.0716  159.8206 H   0  0  0  0  0  0  0  0  0  0  0  0  # atno 6908 bound_to 6896
  151.0873  133.5295  159.2649 H   0  0  0  0  0  0  0  0  0  0  0  0  # atno 6909 bound_to 6896
  145.2720  139.2663  143.3961 H   0  0  0  0  0  0  0  0  0  0  0  0  # atno 7974 bound_to 7965
  156.1062  140.3235  155.8010 H   0  0  0  0  0  0  0  0  0  0  0  0  # atno 8008 bound_to 7997
  155.4751  140.0549  157.2992 H   0  0  0  0  0  0  0  0  0  0  0  0  # atno 8009 bound_to 7997
  154.4729  140.2019  155.9963 H   0  0  0  0  0  0  0  0  0  0  0  0  # atno 8010 bound_to 7997
  139.5224  144.2886  152.0484 H   0  0  0  0  0  0  0  0  0  0  0  0  # atno 10167 bound_to 10162
  156.9584  130.5923  149.5660 H   0  0  0  0  0  0  0  0  0  0  0  0  # atno 10718 bound_to 10713
  153.6939  135.3294  155.3208 H   0  0  0  0  0  0  0  0  0  0  0  0  # atno 10763 bound_to 10752
  154.8432  135.4438  154.1480 H   0  0  0  0  0  0  0  0  0  0  0  0  # atno 10764 bound_to 10752
  153.2529  135.6983  153.7737 H   0  0  0  0  0  0  0  0  0  0  0  0  # atno 10765 bound_to 10752
  140.8525  134.2268  157.4752 H   0  0  0  0  0  0  0  0  0  0  0  0  # atno 11005 bound_to 11000
  146.3243  140.3165  142.8630 LP  0  0  0  0  0  0  0  0  0  0  0  0  # atno 17320 bound_to 7965
  144.9327  140.7992  143.5679 LP  0  0  0  0  0  0  0  0  0  0  0  0  # atno 17321 bound_to 7965
  140.2338  144.4341  150.6289 LP  0  0  0  0  0  0  0  0  0  0  0  0  # atno 17342 bound_to 10162
  140.6337  143.2191  151.6440 LP  0  0  0  0  0  0  0  0  0  0  0  0  # atno 17343 bound_to 10162
  156.0333  130.5422  150.8589 LP  0  0  0  0  0  0  0  0  0  0  0  0  # atno 17370 bound_to 10713
  157.5674  131.0946  150.9468 LP  0  0  0  0  0  0  0  0  0  0  0  0  # atno 17371 bound_to 10713
  139.8704  134.9690  156.4651 LP  0  0  0  0  0  0  0  0  0  0  0  0  # atno 17394 bound_to 11000
  140.8774  133.7943  155.9429 LP  0  0  0  0  0  0  0  0  0  0  0  0  # atno 17395 bound_to 11000

$$$$
