AV-unprocessed.smi:48|AV-procd|sdf|458|dock1
  -GOLD-   2262016323D 1   1.00000     0.00000
 Structure written by MMmdl.
 30 32  0  0  0  0  0  0  0  0  1 V2000
  149.2091  137.3285  154.1315 O   0  0  0  0  0  0  0  0  0  0  0  0
  150.2873  137.7841  154.9201 C   0  0  0  0  0  0  0  0  0  0  0  0
  150.4653  139.3001  154.7469 C   0  0  2  0  0  0  0  0  0  0  0  0
  151.5142  139.7591  155.5878 O   0  0  0  0  0  0  0  0  0  0  0  0
  151.3228  141.1036  155.8972 C   0  0  2  0  0  0  0  0  0  0  0  0
  151.6438  141.2787  157.3495 N   0  0  0  0  0  0  0  0  0  0  0  0
  151.8865  140.3141  158.2599 C   0  0  0  0  0  0  0  0  0  0  0  0
  152.1537  140.6999  159.5070 N   0  0  0  0  0  0  0  0  0  0  0  0
  152.0696  142.0782  159.3939 C   0  0  0  0  0  0  0  0  0  0  0  0
  152.2374  143.1301  160.3269 C   0  0  0  0  0  0  0  0  0  0  0  0
  152.6283  142.8018  161.9754 Cl  0  0  0  0  0  0  0  0  0  0  0  0
  152.0839  144.4052  159.8966 N   0  0  0  0  0  0  0  0  0  0  0  0
  151.7821  144.6318  158.6122 C   0  0  0  0  0  0  0  0  0  0  0  0
  151.5965  143.7493  157.6242 N   0  0  0  0  0  0  0  0  0  0  0  0
  151.7504  142.4638  158.0608 C   0  0  0  0  0  0  0  0  0  0  0  0
  149.8601  141.4667  155.5548 C   0  0  2  0  0  0  0  0  0  0  0  0
  149.1450  142.0928  156.6056 O   0  0  0  0  0  0  0  0  0  0  0  0
  149.2538  140.1117  155.2145 C   0  0  1  0  0  0  0  0  0  0  0  0
  148.3096  140.2316  154.1688 O   0  0  0  0  0  0  0  0  0  0  0  0
  150.7059  139.5579  153.7131 H   0  0  0  0  0  0  0  0  0  0  0  0
  152.0493  141.7264  155.3737 H   0  0  0  0  0  0  0  0  0  0  0  0
  149.8783  142.1180  154.6795 H   0  0  0  0  0  0  0  0  0  0  0  0
  148.8005  139.6516  156.0942 H   0  0  0  0  0  0  0  0  0  0  0  0
  148.4371  137.8206  154.3662 H   0  0  0  0  0  0  0  0  0  0  0  0
  150.0537  137.5499  155.9589 H   0  0  0  0  0  0  0  0  0  0  0  0
  151.2005  137.2455  154.6646 H   0  0  0  0  0  0  0  0  0  0  0  0
  151.8708  139.2679  157.9911 H   0  0  0  0  0  0  0  0  0  0  0  0
  151.6726  145.6699  158.3350 H   0  0  0  0  0  0  0  0  0  0  0  0
  148.8797  142.9531  156.3192 H   0  0  0  0  0  0  0  0  0  0  0  0
  147.6022  140.7840  154.4640 H   0  0  0  0  0  0  0  0  0  0  0  0
  1  2  1  0  0  0  0
  1 24  1  0  0  0  0
  2  3  1  0  0  0  0
  2 25  1  0  0  0  0
  2 26  1  0  0  0  0
  3 20  1  0  0  0  0
  3 18  1  0  0  0  0
  3  4  1  0  0  0  0
  4  5  1  0  0  0  0
  5 21  1  0  0  0  0
  5  6  1  0  0  0  0
  5 16  1  0  0  0  0
  6 15  1  0  0  0  0
  6  7  1  0  0  0  0
  7  8  2  0  0  0  0
  7 27  1  0  0  0  0
  8  9  1  0  0  0  0
  9 15  2  0  0  0  0
  9 10  1  0  0  0  0
 10 11  1  0  0  0  0
 10 12  2  0  0  0  0
 12 13  1  0  0  0  0
 13 14  2  0  0  0  0
 13 28  1  0  0  0  0
 14 15  1  0  0  0  0
 16 22  1  0  0  0  0
 16 17  1  0  0  0  0
 16 18  1  0  0  0  0
 17 29  1  0  0  0  0
 18 23  1  0  0  0  0
 18 19  1  0  0  0  0
 19 30  1  0  0  0  0
M  END
> <s_m_source_file>
AV-unprocessed.smi

> <i_m_source_file_index>
48

> <i_lp_mmshare_version>
43012

> <i_f3d_flags>
0

> <s_epik_input>
W09IXVtDSDJdW0NASF0xT1tDQEhdKFtDQEhdKFtPSF0pW0NAQEhdMVtPSF0pbihbY0hdbjIpYyhjMjMpbltjSF1uYzNDbA==

> <s_epik_cmdline>
J2VwaWtfcHl0aG9uJywgJy1waCcsICc3LjAnLCAnLXRuJywgJzgnLCAnLW1hJywgJzIwMCcsICctbWV0YWxfYmluZGluZycsICctaW1hZScsICc8aW5maWxlLm1hZT4nLCAnLW9tYWUnLCAnPG91dGZpbGUubWFlPic=

> <r_lp_tautomer_probability>
1

> <r_epik_Ionization_Penalty>
3.45505e-06

> <r_epik_Ionization_Penalty_Charging>
0

> <r_epik_Ionization_Penalty_Neutral>
3.45505e-06

> <r_epik_State_Penalty>
-0

> <r_epik_Charging_Adjusted_Penalty>
0

> <i_epik_Tot_Q>
0

> <i_epik_Tot_abs_Q>
0

> <r_epik_Metal_State_Penalty>
-0

> <b_epik_Metal_Only>
0

> <s_epik_Chemistry_Notes>
This compound contains an acetal/aminal-like group ( X-CH(R)-Y where X, Y are N, S, or O) that may be acid/base labile, releasing an aldehyde.

> <s_lp_Force_Field>
OPLS_2005

> <r_lp_Energy>
37.188

> <b_lp_Chiralities_Consistent>
1

> <s_lp_Variant>
AV-unprocessed.smi:48-12

> <Gold.Version>
5.8.1

> <Gold.Id.Protein>
6NUR|6NUR_protein|mol2

> <Gold.PLP.Fitness>
39.4283

> <Gold.PLP.PLP>
-36.7479

> <Gold.PLP.part.hbond>
-2.2292

> <Gold.PLP.part.metal>
0.0000

> <Gold.PLP.part.buried>
-7.5716

> <Gold.PLP.part.nonpolar>
-27.0541

> <Gold.PLP.part.repulsive>
0.1604

> <Gold.PLP.ligand.clash>
0.0000

> <Gold.PLP.ligand.torsion>
0.1642

> <Gold.PLP.Chemscore.Hbond>
1.0000

> <Gold.PLP.Chemscore.CHOScore>
0.0000

> <Gold.PLP.Chemscore.Metal>
0.0000

> <Gold.Chemscore.Hbonds>
donor molecule, donor type, donor heavy atom, donor atom, acceptor molecule, acceptor atom, score
      L1  H    17    29       P1  8028  1.00

> <Gold.PLP.Chemscore.Internal.Correction>
0.0088

> <Gold.Rescore>
     Score         DG    S(hbond)    S(metal)    S(lipo)     H(rot)  DE(clash)    DE(int)     intcor
      4.65      -6.00       1.00        0.00      59.08       3.80       0.17       1.18       ----

> <Gold.Chemscore.Fitness>
4.6461

> <Gold.Chemscore.DG>
-5.9963

> <Gold.Chemscore.ZeroCoef>
-5.4800

> <Gold.Chemscore.Hbond>
0.9989

> <Gold.Chemscore.Metal>
0.0000

> <Gold.Chemscore.Lipo>
59.0792

> <Gold.Chemscore.Internal_Hbond>
0.0000

> <Gold.Chemscore.DEClash>
0.1659

> <Gold.Chemscore.DEInternal>
1.1843

> <Gold.Chemscore.Rot>
3.8017

> <Gold.Chemscore.Internal.Correction>
   9.000000E+99

> <Gold.Chemscore.Hbonds>
donor molecule, donor type, donor heavy atom, donor atom, acceptor molecule, acceptor atom, score
      L1  H    17    29       P1  8028  0.99

> <Gold.Chemscore.Hbond.Weighted>
-3.3364

> <Gold.Chemscore.Metal.Weighted>
-0.0000

> <Gold.Chemscore.Lipo.Weighted>
-6.9123

> <Gold.Chemscore.Internal_Hbond.Weighted>
0.0000

> <Gold.Chemscore.DEClash.Weighted>
0.1659

> <Gold.Chemscore.DEInternal.Weighted>
1.1843

> <Gold.Chemscore.Rot.Weighted>
9.7324

> <Gold.Chemscore.Internal.Correction.Weighted>
   9.000000E+99

> <Gold.Protein.RotatedTorsions>
[ 6907 6896 6895 6894 ] final -120.86 input  -60.11 | X-H torsion
[ 7974 7965 7964 7962 ] final  105.02 input  175.53 | X-H torsion
[ 8008 7997 7996 7995 ] final   68.09 input   59.86 | X-H torsion
[ 10167 10162 10161 10158 ] final -136.44 input  -65.29 | X-H torsion
[ 10718 10713 10712 10709 ] final   92.33 input   66.30 | X-H torsion
[ 10763 10752 10751 10750 ] final  155.04 input  -60.55 | X-H torsion
[ 11005 11000 10999 10996 ] final   -8.95 input  -57.11 | X-H torsion

> <Gold.Protein.ActiveResidues>
 VAL166  LYS551  ARG553  GLY616  TRP617  ASP618  TYR619  PRO620  LYS621  CYS622 
 ASP623  PHE694  ASN695  SER759  ASP760  ASP761  ALA762  ILE779  LEU786  VAL792 
 PHE793  MET794  SER795  GLU796  ALA797  LYS798  CYS799  TRP800  GLU811  SER814 

> <Gold.Protein.RotatedAtoms>
  150.8431  133.7904  159.3053 H   0  0  0  0  0  0  0  0  0  0  0  0  # atno 6907 bound_to 6896
  151.5600  135.1064  159.9980 H   0  0  0  0  0  0  0  0  0  0  0  0  # atno 6908 bound_to 6896
  152.4491  133.7550  159.6771 H   0  0  0  0  0  0  0  0  0  0  0  0  # atno 6909 bound_to 6896
  145.3251  139.2502  143.3691 H   0  0  0  0  0  0  0  0  0  0  0  0  # atno 7974 bound_to 7965
  155.7029  140.3495  155.4941 H   0  0  0  0  0  0  0  0  0  0  0  0  # atno 8008 bound_to 7997
  155.9424  140.1104  157.1066 H   0  0  0  0  0  0  0  0  0  0  0  0  # atno 8009 bound_to 7997
  154.4105  140.1210  156.4931 H   0  0  0  0  0  0  0  0  0  0  0  0  # atno 8010 bound_to 7997
  139.8678  143.6996  152.2643 H   0  0  0  0  0  0  0  0  0  0  0  0  # atno 10167 bound_to 10162
  157.6959  131.0439  150.3865 H   0  0  0  0  0  0  0  0  0  0  0  0  # atno 10718 bound_to 10713
  154.1619  135.2809  155.3106 H   0  0  0  0  0  0  0  0  0  0  0  0  # atno 10763 bound_to 10752
  154.6140  135.5489  153.7507 H   0  0  0  0  0  0  0  0  0  0  0  0  # atno 10764 bound_to 10752
  153.0190  135.6422  154.1761 H   0  0  0  0  0  0  0  0  0  0  0  0  # atno 10765 bound_to 10752
  140.7289  133.8765  155.8878 H   0  0  0  0  0  0  0  0  0  0  0  0  # atno 11005 bound_to 11000
  146.3067  140.3816  142.8684 LP  0  0  0  0  0  0  0  0  0  0  0  0  # atno 17320 bound_to 7965
  144.8908  140.7522  143.5927 LP  0  0  0  0  0  0  0  0  0  0  0  0  # atno 17321 bound_to 7965
  139.7313  144.7581  151.0798 LP  0  0  0  0  0  0  0  0  0  0  0  0  # atno 17342 bound_to 10162
  140.7765  143.5085  150.9682 LP  0  0  0  0  0  0  0  0  0  0  0  0  # atno 17343 bound_to 10162
  156.4273  130.3965  149.6784 LP  0  0  0  0  0  0  0  0  0  0  0  0  # atno 17370 bound_to 10713
  156.4013  130.7676  151.2684 LP  0  0  0  0  0  0  0  0  0  0  0  0  # atno 17371 bound_to 10713
  140.9938  134.1243  157.4383 LP  0  0  0  0  0  0  0  0  0  0  0  0  # atno 17394 bound_to 11000
  139.8831  135.0048  156.6274 LP  0  0  0  0  0  0  0  0  0  0  0  0  # atno 17395 bound_to 11000

$$$$
