AV-unprocessed.smi:79|AV-procd|sdf|777|dock7
  -GOLD-   2262017133D 1   1.00000     0.00000
 Structure written by MMmdl.
 56 59  0  0  0  0  0  0  0  0  2 V2000
  144.0718  132.5290  150.9612 C   0  0  0  0  0  0  0  0  0  0  0  0
  144.7187  133.9178  151.0699 C   0  0  2  0  0  0  0  0  0  0  0  0
  144.5090  134.5934  149.8478 O   0  0  0  0  0  0  0  0  0  0  0  0
  146.2367  133.8572  151.3360 C   0  0  0  0  0  0  0  0  0  0  0  0
  146.5693  133.3073  152.6751 N   0  3  2  0  0  0  0  0  0  0  0  0
  146.1846  134.2047  153.7970 C   0  0  0  0  0  0  0  0  0  0  0  0
  146.4742  133.5491  155.1578 C   0  0  0  0  0  0  0  0  0  0  0  0
  147.8665  133.1120  155.2340 N   0  0  0  0  0  0  0  0  0  0  0  0
  148.7322  134.0209  155.7559 C   0  0  0  0  0  0  0  0  0  0  0  0
  149.9147  133.6097  156.2866 N   0  0  0  0  0  0  0  0  0  0  0  0
  150.7761  134.4988  156.7901 C   0  0  0  0  0  0  0  0  0  0  0  0
  150.6565  135.8253  156.8646 N   0  0  0  0  0  0  0  0  0  0  0  0
  149.4700  136.2455  156.3403 C   0  0  0  0  0  0  0  0  0  0  0  0
  148.4615  135.4185  155.7699 C   0  0  0  0  0  0  0  0  0  0  0  0
  147.3929  136.2006  155.3481 N   0  0  0  0  0  0  0  0  0  0  0  0
  147.7521  137.4196  155.6444 C   0  0  0  0  0  0  0  0  0  0  0  0
  148.9816  137.5381  156.2525 N   0  0  0  0  0  0  0  0  0  0  0  0
  149.6226  138.7680  156.6924 C   0  0  0  0  0  0  0  0  0  0  0  0
  150.4395  139.4696  155.5917 C   0  0  0  0  0  0  0  0  0  0  0  0
  149.4617  140.0881  154.5720 C   0  0  0  0  0  0  0  0  0  0  0  0
  150.1221  140.6031  153.4329 O   0  0  0  0  0  0  0  0  0  0  0  0
  151.5621  140.3865  156.0988 C   0  0  0  0  0  0  0  0  0  0  0  0
  152.5458  139.7379  155.2625 O   0  0  0  0  0  0  0  0  0  0  0  0
  151.6096  138.6693  155.0012 C   0  0  0  0  0  0  0  0  0  0  0  0
  148.3126  132.2418  154.1407 C   0  0  1  0  0  0  0  0  0  0  0  0
  147.7164  130.8293  154.2703 C   0  0  0  0  0  0  0  0  0  0  0  0
  147.9898  132.8773  152.7684 C   0  0  0  0  0  0  0  0  0  0  0  0
  144.1723  131.9706  151.8921 H   0  0  0  0  0  0  0  0  0  0  0  0
  144.5283  131.9373  150.1669 H   0  0  0  0  0  0  0  0  0  0  0  0
  143.0061  132.6096  150.7443 H   0  0  0  0  0  0  0  0  0  0  0  0
  144.2124  134.4950  151.8428 H   0  0  0  0  0  0  0  0  0  0  0  0
  145.2947  134.5314  149.3256 H   0  0  0  0  0  0  0  0  0  0  0  0
  146.6946  133.2343  150.5658 H   0  0  0  0  0  0  0  0  0  0  0  0
  146.6853  134.8468  151.2334 H   0  0  0  0  0  0  0  0  0  0  0  0
  146.7336  135.1442  153.7137 H   0  0  0  0  0  0  0  0  0  0  0  0
  145.1253  134.4520  153.7457 H   0  0  0  0  0  0  0  0  0  0  0  0
  146.2245  134.2479  155.9554 H   0  0  0  0  0  0  0  0  0  0  0  0
  145.8248  132.6855  155.3026 H   0  0  0  0  0  0  0  0  0  0  0  0
  151.6922  134.0889  157.1893 H   0  0  0  0  0  0  0  0  0  0  0  0
  147.1226  138.2700  155.4276 H   0  0  0  0  0  0  0  0  0  0  0  0
  148.8562  139.4377  157.0850 H   0  0  0  0  0  0  0  0  0  0  0  0
  150.2594  138.5207  157.5428 H   0  0  0  0  0  0  0  0  0  0  0  0
  148.7412  139.3499  154.2196 H   0  0  0  0  0  0  0  0  0  0  0  0
  148.8893  140.8981  155.0252 H   0  0  0  0  0  0  0  0  0  0  0  0
  150.0231  139.9872  152.7232 H   0  0  0  0  0  0  0  0  0  0  0  0
  151.4298  141.4411  155.8547 H   0  0  0  0  0  0  0  0  0  0  0  0
  151.7910  140.2633  157.1587 H   0  0  0  0  0  0  0  0  0  0  0  0
  151.8650  137.7705  155.5635 H   0  0  0  0  0  0  0  0  0  0  0  0
  151.5088  138.4467  153.9384 H   0  0  0  0  0  0  0  0  0  0  0  0
  149.3940  132.1138  154.2081 H   0  0  0  0  0  0  0  0  0  0  0  0
  148.1185  130.1652  153.5049 H   0  0  0  0  0  0  0  0  0  0  0  0
  146.6313  130.8286  154.1665 H   0  0  0  0  0  0  0  0  0  0  0  0
  147.9581  130.3926  155.2399 H   0  0  0  0  0  0  0  0  0  0  0  0
  148.2193  132.1680  151.9722 H   0  0  0  0  0  0  0  0  0  0  0  0
  148.6279  133.7460  152.6003 H   0  0  0  0  0  0  0  0  0  0  0  0
  146.0222  132.4647  152.7782 H   0  0  0  0  0  0  0  0  0  0  0  0
  1  2  1  0  0  0  0
  1 28  1  0  0  0  0
  1 29  1  0  0  0  0
  1 30  1  0  0  0  0
  2  3  1  0  0  0  0
  2  4  1  0  0  0  0
  2 31  1  0  0  0  0
  3 32  1  0  0  0  0
  4  5  1  0  0  0  0
  4 33  1  0  0  0  0
  4 34  1  0  0  0  0
  5 27  1  0  0  0  0
  5  6  1  0  0  0  0
  5 56  1  0  0  0  0
  6  7  1  0  0  0  0
  6 35  1  0  0  0  0
  6 36  1  0  0  0  0
  7  8  1  0  0  0  0
  7 37  1  0  0  0  0
  7 38  1  0  0  0  0
  8  9  1  0  0  0  0
  8 25  1  0  0  0  0
  9 14  1  0  0  0  0
  9 10  2  0  0  0  0
 10 11  1  0  0  0  0
 11 12  2  0  0  0  0
 11 39  1  0  0  0  0
 12 13  1  0  0  0  0
 13 17  1  0  0  0  0
 13 14  2  0  0  0  0
 14 15  1  0  0  0  0
 15 16  2  0  0  0  0
 16 17  1  0  0  0  0
 16 40  1  0  0  0  0
 17 18  1  0  0  0  0
 18 19  1  0  0  0  0
 18 41  1  0  0  0  0
 18 42  1  0  0  0  0
 19 24  1  0  0  0  0
 19 20  1  0  0  0  0
 19 22  1  0  0  0  0
 20 21  1  0  0  0  0
 20 43  1  0  0  0  0
 20 44  1  0  0  0  0
 21 45  1  0  0  0  0
 22 23  1  0  0  0  0
 22 46  1  0  0  0  0
 22 47  1  0  0  0  0
 23 24  1  0  0  0  0
 24 48  1  0  0  0  0
 24 49  1  0  0  0  0
 25 26  1  0  0  0  0
 25 27  1  0  0  0  0
 25 50  1  0  0  0  0
 26 51  1  0  0  0  0
 26 52  1  0  0  0  0
 26 53  1  0  0  0  0
 27 54  1  0  0  0  0
 27 55  1  0  0  0  0
M  CHG  1   5   1
M  END
> <s_m_source_file>
AV-unprocessed.smi

> <i_m_source_file_index>
79

> <i_lp_mmshare_version>
43012

> <i_f3d_flags>
0

> <s_epik_input>
W0NIM11bQ0BIXShbT0hdKVtDSDJdTjFbQ0gyXVtDSDJdTihbQ0BASF0oW0NIM10pW0NIMl0xKWMobltjSF1uMiljKGMyMyluW2NIXW4zW0NIMl1DNChbQ0gyXVtPSF0pW0NIMl1PW0NIMl00

> <s_epik_cmdline>
J2VwaWtfcHl0aG9uJywgJy1waCcsICc3LjAnLCAnLXRuJywgJzgnLCAnLW1hJywgJzIwMCcsICctbWV0YWxfYmluZGluZycsICctaW1hZScsICc8aW5maWxlLm1hZT4nLCAnLW9tYWUnLCAnPG91dGZpbGUubWFlPic=

> <r_lp_tautomer_probability>
1

> <r_epik_Ionization_Penalty>
0.00515943

> <r_epik_Ionization_Penalty_Charging>
0.00509693

> <r_epik_Ionization_Penalty_Neutral>
6.25007e-05

> <r_epik_State_Penalty>
-0

> <r_epik_Charging_Adjusted_Penalty>
0.00509693

> <i_epik_Tot_Q>
1

> <i_epik_Tot_abs_Q>
1

> <r_epik_Metal_State_Penalty>
-0

> <b_epik_Metal_Only>
0

> <s_lp_Force_Field>
OPLS_2005

> <r_lp_Energy>
51.7042

> <b_lp_Chiralities_Consistent>
1

> <s_lp_Variant>
AV-unprocessed.smi:79-1

> <Gold.Version>
5.8.1

> <Gold.Id.Protein>
6NUR|6NUR_protein|mol2

> <Gold.PLP.Fitness>
47.0068

> <Gold.PLP.PLP>
-37.4299

> <Gold.PLP.part.hbond>
-4.8543

> <Gold.PLP.part.metal>
0.0000

> <Gold.PLP.part.buried>
-3.7618

> <Gold.PLP.part.nonpolar>
-27.2009

> <Gold.PLP.part.repulsive>
0.1411

> <Gold.PLP.ligand.clash>
0.0000

> <Gold.PLP.ligand.torsion>
1.0808

> <Gold.PLP.Chemscore.Hbond>
3.6050

> <Gold.PLP.Chemscore.CHOScore>
0.0000

> <Gold.PLP.Chemscore.Metal>
0.0000

> <Gold.Chemscore.Hbonds>
donor molecule, donor type, donor heavy atom, donor atom, acceptor molecule, acceptor atom, score
      L1  H     3    32       P1  7921  0.96
      L1  H    21    45       P1  7957  0.74
      P1  H  7989  7998       L1    21  0.40
      P1  H  7997  8010       L1    23  0.96
      P1  H  8011  8017       L1    21  0.66

> <Gold.PLP.Chemscore.Internal.Correction>
0.9234

> <Gold.Rescore>
     Score         DG    S(hbond)    S(metal)    S(lipo)     H(rot)  DE(clash)    DE(int)     intcor
     10.09     -14.79       2.98        0.00      76.05       3.72       0.99       3.71       ----

> <Gold.Chemscore.Fitness>
10.0905

> <Gold.Chemscore.DG>
-14.7917

> <Gold.Chemscore.ZeroCoef>
-5.4800

> <Gold.Chemscore.Hbond>
2.9770

> <Gold.Chemscore.Metal>
0.0000

> <Gold.Chemscore.Lipo>
76.0523

> <Gold.Chemscore.Internal_Hbond>
0.0000

> <Gold.Chemscore.DEClash>
0.9911

> <Gold.Chemscore.DEInternal>
3.7101

> <Gold.Chemscore.Rot>
3.7226

> <Gold.Chemscore.Internal.Correction>
   9.000000E+99

> <Gold.Chemscore.Hbonds>
donor molecule, donor type, donor heavy atom, donor atom, acceptor molecule, acceptor atom, score
      L1  H     3    32       P1  7921  0.92
      L1  H    21    45       P1  7957  0.73
      P1  H  7989  7998       L1    21  0.16
      P1  H  7997  8010       L1    23  0.64
      P1  H  8011  8017       L1    21  0.13

> <Gold.Chemscore.Hbond.Weighted>
-9.9433

> <Gold.Chemscore.Metal.Weighted>
-0.0000

> <Gold.Chemscore.Lipo.Weighted>
-8.8981

> <Gold.Chemscore.Internal_Hbond.Weighted>
0.0000

> <Gold.Chemscore.DEClash.Weighted>
0.9911

> <Gold.Chemscore.DEInternal.Weighted>
3.7101

> <Gold.Chemscore.Rot.Weighted>
9.5298

> <Gold.Chemscore.Internal.Correction.Weighted>
   9.000000E+99

> <Gold.Protein.RotatedTorsions>
[ 6907 6896 6895 6894 ] final -145.89 input  -60.11 | X-H torsion
[ 7974 7965 7964 7962 ] final  133.36 input  175.53 | X-H torsion
[ 8008 7997 7996 7995 ] final  100.28 input   59.86 | X-H torsion
[ 10167 10162 10161 10158 ] final  149.46 input  -65.29 | X-H torsion
[ 10718 10713 10712 10709 ] final   17.19 input   66.30 | X-H torsion
[ 10763 10752 10751 10750 ] final  -41.53 input  -60.55 | X-H torsion
[ 11005 11000 10999 10996 ] final   92.27 input  -57.11 | X-H torsion

> <Gold.Protein.ActiveResidues>
 VAL166  LYS551  ARG553  GLY616  TRP617  ASP618  TYR619  PRO620  LYS621  CYS622 
 ASP623  PHE694  ASN695  SER759  ASP760  ASP761  ALA762  ILE779  LEU786  VAL792 
 PHE793  MET794  SER795  GLU796  ALA797  LYS798  CYS799  TRP800  GLU811  SER814 

> <Gold.Protein.RotatedAtoms>
  151.1340  133.5017  159.2598 H   0  0  0  0  0  0  0  0  0  0  0  0  # atno 6907 bound_to 6896
  151.1726  135.0324  159.8768 H   0  0  0  0  0  0  0  0  0  0  0  0  # atno 6908 bound_to 6896
  152.5460  134.1201  159.8449 H   0  0  0  0  0  0  0  0  0  0  0  0  # atno 6909 bound_to 6896
  144.9873  139.4442  143.5357 H   0  0  0  0  0  0  0  0  0  0  0  0  # atno 7974 bound_to 7965
  156.1188  140.3215  155.8178 H   0  0  0  0  0  0  0  0  0  0  0  0  # atno 8008 bound_to 7997
  155.4542  140.0534  157.3015 H   0  0  0  0  0  0  0  0  0  0  0  0  # atno 8009 bound_to 7997
  154.4812  140.2054  155.9773 H   0  0  0  0  0  0  0  0  0  0  0  0  # atno 8010 bound_to 7997
  139.4861  144.5600  151.7249 H   0  0  0  0  0  0  0  0  0  0  0  0  # atno 10167 bound_to 10162
  157.0785  130.6378  149.5821 H   0  0  0  0  0  0  0  0  0  0  0  0  # atno 10718 bound_to 10713
  153.9640  135.6736  153.4745 H   0  0  0  0  0  0  0  0  0  0  0  0  # atno 10763 bound_to 10752
  153.0825  135.4916  154.8527 H   0  0  0  0  0  0  0  0  0  0  0  0  # atno 10764 bound_to 10752
  154.7257  135.3127  154.8935 H   0  0  0  0  0  0  0  0  0  0  0  0  # atno 10765 bound_to 10752
  139.8826  134.8723  156.3549 H   0  0  0  0  0  0  0  0  0  0  0  0  # atno 11005 bound_to 11000
  146.3423  139.9183  142.8770 LP  0  0  0  0  0  0  0  0  0  0  0  0  # atno 17320 bound_to 7965
  145.2335  140.9982  143.3977 LP  0  0  0  0  0  0  0  0  0  0  0  0  # atno 17321 bound_to 7965
  140.5168  144.0941  150.6010 LP  0  0  0  0  0  0  0  0  0  0  0  0  # atno 17342 bound_to 10162
  140.3885  143.2765  152.0088 LP  0  0  0  0  0  0  0  0  0  0  0  0  # atno 17343 bound_to 10162
  155.9930  130.4990  150.7363 LP  0  0  0  0  0  0  0  0  0  0  0  0  # atno 17370 bound_to 10713
  157.4819  131.0903  151.0526 LP  0  0  0  0  0  0  0  0  0  0  0  0  # atno 17371 bound_to 10713
  140.9569  133.7414  156.0348 LP  0  0  0  0  0  0  0  0  0  0  0  0  # atno 17394 bound_to 11000
  140.8037  134.3479  157.5432 LP  0  0  0  0  0  0  0  0  0  0  0  0  # atno 17395 bound_to 11000

$$$$
