AV-unprocessed.smi:2496|AV-procd|sdf|9828|dock10
  -GOLD-   2272013463D 1   1.00000     0.00000
 Structure written by MMmdl.
 40 40  0  0  0  0  0  0  0  0  1 V2000
  153.8404  138.5142  154.9480 C   0  0  0  0  0  0  0  0  0  0  0  0
  152.3631  138.4517  154.6764 C   0  0  0  0  0  0  0  0  0  0  0  0
  151.8890  137.4143  154.0027 N   0  0  0  0  0  0  0  0  0  0  0  0
  150.5695  137.6512  153.9242 N   0  0  0  0  0  0  0  0  0  0  0  0
  150.1954  138.8217  154.5394 C   0  0  0  0  0  0  0  0  0  0  0  0
  148.7767  139.2827  154.5688 C   0  0  0  0  0  0  0  0  0  0  0  0
  151.3372  139.3808  155.0483 C   0  0  0  0  0  0  0  0  0  0  0  0
  151.4549  140.6849  155.8108 C   0  0  1  0  0  0  0  0  0  0  0  0
  150.3081  141.6587  155.4812 C   0  0  0  0  0  0  0  0  0  0  0  0
  151.5884  140.3920  157.3132 C   0  0  0  0  0  0  0  0  0  0  0  0
  151.4266  139.2525  157.7514 O   0  0  0  0  0  0  0  0  0  0  0  0
  151.8807  141.4476  158.0911 N   0  0  0  0  0  0  0  0  0  0  0  0
  152.0898  141.4266  159.5386 C   0  0  1  0  0  0  0  0  0  0  0  0
  152.9487  140.1941  159.8701 C   0  0  0  0  0  0  0  0  0  0  0  0
  152.7171  142.7626  160.0206 C   0  0  0  0  0  0  0  0  0  0  0  0
  152.7671  142.8627  161.5559 C   0  0  0  0  0  0  0  0  0  0  0  0
  151.9863  143.9947  159.4521 C   0  0  0  0  0  0  0  0  0  0  0  0
  149.9438  137.0135  153.4530 H   0  0  0  0  0  0  0  0  0  0  0  0
  154.2261  139.5248  154.8194 H   0  0  0  0  0  0  0  0  0  0  0  0
  154.4009  137.8660  154.2735 H   0  0  0  0  0  0  0  0  0  0  0  0
  154.0632  138.1992  155.9672 H   0  0  0  0  0  0  0  0  0  0  0  0
  148.6742  140.2434  154.0640 H   0  0  0  0  0  0  0  0  0  0  0  0
  148.4315  139.4020  155.5959 H   0  0  0  0  0  0  0  0  0  0  0  0
  148.1168  138.5702  154.0728 H   0  0  0  0  0  0  0  0  0  0  0  0
  152.3765  141.1941  155.5250 H   0  0  0  0  0  0  0  0  0  0  0  0
  149.3333  141.2559  155.7553 H   0  0  0  0  0  0  0  0  0  0  0  0
  150.2852  141.8818  154.4141 H   0  0  0  0  0  0  0  0  0  0  0  0
  150.4326  142.6055  156.0082 H   0  0  0  0  0  0  0  0  0  0  0  0
  151.9913  142.3417  157.6357 H   0  0  0  0  0  0  0  0  0  0  0  0
  151.1322  141.3014  160.0471 H   0  0  0  0  0  0  0  0  0  0  0  0
  153.0461  140.0440  160.9447 H   0  0  0  0  0  0  0  0  0  0  0  0
  153.9515  140.2836  159.4507 H   0  0  0  0  0  0  0  0  0  0  0  0
  152.5009  139.2863  159.4637 H   0  0  0  0  0  0  0  0  0  0  0  0
  153.7454  142.8039  159.6581 H   0  0  0  0  0  0  0  0  0  0  0  0
  151.7727  142.7612  161.9917 H   0  0  0  0  0  0  0  0  0  0  0  0
  153.1696  143.8250  161.8737 H   0  0  0  0  0  0  0  0  0  0  0  0
  153.4052  142.0958  161.9930 H   0  0  0  0  0  0  0  0  0  0  0  0
  150.9306  143.9877  159.7250 H   0  0  0  0  0  0  0  0  0  0  0  0
  152.0491  144.0395  158.3648 H   0  0  0  0  0  0  0  0  0  0  0  0
  152.4206  144.9200  159.8317 H   0  0  0  0  0  0  0  0  0  0  0  0
  1  2  1  0  0  0  0
  1 19  1  0  0  0  0
  1 20  1  0  0  0  0
  1 21  1  0  0  0  0
  2  7  1  0  0  0  0
  2  3  2  0  0  0  0
  3  4  1  0  0  0  0
  4 18  1  0  0  0  0
  4  5  1  0  0  0  0
  5  6  1  0  0  0  0
  5  7  2  0  0  0  0
  6 22  1  0  0  0  0
  6 23  1  0  0  0  0
  6 24  1  0  0  0  0
  7  8  1  0  0  0  0
  8  9  1  0  0  0  0
  8 10  1  0  0  0  0
  8 25  1  0  0  0  0
  9 26  1  0  0  0  0
  9 27  1  0  0  0  0
  9 28  1  0  0  0  0
 10 11  2  0  0  0  0
 10 12  1  0  0  0  0
 12 13  1  0  0  0  0
 12 29  1  0  0  0  0
 13 14  1  0  0  0  0
 13 15  1  0  0  0  0
 13 30  1  0  0  0  0
 14 31  1  0  0  0  0
 14 32  1  0  0  0  0
 14 33  1  0  0  0  0
 15 16  1  0  0  0  0
 15 17  1  0  0  0  0
 15 34  1  0  0  0  0
 16 35  1  0  0  0  0
 16 36  1  0  0  0  0
 16 37  1  0  0  0  0
 17 38  1  0  0  0  0
 17 39  1  0  0  0  0
 17 40  1  0  0  0  0
M  END
> <s_m_source_file>
AV-unprocessed.smi

> <i_m_source_file_index>
2496

> <i_lp_mmshare_version>
43012

> <i_f3d_flags>
0

> <s_epik_input>
W0NIM11jMW5bbkhdYyhbQ0gzXSljMVtDQEhdKFtDSDNdKUMoPU8pW05IXVtDQEhdKFtDSDNdKVtDSF0oW0NIM10pW0NIM10=

> <s_epik_cmdline>
J2VwaWtfcHl0aG9uJywgJy1waCcsICc3LjAnLCAnLXRuJywgJzgnLCAnLW1hJywgJzIwMCcsICctbWV0YWxfYmluZGluZycsICctaW1hZScsICc8aW5maWxlLm1hZT4nLCAnLW9tYWUnLCAnPG91dGZpbGUubWFlPic=

> <r_lp_tautomer_probability>
1

> <r_epik_Ionization_Penalty>
0.000456212

> <r_epik_Ionization_Penalty_Charging>
0

> <r_epik_Ionization_Penalty_Neutral>
0.000456212

> <r_epik_State_Penalty>
-0

> <r_epik_Charging_Adjusted_Penalty>
0

> <i_epik_Tot_Q>
0

> <i_epik_Tot_abs_Q>
0

> <r_epik_Metal_State_Penalty>
-0

> <b_epik_Metal_Only>
0

> <s_lp_Force_Field>
OPLS_2005

> <r_lp_Energy>
2.25398

> <b_lp_Chiralities_Consistent>
1

> <s_lp_Variant>
AV-unprocessed.smi:2496-4

> <Gold.Version>
5.8.1

> <Gold.Id.Protein>
6NUR|6NUR_protein|mol2

> <Gold.PLP.Fitness>
40.5199

> <Gold.PLP.PLP>
-37.4150

> <Gold.PLP.part.hbond>
-3.0000

> <Gold.PLP.part.metal>
0.0000

> <Gold.PLP.part.buried>
-2.2626

> <Gold.PLP.part.nonpolar>
-34.1695

> <Gold.PLP.part.repulsive>
1.2717

> <Gold.PLP.ligand.clash>
0.9831

> <Gold.PLP.ligand.torsion>
0.9625

> <Gold.PLP.Chemscore.Hbond>
1.9675

> <Gold.PLP.Chemscore.CHOScore>
0.0000

> <Gold.PLP.Chemscore.Metal>
0.0000

> <Gold.Chemscore.Hbonds>
donor molecule, donor type, donor heavy atom, donor atom, acceptor molecule, acceptor atom, score
      L1  H     4    18       P1  7948  1.00
      P1  H 10752 10765       L1     3  0.98

> <Gold.PLP.Chemscore.Internal.Correction>
0.1107

> <Gold.Rescore>
     Score         DG    S(hbond)    S(metal)    S(lipo)     H(rot)  DE(clash)    DE(int)     intcor
     15.07     -18.01       1.30        0.00     101.95       1.47       0.17       2.77       ----

> <Gold.Chemscore.Fitness>
15.0713

> <Gold.Chemscore.DG>
-18.0104

> <Gold.Chemscore.ZeroCoef>
-5.4800

> <Gold.Chemscore.Hbond>
1.3041

> <Gold.Chemscore.Metal>
0.0000

> <Gold.Chemscore.Lipo>
101.9496

> <Gold.Chemscore.Internal_Hbond>
0.0000

> <Gold.Chemscore.DEClash>
0.1729

> <Gold.Chemscore.DEInternal>
2.7662

> <Gold.Chemscore.Rot>
1.4662

> <Gold.Chemscore.Internal.Correction>
   9.000000E+99

> <Gold.Chemscore.Hbonds>
donor molecule, donor type, donor heavy atom, donor atom, acceptor molecule, acceptor atom, score
      L1  H     4    18       P1  7948  0.28
      P1  H 10752 10765       L1     3  0.79

> <Gold.Chemscore.Hbond.Weighted>
-4.3557

> <Gold.Chemscore.Metal.Weighted>
-0.0000

> <Gold.Chemscore.Lipo.Weighted>
-11.9281

> <Gold.Chemscore.Internal_Hbond.Weighted>
0.0000

> <Gold.Chemscore.DEClash.Weighted>
0.1729

> <Gold.Chemscore.DEInternal.Weighted>
2.7662

> <Gold.Chemscore.Rot.Weighted>
3.7534

> <Gold.Chemscore.Internal.Correction.Weighted>
   9.000000E+99

> <Gold.Protein.RotatedTorsions>
[ 6907 6896 6895 6894 ] final  127.01 input  -60.11 | X-H torsion
[ 7974 7965 7964 7962 ] final  -27.28 input  175.53 | X-H torsion
[ 8008 7997 7996 7995 ] final  124.12 input   59.86 | X-H torsion
[ 10167 10162 10161 10158 ] final  -30.07 input  -65.29 | X-H torsion
[ 10718 10713 10712 10709 ] final -145.99 input   66.30 | X-H torsion
[ 10763 10752 10751 10750 ] final  155.76 input  -60.55 | X-H torsion
[ 11005 11000 10999 10996 ] final   35.45 input  -57.11 | X-H torsion

> <Gold.Protein.ActiveResidues>
 VAL166  LYS551  ARG553  GLY616  TRP617  ASP618  TYR619  PRO620  LYS621  CYS622 
 ASP623  PHE694  ASN695  SER759  ASP760  ASP761  ALA762  ILE779  LEU786  VAL792 
 PHE793  MET794  SER795  GLU796  ALA797  LYS798  CYS799  TRP800  GLU811  SER814 

> <Gold.Protein.RotatedAtoms>
  152.3852  133.6601  159.6192 H   0  0  0  0  0  0  0  0  0  0  0  0  # atno 6907 bound_to 6896
  150.7773  133.9047  159.3360 H   0  0  0  0  0  0  0  0  0  0  0  0  # atno 6908 bound_to 6896
  151.6845  135.0958  160.0273 H   0  0  0  0  0  0  0  0  0  0  0  0  # atno 6909 bound_to 6896
  146.1368  140.5131  142.8669 H   0  0  0  0  0  0  0  0  0  0  0  0  # atno 7974 bound_to 7965
  156.2790  140.2747  156.1736 H   0  0  0  0  0  0  0  0  0  0  0  0  # atno 8008 bound_to 7997
  155.0629  140.0386  157.2600 H   0  0  0  0  0  0  0  0  0  0  0  0  # atno 8009 bound_to 7997
  154.7103  140.2667  155.6641 H   0  0  0  0  0  0  0  0  0  0  0  0  # atno 8010 bound_to 7997
  140.7253  143.3878  151.1484 H   0  0  0  0  0  0  0  0  0  0  0  0  # atno 10167 bound_to 10162
  156.3893  130.7877  151.2078 H   0  0  0  0  0  0  0  0  0  0  0  0  # atno 10718 bound_to 10713
  154.1735  135.2803  155.3074 H   0  0  0  0  0  0  0  0  0  0  0  0  # atno 10763 bound_to 10752
  154.6057  135.5515  153.7424 H   0  0  0  0  0  0  0  0  0  0  0  0  # atno 10764 bound_to 10752
  153.0158  135.6403  154.1875 H   0  0  0  0  0  0  0  0  0  0  0  0  # atno 10765 bound_to 10752
  140.2425  134.3398  155.7920 H   0  0  0  0  0  0  0  0  0  0  0  0  # atno 11005 bound_to 11000
  144.7749  140.5717  143.6645 LP  0  0  0  0  0  0  0  0  0  0  0  0  # atno 17320 bound_to 7965
  145.5137  139.1478  143.3590 LP  0  0  0  0  0  0  0  0  0  0  0  0  # atno 17321 bound_to 7965
  139.7478  143.8825  152.3068 LP  0  0  0  0  0  0  0  0  0  0  0  0  # atno 17342 bound_to 10162
  139.8668  144.7089  150.9034 LP  0  0  0  0  0  0  0  0  0  0  0  0  # atno 17343 bound_to 10162
  157.7498  131.0320  150.4209 LP  0  0  0  0  0  0  0  0  0  0  0  0  # atno 17370 bound_to 10713
  156.4467  130.4003  149.6662 LP  0  0  0  0  0  0  0  0  0  0  0  0  # atno 17371 bound_to 10713
  141.2209  133.7307  156.8908 LP  0  0  0  0  0  0  0  0  0  0  0  0  # atno 17394 bound_to 11000
  140.1639  134.9146  157.2749 LP  0  0  0  0  0  0  0  0  0  0  0  0  # atno 17395 bound_to 11000

$$$$
