AV-unprocessed.smi:44|AV-procd|sdf|406|dock7
  -GOLD-   2262016263D 1   1.00000     0.00000
 Structure written by MMmdl.
 28 30  0  0  0  0  0  0  0  0  2 V2000
  153.2516  139.0765  156.4788 O   0  0  0  0  0  0  0  0  0  0  0  0
  152.2747  139.1029  155.7328 C   0  0  0  0  0  0  0  0  0  0  0  0
  151.9607  138.1435  154.8050 N   0  5  0  0  0  0  0  0  0  0  0  0
  150.8192  138.2912  154.0196 C   0  0  0  0  0  0  0  0  0  0  0  0
  149.9680  139.2599  154.0412 N   0  0  0  0  0  0  0  0  0  0  0  0
  150.2629  140.2408  154.9653 C   0  0  0  0  0  0  0  0  0  0  0  0
  151.3350  140.2566  155.8159 C   0  0  0  0  0  0  0  0  0  0  0  0
  151.3249  141.3923  156.6163 N   0  0  0  0  0  0  0  0  0  0  0  0
  150.2245  142.0182  156.1987 C   0  0  0  0  0  0  0  0  0  0  0  0
  149.5401  141.4014  155.2114 N   0  0  0  0  0  0  0  0  0  0  0  0
  148.2795  141.8384  154.5301 C   0  0  2  0  0  0  0  0  0  0  0  0
  147.0962  141.6710  155.4841 C   0  0  0  0  0  0  0  0  0  0  0  0
  146.6975  140.2386  155.2102 C   0  0  0  0  0  0  0  0  0  0  0  0
  146.9082  140.1520  153.6987 C   0  0  2  0  0  0  0  0  0  0  0  0
  147.1515  138.7205  153.1976 C   0  0  0  0  0  0  0  0  0  0  0  0
  147.5835  138.7442  151.8544 O   0  0  0  0  0  0  0  0  0  0  0  0
  148.0451  140.9821  153.4481 O   0  0  0  0  0  0  0  0  0  0  0  0
  148.4731  142.8656  154.2192 H   0  0  0  0  0  0  0  0  0  0  0  0
  146.0411  140.5927  153.2033 H   0  0  0  0  0  0  0  0  0  0  0  0
  150.6912  137.4544  153.3282 H   0  0  0  0  0  0  0  0  0  0  0  0
  149.9107  142.9566  156.6293 H   0  0  0  0  0  0  0  0  0  0  0  0
  147.3661  141.8689  156.5222 H   0  0  0  0  0  0  0  0  0  0  0  0
  146.3035  142.3582  155.1857 H   0  0  0  0  0  0  0  0  0  0  0  0
  147.3645  139.5538  155.7366 H   0  0  0  0  0  0  0  0  0  0  0  0
  145.6734  140.0157  155.5102 H   0  0  0  0  0  0  0  0  0  0  0  0
  147.8743  138.1935  153.8197 H   0  0  0  0  0  0  0  0  0  0  0  0
  146.2224  138.1508  153.2308 H   0  0  0  0  0  0  0  0  0  0  0  0
  148.2285  139.4279  151.7575 H   0  0  0  0  0  0  0  0  0  0  0  0
  1  2  2  0  0  0  0
  2  7  1  0  0  0  0
  2  3  1  0  0  0  0
  3  4  1  0  0  0  0
  4  5  2  0  0  0  0
  4 20  1  0  0  0  0
  5  6  1  0  0  0  0
  6 10  1  0  0  0  0
  6  7  2  0  0  0  0
  7  8  1  0  0  0  0
  8  9  2  0  0  0  0
  9 10  1  0  0  0  0
  9 21  1  0  0  0  0
 10 11  1  0  0  0  0
 11 18  1  0  0  0  0
 11 17  1  0  0  0  0
 11 12  1  0  0  0  0
 12 13  1  0  0  0  0
 12 22  1  0  0  0  0
 12 23  1  0  0  0  0
 13 14  1  0  0  0  0
 13 24  1  0  0  0  0
 13 25  1  0  0  0  0
 14 19  1  0  0  0  0
 14 15  1  0  0  0  0
 14 17  1  0  0  0  0
 15 16  1  0  0  0  0
 15 26  1  0  0  0  0
 15 27  1  0  0  0  0
 16 28  1  0  0  0  0
M  CHG  1   3  -1
M  END
> <s_m_source_file>
AV-unprocessed.smi

> <i_m_source_file_index>
44

> <i_lp_mmshare_version>
43012

> <i_f3d_flags>
0

> <s_epik_input>
bjFbY0hdW25IXWMoPU8pYyhjMTIpbltjSF1uMltDQEhdM1tDSDJdW0NIMl1bQ0BIXShPMylbQ0gyXVtPSF0=

> <s_epik_cmdline>
J2VwaWtfcHl0aG9uJywgJy1waCcsICc3LjAnLCAnLXRuJywgJzgnLCAnLW1hJywgJzIwMCcsICctbWV0YWxfYmluZGluZycsICctaW1hZScsICc8aW5maWxlLm1hZT4nLCAnLW9tYWUnLCAnPG91dGZpbGUubWFlPic=

> <r_lp_tautomer_probability>
0.85571

> <r_epik_Ionization_Penalty>
2.55863

> <r_epik_Ionization_Penalty_Charging>
1.36424e-10

> <r_epik_Ionization_Penalty_Neutral>
2.55863

> <r_epik_State_Penalty>
2.63326

> <r_epik_Charging_Adjusted_Penalty>
2.63326

> <i_epik_Tot_Q>
-1

> <i_epik_Tot_abs_Q>
1

> <r_epik_Metal_State_Penalty>
0.475154

> <b_epik_Metal_Only>
1

> <s_epik_Chemistry_Notes>
This compound contains an acetal/aminal-like group ( X-CH(R)-Y where X, Y are N, S, or O) that may be acid/base labile, releasing an aldehyde.

> <s_lp_Force_Field>
OPLS_2005

> <r_lp_Energy>
44.8592

> <b_lp_Chiralities_Consistent>
1

> <s_lp_Variant>
AV-unprocessed.smi:44-12

> <Gold.Version>
5.8.1

> <Gold.Id.Protein>
6NUR|6NUR_protein|mol2

> <Gold.PLP.Fitness>
41.0965

> <Gold.PLP.PLP>
-28.3566

> <Gold.PLP.part.hbond>
-3.4917

> <Gold.PLP.part.metal>
0.0000

> <Gold.PLP.part.buried>
-2.9228

> <Gold.PLP.part.nonpolar>
-23.3147

> <Gold.PLP.part.repulsive>
2.1368

> <Gold.PLP.ligand.clash>
0.0000

> <Gold.PLP.ligand.torsion>
0.2583

> <Gold.PLP.Chemscore.Hbond>
2.2737

> <Gold.PLP.Chemscore.CHOScore>
2.1386

> <Gold.PLP.Chemscore.Metal>
0.0000

> <Gold.Chemscore.Hbonds>
donor molecule, donor type, donor heavy atom, donor atom, acceptor molecule, acceptor atom, score
      L1  H    16    28       P1  7957  1.00
      P1  H  7954  7966       L1    16  0.26
      P1  H  7997  8008       L1     1  0.94
      L1  C     4    20       P1  7948  0.42
      L1  C     4    20       P1  7949  0.71
      L1  C     9    21       P1  8028  1.00

> <Gold.PLP.Chemscore.Internal.Correction>
0.0195

> <Gold.Rescore>
     Score         DG    S(hbond)    S(metal)    S(lipo)     H(rot)  DE(clash)    DE(int)     intcor
      6.17      -9.25       1.92        0.00      26.97       2.26       1.44       1.63       ----

> <Gold.Chemscore.Fitness>
6.1738

> <Gold.Chemscore.DG>
-9.2515

> <Gold.Chemscore.ZeroCoef>
-5.4800

> <Gold.Chemscore.Hbond>
1.9157

> <Gold.Chemscore.Metal>
0.0000

> <Gold.Chemscore.Lipo>
26.9690

> <Gold.Chemscore.Internal_Hbond>
0.0000

> <Gold.Chemscore.DEClash>
1.4443

> <Gold.Chemscore.DEInternal>
1.6333

> <Gold.Chemscore.Rot>
2.2588

> <Gold.Chemscore.Internal.Correction>
   9.000000E+99

> <Gold.Chemscore.Hbonds>
donor molecule, donor type, donor heavy atom, donor atom, acceptor molecule, acceptor atom, score
      L1  H    16    28       P1  7957  0.94
      P1  H  7954  7966       L1    16  0.01
      P1  H  7997  8008       L1     1  0.89

> <Gold.Chemscore.Hbond.Weighted>
-6.3986

> <Gold.Chemscore.Metal.Weighted>
-0.0000

> <Gold.Chemscore.Lipo.Weighted>
-3.1554

> <Gold.Chemscore.Internal_Hbond.Weighted>
0.0000

> <Gold.Chemscore.DEClash.Weighted>
1.4443

> <Gold.Chemscore.DEInternal.Weighted>
1.6333

> <Gold.Chemscore.Rot.Weighted>
5.7825

> <Gold.Chemscore.Internal.Correction.Weighted>
   9.000000E+99

> <Gold.Protein.RotatedTorsions>
[ 6907 6896 6895 6894 ] final -130.82 input  -60.11 | X-H torsion
[ 7974 7965 7964 7962 ] final   68.95 input  175.53 | X-H torsion
[ 8008 7997 7996 7995 ] final  -59.62 input   59.86 | X-H torsion
[ 10167 10162 10161 10158 ] final   10.64 input  -65.29 | X-H torsion
[ 10718 10713 10712 10709 ] final -165.01 input   66.30 | X-H torsion
[ 10763 10752 10751 10750 ] final  -56.52 input  -60.55 | X-H torsion
[ 11005 11000 10999 10996 ] final   11.18 input  -57.11 | X-H torsion

> <Gold.Protein.ActiveResidues>
 VAL166  LYS551  ARG553  GLY616  TRP617  ASP618  TYR619  PRO620  LYS621  CYS622 
 ASP623  PHE694  ASN695  SER759  ASP760  ASP761  ALA762  ILE779  LEU786  VAL792 
 PHE793  MET794  SER795  GLU796  ALA797  LYS798  CYS799  TRP800  GLU811  SER814 

> <Gold.Protein.RotatedAtoms>
  150.9440  133.6624  159.2784 H   0  0  0  0  0  0  0  0  0  0  0  0  # atno 6907 bound_to 6896
  151.4003  135.0969  159.9563 H   0  0  0  0  0  0  0  0  0  0  0  0  # atno 6908 bound_to 6896
  152.5082  133.8935  159.7460 H   0  0  0  0  0  0  0  0  0  0  0  0  # atno 6909 bound_to 6896
  145.7963  139.2959  143.1181 H   0  0  0  0  0  0  0  0  0  0  0  0  # atno 7974 bound_to 7965
  154.4361  140.1057  156.6144 H   0  0  0  0  0  0  0  0  0  0  0  0  # atno 8008 bound_to 7997
  155.5774  140.3490  155.4512 H   0  0  0  0  0  0  0  0  0  0  0  0  # atno 8009 bound_to 7997
  156.0344  140.1268  157.0213 H   0  0  0  0  0  0  0  0  0  0  0  0  # atno 8010 bound_to 7997
  140.6181  143.8263  150.7143 H   0  0  0  0  0  0  0  0  0  0  0  0  # atno 10167 bound_to 10162
  156.6472  130.8993  151.3007 H   0  0  0  0  0  0  0  0  0  0  0  0  # atno 10718 bound_to 10713
  154.2079  135.6399  153.5106 H   0  0  0  0  0  0  0  0  0  0  0  0  # atno 10763 bound_to 10752
  152.9996  135.5467  154.6246 H   0  0  0  0  0  0  0  0  0  0  0  0  # atno 10764 bound_to 10752
  154.5676  135.2914  155.0833 H   0  0  0  0  0  0  0  0  0  0  0  0  # atno 10765 bound_to 10752
  140.5062  134.0697  155.7806 H   0  0  0  0  0  0  0  0  0  0  0  0  # atno 11005 bound_to 11000
  145.9924  140.8591  143.0059 LP  0  0  0  0  0  0  0  0  0  0  0  0  # atno 17320 bound_to 7965
  144.6775  140.2235  143.7363 LP  0  0  0  0  0  0  0  0  0  0  0  0  # atno 17321 bound_to 7965
  140.1847  143.4085  152.1907 LP  0  0  0  0  0  0  0  0  0  0  0  0  # atno 17342 bound_to 10162
  139.5416  144.7261  151.4717 LP  0  0  0  0  0  0  0  0  0  0  0  0  # atno 17343 bound_to 10162
  157.7152  130.9489  150.1230 LP  0  0  0  0  0  0  0  0  0  0  0  0  # atno 17370 bound_to 10713
  156.2112  130.3667  149.8668 LP  0  0  0  0  0  0  0  0  0  0  0  0  # atno 17371 bound_to 10713
  141.1410  133.9139  157.2326 LP  0  0  0  0  0  0  0  0  0  0  0  0  # atno 17394 bound_to 11000
  139.9685  135.0135  156.9450 LP  0  0  0  0  0  0  0  0  0  0  0  0  # atno 17395 bound_to 11000

$$$$
