AV-unprocessed.smi:8|AV-procd|sdf|47|dock4
  -GOLD-   2262015163D 1   1.00000     0.00000
 Structure written by MMmdl.
 33 34  0  0  0  0  0  0  0  0  2 V2000
  151.2878  136.5506  155.8665 C   0  0  0  0  0  0  0  0  0  0  0  0
  149.8539  136.0056  155.9250 C   0  0  0  0  0  0  0  0  0  0  0  0
  149.8037  134.5860  155.5515 N   0  0  0  0  0  0  0  0  0  0  0  0
  148.9971  134.2322  154.4578 C   0  0  0  0  0  0  0  0  0  0  0  0
  148.8676  132.9582  154.0344 C   0  0  0  0  0  0  0  0  0  0  0  0
  147.9905  132.5857  152.8462 C   0  0  0  0  0  0  0  0  0  0  0  0
  147.2366  133.7118  152.3059 N   0  0  0  0  0  0  0  0  0  0  0  0
  146.1627  133.4440  151.4433 C   0  0  0  0  0  0  0  0  0  0  0  0
  146.0333  132.1985  150.9262 N   0  0  0  0  0  0  0  0  0  0  0  0
  145.0036  131.9796  150.1060 C   0  0  0  0  0  0  0  0  0  0  0  0
  144.0732  132.8631  149.7393 N   0  0  0  0  0  0  0  0  0  0  0  0
  144.1869  134.1083  150.2479 C   0  0  0  0  0  0  0  0  0  0  0  0
  145.2337  134.4632  151.1254 C   0  0  0  0  0  0  0  0  0  0  0  0
  145.3504  135.8720  151.6775 C   0  0  0  0  0  0  0  0  0  0  0  0
  149.6305  131.9306  154.7516 C   0  0  0  0  0  0  0  0  0  0  0  0
  149.5547  130.7538  154.3988 O   0  0  0  0  0  0  0  0  0  0  0  0
  150.4081  132.3273  155.8008 N   0  5  0  0  0  0  0  0  0  0  0  0
  150.5136  133.6269  156.2145 C   0  0  0  0  0  0  0  0  0  0  0  0
  151.2270  133.9604  157.1611 O   0  0  0  0  0  0  0  0  0  0  0  0
  151.3111  137.6074  156.1330 H   0  0  0  0  0  0  0  0  0  0  0  0
  151.7076  136.4505  154.8651 H   0  0  0  0  0  0  0  0  0  0  0  0
  151.9417  136.0196  156.5588 H   0  0  0  0  0  0  0  0  0  0  0  0
  149.4386  136.1577  156.9226 H   0  0  0  0  0  0  0  0  0  0  0  0
  149.2155  136.5896  155.2604 H   0  0  0  0  0  0  0  0  0  0  0  0
  148.4844  135.0585  153.9873 H   0  0  0  0  0  0  0  0  0  0  0  0
  148.5950  132.1264  152.0631 H   0  0  0  0  0  0  0  0  0  0  0  0
  147.2815  131.8215  153.1656 H   0  0  0  0  0  0  0  0  0  0  0  0
  147.7898  134.5233  152.0696 H   0  0  0  0  0  0  0  0  0  0  0  0
  144.9128  130.9836  149.6986 H   0  0  0  0  0  0  0  0  0  0  0  0
  143.4368  134.8257  149.9493 H   0  0  0  0  0  0  0  0  0  0  0  0
  144.5596  136.5143  151.2892 H   0  0  0  0  0  0  0  0  0  0  0  0
  146.3100  136.3101  151.4004 H   0  0  0  0  0  0  0  0  0  0  0  0
  145.2763  135.8609  152.7653 H   0  0  0  0  0  0  0  0  0  0  0  0
  1  2  1  0  0  0  0
  1 20  1  0  0  0  0
  1 21  1  0  0  0  0
  1 22  1  0  0  0  0
  2  3  1  0  0  0  0
  2 23  1  0  0  0  0
  2 24  1  0  0  0  0
  3 18  1  0  0  0  0
  3  4  1  0  0  0  0
  4  5  2  0  0  0  0
  4 25  1  0  0  0  0
  5  6  1  0  0  0  0
  5 15  1  0  0  0  0
  6  7  1  0  0  0  0
  6 26  1  0  0  0  0
  6 27  1  0  0  0  0
  7  8  1  0  0  0  0
  7 28  1  0  0  0  0
  8 13  1  0  0  0  0
  8  9  2  0  0  0  0
  9 10  1  0  0  0  0
 10 11  2  0  0  0  0
 10 29  1  0  0  0  0
 11 12  1  0  0  0  0
 12 13  2  0  0  0  0
 12 30  1  0  0  0  0
 13 14  1  0  0  0  0
 14 31  1  0  0  0  0
 14 32  1  0  0  0  0
 14 33  1  0  0  0  0
 15 16  2  0  0  0  0
 15 17  1  0  0  0  0
 17 18  1  0  0  0  0
 18 19  2  0  0  0  0
M  CHG  1  17  -1
M  END
> <s_m_source_file>
AV-unprocessed.smi

> <i_m_source_file_index>
8

> <i_lp_mmshare_version>
43012

> <i_f3d_flags>
0

> <s_epik_input>
W0NIM11bQ0gyXW4xW2NIXWMoYyg9TylbbkhdYzE9TylbQ0gyXVtOSF1jMm5bY0hdbltjSF1jMltDSDNd

> <s_epik_cmdline>
J2VwaWtfcHl0aG9uJywgJy1waCcsICc3LjAnLCAnLXRuJywgJzgnLCAnLW1hJywgJzIwMCcsICctbWV0YWxfYmluZGluZycsICctaW1hZScsICc8aW5maWxlLm1hZT4nLCAnLW9tYWUnLCAnPG91dGZpbGUubWFlPic=

> <r_lp_tautomer_probability>
0.999537

> <r_epik_Ionization_Penalty>
4.00162

> <r_epik_Ionization_Penalty_Charging>
4.85554e-07

> <r_epik_Ionization_Penalty_Neutral>
4.00162

> <r_epik_State_Penalty>
4.01059

> <r_epik_Charging_Adjusted_Penalty>
4.01059

> <i_epik_Tot_Q>
-1

> <i_epik_Tot_abs_Q>
1

> <r_epik_Metal_State_Penalty>
0.642438

> <b_epik_Metal_Only>
1

> <s_lp_Force_Field>
OPLS_2005

> <r_lp_Energy>
12.8082

> <b_lp_Chiralities_Consistent>
1

> <s_lp_Variant>
AV-unprocessed.smi:8-3

> <Gold.Version>
5.8.1

> <Gold.Id.Protein>
6NUR|6NUR_protein|mol2

> <Gold.PLP.Fitness>
41.0917

> <Gold.PLP.PLP>
-31.6707

> <Gold.PLP.part.hbond>
-2.0000

> <Gold.PLP.part.metal>
0.0000

> <Gold.PLP.part.buried>
-4.9666

> <Gold.PLP.part.nonpolar>
-26.1092

> <Gold.PLP.part.repulsive>
0.4247

> <Gold.PLP.ligand.clash>
0.0000

> <Gold.PLP.ligand.torsion>
0.2396

> <Gold.PLP.Chemscore.Hbond>
1.3422

> <Gold.PLP.Chemscore.CHOScore>
1.9560

> <Gold.PLP.Chemscore.Metal>
0.0000

> <Gold.Chemscore.Hbonds>
donor molecule, donor type, donor heavy atom, donor atom, acceptor molecule, acceptor atom, score
      L1  H     7    28       P1  7948  1.00
      P1  H  6896  6909       L1    19  0.37
      L1  C     4    25       P1  7948  0.98
      L1  C    12    30       P1 10186  0.97

> <Gold.PLP.Chemscore.Internal.Correction>
0.0058

> <Gold.Rescore>
     Score         DG    S(hbond)    S(metal)    S(lipo)     H(rot)  DE(clash)    DE(int)     intcor
      9.33     -10.95       1.78        0.00      41.58       2.09       0.23       1.39       ----

> <Gold.Chemscore.Fitness>
9.3301

> <Gold.Chemscore.DG>
-10.9504

> <Gold.Chemscore.ZeroCoef>
-5.4800

> <Gold.Chemscore.Hbond>
1.7814

> <Gold.Chemscore.Metal>
0.0000

> <Gold.Chemscore.Lipo>
41.5784

> <Gold.Chemscore.Internal_Hbond>
0.0000

> <Gold.Chemscore.DEClash>
0.2253

> <Gold.Chemscore.DEInternal>
1.3950

> <Gold.Chemscore.Rot>
2.0876

> <Gold.Chemscore.Internal.Correction>
   9.000000E+99

> <Gold.Chemscore.Hbonds>
donor molecule, donor type, donor heavy atom, donor atom, acceptor molecule, acceptor atom, score
      L1  H     7    28       P1  7948  0.32
      P1  H  6896  6909       L1    19  0.36

> <Gold.Chemscore.Hbond.Weighted>
-5.9499

> <Gold.Chemscore.Metal.Weighted>
-0.0000

> <Gold.Chemscore.Lipo.Weighted>
-4.8647

> <Gold.Chemscore.Internal_Hbond.Weighted>
0.0000

> <Gold.Chemscore.DEClash.Weighted>
0.2253

> <Gold.Chemscore.DEInternal.Weighted>
1.3950

> <Gold.Chemscore.Rot.Weighted>
5.3442

> <Gold.Chemscore.Internal.Correction.Weighted>
   9.000000E+99

> <Gold.Protein.RotatedTorsions>
[ 6907 6896 6895 6894 ] final  -31.51 input  -60.11 | X-H torsion
[ 7974 7965 7964 7962 ] final   11.93 input  175.53 | X-H torsion
[ 8008 7997 7996 7995 ] final  152.17 input   59.86 | X-H torsion
[ 10167 10162 10161 10158 ] final   -5.81 input  -65.29 | X-H torsion
[ 10718 10713 10712 10709 ] final   -9.67 input   66.30 | X-H torsion
[ 10763 10752 10751 10750 ] final  113.82 input  -60.55 | X-H torsion
[ 11005 11000 10999 10996 ] final -120.64 input  -57.11 | X-H torsion

> <Gold.Protein.ActiveResidues>
 VAL166  LYS551  ARG553  GLY616  TRP617  ASP618  TYR619  PRO620  LYS621  CYS622 
 ASP623  PHE694  ASN695  SER759  ASP760  ASP761  ALA762  ILE779  LEU786  VAL792 
 PHE793  MET794  SER795  GLU796  ALA797  LYS798  CYS799  TRP800  GLU811  SER814 

> <Gold.Protein.RotatedAtoms>
  151.0910  134.9916  159.8402 H   0  0  0  0  0  0  0  0  0  0  0  0  # atno 6907 bound_to 6896
  152.5429  134.2065  159.8743 H   0  0  0  0  0  0  0  0  0  0  0  0  # atno 6908 bound_to 6896
  151.2101  133.4517  159.2631 H   0  0  0  0  0  0  0  0  0  0  0  0  # atno 6909 bound_to 6896
  146.2361  139.9412  142.8483 H   0  0  0  0  0  0  0  0  0  0  0  0  # atno 7974 bound_to 7965
  156.2641  140.2028  156.6292 H   0  0  0  0  0  0  0  0  0  0  0  0  # atno 8008 bound_to 7997
  154.6696  140.0551  157.0176 H   0  0  0  0  0  0  0  0  0  0  0  0  # atno 8009 bound_to 7997
  155.1156  140.3219  155.4513 H   0  0  0  0  0  0  0  0  0  0  0  0  # atno 8010 bound_to 7997
  140.6976  143.6265  150.8563 H   0  0  0  0  0  0  0  0  0  0  0  0  # atno 10167 bound_to 10162
  156.6847  130.5047  149.5961 H   0  0  0  0  0  0  0  0  0  0  0  0  # atno 10718 bound_to 10713
  153.4981  135.3644  155.2526 H   0  0  0  0  0  0  0  0  0  0  0  0  # atno 10763 bound_to 10752
  154.8749  135.3993  154.3510 H   0  0  0  0  0  0  0  0  0  0  0  0  # atno 10764 bound_to 10752
  153.4142  135.7078  153.6404 H   0  0  0  0  0  0  0  0  0  0  0  0  # atno 10765 bound_to 10752
  141.0129  134.0239  157.3390 H   0  0  0  0  0  0  0  0  0  0  0  0  # atno 11005 bound_to 11000
  145.1951  140.9829  143.4188 LP  0  0  0  0  0  0  0  0  0  0  0  0  # atno 17320 bound_to 7965
  144.9823  139.3771  143.6256 LP  0  0  0  0  0  0  0  0  0  0  0  0  # atno 17321 bound_to 7965
  139.9984  143.5770  152.2884 LP  0  0  0  0  0  0  0  0  0  0  0  0  # atno 17342 bound_to 10162
  139.6451  144.7657  151.2260 LP  0  0  0  0  0  0  0  0  0  0  0  0  # atno 17343 bound_to 10162
  156.1842  130.6518  151.0986 LP  0  0  0  0  0  0  0  0  0  0  0  0  # atno 17370 bound_to 10713
  157.7031  131.0768  150.6757 LP  0  0  0  0  0  0  0  0  0  0  0  0  # atno 17371 bound_to 10713
  139.9100  135.0188  156.7650 LP  0  0  0  0  0  0  0  0  0  0  0  0  # atno 17394 bound_to 11000
  140.6704  133.9565  155.7853 LP  0  0  0  0  0  0  0  0  0  0  0  0  # atno 17395 bound_to 11000

$$$$
