AV-unprocessed.smi:193|AV-procd|sdf|1518|dock6
  -GOLD-   2262019353D 1   1.00000     0.00000
 Structure written by MMmdl.
 61 65  0  0  0  0  0  0  0  0  1 V2000
  152.3327  138.7825  158.1985 C   0  0  0  0  0  0  0  0  0  0  0  0
  151.4896  140.0473  158.4241 C   0  0  2  0  0  0  0  0  0  0  0  0
  150.9771  140.5719  157.0652 C   0  0  0  0  0  0  0  0  0  0  0  0
  149.8299  141.4775  157.1605 N   0  0  0  0  0  0  0  0  0  0  0  0
  148.8126  141.2951  156.2764 C   0  0  0  0  0  0  0  0  0  0  0  0
  147.7950  142.1967  156.2408 N   0  0  0  0  0  0  0  0  0  0  0  0
  146.7745  142.0357  155.3940 C   0  0  0  0  0  0  0  0  0  0  0  0
  146.5749  141.0622  154.5045 N   0  0  0  0  0  0  0  0  0  0  0  0
  147.5954  140.1587  154.5229 C   0  0  0  0  0  0  0  0  0  0  0  0
  148.7406  140.1968  155.3692 C   0  0  0  0  0  0  0  0  0  0  0  0
  149.5630  139.1100  155.0926 N   0  0  0  0  0  0  0  0  0  0  0  0
  148.9359  138.4633  154.1491 C   0  0  0  0  0  0  0  0  0  0  0  0
  147.7512  139.0296  153.7367 N   0  0  0  0  0  0  0  0  0  0  0  0
  146.8583  138.5243  152.7037 C   0  0  0  0  0  0  0  0  0  0  0  0
  145.5574  137.8748  153.2504 C   0  0  0  0  0  0  0  0  0  0  0  0
  144.7932  138.8970  153.8632 O   0  0  0  0  0  0  0  0  0  0  0  0
  144.6970  137.2775  152.1192 C   0  0  0  0  0  0  0  0  0  0  0  0
  145.2882  135.9575  151.5922 C   0  0  0  0  0  0  0  0  0  0  0  0
  145.4464  135.0313  152.6618 O   0  0  0  0  0  0  0  0  0  0  0  0
  146.3430  135.4887  153.6680 C   0  0  0  0  0  0  0  0  0  0  0  0
  145.7973  136.7771  154.3090 C   0  0  0  0  0  0  0  0  0  0  0  0
  149.5834  142.2676  158.3668 C   0  0  0  0  0  0  0  0  0  0  0  0
  150.8442  142.9720  158.8881 C   0  0  0  0  0  0  0  0  0  0  0  0
  151.5458  142.1257  159.8488 N   0  0  0  0  0  0  0  0  0  0  0  0
  152.4622  142.9593  160.6127 C   0  0  1  0  0  0  0  0  0  0  0  0
  151.9580  144.3071  161.0773 C   0  0  0  0  0  0  0  0  0  0  0  0
  152.1476  143.1893  162.0759 C   0  0  2  0  0  0  0  0  0  0  0  0
  153.2582  143.2538  163.1018 C   0  0  0  0  0  0  0  0  0  0  0  0
  152.3382  141.1010  159.1703 C   0  0  0  0  0  0  0  0  0  0  0  0
  153.2094  138.9946  157.5857 H   0  0  0  0  0  0  0  0  0  0  0  0
  151.7545  138.0065  157.6959 H   0  0  0  0  0  0  0  0  0  0  0  0
  152.6802  138.3654  159.1443 H   0  0  0  0  0  0  0  0  0  0  0  0
  150.6436  139.7491  159.0456 H   0  0  0  0  0  0  0  0  0  0  0  0
  151.7812  141.0693  156.5218 H   0  0  0  0  0  0  0  0  0  0  0  0
  150.6906  139.7086  156.4632 H   0  0  0  0  0  0  0  0  0  0  0  0
  146.0079  142.7953  155.4362 H   0  0  0  0  0  0  0  0  0  0  0  0
  149.3271  137.5523  153.7195 H   0  0  0  0  0  0  0  0  0  0  0  0
  146.6100  139.3550  152.0414 H   0  0  0  0  0  0  0  0  0  0  0  0
  147.4182  137.8168  152.0926 H   0  0  0  0  0  0  0  0  0  0  0  0
  144.2654  139.3136  153.1995 H   0  0  0  0  0  0  0  0  0  0  0  0
  143.6914  137.0750  152.4916 H   0  0  0  0  0  0  0  0  0  0  0  0
  144.5814  137.9924  151.3036 H   0  0  0  0  0  0  0  0  0  0  0  0
  144.6180  135.5210  150.8514 H   0  0  0  0  0  0  0  0  0  0  0  0
  146.2434  136.1201  151.0918 H   0  0  0  0  0  0  0  0  0  0  0  0
  146.4450  134.7112  154.4253 H   0  0  0  0  0  0  0  0  0  0  0  0
  147.3341  135.6432  153.2414 H   0  0  0  0  0  0  0  0  0  0  0  0
  146.4647  137.1222  155.0985 H   0  0  0  0  0  0  0  0  0  0  0  0
  144.8542  136.5354  154.8016 H   0  0  0  0  0  0  0  0  0  0  0  0
  148.8588  143.0467  158.1261 H   0  0  0  0  0  0  0  0  0  0  0  0
  149.1236  141.6500  159.1395 H   0  0  0  0  0  0  0  0  0  0  0  0
  151.4965  143.3100  158.0809 H   0  0  0  0  0  0  0  0  0  0  0  0
  150.5132  143.8695  159.4127 H   0  0  0  0  0  0  0  0  0  0  0  0
  153.5217  142.9249  160.3633 H   0  0  0  0  0  0  0  0  0  0  0  0
  152.6713  145.1287  161.0922 H   0  0  0  0  0  0  0  0  0  0  0  0
  150.9364  144.5842  160.8235 H   0  0  0  0  0  0  0  0  0  0  0  0
  151.2348  142.7306  162.4520 H   0  0  0  0  0  0  0  0  0  0  0  0
  154.1487  143.7218  162.6806 H   0  0  0  0  0  0  0  0  0  0  0  0
  153.5184  142.2488  163.4342 H   0  0  0  0  0  0  0  0  0  0  0  0
  152.9360  143.8346  163.9662 H   0  0  0  0  0  0  0  0  0  0  0  0
  152.9231  140.5880  159.9352 H   0  0  0  0  0  0  0  0  0  0  0  0
  153.0603  141.5606  158.4932 H   0  0  0  0  0  0  0  0  0  0  0  0
  1  2  1  0  0  0  0
  1 30  1  0  0  0  0
  1 31  1  0  0  0  0
  1 32  1  0  0  0  0
  2 29  1  0  0  0  0
  2  3  1  0  0  0  0
  2 33  1  0  0  0  0
  3  4  1  0  0  0  0
  3 34  1  0  0  0  0
  3 35  1  0  0  0  0
  4  5  1  0  0  0  0
  4 22  1  0  0  0  0
  5 10  1  0  0  0  0
  5  6  2  0  0  0  0
  6  7  1  0  0  0  0
  7  8  2  0  0  0  0
  7 36  1  0  0  0  0
  8  9  1  0  0  0  0
  9 13  1  0  0  0  0
  9 10  2  0  0  0  0
 10 11  1  0  0  0  0
 11 12  2  0  0  0  0
 12 13  1  0  0  0  0
 12 37  1  0  0  0  0
 13 14  1  0  0  0  0
 14 15  1  0  0  0  0
 14 38  1  0  0  0  0
 14 39  1  0  0  0  0
 15 21  1  0  0  0  0
 15 16  1  0  0  0  0
 15 17  1  0  0  0  0
 16 40  1  0  0  0  0
 17 18  1  0  0  0  0
 17 41  1  0  0  0  0
 17 42  1  0  0  0  0
 18 19  1  0  0  0  0
 18 43  1  0  0  0  0
 18 44  1  0  0  0  0
 19 20  1  0  0  0  0
 20 21  1  0  0  0  0
 20 45  1  0  0  0  0
 20 46  1  0  0  0  0
 21 47  1  0  0  0  0
 21 48  1  0  0  0  0
 22 23  1  0  0  0  0
 22 49  1  0  0  0  0
 22 50  1  0  0  0  0
 23 24  1  0  0  0  0
 23 51  1  0  0  0  0
 23 52  1  0  0  0  0
 24 25  1  0  0  0  0
 24 29  1  0  0  0  0
 25 27  1  0  0  0  0
 25 26  1  0  0  0  0
 25 53  1  0  0  0  0
 26 27  1  0  0  0  0
 26 54  1  0  0  0  0
 26 55  1  0  0  0  0
 27 28  1  0  0  0  0
 27 56  1  0  0  0  0
 28 57  1  0  0  0  0
 28 58  1  0  0  0  0
 28 59  1  0  0  0  0
 29 60  1  0  0  0  0
 29 61  1  0  0  0  0
M  END
> <s_m_source_file>
AV-unprocessed.smi

> <i_m_source_file_index>
193

> <i_lp_mmshare_version>
43012

> <i_f3d_flags>
0

> <s_epik_input>
W0NIM11bQ0BASF0xW0NIMl1bQ0BIXTFOKFtDSDJdMilbQ0gyXVtDSDJdTihbQ0gyXVtDQEhdMltDSDNdKWMobltjSF1uMyljKGMzNCluW2NIXW40W0NIMl1DNShbT0hdKVtDSDJdW0NIMl1PW0NIMl1bQ0gyXTU=

> <s_epik_cmdline>
J2VwaWtfcHl0aG9uJywgJy1waCcsICc3LjAnLCAnLXRuJywgJzgnLCAnLW1hJywgJzIwMCcsICctbWV0YWxfYmluZGluZycsICctaW1hZScsICc8aW5maWxlLm1hZT4nLCAnLW9tYWUnLCAnPG91dGZpbGUubWFlPic=

> <r_lp_tautomer_probability>
1

> <r_epik_Ionization_Penalty>
1.45227

> <r_epik_Ionization_Penalty_Charging>
0

> <r_epik_Ionization_Penalty_Neutral>
1.45227

> <r_epik_State_Penalty>
2.02377

> <r_epik_Charging_Adjusted_Penalty>
2.02377

> <i_epik_Tot_Q>
0

> <i_epik_Tot_abs_Q>
0

> <r_epik_Metal_State_Penalty>
2.01937

> <b_epik_Metal_Only>
0

> <s_lp_Force_Field>
OPLS_2005

> <r_lp_Energy>
49.0818

> <b_lp_Chiralities_Consistent>
1

> <s_lp_Variant>
AV-unprocessed.smi:193-23

> <Gold.Version>
5.8.1

> <Gold.Id.Protein>
6NUR|6NUR_protein|mol2

> <Gold.PLP.Fitness>
45.3198

> <Gold.PLP.PLP>
-40.4289

> <Gold.PLP.part.hbond>
-1.2413

> <Gold.PLP.part.metal>
0.0000

> <Gold.PLP.part.buried>
-3.4517

> <Gold.PLP.part.nonpolar>
-38.0900

> <Gold.PLP.part.repulsive>
2.2610

> <Gold.PLP.ligand.clash>
0.0000

> <Gold.PLP.ligand.torsion>
1.1842

> <Gold.PLP.Chemscore.Hbond>
1.0000

> <Gold.PLP.Chemscore.CHOScore>
1.0000

> <Gold.PLP.Chemscore.Metal>
0.0000

> <Gold.Chemscore.Hbonds>
donor molecule, donor type, donor heavy atom, donor atom, acceptor molecule, acceptor atom, score
      L1  H    16    40       P1 10175  0.86
      L1  C    12    37       P1  7948  1.00

> <Gold.PLP.Chemscore.Internal.Correction>
1.2593

> <Gold.Rescore>
     Score         DG    S(hbond)    S(metal)    S(lipo)     H(rot)  DE(clash)    DE(int)     intcor
     13.46     -16.69       0.99        0.00     109.38       1.91       0.63       2.59       ----

> <Gold.Chemscore.Fitness>
13.4612

> <Gold.Chemscore.DG>
-16.6862

> <Gold.Chemscore.ZeroCoef>
-5.4800

> <Gold.Chemscore.Hbond>
0.9850

> <Gold.Chemscore.Metal>
0.0000

> <Gold.Chemscore.Lipo>
109.3810

> <Gold.Chemscore.Internal_Hbond>
0.0000

> <Gold.Chemscore.DEClash>
0.6331

> <Gold.Chemscore.DEInternal>
2.5920

> <Gold.Chemscore.Rot>
1.9068

> <Gold.Chemscore.Internal.Correction>
   9.000000E+99

> <Gold.Chemscore.Hbonds>
donor molecule, donor type, donor heavy atom, donor atom, acceptor molecule, acceptor atom, score
      L1  H    16    40       P1 10175  0.83

> <Gold.Chemscore.Hbond.Weighted>
-3.2901

> <Gold.Chemscore.Metal.Weighted>
-0.0000

> <Gold.Chemscore.Lipo.Weighted>
-12.7976

> <Gold.Chemscore.Internal_Hbond.Weighted>
0.0000

> <Gold.Chemscore.DEClash.Weighted>
0.6331

> <Gold.Chemscore.DEInternal.Weighted>
2.5920

> <Gold.Chemscore.Rot.Weighted>
4.8814

> <Gold.Chemscore.Internal.Correction.Weighted>
   9.000000E+99

> <Gold.Protein.RotatedTorsions>
[ 6907 6896 6895 6894 ] final  -21.51 input  -60.11 | X-H torsion
[ 7974 7965 7964 7962 ] final  -89.19 input  175.53 | X-H torsion
[ 8008 7997 7996 7995 ] final -119.73 input   59.86 | X-H torsion
[ 10167 10162 10161 10158 ] final   12.86 input  -65.29 | X-H torsion
[ 10718 10713 10712 10709 ] final    3.62 input   66.30 | X-H torsion
[ 10763 10752 10751 10750 ] final   71.34 input  -60.55 | X-H torsion
[ 11005 11000 10999 10996 ] final  -48.43 input  -57.11 | X-H torsion

> <Gold.Protein.ActiveResidues>
 VAL166  LYS551  ARG553  GLY616  TRP617  ASP618  TYR619  PRO620  LYS621  CYS622 
 ASP623  PHE694  ASN695  SER759  ASP760  ASP761  ALA762  ILE779  LEU786  VAL792 
 PHE793  MET794  SER795  GLU796  ALA797  LYS798  CYS799  TRP800  GLU811  SER814 

> <Gold.Protein.RotatedAtoms>
  151.2323  135.0559  159.8992 H   0  0  0  0  0  0  0  0  0  0  0  0  # atno 6907 bound_to 6896
  152.5403  134.0524  159.8126 H   0  0  0  0  0  0  0  0  0  0  0  0  # atno 6908 bound_to 6896
  151.0705  133.5421  159.2659 H   0  0  0  0  0  0  0  0  0  0  0  0  # atno 6909 bound_to 6896
  145.4431  140.9559  143.2064 H   0  0  0  0  0  0  0  0  0  0  0  0  # atno 7974 bound_to 7965
  155.1204  140.0398  157.2748 H   0  0  0  0  0  0  0  0  0  0  0  0  # atno 8008 bound_to 7997
  154.6618  140.2592  155.7075 H   0  0  0  0  0  0  0  0  0  0  0  0  # atno 8009 bound_to 7997
  156.2622  140.2815  156.1092 H   0  0  0  0  0  0  0  0  0  0  0  0  # atno 8010 bound_to 7997
  140.6040  143.8546  150.6994 H   0  0  0  0  0  0  0  0  0  0  0  0  # atno 10167 bound_to 10162
  156.8806  130.5652  149.5653 H   0  0  0  0  0  0  0  0  0  0  0  0  # atno 10718 bound_to 10713
  153.0393  135.5140  154.7579 H   0  0  0  0  0  0  0  0  0  0  0  0  # atno 10763 bound_to 10752
  154.6529  135.2927  154.9966 H   0  0  0  0  0  0  0  0  0  0  0  0  # atno 10764 bound_to 10752
  154.0844  135.6659  153.4895 H   0  0  0  0  0  0  0  0  0  0  0  0  # atno 10765 bound_to 10752
  141.0700  133.6682  156.3440 H   0  0  0  0  0  0  0  0  0  0  0  0  # atno 11005 bound_to 11000
  144.8108  139.5965  143.7030 LP  0  0  0  0  0  0  0  0  0  0  0  0  # atno 17320 bound_to 7965
  146.2545  139.6272  142.9404 LP  0  0  0  0  0  0  0  0  0  0  0  0  # atno 17321 bound_to 7965
  140.2098  143.3892  152.1727 LP  0  0  0  0  0  0  0  0  0  0  0  0  # atno 17342 bound_to 10162
  139.5311  144.7160  151.5051 LP  0  0  0  0  0  0  0  0  0  0  0  0  # atno 17343 bound_to 10162
  156.0679  130.5718  150.9326 LP  0  0  0  0  0  0  0  0  0  0  0  0  # atno 17370 bound_to 10713
  157.6143  131.0934  150.8739 LP  0  0  0  0  0  0  0  0  0  0  0  0  # atno 17371 bound_to 10713
  140.5693  134.5856  157.5453 LP  0  0  0  0  0  0  0  0  0  0  0  0  # atno 17394 bound_to 11000
  139.9514  134.7610  156.0440 LP  0  0  0  0  0  0  0  0  0  0  0  0  # atno 17395 bound_to 11000

$$$$
