AV-unprocessed.smi:1803|AV-procd|sdf|7284|dock1
  -GOLD-   22720 8543D 1   1.00000     0.00000
 Structure written by MMmdl.
 36 38  0  0  0  0  0  0  0  0  2 V2000
  145.1299  137.7883  153.1889 O   0  0  0  0  0  0  0  0  0  0  0  0
  146.2415  137.3543  152.8925 C   0  0  0  0  0  0  0  0  0  0  0  0
  147.3564  138.0804  153.1242 N   0  0  0  0  0  0  0  0  0  0  0  0
  147.5451  139.3720  153.6983 C   0  0  0  0  0  0  0  0  0  0  0  0
  146.5835  140.3031  153.8131 N   0  0  0  0  0  0  0  0  0  0  0  0
  147.0523  141.4708  154.3996 N   0  0  0  0  0  0  0  0  0  0  0  0
  148.3508  141.3805  154.6994 C   0  0  0  0  0  0  0  0  0  0  0  0
  149.1261  139.8591  154.2944 S   0  0  0  0  0  0  0  0  0  0  0  0
  146.4203  136.1499  152.3253 N   0  0  0  0  0  0  0  0  0  0  0  0
  145.3642  135.1979  151.9976 C   0  0  1  0  0  0  0  0  0  0  0  0
  144.6705  135.5135  150.6603 C   0  0  0  0  0  0  0  0  0  0  0  0
  144.4004  134.1444  150.0056 C   0  0  0  0  0  0  0  0  0  0  0  0
  144.8308  133.1439  151.0006 N   0  3  1  0  0  0  0  0  0  0  0  0
  145.2053  131.8059  150.4927 C   0  0  0  0  0  0  0  0  0  0  0  0
  145.5401  130.8859  151.6836 C   0  0  0  0  0  0  0  0  0  0  0  0
  146.6022  131.5128  152.6098 C   0  0  0  0  0  0  0  0  0  0  0  0
  146.2026  132.9410  153.0288 C   0  0  0  0  0  0  0  0  0  0  0  0
  145.9047  133.7827  151.7764 C   0  0  2  0  0  0  0  0  0  0  0  0
  148.2094  137.6412  152.8091 H   0  0  0  0  0  0  0  0  0  0  0  0
  148.8559  142.2162  155.1609 H   0  0  0  0  0  0  0  0  0  0  0  0
  147.3675  135.8714  152.1103 H   0  0  0  0  0  0  0  0  0  0  0  0
  144.6047  135.1805  152.7823 H   0  0  0  0  0  0  0  0  0  0  0  0
  143.7499  136.0761  150.8202 H   0  0  0  0  0  0  0  0  0  0  0  0
  145.3099  136.1120  150.0094 H   0  0  0  0  0  0  0  0  0  0  0  0
  143.3503  134.0059  149.7467 H   0  0  0  0  0  0  0  0  0  0  0  0
  144.9908  134.0436  149.0934 H   0  0  0  0  0  0  0  0  0  0  0  0
  144.3799  131.3890  149.9147 H   0  0  0  0  0  0  0  0  0  0  0  0
  146.0610  131.8893  149.8207 H   0  0  0  0  0  0  0  0  0  0  0  0
  144.6319  130.6957  152.2571 H   0  0  0  0  0  0  0  0  0  0  0  0
  145.8837  129.9162  151.3224 H   0  0  0  0  0  0  0  0  0  0  0  0
  146.7466  130.8889  153.4922 H   0  0  0  0  0  0  0  0  0  0  0  0
  147.5620  131.5425  152.0922 H   0  0  0  0  0  0  0  0  0  0  0  0
  145.3259  132.9074  153.6771 H   0  0  0  0  0  0  0  0  0  0  0  0
  147.0058  133.3945  153.6101 H   0  0  0  0  0  0  0  0  0  0  0  0
  146.8002  133.8348  151.1523 H   0  0  0  0  0  0  0  0  0  0  0  0
  144.0560  133.0189  151.6362 H   0  0  0  0  0  0  0  0  0  0  0  0
  1  2  2  0  0  0  0
  2  3  1  0  0  0  0
  2  9  1  0  0  0  0
  3  4  1  0  0  0  0
  3 19  1  0  0  0  0
  4  8  1  0  0  0  0
  4  5  2  0  0  0  0
  5  6  1  0  0  0  0
  6  7  2  0  0  0  0
  7  8  1  0  0  0  0
  7 20  1  0  0  0  0
  9 10  1  0  0  0  0
  9 21  1  0  0  0  0
 10 18  1  0  0  0  0
 10 11  1  0  0  0  0
 10 22  1  0  0  0  0
 11 12  1  0  0  0  0
 11 23  1  0  0  0  0
 11 24  1  0  0  0  0
 12 13  1  0  0  0  0
 12 25  1  0  0  0  0
 12 26  1  0  0  0  0
 13 18  1  0  0  0  0
 13 14  1  0  0  0  0
 13 36  1  0  0  0  0
 14 15  1  0  0  0  0
 14 27  1  0  0  0  0
 14 28  1  0  0  0  0
 15 16  1  0  0  0  0
 15 29  1  0  0  0  0
 15 30  1  0  0  0  0
 16 17  1  0  0  0  0
 16 31  1  0  0  0  0
 16 32  1  0  0  0  0
 17 18  1  0  0  0  0
 17 33  1  0  0  0  0
 17 34  1  0  0  0  0
 18 35  1  0  0  0  0
M  CHG  1  13   1
M  END
> <s_m_source_file>
AV-unprocessed.smi

> <i_m_source_file_index>
1803

> <i_lp_mmshare_version>
43012

> <i_f3d_flags>
0

> <s_epik_input>
czFbY0hdbm5jMVtOSF1DKD1PKVtOSF1bQ0BIXShbQ0gyXVtDSDJdMilbQ0BASF0oTjIzKVtDSDJdW0NIMl1bQ0gyXVtDSDJdMw==

> <s_epik_cmdline>
J2VwaWtfcHl0aG9uJywgJy1waCcsICc3LjAnLCAnLXRuJywgJzgnLCAnLW1hJywgJzIwMCcsICctbWV0YWxfYmluZGluZycsICctaW1hZScsICc8aW5maWxlLm1hZT4nLCAnLW9tYWUnLCAnPG91dGZpbGUubWFlPic=

> <r_lp_tautomer_probability>
1

> <r_epik_Ionization_Penalty>
0.00213286

> <r_epik_Ionization_Penalty_Charging>
0.00107044

> <r_epik_Ionization_Penalty_Neutral>
0.00106242

> <r_epik_State_Penalty>
-0

> <r_epik_Charging_Adjusted_Penalty>
0.00107044

> <i_epik_Tot_Q>
1

> <i_epik_Tot_abs_Q>
1

> <r_epik_Metal_State_Penalty>
0.292783

> <b_epik_Metal_Only>
0

> <s_lp_Force_Field>
OPLS_2005

> <r_lp_Energy>
35.8309

> <b_lp_Chiralities_Consistent>
1

> <s_lp_Variant>
AV-unprocessed.smi:1803-6

> <Gold.Version>
5.8.1

> <Gold.Id.Protein>
6NUR|6NUR_protein|mol2

> <Gold.PLP.Fitness>
34.7137

> <Gold.PLP.PLP>
-26.5845

> <Gold.PLP.part.hbond>
-2.0000

> <Gold.PLP.part.metal>
0.0000

> <Gold.PLP.part.buried>
-2.6637

> <Gold.PLP.part.nonpolar>
-22.9581

> <Gold.PLP.part.repulsive>
0.7216

> <Gold.PLP.ligand.clash>
0.0000

> <Gold.PLP.ligand.torsion>
0.3562

> <Gold.PLP.Chemscore.Hbond>
1.9440

> <Gold.PLP.Chemscore.CHOScore>
1.0000

> <Gold.PLP.Chemscore.Metal>
0.0000

> <Gold.Chemscore.Hbonds>
donor molecule, donor type, donor heavy atom, donor atom, acceptor molecule, acceptor atom, score
      L1  H     3    19       P1  7948  0.93
      L1  H     9    21       P1  7948  1.00
      L1  C     7    20       P1  8028  0.97

> <Gold.PLP.Chemscore.Internal.Correction>
0.0095

> <Gold.Rescore>
     Score         DG    S(hbond)    S(metal)    S(lipo)     H(rot)  DE(clash)    DE(int)     intcor
     15.43     -17.10       1.89        0.00      67.38       1.00       0.28       1.40       ----

> <Gold.Chemscore.Fitness>
15.4252

> <Gold.Chemscore.DG>
-17.1050

> <Gold.Chemscore.ZeroCoef>
-5.4800

> <Gold.Chemscore.Hbond>
1.8868

> <Gold.Chemscore.Metal>
0.0000

> <Gold.Chemscore.Lipo>
67.3769

> <Gold.Chemscore.Internal_Hbond>
0.0000

> <Gold.Chemscore.DEClash>
0.2835

> <Gold.Chemscore.DEInternal>
1.3962

> <Gold.Chemscore.Rot>
1.0000

> <Gold.Chemscore.Internal.Correction>
   9.000000E+99

> <Gold.Chemscore.Hbonds>
donor molecule, donor type, donor heavy atom, donor atom, acceptor molecule, acceptor atom, score
      L1  H     3    19       P1  7948  0.91
      L1  H     9    21       P1  7948  0.95

> <Gold.Chemscore.Hbond.Weighted>
-6.3019

> <Gold.Chemscore.Metal.Weighted>
-0.0000

> <Gold.Chemscore.Lipo.Weighted>
-7.8831

> <Gold.Chemscore.Internal_Hbond.Weighted>
0.0000

> <Gold.Chemscore.DEClash.Weighted>
0.2835

> <Gold.Chemscore.DEInternal.Weighted>
1.3962

> <Gold.Chemscore.Rot.Weighted>
2.5600

> <Gold.Chemscore.Internal.Correction.Weighted>
   9.000000E+99

> <Gold.Protein.RotatedTorsions>
[ 6907 6896 6895 6894 ] final   -8.25 input  -60.11 | X-H torsion
[ 7974 7965 7964 7962 ] final   41.71 input  175.53 | X-H torsion
[ 8008 7997 7996 7995 ] final   15.28 input   59.86 | X-H torsion
[ 10167 10162 10161 10158 ] final -111.14 input  -65.29 | X-H torsion
[ 10718 10713 10712 10709 ] final   81.99 input   66.30 | X-H torsion
[ 10763 10752 10751 10750 ] final -112.46 input  -60.55 | X-H torsion
[ 11005 11000 10999 10996 ] final   -9.37 input  -57.11 | X-H torsion

> <Gold.Protein.ActiveResidues>
 VAL166  LYS551  ARG553  GLY616  TRP617  ASP618  TYR619  PRO620  LYS621  CYS622 
 ASP623  PHE694  ASN695  SER759  ASP760  ASP761  ALA762  ILE779  LEU786  VAL792 
 PHE793  MET794  SER795  GLU796  ALA797  LYS798  CYS799  TRP800  GLU811  SER814 

> <Gold.Protein.RotatedAtoms>
  151.4367  135.1016  159.9657 H   0  0  0  0  0  0  0  0  0  0  0  0  # atno 6907 bound_to 6896
  152.4937  133.8567  159.7239 H   0  0  0  0  0  0  0  0  0  0  0  0  # atno 6908 bound_to 6896
  150.9117  133.6931  159.2881 H   0  0  0  0  0  0  0  0  0  0  0  0  # atno 6909 bound_to 6896
  146.0801  139.5384  142.9542 H   0  0  0  0  0  0  0  0  0  0  0  0  # atno 7974 bound_to 7965
  154.8604  140.2943  155.5543 H   0  0  0  0  0  0  0  0  0  0  0  0  # atno 8008 bound_to 7997
  156.3019  140.2479  156.3510 H   0  0  0  0  0  0  0  0  0  0  0  0  # atno 8009 bound_to 7997
  154.8925  140.0394  157.1835 H   0  0  0  0  0  0  0  0  0  0  0  0  # atno 8010 bound_to 7997
  140.1368  143.4313  152.1589 H   0  0  0  0  0  0  0  0  0  0  0  0  # atno 10167 bound_to 10162
  157.6846  131.0028  150.2309 H   0  0  0  0  0  0  0  0  0  0  0  0  # atno 10718 bound_to 10713
  154.8350  135.4490  154.1197 H   0  0  0  0  0  0  0  0  0  0  0  0  # atno 10763 bound_to 10752
  153.2436  135.6919  153.7761 H   0  0  0  0  0  0  0  0  0  0  0  0  # atno 10764 bound_to 10752
  153.7100  135.3358  155.3220 H   0  0  0  0  0  0  0  0  0  0  0  0  # atno 10765 bound_to 10752
  140.7335  133.8729  155.8911 H   0  0  0  0  0  0  0  0  0  0  0  0  # atno 11005 bound_to 11000
  145.6233  141.0318  143.1903 LP  0  0  0  0  0  0  0  0  0  0  0  0  # atno 17320 bound_to 7965
  144.7287  139.7792  143.7355 LP  0  0  0  0  0  0  0  0  0  0  0  0  # atno 17321 bound_to 7965
  139.5492  144.7323  151.4488 LP  0  0  0  0  0  0  0  0  0  0  0  0  # atno 17342 bound_to 10162
  140.6784  143.8137  150.7089 LP  0  0  0  0  0  0  0  0  0  0  0  0  # atno 17343 bound_to 10162
  156.2942  130.3749  149.7812 LP  0  0  0  0  0  0  0  0  0  0  0  0  # atno 17370 bound_to 10713
  156.5463  130.8322  151.3285 LP  0  0  0  0  0  0  0  0  0  0  0  0  # atno 17371 bound_to 10713
  140.9900  134.1291  157.4417 LP  0  0  0  0  0  0  0  0  0  0  0  0  # atno 17394 bound_to 11000
  139.8821  135.0037  156.6206 LP  0  0  0  0  0  0  0  0  0  0  0  0  # atno 17395 bound_to 11000

$$$$
