AV-unprocessed.smi:1059|AV-procd|sdf|4654|dock2
  -GOLD-   22720 3163D 1   1.00000     0.00000
 Structure written by MMmdl.
 55 56  0  0  0  0  0  0  0  0  2 V2000
  153.2038  141.5244  160.0561 C   0  0  0  0  0  0  0  0  0  0  0  0
  152.3235  142.1693  158.9743 C   0  0  0  0  0  0  0  0  0  0  0  0
  151.5093  143.3299  159.5765 C   0  0  0  0  0  0  0  0  0  0  0  0
  151.4301  141.1023  158.2948 C   0  0  0  0  0  0  0  0  0  0  0  0
  152.1594  140.1195  157.3567 C   0  0  0  0  0  0  0  0  0  0  0  0
  153.0490  139.4005  157.8143 O   0  0  0  0  0  0  0  0  0  0  0  0
  151.7972  140.0684  156.0510 N   0  0  0  0  0  0  0  0  0  0  0  0
  152.4270  139.1542  155.0899 C   0  0  0  0  0  0  0  0  0  0  0  0
  151.4267  138.0422  154.7270 C   0  0  0  0  0  0  0  0  0  0  0  0
  150.1088  138.6316  154.1811 C   0  0  0  0  0  0  0  0  0  0  0  0
  149.1281  137.5640  154.0086 N   0  0  0  0  0  0  0  0  0  0  0  0
  148.5303  136.8958  155.0052 C   0  0  0  0  0  0  0  0  0  0  0  0
  148.7531  137.1101  156.1966 O   0  0  0  0  0  0  0  0  0  0  0  0
  147.6574  135.9906  154.5297 N   0  0  0  0  0  0  0  0  0  0  0  0
  146.8476  135.0791  155.2596 C   0  0  0  0  0  0  0  0  0  0  0  0
  147.1306  134.8977  156.6307 C   0  0  0  0  0  0  0  0  0  0  0  0
  146.3460  134.0110  157.3963 C   0  0  0  0  0  0  0  0  0  0  0  0
  145.2803  133.3222  156.7804 C   0  0  0  0  0  0  0  0  0  0  0  0
  144.4760  132.4291  157.5015 N   0  0  0  0  0  0  0  0  0  0  0  0
  145.2164  131.2793  157.9983 C   0  0  0  0  0  0  0  0  0  0  0  0
  143.6130  133.0952  158.4658 C   0  0  0  0  0  0  0  0  0  0  0  0
  145.0278  133.5340  155.4670 N   0  3  0  0  0  0  0  0  0  0  0  0
  145.7551  134.3732  154.6984 C   0  0  0  0  0  0  0  0  0  0  0  0
  149.5622  139.7392  155.1112 C   0  0  0  0  0  0  0  0  0  0  0  0
  150.6537  140.7698  155.4518 C   0  0  0  0  0  0  0  0  0  0  0  0
  152.5987  141.0796  160.8468 H   0  0  0  0  0  0  0  0  0  0  0  0
  153.8640  142.2598  160.5167 H   0  0  0  0  0  0  0  0  0  0  0  0
  153.8333  140.7387  159.6369 H   0  0  0  0  0  0  0  0  0  0  0  0
  152.9993  142.5857  158.2255 H   0  0  0  0  0  0  0  0  0  0  0  0
  150.8158  142.9718  160.3378 H   0  0  0  0  0  0  0  0  0  0  0  0
  150.9266  143.8573  158.8222 H   0  0  0  0  0  0  0  0  0  0  0  0
  152.1642  144.0642  160.0461 H   0  0  0  0  0  0  0  0  0  0  0  0
  150.9381  140.5066  159.0649 H   0  0  0  0  0  0  0  0  0  0  0  0
  150.6440  141.6139  157.7386 H   0  0  0  0  0  0  0  0  0  0  0  0
  152.7102  139.7102  154.1949 H   0  0  0  0  0  0  0  0  0  0  0  0
  153.3512  138.7135  155.4663 H   0  0  0  0  0  0  0  0  0  0  0  0
  151.8698  137.3694  153.9918 H   0  0  0  0  0  0  0  0  0  0  0  0
  151.2255  137.4407  155.6151 H   0  0  0  0  0  0  0  0  0  0  0  0
  150.3235  139.0746  153.2066 H   0  0  0  0  0  0  0  0  0  0  0  0
  148.8817  137.3249  153.0593 H   0  0  0  0  0  0  0  0  0  0  0  0
  147.5217  135.9887  153.5292 H   0  0  0  0  0  0  0  0  0  0  0  0
  147.9486  135.4289  157.0955 H   0  0  0  0  0  0  0  0  0  0  0  0
  146.5625  133.8626  158.4442 H   0  0  0  0  0  0  0  0  0  0  0  0
  145.8191  130.8325  157.2066 H   0  0  0  0  0  0  0  0  0  0  0  0
  144.5279  130.5184  158.3667 H   0  0  0  0  0  0  0  0  0  0  0  0
  145.8785  131.5648  158.8167 H   0  0  0  0  0  0  0  0  0  0  0  0
  143.0814  133.9267  158.0015 H   0  0  0  0  0  0  0  0  0  0  0  0
  144.1899  133.4811  159.3072 H   0  0  0  0  0  0  0  0  0  0  0  0
  142.8711  132.3966  158.8534 H   0  0  0  0  0  0  0  0  0  0  0  0
  145.4237  134.4501  153.6739 H   0  0  0  0  0  0  0  0  0  0  0  0
  148.7152  140.2423  154.6433 H   0  0  0  0  0  0  0  0  0  0  0  0
  149.1864  139.2964  156.0350 H   0  0  0  0  0  0  0  0  0  0  0  0
  150.2321  141.5504  156.0820 H   0  0  0  0  0  0  0  0  0  0  0  0
  150.9814  141.2769  154.5431 H   0  0  0  0  0  0  0  0  0  0  0  0
  144.2483  133.0372  155.0353 H   0  0  0  0  0  0  0  0  0  0  0  0
  1  2  1  0  0  0  0
  1 26  1  0  0  0  0
  1 27  1  0  0  0  0
  1 28  1  0  0  0  0
  2  3  1  0  0  0  0
  2  4  1  0  0  0  0
  2 29  1  0  0  0  0
  3 30  1  0  0  0  0
  3 31  1  0  0  0  0
  3 32  1  0  0  0  0
  4  5  1  0  0  0  0
  4 33  1  0  0  0  0
  4 34  1  0  0  0  0
  5  6  2  0  0  0  0
  5  7  1  0  0  0  0
  7 25  1  0  0  0  0
  7  8  1  0  0  0  0
  8  9  1  0  0  0  0
  8 35  1  0  0  0  0
  8 36  1  0  0  0  0
  9 10  1  0  0  0  0
  9 37  1  0  0  0  0
  9 38  1  0  0  0  0
 10 11  1  0  0  0  0
 10 24  1  0  0  0  0
 10 39  1  0  0  0  0
 11 12  1  0  0  0  0
 11 40  1  0  0  0  0
 12 13  2  0  0  0  0
 12 14  1  0  0  0  0
 14 15  1  0  0  0  0
 14 41  1  0  0  0  0
 15 23  1  0  0  0  0
 15 16  2  0  0  0  0
 16 17  1  0  0  0  0
 16 42  1  0  0  0  0
 17 18  2  0  0  0  0
 17 43  1  0  0  0  0
 18 19  1  0  0  0  0
 18 22  1  0  0  0  0
 19 20  1  0  0  0  0
 19 21  1  0  0  0  0
 20 44  1  0  0  0  0
 20 45  1  0  0  0  0
 20 46  1  0  0  0  0
 21 47  1  0  0  0  0
 21 48  1  0  0  0  0
 21 49  1  0  0  0  0
 22 23  2  0  0  0  0
 22 55  1  0  0  0  0
 23 50  1  0  0  0  0
 24 25  1  0  0  0  0
 24 51  1  0  0  0  0
 24 52  1  0  0  0  0
 25 53  1  0  0  0  0
 25 54  1  0  0  0  0
M  CHG  1  22   1
M  END
> <s_m_source_file>
AV-unprocessed.smi

> <i_m_source_file_index>
1059

> <i_lp_mmshare_version>
43012

> <i_f3d_flags>
0

> <s_epik_input>
W0NIM11bQ0hdKFtDSDNdKVtDSDJdQyg9TylOMVtDSDJdW0NIMl1bQ0hdKFtDSDJdW0NIMl0xKVtOSF1DKD1PKVtOSF1jMltjSF1bY0hdYyhOKFtDSDNdKVtDSDNdKW5bY0hdMg==

> <s_epik_cmdline>
J2VwaWtfcHl0aG9uJywgJy1waCcsICc3LjAnLCAnLXRuJywgJzgnLCAnLW1hJywgJzIwMCcsICctbWV0YWxfYmluZGluZycsICctaW1hZScsICc8aW5maWxlLm1hZT4nLCAnLW9tYWUnLCAnPG91dGZpbGUubWFlPic=

> <r_lp_tautomer_probability>
0.999994

> <r_epik_Ionization_Penalty>
0.255783

> <r_epik_Ionization_Penalty_Charging>
0.255763

> <r_epik_Ionization_Penalty_Neutral>
1.99447e-05

> <r_epik_State_Penalty>
0.247288

> <r_epik_Charging_Adjusted_Penalty>
0.503051

> <i_epik_Tot_Q>
1

> <i_epik_Tot_abs_Q>
1

> <r_epik_Metal_State_Penalty>
0.537004

> <b_epik_Metal_Only>
0

> <s_lp_Force_Field>
OPLS_2005

> <r_lp_Energy>
38.2328

> <b_lp_Chiralities_Consistent>
1

> <s_lp_Variant>
AV-unprocessed.smi:1059-1

> <Gold.Version>
5.8.1

> <Gold.Id.Protein>
6NUR|6NUR_protein|mol2

> <Gold.PLP.Fitness>
47.2061

> <Gold.PLP.PLP>
-34.3612

> <Gold.PLP.part.hbond>
-3.8681

> <Gold.PLP.part.metal>
0.0000

> <Gold.PLP.part.buried>
-2.7272

> <Gold.PLP.part.nonpolar>
-28.8103

> <Gold.PLP.part.repulsive>
0.1725

> <Gold.PLP.ligand.clash>
0.0000

> <Gold.PLP.ligand.torsion>
0.3230

> <Gold.PLP.Chemscore.Hbond>
4.4196

> <Gold.PLP.Chemscore.CHOScore>
0.0000

> <Gold.PLP.Chemscore.Metal>
0.0000

> <Gold.Chemscore.Hbonds>
donor molecule, donor type, donor heavy atom, donor atom, acceptor molecule, acceptor atom, score
      L1  H    11    40       P1  7948  0.94
      L1  H    14    41       P1  7948  0.34
      L1  H    22    55       P1 10957  1.98
      P1  H  7997  8010       L1     6  1.00

> <Gold.PLP.Chemscore.Internal.Correction>
0.2322

> <Gold.Rescore>
     Score         DG    S(hbond)    S(metal)    S(lipo)     H(rot)  DE(clash)    DE(int)     intcor
     18.27     -21.56       3.29        0.00      77.49       1.55       0.14       3.15       ----

> <Gold.Chemscore.Fitness>
18.2684

> <Gold.Chemscore.DG>
-21.5592

> <Gold.Chemscore.ZeroCoef>
-5.4800

> <Gold.Chemscore.Hbond>
3.2889

> <Gold.Chemscore.Metal>
0.0000

> <Gold.Chemscore.Lipo>
77.4863

> <Gold.Chemscore.Internal_Hbond>
0.0000

> <Gold.Chemscore.DEClash>
0.1448

> <Gold.Chemscore.DEInternal>
3.1459

> <Gold.Chemscore.Rot>
1.5514

> <Gold.Chemscore.Internal.Correction>
   9.000000E+99

> <Gold.Chemscore.Hbonds>
donor molecule, donor type, donor heavy atom, donor atom, acceptor molecule, acceptor atom, score
      L1  H    11    40       P1  7948  0.90
      L1  H    14    41       P1  7948  0.35
      L1  H    22    55       P1 10957  0.92
      P1  H  7997  8010       L1     6  0.35

> <Gold.Chemscore.Hbond.Weighted>
-10.9849

> <Gold.Chemscore.Metal.Weighted>
-0.0000

> <Gold.Chemscore.Lipo.Weighted>
-9.0659

> <Gold.Chemscore.Internal_Hbond.Weighted>
0.0000

> <Gold.Chemscore.DEClash.Weighted>
0.1448

> <Gold.Chemscore.DEInternal.Weighted>
3.1459

> <Gold.Chemscore.Rot.Weighted>
3.9716

> <Gold.Chemscore.Internal.Correction.Weighted>
   9.000000E+99

> <Gold.Protein.RotatedTorsions>
[ 6907 6896 6895 6894 ] final   78.08 input  -60.11 | X-H torsion
[ 7974 7965 7964 7962 ] final -104.75 input  175.53 | X-H torsion
[ 8008 7997 7996 7995 ] final   39.16 input   59.86 | X-H torsion
[ 10167 10162 10161 10158 ] final  127.29 input  -65.29 | X-H torsion
[ 10718 10713 10712 10709 ] final  -26.61 input   66.30 | X-H torsion
[ 10763 10752 10751 10750 ] final  -70.00 input  -60.55 | X-H torsion
[ 11005 11000 10999 10996 ] final   62.11 input  -57.11 | X-H torsion

> <Gold.Protein.ActiveResidues>
 VAL166  LYS551  ARG553  GLY616  TRP617  ASP618  TYR619  PRO620  LYS621  CYS622 
 ASP623  PHE694  ASN695  SER759  ASP760  ASP761  ALA762  ILE779  LEU786  VAL792 
 PHE793  MET794  SER795  GLU796  ALA797  LYS798  CYS799  TRP800  GLU811  SER814 

> <Gold.Protein.RotatedAtoms>
  152.5144  134.3719  159.9320 H   0  0  0  0  0  0  0  0  0  0  0  0  # atno 6907 bound_to 6896
  151.3674  133.3861  159.2703 H   0  0  0  0  0  0  0  0  0  0  0  0  # atno 6908 bound_to 6896
  150.9605  134.9013  159.7786 H   0  0  0  0  0  0  0  0  0  0  0  0  # atno 6909 bound_to 6896
  145.2392  140.9199  143.3160 H   0  0  0  0  0  0  0  0  0  0  0  0  # atno 7974 bound_to 7965
  155.2321  140.3339  155.4302 H   0  0  0  0  0  0  0  0  0  0  0  0  # atno 8008 bound_to 7997
  156.2290  140.1842  156.7335 H   0  0  0  0  0  0  0  0  0  0  0  0  # atno 8009 bound_to 7997
  154.5947  140.0632  156.9272 H   0  0  0  0  0  0  0  0  0  0  0  0  # atno 8010 bound_to 7997
  139.5586  144.6866  151.4109 H   0  0  0  0  0  0  0  0  0  0  0  0  # atno 10167 bound_to 10162
  156.4490  130.4480  149.7002 H   0  0  0  0  0  0  0  0  0  0  0  0  # atno 10718 bound_to 10713
  154.4114  135.6008  153.5955 H   0  0  0  0  0  0  0  0  0  0  0  0  # atno 10763 bound_to 10752
  152.9790  135.5930  154.4065 H   0  0  0  0  0  0  0  0  0  0  0  0  # atno 10764 bound_to 10752
  154.3878  135.2841  155.2151 H   0  0  0  0  0  0  0  0  0  0  0  0  # atno 10765 bound_to 10752
  140.0115  134.6289  155.9774 H   0  0  0  0  0  0  0  0  0  0  0  0  # atno 11005 bound_to 11000
  144.9605  139.3985  143.6358 LP  0  0  0  0  0  0  0  0  0  0  0  0  # atno 17320 bound_to 7965
  146.3333  139.8656  142.8849 LP  0  0  0  0  0  0  0  0  0  0  0  0  # atno 17321 bound_to 7965
  140.6863  143.7966  150.7191 LP  0  0  0  0  0  0  0  0  0  0  0  0  # atno 17342 bound_to 10162
  140.1435  143.4420  152.2178 LP  0  0  0  0  0  0  0  0  0  0  0  0  # atno 17343 bound_to 10162
  156.3837  130.7592  151.2587 LP  0  0  0  0  0  0  0  0  0  0  0  0  # atno 17370 bound_to 10713
  157.7503  131.0288  150.4066 LP  0  0  0  0  0  0  0  0  0  0  0  0  # atno 17371 bound_to 10713
  141.1714  133.6537  156.4665 LP  0  0  0  0  0  0  0  0  0  0  0  0  # atno 17394 bound_to 11000
  140.4546  134.6897  157.5056 LP  0  0  0  0  0  0  0  0  0  0  0  0  # atno 17395 bound_to 11000

$$$$
