AV-unprocessed.smi:2893|AV-procd|sdf|11125|dock7
  -GOLD-   2272015593D 1   1.00000     0.00000
 Structure written by MMmdl.
 37 39  0  0  0  0  0  0  0  0  1 V2000
  146.1090  137.6395  152.2675 C   0  0  0  0  0  0  0  0  0  0  0  0
  146.8203  138.8893  151.7323 C   0  0  0  0  0  0  0  0  0  0  0  0
  147.6918  139.4833  152.7390 N   0  0  0  0  0  0  0  0  0  0  0  0
  147.3255  139.8019  153.9924 C   0  0  0  0  0  0  0  0  0  0  0  0
  146.1910  139.6109  154.4327 O   0  0  0  0  0  0  0  0  0  0  0  0
  148.4065  140.3796  154.8667 C   0  0  0  0  0  0  0  0  0  0  0  0
  148.0671  141.0743  156.0480 C   0  0  0  0  0  0  0  0  0  0  0  0
  149.1135  141.6052  156.8215 C   0  0  0  0  0  0  0  0  0  0  0  0
  150.4300  141.4118  156.3624 C   0  0  0  0  0  0  0  0  0  0  0  0
  151.4931  141.9322  157.1137 N   0  0  0  0  0  0  0  0  0  0  0  0
  151.2506  142.7460  158.3000 C   0  0  1  0  0  0  0  0  0  0  0  0
  152.0817  142.3063  159.5125 C   0  0  0  0  0  0  0  0  0  0  0  0
  152.8180  143.6005  159.8785 C   0  0  2  0  0  0  0  0  0  0  0  0
  151.8708  144.6711  160.4375 C   0  0  0  0  0  0  0  0  0  0  0  0
  151.1263  145.1171  159.1794 C   0  0  0  0  0  0  0  0  0  0  0  0
  151.7299  144.1952  158.1113 C   0  0  1  0  0  0  0  0  0  0  0  0
  153.0655  144.1174  158.5831 O   0  0  0  0  0  0  0  0  0  0  0  0
  150.6949  140.7362  155.2174 N   0  0  0  0  0  0  0  0  0  0  0  0
  149.6996  140.2321  154.4808 N   0  0  0  0  0  0  0  0  0  0  0  0
  145.4389  137.2240  151.5148 H   0  0  0  0  0  0  0  0  0  0  0  0
  145.5129  137.8728  153.1503 H   0  0  0  0  0  0  0  0  0  0  0  0
  146.8229  136.8615  152.5397 H   0  0  0  0  0  0  0  0  0  0  0  0
  147.3893  138.6476  150.8331 H   0  0  0  0  0  0  0  0  0  0  0  0
  146.0813  139.6356  151.4402 H   0  0  0  0  0  0  0  0  0  0  0  0
  148.6474  139.6677  152.4680 H   0  0  0  0  0  0  0  0  0  0  0  0
  147.0399  141.1997  156.3585 H   0  0  0  0  0  0  0  0  0  0  0  0
  148.9088  142.1441  157.7350 H   0  0  0  0  0  0  0  0  0  0  0  0
  152.4289  141.5896  156.9506 H   0  0  0  0  0  0  0  0  0  0  0  0
  150.1830  142.7393  158.5245 H   0  0  0  0  0  0  0  0  0  0  0  0
  151.4652  141.9310  160.3297 H   0  0  0  0  0  0  0  0  0  0  0  0
  152.8002  141.5288  159.2479 H   0  0  0  0  0  0  0  0  0  0  0  0
  153.7147  143.4445  160.4785 H   0  0  0  0  0  0  0  0  0  0  0  0
  151.2060  144.2744  161.2057 H   0  0  0  0  0  0  0  0  0  0  0  0
  152.4312  145.5030  160.8651 H   0  0  0  0  0  0  0  0  0  0  0  0
  150.0445  145.0078  159.2642 H   0  0  0  0  0  0  0  0  0  0  0  0
  151.3471  146.1616  158.9567 H   0  0  0  0  0  0  0  0  0  0  0  0
  151.6269  144.5796  157.0957 H   0  0  0  0  0  0  0  0  0  0  0  0
  1  2  1  0  0  0  0
  1 20  1  0  0  0  0
  1 21  1  0  0  0  0
  1 22  1  0  0  0  0
  2  3  1  0  0  0  0
  2 23  1  0  0  0  0
  2 24  1  0  0  0  0
  3  4  1  0  0  0  0
  3 25  1  0  0  0  0
  4  5  2  0  0  0  0
  4  6  1  0  0  0  0
  6 19  1  0  0  0  0
  6  7  2  0  0  0  0
  7  8  1  0  0  0  0
  7 26  1  0  0  0  0
  8  9  2  0  0  0  0
  8 27  1  0  0  0  0
  9 10  1  0  0  0  0
  9 18  1  0  0  0  0
 10 11  1  0  0  0  0
 10 28  1  0  0  0  0
 11 16  1  0  0  0  0
 11 12  1  0  0  0  0
 11 29  1  0  0  0  0
 12 13  1  0  0  0  0
 12 30  1  0  0  0  0
 12 31  1  0  0  0  0
 13 17  1  0  0  0  0
 13 14  1  0  0  0  0
 13 32  1  0  0  0  0
 14 15  1  0  0  0  0
 14 33  1  0  0  0  0
 14 34  1  0  0  0  0
 15 16  1  0  0  0  0
 15 35  1  0  0  0  0
 15 36  1  0  0  0  0
 16 17  1  0  0  0  0
 16 37  1  0  0  0  0
 18 19  2  0  0  0  0
M  END
> <s_m_source_file>
AV-unprocessed.smi

> <i_m_source_file_index>
2893

> <i_lp_mmshare_version>
43012

> <i_f3d_flags>
0

> <s_epik_input>
W0NIM11bQ0gyXVtOSF1DKD1PKWMxW2NIXVtjSF1jKG5uMSlbTkhdW0NASF0oW0NIMl1bQ0BASF0yMylbQ0BASF0oTzMpW0NIMl1bQ0gyXTI=

> <s_epik_cmdline>
J2VwaWtfcHl0aG9uJywgJy1waCcsICc3LjAnLCAnLXRuJywgJzgnLCAnLW1hJywgJzIwMCcsICctbWV0YWxfYmluZGluZycsICctaW1hZScsICc8aW5maWxlLm1hZT4nLCAnLW9tYWUnLCAnPG91dGZpbGUubWFlPic=

> <r_lp_tautomer_probability>
1

> <r_epik_Ionization_Penalty>
0.00432031

> <r_epik_Ionization_Penalty_Charging>
0

> <r_epik_Ionization_Penalty_Neutral>
0.00432031

> <r_epik_State_Penalty>
-0

> <r_epik_Charging_Adjusted_Penalty>
0

> <i_epik_Tot_Q>
0

> <i_epik_Tot_abs_Q>
0

> <r_epik_Metal_State_Penalty>
-0

> <b_epik_Metal_Only>
0

> <s_lp_Force_Field>
OPLS_2005

> <r_lp_Energy>
49.39

> <b_lp_Chiralities_Consistent>
1

> <s_lp_Variant>
AV-unprocessed.smi:2893-4

> <Gold.Version>
5.8.1

> <Gold.Id.Protein>
6NUR|6NUR_protein|mol2

> <Gold.PLP.Fitness>
40.9266

> <Gold.PLP.PLP>
-38.3040

> <Gold.PLP.part.hbond>
-2.5267

> <Gold.PLP.part.metal>
0.0000

> <Gold.PLP.part.buried>
-3.3189

> <Gold.PLP.part.nonpolar>
-33.9618

> <Gold.PLP.part.repulsive>
0.4535

> <Gold.PLP.ligand.clash>
0.0000

> <Gold.PLP.ligand.torsion>
0.2539

> <Gold.PLP.Chemscore.Hbond>
1.0360

> <Gold.PLP.Chemscore.CHOScore>
0.0000

> <Gold.PLP.Chemscore.Metal>
0.0000

> <Gold.Chemscore.Hbonds>
donor molecule, donor type, donor heavy atom, donor atom, acceptor molecule, acceptor atom, score
      L1  H     3    25       P1  7957  0.83
      P1  H  7989  7998       L1    18  0.22

> <Gold.PLP.Chemscore.Internal.Correction>
0.0224

> <Gold.Rescore>
     Score         DG    S(hbond)    S(metal)    S(lipo)     H(rot)  DE(clash)    DE(int)     intcor
     15.87     -16.89       0.87        0.00      99.07       1.21       0.06       0.97       ----

> <Gold.Chemscore.Fitness>
15.8711

> <Gold.Chemscore.DG>
-16.8930

> <Gold.Chemscore.ZeroCoef>
-5.4800

> <Gold.Chemscore.Hbond>
0.8712

> <Gold.Chemscore.Metal>
0.0000

> <Gold.Chemscore.Lipo>
99.0682

> <Gold.Chemscore.Internal_Hbond>
0.0000

> <Gold.Chemscore.DEClash>
0.0553

> <Gold.Chemscore.DEInternal>
0.9666

> <Gold.Chemscore.Rot>
1.2061

> <Gold.Chemscore.Internal.Correction>
   9.000000E+99

> <Gold.Chemscore.Hbonds>
donor molecule, donor type, donor heavy atom, donor atom, acceptor molecule, acceptor atom, score
      L1  H     3    25       P1  7957  0.83

> <Gold.Chemscore.Hbond.Weighted>
-2.9096

> <Gold.Chemscore.Metal.Weighted>
-0.0000

> <Gold.Chemscore.Lipo.Weighted>
-11.5910

> <Gold.Chemscore.Internal_Hbond.Weighted>
0.0000

> <Gold.Chemscore.DEClash.Weighted>
0.0553

> <Gold.Chemscore.DEInternal.Weighted>
0.9666

> <Gold.Chemscore.Rot.Weighted>
3.0876

> <Gold.Chemscore.Internal.Correction.Weighted>
   9.000000E+99

> <Gold.Protein.RotatedTorsions>
[ 6907 6896 6895 6894 ] final -112.46 input  -60.11 | X-H torsion
[ 7974 7965 7964 7962 ] final -112.44 input  175.53 | X-H torsion
[ 8008 7997 7996 7995 ] final  -58.06 input   59.86 | X-H torsion
[ 10167 10162 10161 10158 ] final -162.38 input  -65.29 | X-H torsion
[ 10718 10713 10712 10709 ] final  -62.65 input   66.30 | X-H torsion
[ 10763 10752 10751 10750 ] final  151.71 input  -60.55 | X-H torsion
[ 11005 11000 10999 10996 ] final   68.64 input  -57.11 | X-H torsion

> <Gold.Protein.ActiveResidues>
 VAL166  LYS551  ARG553  GLY616  TRP617  ASP618  TYR619  PRO620  LYS621  CYS622 
 ASP623  PHE694  ASN695  SER759  ASP760  ASP761  ALA762  ILE779  LEU786  VAL792 
 PHE793  MET794  SER795  GLU796  ALA797  LYS798  CYS799  TRP800  GLU811  SER814 

> <Gold.Protein.RotatedAtoms>
  150.7760  133.9086  159.3362 H   0  0  0  0  0  0  0  0  0  0  0  0  # atno 6907 bound_to 6896
  151.6960  135.0936  160.0252 H   0  0  0  0  0  0  0  0  0  0  0  0  # atno 6908 bound_to 6896
  152.3796  133.6490  159.6186 H   0  0  0  0  0  0  0  0  0  0  0  0  # atno 6909 bound_to 6896
  145.1440  140.8793  143.3685 H   0  0  0  0  0  0  0  0  0  0  0  0  # atno 7974 bound_to 7965
  154.4293  140.1093  156.5896 H   0  0  0  0  0  0  0  0  0  0  0  0  # atno 8008 bound_to 7997
  155.6026  140.3493  155.4579 H   0  0  0  0  0  0  0  0  0  0  0  0  # atno 8009 bound_to 7997
  156.0162  140.1229  157.0394 H   0  0  0  0  0  0  0  0  0  0  0  0  # atno 8010 bound_to 7997
  139.6396  144.0284  152.2082 H   0  0  0  0  0  0  0  0  0  0  0  0  # atno 10167 bound_to 10162
  156.0842  130.4211  150.1165 H   0  0  0  0  0  0  0  0  0  0  0  0  # atno 10718 bound_to 10713
  154.1083  135.2841  155.3236 H   0  0  0  0  0  0  0  0  0  0  0  0  # atno 10763 bound_to 10752
  154.6508  135.5369  153.7902 H   0  0  0  0  0  0  0  0  0  0  0  0  # atno 10764 bound_to 10752
  153.0354  135.6509  154.1243 H   0  0  0  0  0  0  0  0  0  0  0  0  # atno 10765 bound_to 10752
  139.9700  134.6917  156.0467 H   0  0  0  0  0  0  0  0  0  0  0  0  # atno 11005 bound_to 11000
  145.0502  139.3188  143.5932 LP  0  0  0  0  0  0  0  0  0  0  0  0  # atno 17320 bound_to 7965
  146.3502  139.9907  142.8686 LP  0  0  0  0  0  0  0  0  0  0  0  0  # atno 17321 bound_to 7965
  139.9970  144.6320  150.7763 LP  0  0  0  0  0  0  0  0  0  0  0  0  # atno 17342 bound_to 10162
  140.7484  143.2921  151.3301 LP  0  0  0  0  0  0  0  0  0  0  0  0  # atno 17343 bound_to 10162
  156.9189  130.9676  151.3551 LP  0  0  0  0  0  0  0  0  0  0  0  0  # atno 17370 bound_to 10713
  157.5970  130.8485  149.8744 LP  0  0  0  0  0  0  0  0  0  0  0  0  # atno 17371 bound_to 10713
  141.1379  133.6571  156.3646 LP  0  0  0  0  0  0  0  0  0  0  0  0  # atno 17394 bound_to 11000
  140.5315  134.6208  157.5351 LP  0  0  0  0  0  0  0  0  0  0  0  0  # atno 17395 bound_to 11000

$$$$
