AV-unprocessed.smi:2322|AV-procd|sdf|9285|dock2
  -GOLD-   2272012513D 1   1.00000     0.00000
 Structure written by MMmdl.
 38 40  0  0  0  0  0  0  0  0  1 V2000
  147.9374  132.7397  152.7137 C   0  0  0  0  0  0  0  0  0  0  0  0
  148.9441  132.4763  153.7238 N   0  0  0  0  0  0  0  0  0  0  0  0
  149.2299  131.2095  154.1060 N   0  0  0  0  0  0  0  0  0  0  0  0
  150.1797  131.3870  155.0233 C   0  0  0  0  0  0  0  0  0  0  0  0
  150.5386  132.6815  155.2694 N   0  0  0  0  0  0  0  0  0  0  0  0
  149.7259  133.3068  154.4214 C   0  0  0  0  0  0  0  0  0  0  0  0
  149.6249  134.7139  154.2085 N   0  0  0  0  0  0  0  0  0  0  0  0
  149.9125  135.7581  155.0136 C   0  0  0  0  0  0  0  0  0  0  0  0
  150.3445  135.5806  156.1513 O   0  0  0  0  0  0  0  0  0  0  0  0
  149.7007  136.9804  154.4988 N   0  0  0  0  0  0  0  0  0  0  0  0
  149.9477  138.2444  155.1846 C   0  0  2  0  0  0  0  0  0  0  0  0
  149.3185  139.3961  154.3898 C   0  0  0  0  0  0  0  0  0  0  0  0
  149.6696  140.7500  155.0249 C   0  0  0  0  0  0  0  0  0  0  0  0
  151.0842  140.9027  155.1186 O   0  0  0  0  0  0  0  0  0  0  0  0
  151.7548  139.9051  155.8905 C   0  0  1  0  0  0  0  0  0  0  0  0
  151.4550  140.0423  157.3769 C   0  0  0  0  0  0  0  0  0  0  0  0
  152.1542  141.0921  158.2074 C   0  0  0  0  0  0  0  0  0  0  0  0
  152.4752  139.6304  158.4124 C   0  0  0  0  0  0  0  0  0  0  0  0
  151.4583  138.4982  155.3344 C   0  0  0  0  0  0  0  0  0  0  0  0
  148.4118  133.1548  151.8242 H   0  0  0  0  0  0  0  0  0  0  0  0
  147.2101  133.4553  153.0976 H   0  0  0  0  0  0  0  0  0  0  0  0
  147.4166  131.8205  152.4417 H   0  0  0  0  0  0  0  0  0  0  0  0
  150.6323  130.5506  155.5354 H   0  0  0  0  0  0  0  0  0  0  0  0
  149.2640  134.9728  153.3020 H   0  0  0  0  0  0  0  0  0  0  0  0
  149.3430  137.0361  153.5553 H   0  0  0  0  0  0  0  0  0  0  0  0
  149.4825  138.2118  156.1713 H   0  0  0  0  0  0  0  0  0  0  0  0
  149.6802  139.3788  153.3604 H   0  0  0  0  0  0  0  0  0  0  0  0
  148.2355  139.2758  154.3424 H   0  0  0  0  0  0  0  0  0  0  0  0
  149.2751  141.5598  154.4111 H   0  0  0  0  0  0  0  0  0  0  0  0
  149.2050  140.8521  156.0058 H   0  0  0  0  0  0  0  0  0  0  0  0
  152.8215  140.0927  155.7609 H   0  0  0  0  0  0  0  0  0  0  0  0
  150.4184  139.8513  157.6458 H   0  0  0  0  0  0  0  0  0  0  0  0
  152.9057  141.7077  157.7169 H   0  0  0  0  0  0  0  0  0  0  0  0
  151.5708  141.5928  158.9771 H   0  0  0  0  0  0  0  0  0  0  0  0
  152.1051  139.1553  159.3186 H   0  0  0  0  0  0  0  0  0  0  0  0
  153.4415  139.2744  158.0606 H   0  0  0  0  0  0  0  0  0  0  0  0
  151.9148  137.7394  155.9713 H   0  0  0  0  0  0  0  0  0  0  0  0
  151.9350  138.4036  154.3577 H   0  0  0  0  0  0  0  0  0  0  0  0
  1  2  1  0  0  0  0
  1 20  1  0  0  0  0
  1 21  1  0  0  0  0
  1 22  1  0  0  0  0
  2  6  1  0  0  0  0
  2  3  1  0  0  0  0
  3  4  2  0  0  0  0
  4  5  1  0  0  0  0
  4 23  1  0  0  0  0
  5  6  2  0  0  0  0
  6  7  1  0  0  0  0
  7  8  1  0  0  0  0
  7 24  1  0  0  0  0
  8  9  2  0  0  0  0
  8 10  1  0  0  0  0
 10 11  1  0  0  0  0
 10 25  1  0  0  0  0
 11 19  1  0  0  0  0
 11 12  1  0  0  0  0
 11 26  1  0  0  0  0
 12 13  1  0  0  0  0
 12 27  1  0  0  0  0
 12 28  1  0  0  0  0
 13 14  1  0  0  0  0
 13 29  1  0  0  0  0
 13 30  1  0  0  0  0
 14 15  1  0  0  0  0
 15 16  1  0  0  0  0
 15 19  1  0  0  0  0
 15 31  1  0  0  0  0
 16 18  1  0  0  0  0
 16 17  1  0  0  0  0
 16 32  1  0  0  0  0
 17 18  1  0  0  0  0
 17 33  1  0  0  0  0
 17 34  1  0  0  0  0
 18 35  1  0  0  0  0
 18 36  1  0  0  0  0
 19 37  1  0  0  0  0
 19 38  1  0  0  0  0
M  END
> <s_m_source_file>
AV-unprocessed.smi

> <i_m_source_file_index>
2322

> <i_lp_mmshare_version>
43012

> <i_f3d_flags>
0

> <s_epik_input>
W0NIM11uMW5bY0hdbmMxW05IXUMoPU8pW05IXVtDQEBIXTJbQ0gyXVtDSDJdT1tDQEhdKFtDSDJdMilbQ0hdM1tDSDJdW0NIMl0z

> <s_epik_cmdline>
J2VwaWtfcHl0aG9uJywgJy1waCcsICc3LjAnLCAnLXRuJywgJzgnLCAnLW1hJywgJzIwMCcsICctbWV0YWxfYmluZGluZycsICctaW1hZScsICc8aW5maWxlLm1hZT4nLCAnLW9tYWUnLCAnPG91dGZpbGUubWFlPic=

> <r_lp_tautomer_probability>
1

> <r_epik_Ionization_Penalty>
2.16399e-05

> <r_epik_Ionization_Penalty_Charging>
0

> <r_epik_Ionization_Penalty_Neutral>
2.16399e-05

> <r_epik_State_Penalty>
-0

> <r_epik_Charging_Adjusted_Penalty>
0

> <i_epik_Tot_Q>
0

> <i_epik_Tot_abs_Q>
0

> <r_epik_Metal_State_Penalty>
-0

> <b_epik_Metal_Only>
0

> <s_lp_Force_Field>
OPLS_2005

> <r_lp_Energy>
22.5256

> <b_lp_Chiralities_Consistent>
1

> <s_lp_Variant>
AV-unprocessed.smi:2322-1

> <Gold.Version>
5.8.1

> <Gold.Id.Protein>
6NUR|6NUR_protein|mol2

> <Gold.PLP.Fitness>
38.3855

> <Gold.PLP.PLP>
-31.2383

> <Gold.PLP.part.hbond>
-2.9988

> <Gold.PLP.part.metal>
0.0000

> <Gold.PLP.part.buried>
-2.6682

> <Gold.PLP.part.nonpolar>
-26.3939

> <Gold.PLP.part.repulsive>
0.2161

> <Gold.PLP.ligand.clash>
0.0000

> <Gold.PLP.ligand.torsion>
0.7943

> <Gold.PLP.Chemscore.Hbond>
2.5520

> <Gold.PLP.Chemscore.CHOScore>
0.0000

> <Gold.PLP.Chemscore.Metal>
0.0000

> <Gold.Chemscore.Hbonds>
donor molecule, donor type, donor heavy atom, donor atom, acceptor molecule, acceptor atom, score
      L1  H     7    24       P1  7948  0.65
      L1  H    10    25       P1  7948  1.00
      P1  H  7989  7998       L1    14  0.74

> <Gold.PLP.Chemscore.Internal.Correction>
1.0797

> <Gold.Rescore>
     Score         DG    S(hbond)    S(metal)    S(lipo)     H(rot)  DE(clash)    DE(int)     intcor
     13.76     -15.03       2.08        0.00      50.88       1.31       0.30       0.97       ----

> <Gold.Chemscore.Fitness>
13.7615

> <Gold.Chemscore.DG>
-15.0346

> <Gold.Chemscore.ZeroCoef>
-5.4800

> <Gold.Chemscore.Hbond>
2.0804

> <Gold.Chemscore.Metal>
0.0000

> <Gold.Chemscore.Lipo>
50.8756

> <Gold.Chemscore.Internal_Hbond>
0.0000

> <Gold.Chemscore.DEClash>
0.2984

> <Gold.Chemscore.DEInternal>
0.9747

> <Gold.Chemscore.Rot>
1.3072

> <Gold.Chemscore.Internal.Correction>
   9.000000E+99

> <Gold.Chemscore.Hbonds>
donor molecule, donor type, donor heavy atom, donor atom, acceptor molecule, acceptor atom, score
      L1  H     7    24       P1  7948  0.05
      L1  H    10    25       P1  7948  0.92
      P1  H  7989  7998       L1    14  0.29

> <Gold.Chemscore.Hbond.Weighted>
-6.9485

> <Gold.Chemscore.Metal.Weighted>
-0.0000

> <Gold.Chemscore.Lipo.Weighted>
-5.9524

> <Gold.Chemscore.Internal_Hbond.Weighted>
0.0000

> <Gold.Chemscore.DEClash.Weighted>
0.2984

> <Gold.Chemscore.DEInternal.Weighted>
0.9747

> <Gold.Chemscore.Rot.Weighted>
3.3464

> <Gold.Chemscore.Internal.Correction.Weighted>
   9.000000E+99

> <Gold.Protein.RotatedTorsions>
[ 6907 6896 6895 6894 ] final -147.29 input  -60.11 | X-H torsion
[ 7974 7965 7964 7962 ] final   51.32 input  175.53 | X-H torsion
[ 8008 7997 7996 7995 ] final  109.57 input   59.86 | X-H torsion
[ 10167 10162 10161 10158 ] final -138.89 input  -65.29 | X-H torsion
[ 10718 10713 10712 10709 ] final  -76.64 input   66.30 | X-H torsion
[ 10763 10752 10751 10750 ] final   13.10 input  -60.55 | X-H torsion
[ 11005 11000 10999 10996 ] final -113.85 input  -57.11 | X-H torsion

> <Gold.Protein.ActiveResidues>
 VAL166  LYS551  ARG553  GLY616  TRP617  ASP618  TYR619  PRO620  LYS621  CYS622 
 ASP623  PHE694  ASN695  SER759  ASP760  ASP761  ALA762  ILE779  LEU786  VAL792 
 PHE793  MET794  SER795  GLU796  ALA797  LYS798  CYS799  TRP800  GLU811  SER814 

> <Gold.Protein.RotatedAtoms>
  151.1536  133.4891  159.2594 H   0  0  0  0  0  0  0  0  0  0  0  0  # atno 6907 bound_to 6896
  151.1528  135.0235  159.8686 H   0  0  0  0  0  0  0  0  0  0  0  0  # atno 6908 bound_to 6896
  152.5463  134.1418  159.8535 H   0  0  0  0  0  0  0  0  0  0  0  0  # atno 6909 bound_to 6896
  145.9925  139.4354  143.0065 H   0  0  0  0  0  0  0  0  0  0  0  0  # atno 7974 bound_to 7965
  156.1989  140.3055  155.9485 H   0  0  0  0  0  0  0  0  0  0  0  0  # atno 8008 bound_to 7997
  155.3001  140.0446  157.3046 H   0  0  0  0  0  0  0  0  0  0  0  0  # atno 8009 bound_to 7997
  154.5545  140.2301  155.8441 H   0  0  0  0  0  0  0  0  0  0  0  0  # atno 8010 bound_to 7997
  139.8433  143.7293  152.2662 H   0  0  0  0  0  0  0  0  0  0  0  0  # atno 10167 bound_to 10162
  156.0169  130.4471  150.3224 H   0  0  0  0  0  0  0  0  0  0  0  0  # atno 10718 bound_to 10713
  153.1755  135.6819  153.8549 H   0  0  0  0  0  0  0  0  0  0  0  0  # atno 10763 bound_to 10752
  153.7898  135.3170  155.3378 H   0  0  0  0  0  0  0  0  0  0  0  0  # atno 10764 bound_to 10752
  154.8026  135.4768  154.0406 H   0  0  0  0  0  0  0  0  0  0  0  0  # atno 10765 bound_to 10752
  141.0589  133.9568  157.2704 H   0  0  0  0  0  0  0  0  0  0  0  0  # atno 11005 bound_to 11000
  145.7609  140.9936  143.1200 LP  0  0  0  0  0  0  0  0  0  0  0  0  # atno 17320 bound_to 7965
  144.6893  139.9329  143.7472 LP  0  0  0  0  0  0  0  0  0  0  0  0  # atno 17321 bound_to 7965
  139.7537  144.7527  151.0468 LP  0  0  0  0  0  0  0  0  0  0  0  0  # atno 17342 bound_to 10162
  140.7796  143.4830  150.9992 LP  0  0  0  0  0  0  0  0  0  0  0  0  # atno 17343 bound_to 10162
  157.1324  131.0275  151.2963 LP  0  0  0  0  0  0  0  0  0  0  0  0  # atno 17370 bound_to 10713
  157.4539  130.7614  149.7176 LP  0  0  0  0  0  0  0  0  0  0  0  0  # atno 17371 bound_to 10713
  139.9414  135.0190  156.8720 LP  0  0  0  0  0  0  0  0  0  0  0  0  # atno 17394 bound_to 11000
  140.5909  134.0262  155.7499 LP  0  0  0  0  0  0  0  0  0  0  0  0  # atno 17395 bound_to 11000

$$$$
