AV-unprocessed.smi:342|AV-procd|sdf|2384|dock10
  -GOLD-   2262022313D 1   1.00000     0.00000
 Structure written by MMmdl.
 41 43  0  0  0  0  0  0  0  0  1 V2000
  147.7124  135.2199  154.1048 O   0  0  0  0  0  0  0  0  0  0  0  0
  148.5706  134.2037  154.5793 C   0  0  2  0  0  0  0  0  0  0  0  0
  149.7899  134.8691  155.2546 C   0  0  0  0  0  0  0  0  0  0  0  0
  149.4922  135.6643  156.4464 N   0  0  0  0  0  0  0  0  0  0  0  0
  148.8417  134.8825  157.4976 C   0  0  0  0  0  0  0  0  0  0  0  0
  148.5720  135.7248  158.7570 C   0  0  0  0  0  0  0  0  0  0  0  0
  149.7906  136.2919  159.2259 O   0  0  0  0  0  0  0  0  0  0  0  0
  150.4315  137.1002  158.2451 C   0  0  0  0  0  0  0  0  0  0  0  0
  150.7102  136.2578  156.9888 C   0  0  0  0  0  0  0  0  0  0  0  0
  148.9420  133.3059  153.3811 C   0  0  0  0  0  0  0  0  0  0  0  0
  147.9083  132.3269  153.0659 N   0  0  0  0  0  0  0  0  0  0  0  0
  147.7441  131.0731  153.5656 C   0  0  0  0  0  0  0  0  0  0  0  0
  148.6837  130.4757  154.5769 C   0  0  0  0  0  0  0  0  0  0  0  0
  148.6964  131.1960  155.6996 F   0  0  0  0  0  0  0  0  0  0  0  0
  148.3065  129.2368  154.8932 F   0  0  0  0  0  0  0  0  0  0  0  0
  149.9300  130.4400  154.1062 F   0  0  0  0  0  0  0  0  0  0  0  0
  146.6947  130.3986  153.0899 N   0  0  0  0  0  0  0  0  0  0  0  0
  146.1354  131.2876  152.1949 C   0  0  0  0  0  0  0  0  0  0  0  0
  144.9974  131.1616  151.3665 C   0  0  0  0  0  0  0  0  0  0  0  0
  144.6142  132.2181  150.5148 C   0  0  0  0  0  0  0  0  0  0  0  0
  145.3645  133.4111  150.4764 C   0  0  0  0  0  0  0  0  0  0  0  0
  146.5018  133.5563  151.2937 C   0  0  0  0  0  0  0  0  0  0  0  0
  146.8764  132.5013  152.1480 C   0  0  0  0  0  0  0  0  0  0  0  0
  147.9822  135.4505  153.2286 H   0  0  0  0  0  0  0  0  0  0  0  0
  148.0116  133.6054  155.2957 H   0  0  0  0  0  0  0  0  0  0  0  0
  150.5239  134.1085  155.5230 H   0  0  0  0  0  0  0  0  0  0  0  0
  150.2803  135.5002  154.5120 H   0  0  0  0  0  0  0  0  0  0  0  0
  147.8935  134.4791  157.1459 H   0  0  0  0  0  0  0  0  0  0  0  0
  149.4653  134.0273  157.7634 H   0  0  0  0  0  0  0  0  0  0  0  0
  147.8525  136.5170  158.5443 H   0  0  0  0  0  0  0  0  0  0  0  0
  148.1422  135.1043  159.5433 H   0  0  0  0  0  0  0  0  0  0  0  0
  149.8044  137.9597  158.0035 H   0  0  0  0  0  0  0  0  0  0  0  0
  151.3635  137.4884  158.6561 H   0  0  0  0  0  0  0  0  0  0  0  0
  151.4272  135.4728  157.2346 H   0  0  0  0  0  0  0  0  0  0  0  0
  151.1835  136.8866  156.2338 H   0  0  0  0  0  0  0  0  0  0  0  0
  149.1038  133.9182  152.4930 H   0  0  0  0  0  0  0  0  0  0  0  0
  149.8859  132.7980  153.5732 H   0  0  0  0  0  0  0  0  0  0  0  0
  144.4189  130.2499  151.3857 H   0  0  0  0  0  0  0  0  0  0  0  0
  143.7423  132.1117  149.8861 H   0  0  0  0  0  0  0  0  0  0  0  0
  145.0666  134.2145  149.8185 H   0  0  0  0  0  0  0  0  0  0  0  0
  147.0782  134.4686  151.2620 H   0  0  0  0  0  0  0  0  0  0  0  0
  1  2  1  0  0  0  0
  1 24  1  0  0  0  0
  2  3  1  0  0  0  0
  2 10  1  0  0  0  0
  2 25  1  0  0  0  0
  3  4  1  0  0  0  0
  3 26  1  0  0  0  0
  3 27  1  0  0  0  0
  4  9  1  0  0  0  0
  4  5  1  0  0  0  0
  5  6  1  0  0  0  0
  5 28  1  0  0  0  0
  5 29  1  0  0  0  0
  6  7  1  0  0  0  0
  6 30  1  0  0  0  0
  6 31  1  0  0  0  0
  7  8  1  0  0  0  0
  8  9  1  0  0  0  0
  8 32  1  0  0  0  0
  8 33  1  0  0  0  0
  9 34  1  0  0  0  0
  9 35  1  0  0  0  0
 10 11  1  0  0  0  0
 10 36  1  0  0  0  0
 10 37  1  0  0  0  0
 11 23  1  0  0  0  0
 11 12  1  0  0  0  0
 12 13  1  0  0  0  0
 12 17  2  0  0  0  0
 13 14  1  0  0  0  0
 13 15  1  0  0  0  0
 13 16  1  0  0  0  0
 17 18  1  0  0  0  0
 18 23  2  0  0  0  0
 18 19  1  0  0  0  0
 19 20  2  0  0  0  0
 19 38  1  0  0  0  0
 20 21  1  0  0  0  0
 20 39  1  0  0  0  0
 21 22  2  0  0  0  0
 21 40  1  0  0  0  0
 22 23  1  0  0  0  0
 22 41  1  0  0  0  0
M  END
> <s_m_source_file>
AV-unprocessed.smi

> <i_m_source_file_index>
342

> <i_lp_mmshare_version>
43012

> <i_f3d_flags>
0

> <s_epik_input>
W2NIXTFbY0hdW2NIXVtjSF1jKGMxMiluKGMobjIpQyhGKShGKUYpW0NIMl1bQ0BIXShbT0hdKVtDSDJdTjNbQ0gyXVtDSDJdT1tDSDJdW0NIMl0z

> <s_epik_cmdline>
J2VwaWtfcHl0aG9uJywgJy1waCcsICc3LjAnLCAnLXRuJywgJzgnLCAnLW1hJywgJzIwMCcsICctbWV0YWxfYmluZGluZycsICctaW1hZScsICc8aW5maWxlLm1hZT4nLCAnLW9tYWUnLCAnPG91dGZpbGUubWFlPic=

> <r_epik_Ionization_Penalty>
0.263195

> <r_epik_Ionization_Penalty_Charging>
0

> <r_epik_Ionization_Penalty_Neutral>
0.263195

> <r_epik_State_Penalty>
0.254683

> <r_epik_Charging_Adjusted_Penalty>
0.254683

> <i_epik_Tot_Q>
0

> <i_epik_Tot_abs_Q>
0

> <r_epik_Metal_State_Penalty>
0.254691

> <b_epik_Metal_Only>
0

> <s_lp_Force_Field>
OPLS_2005

> <r_lp_Energy>
34.5918

> <b_lp_Chiralities_Consistent>
1

> <s_lp_Variant>
AV-unprocessed.smi:342-1

> <Gold.Version>
5.8.1

> <Gold.Id.Protein>
6NUR|6NUR_protein|mol2

> <Gold.PLP.Fitness>
40.2149

> <Gold.PLP.PLP>
-35.3082

> <Gold.PLP.part.hbond>
-2.0000

> <Gold.PLP.part.metal>
0.0000

> <Gold.PLP.part.buried>
-4.7720

> <Gold.PLP.part.nonpolar>
-28.5007

> <Gold.PLP.part.repulsive>
0.1672

> <Gold.PLP.ligand.clash>
0.0000

> <Gold.PLP.ligand.torsion>
0.5859

> <Gold.PLP.Chemscore.Hbond>
2.0000

> <Gold.PLP.Chemscore.CHOScore>
0.0000

> <Gold.PLP.Chemscore.Metal>
0.0000

> <Gold.Chemscore.Hbonds>
donor molecule, donor type, donor heavy atom, donor atom, acceptor molecule, acceptor atom, score
      L1  H     1    24       P1  7948  1.00
      P1  H  6896  6909       L1     7  1.00

> <Gold.PLP.Chemscore.Internal.Correction>
0.0786

> <Gold.Rescore>
     Score         DG    S(hbond)    S(metal)    S(lipo)     H(rot)  DE(clash)    DE(int)     intcor
     14.33     -14.96       1.74        0.00      80.52       2.24       0.04       0.58       ----

> <Gold.Chemscore.Fitness>
14.3320

> <Gold.Chemscore.DG>
-14.9600

> <Gold.Chemscore.ZeroCoef>
-5.4800

> <Gold.Chemscore.Hbond>
1.7362

> <Gold.Chemscore.Metal>
0.0000

> <Gold.Chemscore.Lipo>
80.5215

> <Gold.Chemscore.Internal_Hbond>
0.0000

> <Gold.Chemscore.DEClash>
0.0436

> <Gold.Chemscore.DEInternal>
0.5844

> <Gold.Chemscore.Rot>
2.2421

> <Gold.Chemscore.Internal.Correction>
   9.000000E+99

> <Gold.Chemscore.Hbonds>
donor molecule, donor type, donor heavy atom, donor atom, acceptor molecule, acceptor atom, score
      L1  H     1    24       P1  7948  1.00
      P1  H  6896  6909       L1     7  0.26

> <Gold.Chemscore.Hbond.Weighted>
-5.7989

> <Gold.Chemscore.Metal.Weighted>
-0.0000

> <Gold.Chemscore.Lipo.Weighted>
-9.4210

> <Gold.Chemscore.Internal_Hbond.Weighted>
0.0000

> <Gold.Chemscore.DEClash.Weighted>
0.0436

> <Gold.Chemscore.DEInternal.Weighted>
0.5844

> <Gold.Chemscore.Rot.Weighted>
5.7399

> <Gold.Chemscore.Internal.Correction.Weighted>
   9.000000E+99

> <Gold.Protein.RotatedTorsions>
[ 6907 6896 6895 6894 ] final   61.17 input  -60.11 | X-H torsion
[ 7974 7965 7964 7962 ] final -146.64 input  175.53 | X-H torsion
[ 8008 7997 7996 7995 ] final  -40.83 input   59.86 | X-H torsion
[ 10167 10162 10161 10158 ] final  -18.89 input  -65.29 | X-H torsion
[ 10718 10713 10712 10709 ] final   36.14 input   66.30 | X-H torsion
[ 10763 10752 10751 10750 ] final   74.91 input  -60.55 | X-H torsion
[ 11005 11000 10999 10996 ] final   88.89 input  -57.11 | X-H torsion

> <Gold.Protein.ActiveResidues>
 VAL166  LYS551  ARG553  GLY616  TRP617  ASP618  TYR619  PRO620  LYS621  CYS622 
 ASP623  PHE694  ASN695  SER759  ASP760  ASP761  ALA762  ILE779  LEU786  VAL792 
 PHE793  MET794  SER795  GLU796  ALA797  LYS798  CYS799  TRP800  GLU811  SER814 

> <Gold.Protein.RotatedAtoms>
  152.4066  134.6196  160.0047 H   0  0  0  0  0  0  0  0  0  0  0  0  # atno 6907 bound_to 6896
  151.6385  133.3322  159.3133 H   0  0  0  0  0  0  0  0  0  0  0  0  # atno 6908 bound_to 6896
  150.7960  134.7062  159.6622 H   0  0  0  0  0  0  0  0  0  0  0  0  # atno 6909 bound_to 6896
  144.8146  140.5430  143.5619 H   0  0  0  0  0  0  0  0  0  0  0  0  # atno 7974 bound_to 7965
  154.4009  140.1515  156.3092 H   0  0  0  0  0  0  0  0  0  0  0  0  # atno 8008 bound_to 7997
  155.8631  140.3452  155.5748 H   0  0  0  0  0  0  0  0  0  0  0  0  # atno 8009 bound_to 7997
  155.7858  140.0850  157.2026 H   0  0  0  0  0  0  0  0  0  0  0  0  # atno 8010 bound_to 7997
  140.7263  143.4872  151.0040 H   0  0  0  0  0  0  0  0  0  0  0  0  # atno 10167 bound_to 10162
  157.3313  130.7499  149.6849 H   0  0  0  0  0  0  0  0  0  0  0  0  # atno 10718 bound_to 10713
  153.0618  135.5008  154.8111 H   0  0  0  0  0  0  0  0  0  0  0  0  # atno 10763 bound_to 10752
  154.6894  135.2982  154.9503 H   0  0  0  0  0  0  0  0  0  0  0  0  # atno 10764 bound_to 10752
  154.0262  135.6735  153.4829 H   0  0  0  0  0  0  0  0  0  0  0  0  # atno 10765 bound_to 10752
  139.8886  134.8517  156.3065 H   0  0  0  0  0  0  0  0  0  0  0  0  # atno 11005 bound_to 11000
  145.5244  139.1476  143.3534 LP  0  0  0  0  0  0  0  0  0  0  0  0  # atno 17320 bound_to 7965
  146.2448  140.5385  142.8918 LP  0  0  0  0  0  0  0  0  0  0  0  0  # atno 17321 bound_to 7965
  139.8574  143.7359  152.3175 LP  0  0  0  0  0  0  0  0  0  0  0  0  # atno 17342 bound_to 10162
  139.7562  144.7520  151.0431 LP  0  0  0  0  0  0  0  0  0  0  0  0  # atno 17343 bound_to 10162
  155.9696  130.4194  150.4375 LP  0  0  0  0  0  0  0  0  0  0  0  0  # atno 17370 bound_to 10713
  157.2407  131.0525  151.2438 LP  0  0  0  0  0  0  0  0  0  0  0  0  # atno 17371 bound_to 10713
  140.9879  133.7227  156.0769 LP  0  0  0  0  0  0  0  0  0  0  0  0  # atno 17394 bound_to 11000
  140.7664  134.3881  157.5516 LP  0  0  0  0  0  0  0  0  0  0  0  0  # atno 17395 bound_to 11000

$$$$
