AV-unprocessed.smi:1786|AV-procd|sdf|7204|dock4
  -GOLD-   22720 8443D 1   1.00000     0.00000
 Structure written by MMmdl.
 44 45  0  0  0  0  0  0  0  0  2 V2000
  148.5600  140.4445  154.6024 C   0  0  0  0  0  0  0  0  0  0  0  0
  147.4675  140.9536  153.6367 C   0  0  2  0  0  0  0  0  0  0  0  0
  146.8442  142.2857  154.1047 C   0  0  0  0  0  0  0  0  0  0  0  0
  145.9149  142.0959  155.3129 C   0  0  0  0  0  0  0  0  0  0  0  0
  144.8549  141.0331  154.9995 C   0  0  0  0  0  0  0  0  0  0  0  0
  145.5045  139.7191  154.5357 C   0  0  0  0  0  0  0  0  0  0  0  0
  146.3976  139.9467  153.3664 N   0  3  2  0  0  0  0  0  0  0  0  0
  146.8998  138.6914  152.7520 C   0  0  0  0  0  0  0  0  0  0  0  0
  145.7593  137.7132  152.4139 C   0  0  0  0  0  0  0  0  0  0  0  0
  146.2670  136.5055  151.7759 N   0  0  0  0  0  0  0  0  0  0  0  0
  145.5073  135.5711  151.1782 C   0  0  0  0  0  0  0  0  0  0  0  0
  144.2810  135.6543  151.1200 O   0  0  0  0  0  0  0  0  0  0  0  0
  146.2020  134.3488  150.5526 C   0  0  0  0  0  0  0  0  0  0  0  0
  146.2271  133.1424  151.3991 N   0  0  0  0  0  0  0  0  0  0  0  0
  147.0193  133.1968  152.5633 C   0  0  0  0  0  0  0  0  0  0  0  0
  147.1150  132.1568  153.4065 C   0  0  0  0  0  0  0  0  0  0  0  0
  146.3752  130.9567  153.0963 C   0  0  0  0  0  0  0  0  0  0  0  0
  145.6174  130.8924  151.9833 C   0  0  0  0  0  0  0  0  0  0  0  0
  145.5162  132.0241  151.0546 C   0  0  0  0  0  0  0  0  0  0  0  0
  144.8415  131.9684  150.0264 O   0  0  0  0  0  0  0  0  0  0  0  0
  149.3277  141.2049  154.7479 H   0  0  0  0  0  0  0  0  0  0  0  0
  149.0627  139.5585  154.2148 H   0  0  0  0  0  0  0  0  0  0  0  0
  148.1632  140.1951  155.5860 H   0  0  0  0  0  0  0  0  0  0  0  0
  147.9580  141.1585  152.6841 H   0  0  0  0  0  0  0  0  0  0  0  0
  147.6261  143.0077  154.3430 H   0  0  0  0  0  0  0  0  0  0  0  0
  146.2722  142.7207  153.2839 H   0  0  0  0  0  0  0  0  0  0  0  0
  146.4921  141.7978  156.1889 H   0  0  0  0  0  0  0  0  0  0  0  0
  145.4341  143.0407  155.5681 H   0  0  0  0  0  0  0  0  0  0  0  0
  144.2363  140.8532  155.8792 H   0  0  0  0  0  0  0  0  0  0  0  0
  144.1854  141.4032  154.2219 H   0  0  0  0  0  0  0  0  0  0  0  0
  146.0635  139.2625  155.3530 H   0  0  0  0  0  0  0  0  0  0  0  0
  144.7157  139.0143  154.2748 H   0  0  0  0  0  0  0  0  0  0  0  0
  147.4262  138.9252  151.8254 H   0  0  0  0  0  0  0  0  0  0  0  0
  147.6319  138.2271  153.4146 H   0  0  0  0  0  0  0  0  0  0  0  0
  145.1891  137.4380  153.3018 H   0  0  0  0  0  0  0  0  0  0  0  0
  145.0554  138.1864  151.7289 H   0  0  0  0  0  0  0  0  0  0  0  0
  147.2679  136.3698  151.7817 H   0  0  0  0  0  0  0  0  0  0  0  0
  145.7038  134.1278  149.6076 H   0  0  0  0  0  0  0  0  0  0  0  0
  147.2164  134.6363  150.2703 H   0  0  0  0  0  0  0  0  0  0  0  0
  147.5429  134.1289  152.7200 H   0  0  0  0  0  0  0  0  0  0  0  0
  147.7296  132.2160  154.2929 H   0  0  0  0  0  0  0  0  0  0  0  0
  146.4284  130.1066  153.7606 H   0  0  0  0  0  0  0  0  0  0  0  0
  145.0700  129.9863  151.7683 H   0  0  0  0  0  0  0  0  0  0  0  0
  145.8167  140.3738  152.6591 H   0  0  0  0  0  0  0  0  0  0  0  0
  1  2  1  0  0  0  0
  1 21  1  0  0  0  0
  1 22  1  0  0  0  0
  1 23  1  0  0  0  0
  2  7  1  0  0  0  0
  2  3  1  0  0  0  0
  2 24  1  0  0  0  0
  3  4  1  0  0  0  0
  3 25  1  0  0  0  0
  3 26  1  0  0  0  0
  4  5  1  0  0  0  0
  4 27  1  0  0  0  0
  4 28  1  0  0  0  0
  5  6  1  0  0  0  0
  5 29  1  0  0  0  0
  5 30  1  0  0  0  0
  6  7  1  0  0  0  0
  6 31  1  0  0  0  0
  6 32  1  0  0  0  0
  7  8  1  0  0  0  0
  7 44  1  0  0  0  0
  8  9  1  0  0  0  0
  8 33  1  0  0  0  0
  8 34  1  0  0  0  0
  9 10  1  0  0  0  0
  9 35  1  0  0  0  0
  9 36  1  0  0  0  0
 10 11  1  0  0  0  0
 10 37  1  0  0  0  0
 11 12  2  0  0  0  0
 11 13  1  0  0  0  0
 13 14  1  0  0  0  0
 13 38  1  0  0  0  0
 13 39  1  0  0  0  0
 14 19  1  0  0  0  0
 14 15  1  0  0  0  0
 15 16  2  0  0  0  0
 15 40  1  0  0  0  0
 16 17  1  0  0  0  0
 16 41  1  0  0  0  0
 17 18  2  0  0  0  0
 17 42  1  0  0  0  0
 18 19  1  0  0  0  0
 18 43  1  0  0  0  0
 19 20  2  0  0  0  0
M  CHG  1   7   1
M  END
> <s_m_source_file>
AV-unprocessed.smi

> <i_m_source_file_index>
1786

> <i_lp_mmshare_version>
43012

> <i_f3d_flags>
0

> <s_epik_input>
W0NIM11bQ0BASF0xW0NIMl1bQ0gyXVtDSDJdW0NIMl1OMVtDSDJdW0NIMl1bTkhdQyg9TylbQ0gyXW4yW2NIXVtjSF1bY0hdW2NIXWMyPU8=

> <s_epik_cmdline>
J2VwaWtfcHl0aG9uJywgJy1waCcsICc3LjAnLCAnLXRuJywgJzgnLCAnLW1hJywgJzIwMCcsICctbWV0YWxfYmluZGluZycsICctaW1hZScsICc8aW5maWxlLm1hZT4nLCAnLW9tYWUnLCAnPG91dGZpbGUubWFlPic=

> <r_lp_tautomer_probability>
1

> <r_epik_Ionization_Penalty>
0.00237247

> <r_epik_Ionization_Penalty_Charging>
0.00237238

> <r_epik_Ionization_Penalty_Neutral>
8.2065e-08

> <r_epik_State_Penalty>
0.00163922

> <r_epik_Charging_Adjusted_Penalty>
0.0040116

> <i_epik_Tot_Q>
1

> <i_epik_Tot_abs_Q>
1

> <r_epik_Metal_State_Penalty>
-0

> <b_epik_Metal_Only>
0

> <s_lp_Force_Field>
OPLS_2005

> <r_lp_Energy>
28.5406

> <b_lp_Chiralities_Consistent>
1

> <s_lp_Variant>
AV-unprocessed.smi:1786-3

> <Gold.Version>
5.8.1

> <Gold.Id.Protein>
6NUR|6NUR_protein|mol2

> <Gold.PLP.Fitness>
48.1662

> <Gold.PLP.PLP>
-36.9968

> <Gold.PLP.part.hbond>
-2.0000

> <Gold.PLP.part.metal>
0.0000

> <Gold.PLP.part.buried>
-4.3629

> <Gold.PLP.part.nonpolar>
-30.3593

> <Gold.PLP.part.repulsive>
0.2909

> <Gold.PLP.ligand.clash>
0.0000

> <Gold.PLP.ligand.torsion>
0.4521

> <Gold.PLP.Chemscore.Hbond>
3.0000

> <Gold.PLP.Chemscore.CHOScore>
1.0000

> <Gold.PLP.Chemscore.Metal>
0.0000

> <Gold.Chemscore.Hbonds>
donor molecule, donor type, donor heavy atom, donor atom, acceptor molecule, acceptor atom, score
      L1  H     7    44       P1 10175  0.94
      L1  H    10    37       P1  7948  1.00
      L1  C    15    40       P1  7948  0.75

> <Gold.PLP.Chemscore.Internal.Correction>
0.0737

> <Gold.Rescore>
     Score         DG    S(hbond)    S(metal)    S(lipo)     H(rot)  DE(clash)    DE(int)     intcor
     15.43     -15.87       1.99        0.00      72.69       1.86       0.02       0.42       ----

> <Gold.Chemscore.Fitness>
15.4295

> <Gold.Chemscore.DG>
-15.8703

> <Gold.Chemscore.ZeroCoef>
-5.4800

> <Gold.Chemscore.Hbond>
1.9891

> <Gold.Chemscore.Metal>
0.0000

> <Gold.Chemscore.Lipo>
72.6895

> <Gold.Chemscore.Internal_Hbond>
0.0000

> <Gold.Chemscore.DEClash>
0.0234

> <Gold.Chemscore.DEInternal>
0.4174

> <Gold.Chemscore.Rot>
1.8586

> <Gold.Chemscore.Internal.Correction>
   9.000000E+99

> <Gold.Chemscore.Hbonds>
donor molecule, donor type, donor heavy atom, donor atom, acceptor molecule, acceptor atom, score
      L1  H     7    44       P1 10175  0.35
      L1  H    10    37       P1  7948  1.00

> <Gold.Chemscore.Hbond.Weighted>
-6.6437

> <Gold.Chemscore.Metal.Weighted>
-0.0000

> <Gold.Chemscore.Lipo.Weighted>
-8.5047

> <Gold.Chemscore.Internal_Hbond.Weighted>
0.0000

> <Gold.Chemscore.DEClash.Weighted>
0.0234

> <Gold.Chemscore.DEInternal.Weighted>
0.4174

> <Gold.Chemscore.Rot.Weighted>
4.7581

> <Gold.Chemscore.Internal.Correction.Weighted>
   9.000000E+99

> <Gold.Protein.RotatedTorsions>
[ 6907 6896 6895 6894 ] final  -76.02 input  -60.11 | X-H torsion
[ 7974 7965 7964 7962 ] final -126.97 input  175.53 | X-H torsion
[ 8008 7997 7996 7995 ] final   95.11 input   59.86 | X-H torsion
[ 10167 10162 10161 10158 ] final  -22.53 input  -65.29 | X-H torsion
[ 10718 10713 10712 10709 ] final  -75.16 input   66.30 | X-H torsion
[ 10763 10752 10751 10750 ] final   78.28 input  -60.55 | X-H torsion
[ 11005 11000 10999 10996 ] final  -27.82 input  -57.11 | X-H torsion

> <Gold.Protein.ActiveResidues>
 VAL166  LYS551  ARG553  GLY616  TRP617  ASP618  TYR619  PRO620  LYS621  CYS622 
 ASP623  PHE694  ASN695  SER759  ASP760  ASP761  ALA762  ILE779  LEU786  VAL792 
 PHE793  MET794  SER795  GLU796  ALA797  LYS798  CYS799  TRP800  GLU811  SER814 

> <Gold.Protein.RotatedAtoms>
  150.7040  134.4634  159.5391 H   0  0  0  0  0  0  0  0  0  0  0  0  # atno 6907 bound_to 6896
  152.2304  134.8324  160.0483 H   0  0  0  0  0  0  0  0  0  0  0  0  # atno 6908 bound_to 6896
  151.9142  133.3534  159.3911 H   0  0  0  0  0  0  0  0  0  0  0  0  # atno 6909 bound_to 6896
  144.9818  140.7648  143.4607 H   0  0  0  0  0  0  0  0  0  0  0  0  # atno 7974 bound_to 7965
  156.0653  140.3291  155.7510 H   0  0  0  0  0  0  0  0  0  0  0  0  # atno 8008 bound_to 7997
  155.5391  140.0600  157.2891 H   0  0  0  0  0  0  0  0  0  0  0  0  # atno 8009 bound_to 7997
  154.4502  140.1914  156.0561 H   0  0  0  0  0  0  0  0  0  0  0  0  # atno 8010 bound_to 7997
  140.7286  143.4526  151.0494 H   0  0  0  0  0  0  0  0  0  0  0  0  # atno 10167 bound_to 10162
  156.0217  130.4434  150.3001 H   0  0  0  0  0  0  0  0  0  0  0  0  # atno 10718 bound_to 10713
  153.0862  135.4883  154.8602 H   0  0  0  0  0  0  0  0  0  0  0  0  # atno 10763 bound_to 10752
  154.7214  135.3040  154.9044 H   0  0  0  0  0  0  0  0  0  0  0  0  # atno 10764 bound_to 10752
  153.9707  135.6801  153.4800 H   0  0  0  0  0  0  0  0  0  0  0  0  # atno 10765 bound_to 10752
  140.9154  133.7433  156.0727 H   0  0  0  0  0  0  0  0  0  0  0  0  # atno 11005 bound_to 11000
  145.2410  139.2072  143.4993 LP  0  0  0  0  0  0  0  0  0  0  0  0  # atno 17320 bound_to 7965
  146.3410  140.2305  142.8593 LP  0  0  0  0  0  0  0  0  0  0  0  0  # atno 17321 bound_to 7965
  139.8204  143.7828  152.3176 LP  0  0  0  0  0  0  0  0  0  0  0  0  # atno 17342 bound_to 10162
  139.7909  144.7410  150.9957 LP  0  0  0  0  0  0  0  0  0  0  0  0  # atno 17343 bound_to 10162
  157.1104  131.0220  151.3050 LP  0  0  0  0  0  0  0  0  0  0  0  0  # atno 17370 bound_to 10713
  157.4709  130.7708  149.7322 LP  0  0  0  0  0  0  0  0  0  0  0  0  # atno 17371 bound_to 10713
  140.8057  134.3458  157.5427 LP  0  0  0  0  0  0  0  0  0  0  0  0  # atno 17394 bound_to 11000
  139.8765  134.9224  156.3299 LP  0  0  0  0  0  0  0  0  0  0  0  0  # atno 17395 bound_to 11000

$$$$
