AV-unprocessed.smi:1661|AV-procd|sdf|6654|dock3
  -GOLD-   22720 7363D 1   1.00000     0.00000
 Structure written by MMmdl.
 38 39  0  0  0  0  0  0  0  0  2 V2000
  145.9026  132.0302  149.7035 C   0  0  0  0  0  0  0  0  0  0  0  0
  144.7145  131.7628  150.6440 C   0  0  2  0  0  0  0  0  0  0  0  0
  144.0818  133.0562  151.1884 C   0  0  0  0  0  0  0  0  0  0  0  0
  144.9582  133.7275  152.2611 C   0  0  0  0  0  0  0  0  0  0  0  0
  145.2658  132.7908  153.3730 N   0  3  2  0  0  0  0  0  0  0  0  0
  146.0005  133.4580  154.4776 C   0  0  0  0  0  0  0  0  0  0  0  0
  147.5219  133.2209  154.4036 C   0  0  0  0  0  0  0  0  0  0  0  0
  148.2467  134.4583  154.1384 N   0  0  0  0  0  0  0  0  0  0  0  0
  149.2160  134.9607  154.9169 C   0  0  0  0  0  0  0  0  0  0  0  0
  149.5878  134.4255  155.9616 O   0  0  0  0  0  0  0  0  0  0  0  0
  149.7089  136.1033  154.4076 N   0  0  0  0  0  0  0  0  0  0  0  0
  150.7318  136.9336  154.9380 C   0  0  0  0  0  0  0  0  0  0  0  0
  151.6803  136.4987  155.7823 N   0  0  0  0  0  0  0  0  0  0  0  0
  152.5545  137.5142  156.1487 N   0  0  0  0  0  0  0  0  0  0  0  0
  152.2314  138.6727  155.5670 C   0  0  0  0  0  0  0  0  0  0  0  0
  150.8274  138.6369  154.5146 S   0  0  0  0  0  0  0  0  0  0  0  0
  145.9383  131.5595  152.8790 C   0  0  0  0  0  0  0  0  0  0  0  0
  145.0819  130.8410  151.8206 C   0  0  0  0  0  0  0  0  0  0  0  0
  146.7222  132.5407  150.2083 H   0  0  0  0  0  0  0  0  0  0  0  0
  145.5997  132.6495  148.8589 H   0  0  0  0  0  0  0  0  0  0  0  0
  146.2964  131.0976  149.2985 H   0  0  0  0  0  0  0  0  0  0  0  0
  143.9581  131.2509  150.0475 H   0  0  0  0  0  0  0  0  0  0  0  0
  143.8870  133.7541  150.3732 H   0  0  0  0  0  0  0  0  0  0  0  0
  143.1091  132.8221  151.6237 H   0  0  0  0  0  0  0  0  0  0  0  0
  145.8870  134.0952  151.8231 H   0  0  0  0  0  0  0  0  0  0  0  0
  144.4304  134.5987  152.6510 H   0  0  0  0  0  0  0  0  0  0  0  0
  145.7733  134.5251  154.4823 H   0  0  0  0  0  0  0  0  0  0  0  0
  145.6380  133.0638  155.4280 H   0  0  0  0  0  0  0  0  0  0  0  0
  147.8851  132.7697  155.3288 H   0  0  0  0  0  0  0  0  0  0  0  0
  147.7705  132.5273  153.6016 H   0  0  0  0  0  0  0  0  0  0  0  0
  148.0030  134.9594  153.2962 H   0  0  0  0  0  0  0  0  0  0  0  0
  149.3047  136.4192  153.5385 H   0  0  0  0  0  0  0  0  0  0  0  0
  152.8237  139.5550  155.7594 H   0  0  0  0  0  0  0  0  0  0  0  0
  146.9163  131.8147  152.4694 H   0  0  0  0  0  0  0  0  0  0  0  0
  146.1180  130.8698  153.7025 H   0  0  0  0  0  0  0  0  0  0  0  0
  144.1660  130.4815  152.2918 H   0  0  0  0  0  0  0  0  0  0  0  0
  145.6019  129.9540  151.4572 H   0  0  0  0  0  0  0  0  0  0  0  0
  144.3741  132.5079  153.7543 H   0  0  0  0  0  0  0  0  0  0  0  0
  1  2  1  0  0  0  0
  1 19  1  0  0  0  0
  1 20  1  0  0  0  0
  1 21  1  0  0  0  0
  2 18  1  0  0  0  0
  2  3  1  0  0  0  0
  2 22  1  0  0  0  0
  3  4  1  0  0  0  0
  3 23  1  0  0  0  0
  3 24  1  0  0  0  0
  4  5  1  0  0  0  0
  4 25  1  0  0  0  0
  4 26  1  0  0  0  0
  5  6  1  0  0  0  0
  5 17  1  0  0  0  0
  5 38  1  0  0  0  0
  6  7  1  0  0  0  0
  6 27  1  0  0  0  0
  6 28  1  0  0  0  0
  7  8  1  0  0  0  0
  7 29  1  0  0  0  0
  7 30  1  0  0  0  0
  8  9  1  0  0  0  0
  8 31  1  0  0  0  0
  9 10  2  0  0  0  0
  9 11  1  0  0  0  0
 11 12  1  0  0  0  0
 11 32  1  0  0  0  0
 12 16  1  0  0  0  0
 12 13  2  0  0  0  0
 13 14  1  0  0  0  0
 14 15  2  0  0  0  0
 15 16  1  0  0  0  0
 15 33  1  0  0  0  0
 17 18  1  0  0  0  0
 17 34  1  0  0  0  0
 17 35  1  0  0  0  0
 18 36  1  0  0  0  0
 18 37  1  0  0  0  0
M  CHG  1   5   1
M  END
> <s_m_source_file>
AV-unprocessed.smi

> <i_m_source_file_index>
1661

> <i_lp_mmshare_version>
43012

> <i_f3d_flags>
0

> <s_epik_input>
W0NIM11bQ0hdMVtDSDJdW0NIMl1OKFtDSDJdW0NIMl0xKVtDSDJdW0NIMl1bTkhdQyg9TylbTkhdYzJubltjSF1zMg==

> <s_epik_cmdline>
J2VwaWtfcHl0aG9uJywgJy1waCcsICc3LjAnLCAnLXRuJywgJzgnLCAnLW1hJywgJzIwMCcsICctbWV0YWxfYmluZGluZycsICctaW1hZScsICc8aW5maWxlLm1hZT4nLCAnLW9tYWUnLCAnPG91dGZpbGUubWFlPic=

> <r_lp_tautomer_probability>
1

> <r_epik_Ionization_Penalty>
0.0053917

> <r_epik_Ionization_Penalty_Charging>
0.00168873

> <r_epik_Ionization_Penalty_Neutral>
0.00370297

> <r_epik_State_Penalty>
-0

> <r_epik_Charging_Adjusted_Penalty>
0.00168873

> <i_epik_Tot_Q>
1

> <i_epik_Tot_abs_Q>
1

> <r_epik_Metal_State_Penalty>
0.36997

> <b_epik_Metal_Only>
0

> <s_lp_Force_Field>
OPLS_2005

> <r_lp_Energy>
16.5964

> <b_lp_Chiralities_Consistent>
1

> <s_lp_Variant>
AV-unprocessed.smi:1661-2

> <Gold.Version>
5.8.1

> <Gold.Id.Protein>
6NUR|6NUR_protein|mol2

> <Gold.PLP.Fitness>
40.9593

> <Gold.PLP.PLP>
-31.3567

> <Gold.PLP.part.hbond>
-5.3885

> <Gold.PLP.part.metal>
0.0000

> <Gold.PLP.part.buried>
-4.1784

> <Gold.PLP.part.nonpolar>
-22.7110

> <Gold.PLP.part.repulsive>
0.1444

> <Gold.PLP.ligand.clash>
0.0000

> <Gold.PLP.ligand.torsion>
0.9528

> <Gold.PLP.Chemscore.Hbond>
3.8294

> <Gold.PLP.Chemscore.CHOScore>
0.0000

> <Gold.PLP.Chemscore.Metal>
0.0000

> <Gold.Chemscore.Hbonds>
donor molecule, donor type, donor heavy atom, donor atom, acceptor molecule, acceptor atom, score
      L1  H     5    38       P1 10957  1.59
      L1  H     8    31       P1  7948  0.59
      L1  H    11    32       P1  7948  1.00
      P1  H 10752 10763       L1    13  0.75

> <Gold.PLP.Chemscore.Internal.Correction>
0.0199

> <Gold.Rescore>
     Score         DG    S(hbond)    S(metal)    S(lipo)     H(rot)  DE(clash)    DE(int)     intcor
     13.80     -15.82       2.15        0.00      64.39       1.70       0.02       2.01       ----

> <Gold.Chemscore.Fitness>
13.7956

> <Gold.Chemscore.DG>
-15.8214

> <Gold.Chemscore.ZeroCoef>
-5.4800

> <Gold.Chemscore.Hbond>
2.1470

> <Gold.Chemscore.Metal>
0.0000

> <Gold.Chemscore.Lipo>
64.3941

> <Gold.Chemscore.Internal_Hbond>
0.0000

> <Gold.Chemscore.DEClash>
0.0174

> <Gold.Chemscore.DEInternal>
2.0084

> <Gold.Chemscore.Rot>
1.7046

> <Gold.Chemscore.Internal.Correction>
   9.000000E+99

> <Gold.Chemscore.Hbonds>
donor molecule, donor type, donor heavy atom, donor atom, acceptor molecule, acceptor atom, score
      L1  H     5    38       P1 10957  0.31
      L1  H     8    31       P1  7948  0.58
      L1  H    11    32       P1  7948  0.84
      P1  H 10752 10763       L1    13  0.05

> <Gold.Chemscore.Hbond.Weighted>
-7.1711

> <Gold.Chemscore.Metal.Weighted>
-0.0000

> <Gold.Chemscore.Lipo.Weighted>
-7.5341

> <Gold.Chemscore.Internal_Hbond.Weighted>
0.0000

> <Gold.Chemscore.DEClash.Weighted>
0.0174

> <Gold.Chemscore.DEInternal.Weighted>
2.0084

> <Gold.Chemscore.Rot.Weighted>
4.3638

> <Gold.Chemscore.Internal.Correction.Weighted>
   9.000000E+99

> <Gold.Protein.RotatedTorsions>
[ 6907 6896 6895 6894 ] final  -90.55 input  -60.11 | X-H torsion
[ 7974 7965 7964 7962 ] final  142.45 input  175.53 | X-H torsion
[ 8008 7997 7996 7995 ] final  -56.22 input   59.86 | X-H torsion
[ 10167 10162 10161 10158 ] final -133.84 input  -65.29 | X-H torsion
[ 10718 10713 10712 10709 ] final  -75.78 input   66.30 | X-H torsion
[ 10763 10752 10751 10750 ] final   62.60 input  -60.55 | X-H torsion
[ 11005 11000 10999 10996 ] final  116.12 input  -57.11 | X-H torsion

> <Gold.Protein.ActiveResidues>
 VAL166  LYS551  ARG553  GLY616  TRP617  ASP618  TYR619  PRO620  LYS621  CYS622 
 ASP623  PHE694  ASN695  SER759  ASP760  ASP761  ALA762  ILE779  LEU786  VAL792 
 PHE793  MET794  SER795  GLU796  ALA797  LYS798  CYS799  TRP800  GLU811  SER814 

> <Gold.Protein.RotatedAtoms>
  150.6883  134.2415  159.4474 H   0  0  0  0  0  0  0  0  0  0  0  0  # atno 6907 bound_to 6896
  152.0359  134.9738  160.0582 H   0  0  0  0  0  0  0  0  0  0  0  0  # atno 6908 bound_to 6896
  152.1259  133.4345  159.4734 H   0  0  0  0  0  0  0  0  0  0  0  0  # atno 6909 bound_to 6896
  144.9006  139.5428  143.5755 H   0  0  0  0  0  0  0  0  0  0  0  0  # atno 7974 bound_to 7965
  154.4222  140.1135  156.5602 H   0  0  0  0  0  0  0  0  0  0  0  0  # atno 8008 bound_to 7997
  155.6319  140.3495  155.4667 H   0  0  0  0  0  0  0  0  0  0  0  0  # atno 8009 bound_to 7997
  155.9941  140.1185  157.0600 H   0  0  0  0  0  0  0  0  0  0  0  0  # atno 8010 bound_to 7997
  139.8941  143.6686  152.2607 H   0  0  0  0  0  0  0  0  0  0  0  0  # atno 10167 bound_to 10162
  156.0196  130.4449  150.3095 H   0  0  0  0  0  0  0  0  0  0  0  0  # atno 10718 bound_to 10713
  152.9988  135.5459  154.6219 H   0  0  0  0  0  0  0  0  0  0  0  0  # atno 10763 bound_to 10752
  154.5516  135.2827  155.1005 H   0  0  0  0  0  0  0  0  0  0  0  0  # atno 10764 bound_to 10752
  154.2243  135.6445  153.5207 H   0  0  0  0  0  0  0  0  0  0  0  0  # atno 10765 bound_to 10752
  139.9031  134.9593  156.7149 H   0  0  0  0  0  0  0  0  0  0  0  0  # atno 11005 bound_to 11000
  146.3106  139.7733  142.9022 LP  0  0  0  0  0  0  0  0  0  0  0  0  # atno 17320 bound_to 7965
  145.3623  141.0328  143.3278 LP  0  0  0  0  0  0  0  0  0  0  0  0  # atno 17321 bound_to 7965
  139.7083  144.7624  151.1155 LP  0  0  0  0  0  0  0  0  0  0  0  0  # atno 17342 bound_to 10162
  140.7720  143.5365  150.9362 LP  0  0  0  0  0  0  0  0  0  0  0  0  # atno 17343 bound_to 10162
  157.1197  131.0243  151.3014 LP  0  0  0  0  0  0  0  0  0  0  0  0  # atno 17370 bound_to 10713
  157.4638  130.7669  149.7260 LP  0  0  0  0  0  0  0  0  0  0  0  0  # atno 17371 bound_to 10713
  140.7046  133.9276  155.8046 LP  0  0  0  0  0  0  0  0  0  0  0  0  # atno 17394 bound_to 11000
  141.0346  134.0708  157.3974 LP  0  0  0  0  0  0  0  0  0  0  0  0  # atno 17395 bound_to 11000

$$$$
