AV-unprocessed.smi:1033|AV-procd|sdf|4496|dock4
  -GOLD-   22720 2483D 1   1.00000     0.00000
 Structure written by MMmdl.
 56 58  0  0  0  0  0  0  0  0  2 V2000
  153.2130  142.8106  161.7710 C   0  0  0  0  0  0  0  0  0  0  0  0
  152.5819  142.3923  160.4548 C   0  0  0  0  0  0  0  0  0  0  0  0
  153.0646  141.2387  159.7967 C   0  0  0  0  0  0  0  0  0  0  0  0
  152.5085  140.8191  158.5684 C   0  0  0  0  0  0  0  0  0  0  0  0
  152.8230  139.7389  157.7625 N   0  0  0  0  0  0  0  0  0  0  0  0
  151.9601  139.8909  156.7623 C   0  0  0  0  0  0  0  0  0  0  0  0
  151.1268  140.9478  156.8199 N   0  0  0  0  0  0  0  0  0  0  0  0
  150.1120  141.3200  155.8464 C   0  0  0  0  0  0  0  0  0  0  0  0
  149.8122  140.2171  154.8048 C   0  0  2  0  0  0  0  0  0  0  0  0
  149.8681  140.7764  153.5083 O   0  0  0  0  0  0  0  0  0  0  0  0
  148.4298  139.5454  154.9572 C   0  0  0  0  0  0  0  0  0  0  0  0
  147.4783  139.8070  153.8717 N   0  0  0  0  0  0  0  0  0  0  0  0
  146.3805  138.8417  153.8365 C   0  0  0  0  0  0  0  0  0  0  0  0
  145.3687  139.0274  154.9863 C   0  0  0  0  0  0  0  0  0  0  0  0
  144.8187  140.4096  154.9721 N   0  3  0  0  0  0  0  0  0  0  0  0
  143.7911  140.6565  156.0160 C   0  0  0  0  0  0  0  0  0  0  0  0
  142.5356  139.7799  155.8361 C   0  0  1  0  0  0  0  0  0  0  0  0
  141.4992  140.0250  156.9406 C   0  0  0  0  0  0  0  0  0  0  0  0
  141.9319  140.0778  154.5930 O   0  0  0  0  0  0  0  0  0  0  0  0
  145.9167  141.4100  155.0107 C   0  0  0  0  0  0  0  0  0  0  0  0
  146.9132  141.1578  153.8618 C   0  0  0  0  0  0  0  0  0  0  0  0
  151.4467  141.5904  158.0119 C   0  0  0  0  0  0  0  0  0  0  0  0
  150.9522  142.7347  158.6626 C   0  0  0  0  0  0  0  0  0  0  0  0
  151.5218  143.1428  159.8863 C   0  0  0  0  0  0  0  0  0  0  0  0
  150.9864  144.3866  160.5727 C   0  0  0  0  0  0  0  0  0  0  0  0
  154.0128  142.1298  162.0631 H   0  0  0  0  0  0  0  0  0  0  0  0
  152.4687  142.8146  162.5676 H   0  0  0  0  0  0  0  0  0  0  0  0
  153.6393  143.8107  161.6892 H   0  0  0  0  0  0  0  0  0  0  0  0
  153.8706  140.6652  160.2302 H   0  0  0  0  0  0  0  0  0  0  0  0
  151.9364  139.1971  155.9348 H   0  0  0  0  0  0  0  0  0  0  0  0
  149.2022  141.5929  156.3828 H   0  0  0  0  0  0  0  0  0  0  0  0
  150.4434  142.2253  155.3371 H   0  0  0  0  0  0  0  0  0  0  0  0
  150.6006  139.4666  154.8470 H   0  0  0  0  0  0  0  0  0  0  0  0
  149.6674  140.1000  152.8794 H   0  0  0  0  0  0  0  0  0  0  0  0
  148.5824  138.4683  155.0383 H   0  0  0  0  0  0  0  0  0  0  0  0
  147.9973  139.8444  155.9118 H   0  0  0  0  0  0  0  0  0  0  0  0
  145.8552  138.9368  152.8851 H   0  0  0  0  0  0  0  0  0  0  0  0
  146.7794  137.8266  153.8525 H   0  0  0  0  0  0  0  0  0  0  0  0
  144.5666  138.3004  154.8672 H   0  0  0  0  0  0  0  0  0  0  0  0
  145.8356  138.8204  155.9502 H   0  0  0  0  0  0  0  0  0  0  0  0
  144.2340  140.4934  156.9998 H   0  0  0  0  0  0  0  0  0  0  0  0
  143.4878  141.7046  155.9906 H   0  0  0  0  0  0  0  0  0  0  0  0
  142.7988  138.7228  155.8438 H   0  0  0  0  0  0  0  0  0  0  0  0
  141.9109  139.7880  157.9220 H   0  0  0  0  0  0  0  0  0  0  0  0
  140.6155  139.4020  156.7970 H   0  0  0  0  0  0  0  0  0  0  0  0
  141.1732  141.0656  156.9593 H   0  0  0  0  0  0  0  0  0  0  0  0
  142.6036  140.1112  153.9283 H   0  0  0  0  0  0  0  0  0  0  0  0
  145.4994  142.4121  154.9061 H   0  0  0  0  0  0  0  0  0  0  0  0
  146.4185  141.3784  155.9787 H   0  0  0  0  0  0  0  0  0  0  0  0
  147.7054  141.9051  153.8825 H   0  0  0  0  0  0  0  0  0  0  0  0
  146.3964  141.3140  152.9139 H   0  0  0  0  0  0  0  0  0  0  0  0
  150.1444  143.2982  158.2204 H   0  0  0  0  0  0  0  0  0  0  0  0
  150.1760  144.8390  160.0002 H   0  0  0  0  0  0  0  0  0  0  0  0
  151.7750  145.1314  160.6811 H   0  0  0  0  0  0  0  0  0  0  0  0
  150.6010  144.1412  161.5625 H   0  0  0  0  0  0  0  0  0  0  0  0
  144.3575  140.5330  154.0818 H   0  0  0  0  0  0  0  0  0  0  0  0
  1  2  1  0  0  0  0
  1 26  1  0  0  0  0
  1 27  1  0  0  0  0
  1 28  1  0  0  0  0
  2 24  1  0  0  0  0
  2  3  2  0  0  0  0
  3  4  1  0  0  0  0
  3 29  1  0  0  0  0
  4 22  2  0  0  0  0
  4  5  1  0  0  0  0
  5  6  2  0  0  0  0
  6  7  1  0  0  0  0
  6 30  1  0  0  0  0
  7  8  1  0  0  0  0
  7 22  1  0  0  0  0
  8  9  1  0  0  0  0
  8 31  1  0  0  0  0
  8 32  1  0  0  0  0
  9 10  1  0  0  0  0
  9 11  1  0  0  0  0
  9 33  1  0  0  0  0
 10 34  1  0  0  0  0
 11 12  1  0  0  0  0
 11 35  1  0  0  0  0
 11 36  1  0  0  0  0
 12 21  1  0  0  0  0
 12 13  1  0  0  0  0
 13 14  1  0  0  0  0
 13 37  1  0  0  0  0
 13 38  1  0  0  0  0
 14 15  1  0  0  0  0
 14 39  1  0  0  0  0
 14 40  1  0  0  0  0
 15 16  1  0  0  0  0
 15 20  1  0  0  0  0
 15 56  1  0  0  0  0
 16 17  1  0  0  0  0
 16 41  1  0  0  0  0
 16 42  1  0  0  0  0
 17 18  1  0  0  0  0
 17 19  1  0  0  0  0
 17 43  1  0  0  0  0
 18 44  1  0  0  0  0
 18 45  1  0  0  0  0
 18 46  1  0  0  0  0
 19 47  1  0  0  0  0
 20 21  1  0  0  0  0
 20 48  1  0  0  0  0
 20 49  1  0  0  0  0
 21 50  1  0  0  0  0
 21 51  1  0  0  0  0
 22 23  1  0  0  0  0
 23 24  2  0  0  0  0
 23 52  1  0  0  0  0
 24 25  1  0  0  0  0
 25 53  1  0  0  0  0
 25 54  1  0  0  0  0
 25 55  1  0  0  0  0
M  CHG  1  15   1
M  END
> <s_m_source_file>
AV-unprocessed.smi

> <i_m_source_file_index>
1033

> <i_lp_mmshare_version>
43012

> <i_f3d_flags>
0

> <s_epik_input>
W0NIM11jKFtjSF0xKWMoW0NIM10pW2NIXWMoYzEyKW4oW2NIXW4yKVtDSDJdW0NASF0oW09IXSlbQ0gyXU4zW0NIMl1bQ0gyXU4oW0NIMl1bQ0gyXTMpW0NIMl1bQ0BIXShbQ0gzXSlbT0hd

> <s_epik_cmdline>
J2VwaWtfcHl0aG9uJywgJy1waCcsICc3LjAnLCAnLXRuJywgJzgnLCAnLW1hJywgJzIwMCcsICctbWV0YWxfYmluZGluZycsICctaW1hZScsICc8aW5maWxlLm1hZT4nLCAnLW9tYWUnLCAnPG91dGZpbGUubWFlPic=

> <r_epik_Ionization_Penalty>
0.129152

> <r_epik_Ionization_Penalty_Charging>
0.00083231

> <r_epik_Ionization_Penalty_Neutral>
0.128319

> <r_epik_State_Penalty>
0.556973

> <r_epik_Charging_Adjusted_Penalty>
0.557805

> <i_epik_Tot_Q>
1

> <i_epik_Tot_abs_Q>
1

> <r_epik_Metal_State_Penalty>
0.490047

> <b_epik_Metal_Only>
0

> <s_lp_Force_Field>
OPLS_2005

> <r_lp_Energy>
31.9095

> <b_lp_Chiralities_Consistent>
1

> <s_lp_Variant>
AV-unprocessed.smi:1033-7

> <Gold.Version>
5.8.1

> <Gold.Id.Protein>
6NUR|6NUR_protein|mol2

> <Gold.PLP.Fitness>
56.7095

> <Gold.PLP.PLP>
-42.0601

> <Gold.PLP.part.hbond>
-5.3900

> <Gold.PLP.part.metal>
0.0000

> <Gold.PLP.part.buried>
-4.6811

> <Gold.PLP.part.nonpolar>
-32.0866

> <Gold.PLP.part.repulsive>
0.1575

> <Gold.PLP.ligand.clash>
0.0000

> <Gold.PLP.ligand.torsion>
1.7125

> <Gold.PLP.Chemscore.Hbond>
5.9360

> <Gold.PLP.Chemscore.CHOScore>
0.0000

> <Gold.PLP.Chemscore.Metal>
0.0000

> <Gold.Chemscore.Hbonds>
donor molecule, donor type, donor heavy atom, donor atom, acceptor molecule, acceptor atom, score
      L1  H    10    34       P1  7957  0.67
      L1  H    15    56       P1 10175  2.00
      L1  H    19    47       P1 10175  1.00
      P1  H  7989  7998       L1    10  0.29
      P1  H  7997  8010       L1     5  1.00
      P1  H  8011  8017       L1    10  1.00

> <Gold.PLP.Chemscore.Internal.Correction>
0.2664

> <Gold.Rescore>
     Score         DG    S(hbond)    S(metal)    S(lipo)     H(rot)  DE(clash)    DE(int)     intcor
     21.49     -23.71       3.91        0.00     111.31       3.07       0.42       1.80       ----

> <Gold.Chemscore.Fitness>
21.4906

> <Gold.Chemscore.DG>
-23.7148

> <Gold.Chemscore.ZeroCoef>
-5.4800

> <Gold.Chemscore.Hbond>
3.9095

> <Gold.Chemscore.Metal>
0.0000

> <Gold.Chemscore.Lipo>
111.3138

> <Gold.Chemscore.Internal_Hbond>
0.0000

> <Gold.Chemscore.DEClash>
0.4206

> <Gold.Chemscore.DEInternal>
1.8036

> <Gold.Chemscore.Rot>
3.0650

> <Gold.Chemscore.Internal.Correction>
   9.000000E+99

> <Gold.Chemscore.Hbonds>
donor molecule, donor type, donor heavy atom, donor atom, acceptor molecule, acceptor atom, score
      L1  H    10    34       P1  7957  0.68
      L1  H    15    56       P1 10175  1.00
      L1  H    19    47       P1 10175  0.98
      P1  H  7989  7998       L1    10  0.02
      P1  H  7997  8010       L1     5  0.35
      P1  H  8011  8017       L1    10  0.28

> <Gold.Chemscore.Hbond.Weighted>
-13.0576

> <Gold.Chemscore.Metal.Weighted>
-0.0000

> <Gold.Chemscore.Lipo.Weighted>
-13.0237

> <Gold.Chemscore.Internal_Hbond.Weighted>
0.0000

> <Gold.Chemscore.DEClash.Weighted>
0.4206

> <Gold.Chemscore.DEInternal.Weighted>
1.8036

> <Gold.Chemscore.Rot.Weighted>
7.8465

> <Gold.Chemscore.Internal.Correction.Weighted>
   9.000000E+99

> <Gold.Protein.RotatedTorsions>
[ 6907 6896 6895 6894 ] final  149.84 input  -60.11 | X-H torsion
[ 7974 7965 7964 7962 ] final -161.61 input  175.53 | X-H torsion
[ 8008 7997 7996 7995 ] final   34.18 input   59.86 | X-H torsion
[ 10167 10162 10161 10158 ] final   91.92 input  -65.29 | X-H torsion
[ 10718 10713 10712 10709 ] final  115.65 input   66.30 | X-H torsion
[ 10763 10752 10751 10750 ] final  -64.72 input  -60.55 | X-H torsion
[ 11005 11000 10999 10996 ] final   24.14 input  -57.11 | X-H torsion

> <Gold.Protein.ActiveResidues>
 VAL166  LYS551  ARG553  GLY616  TRP617  ASP618  TYR619  PRO620  LYS621  CYS622 
 ASP623  PHE694  ASN695  SER759  ASP760  ASP761  ALA762  ILE779  LEU786  VAL792 
 PHE793  MET794  SER795  GLU796  ALA797  LYS798  CYS799  TRP800  GLU811  SER814 

> <Gold.Protein.RotatedAtoms>
  152.1226  133.4362  159.4682 H   0  0  0  0  0  0  0  0  0  0  0  0  # atno 6907 bound_to 6896
  150.6873  134.2517  159.4522 H   0  0  0  0  0  0  0  0  0  0  0  0  # atno 6908 bound_to 6896
  152.0394  134.9720  160.0624 H   0  0  0  0  0  0  0  0  0  0  0  0  # atno 6909 bound_to 6896
  144.7385  140.3372  143.6142 H   0  0  0  0  0  0  0  0  0  0  0  0  # atno 7974 bound_to 7965
  155.1506  140.3274  155.4432 H   0  0  0  0  0  0  0  0  0  0  0  0  # atno 8008 bound_to 7997
  156.2575  140.1977  156.6568 H   0  0  0  0  0  0  0  0  0  0  0  0  # atno 8009 bound_to 7997
  154.6476  140.0562  156.9905 H   0  0  0  0  0  0  0  0  0  0  0  0  # atno 8010 bound_to 7997
  139.8327  144.6679  150.9380 H   0  0  0  0  0  0  0  0  0  0  0  0  # atno 10167 bound_to 10162
  157.6209  131.1015  150.7360 H   0  0  0  0  0  0  0  0  0  0  0  0  # atno 10718 bound_to 10713
  154.3343  135.6170  153.5566 H   0  0  0  0  0  0  0  0  0  0  0  0  # atno 10763 bound_to 10752
  152.9809  135.5754  154.4926 H   0  0  0  0  0  0  0  0  0  0  0  0  # atno 10764 bound_to 10752
  154.4618  135.2856  155.1684 H   0  0  0  0  0  0  0  0  0  0  0  0  # atno 10765 bound_to 10752
  140.3620  134.2115  155.7671 H   0  0  0  0  0  0  0  0  0  0  0  0  # atno 11005 bound_to 11000
  145.7411  139.1764  143.2375 LP  0  0  0  0  0  0  0  0  0  0  0  0  # atno 17320 bound_to 7965
  146.1133  140.7401  142.9493 LP  0  0  0  0  0  0  0  0  0  0  0  0  # atno 17321 bound_to 7965
  140.7805  143.3986  151.1188 LP  0  0  0  0  0  0  0  0  0  0  0  0  # atno 17342 bound_to 10162
  139.7638  143.8596  152.3106 LP  0  0  0  0  0  0  0  0  0  0  0  0  # atno 17343 bound_to 10162
  156.7717  130.4831  149.5417 LP  0  0  0  0  0  0  0  0  0  0  0  0  # atno 17370 bound_to 10713
  156.1354  130.6207  151.0393 LP  0  0  0  0  0  0  0  0  0  0  0  0  # atno 17371 bound_to 10713
  141.1981  133.8043  157.0597 LP  0  0  0  0  0  0  0  0  0  0  0  0  # atno 17394 bound_to 11000
  140.0619  134.9750  157.1320 LP  0  0  0  0  0  0  0  0  0  0  0  0  # atno 17395 bound_to 11000

$$$$
