#       Name:                AV-unprocessed.smi:1299
#       Creating user name   scv26
#       Creation time:       Fri Mar 27 04:57:42 2020


#       File generated by GOLD software.
#

@<TRIPOS>MOLECULE
AV-unprocessed.smi:1299
    45    46     1
SMALL
NO_CHARGES


@<TRIPOS>ATOM
      1 ****        -3.7040   1.9031   1.2245 C.3            1 S1                 0.0000
      2 ****        -4.0226   2.5951  -0.0896 C.2            1 S1                 0.0000
      3 ****        -4.5235   3.8283  -0.2164 C.2            1 S1                 0.0000
      4 ****        -4.7246   4.3084  -1.8834 S.3            1 S1                 0.0000
      5 ****        -4.0770   2.7196  -2.4279 C.2            1 S1                 0.0000
      6 ****        -3.9546   2.4207  -3.6147 O.2            1 S1                 0.0000
      7 ****        -3.7671   1.9488  -1.3075 N.am           1 S1                 0.0000
      8 ****        -3.2268   0.5863  -1.4075 C.3            1 S1                 0.0000
      9 ****        -1.6961   0.5471  -1.5132 C.2            1 S1                 0.0000
     10 ****        -1.0218   1.5668  -1.3602 O.2            1 S1                 0.0000
     11 ****        -1.1578  -0.6555  -1.7660 N.am           1 S1                 0.0000
     12 ****         0.2695  -0.9219  -1.9061 C.3            1 S1                 0.0000
     13 ****         0.9671  -1.0124  -0.5336 C.3            1 S1                 0.0000
     14 ****         2.4687  -1.3325  -0.6222 C.2            1 S1                 0.0000
     15 ****         3.0083  -1.4473  -1.7236 O.2            1 S1                 0.0000
     16 ****         3.1558  -1.4810   0.5296 N.am           1 S1                 0.0000
     17 ****         2.6014  -1.3562   1.8775 C.3            1 S1                 0.0000
     18 ****         3.8039  -1.3669   2.8218 C.3            1 S1                 0.0000
     19 ****         4.8787  -2.1193   2.0499 C.3            1 S1                 0.0000
     20 ****         4.5818  -1.7974   0.5851 C.3            1 S1                 0.0000
     21 ****        -3.6273   2.6358   2.0282 H              1 S1                 0.0000
     22 ****        -2.7555   1.3679   1.1814 H              1 S1                 0.0000
     23 ****        -4.4950   1.1990   1.4827 H              1 S1                 0.0000
     24 ****        -4.7813   4.5004   0.5887 H              1 S1                 0.0000
     25 ****        -3.5477  -0.0240  -0.5634 H              1 S1                 0.0000
     26 ****        -3.6449   0.0979  -2.2894 H              1 S1                 0.0000
     27 ****        -1.7812  -1.4422  -1.8754 H              1 S1                 0.0000
     28 ****         0.3803  -1.8625  -2.4470 H              1 S1                 0.0000
     29 ****         0.7298  -0.1494  -2.5253 H              1 S1                 0.0000
     30 ****         0.8478  -0.0672  -0.0030 H              1 S1                 0.0000
     31 ****         0.4803  -1.7802   0.0689 H              1 S1                 0.0000
     32 ****         2.0158  -0.4450   2.0054 H              1 S1                 0.0000
     33 ****         1.9533  -2.2109   2.0767 H              1 S1                 0.0000
     34 ****         4.1348  -0.3432   3.0021 H              1 S1                 0.0000
     35 ****         3.5798  -1.8201   3.7877 H              1 S1                 0.0000
     36 ****         5.8893  -1.8390   2.3483 H              1 S1                 0.0000
     37 ****         4.7656  -3.1909   2.2189 H              1 S1                 0.0000
     38 ****         4.8434  -2.6340  -0.0649 H              1 S1                 0.0000
     39 ****         5.1515  -0.9250   0.2612 H              1 S1                 0.0000
     40 ****        -4.2200   3.0731  -4.3245 LP             1 S1                 0.0000
     41 ****        -3.5896   1.5253  -3.8697 LP             1 S1                 0.0000
     42 ****        -1.4709   2.4384  -1.1636 LP             1 S1                 0.0000
     43 ****        -0.0253   1.5228  -1.4325 LP             1 S1                 0.0000
     44 ****         2.4701  -1.3324  -2.5585 LP             1 S1                 0.0000
     45 ****         3.9847  -1.6555  -1.7828 LP             1 S1                 0.0000
@<TRIPOS>BOND
    1    1    2 1     
    2    1   21 1     
    3    1   22 1     
    4    1   23 1     
    5    2    7 1     
    6    2    3 2     
    7    3    4 1     
    8    3   24 1     
    9    4    5 1     
   10    5    6 2     
   11    5    7 am    
   12    7    8 1     
   13    8    9 1     
   14    8   25 1     
   15    8   26 1     
   16    9   10 2     
   17    9   11 am    
   18   11   12 1     
   19   11   27 1     
   20   12   13 1     
   21   12   28 1     
   22   12   29 1     
   23   13   14 1     
   24   13   30 1     
   25   13   31 1     
   26   14   15 2     
   27   14   16 am    
   28   16   20 1     
   29   16   17 1     
   30   17   18 1     
   31   17   32 1     
   32   17   33 1     
   33   18   19 1     
   34   18   34 1     
   35   18   35 1     
   36   19   20 1     
   37   19   36 1     
   38   19   37 1     
   39   20   38 1     
   40   20   39 1     
   41    6   40 1     
   42    6   41 1     
   43   10   42 1     
   44   10   43 1     
   45   15   44 1     
   46   15   45 1     
@<TRIPOS>SUBSTRUCTURE
      1 S1             1
@<TRIPOS>SET
LONE_PAIRS      STATIC     ATOMS    <user>   **** ""
6 40 41 42 43 44 45
DONOR_HYDROGENS      STATIC     ATOMS    <user>   **** ""
1 27
ATOM$BLUE        STATIC     ATOMS    COLORGROUP SYSTEM
6 40 41 42 43 44 45
ATOM$RED        STATIC     ATOMS    COLORGROUP SYSTEM
1 27
