AV-unprocessed.smi:287|AV-procd|sdf|2205|dock10
  -GOLD-   2262022 33D 1   1.00000     0.00000
 Structure written by MMmdl.
 55 58  0  0  0  0  0  0  0  0  1 V2000
  151.6880  145.3161  159.2416 C   0  0  0  0  0  0  0  0  0  0  0  0
  151.9058  143.8778  158.9188 C   0  0  0  0  0  0  0  0  0  0  0  0
  151.3366  143.0130  158.0307 C   0  0  0  0  0  0  0  0  0  0  0  0
  151.9708  141.7464  158.2023 C   0  0  0  0  0  0  0  0  0  0  0  0
  151.6444  140.4761  157.4278 C   0  0  1  0  0  0  0  0  0  0  0  0
  151.6158  140.7749  155.9195 C   0  0  0  0  0  0  0  0  0  0  0  0
  152.6209  139.4655  157.5882 O   0  0  0  0  0  0  0  0  0  0  0  0
  150.3026  139.8513  157.8743 C   0  0  0  0  0  0  0  0  0  0  0  0
  149.9140  138.7071  157.0559 N   0  0  0  0  0  0  0  0  0  0  0  0
  148.8180  138.7729  156.2718 C   0  0  0  0  0  0  0  0  0  0  0  0
  148.1568  139.9452  156.0888 N   0  0  0  0  0  0  0  0  0  0  0  0
  147.0699  139.9818  155.3123 C   0  0  0  0  0  0  0  0  0  0  0  0
  146.4892  138.9837  154.6427 N   0  0  0  0  0  0  0  0  0  0  0  0
  147.1506  137.8035  154.8210 C   0  0  0  0  0  0  0  0  0  0  0  0
  148.3164  137.6194  155.6162 C   0  0  0  0  0  0  0  0  0  0  0  0
  148.7125  136.2895  155.5725 N   0  0  0  0  0  0  0  0  0  0  0  0
  147.8286  135.7232  154.7963 C   0  0  0  0  0  0  0  0  0  0  0  0
  146.8503  136.5579  154.3026 N   0  0  0  0  0  0  0  0  0  0  0  0
  145.7119  136.1798  153.4019 C   0  0  2  0  0  0  0  0  0  0  0  0
  145.8449  134.8436  153.0124 O   0  0  0  0  0  0  0  0  0  0  0  0
  145.9509  134.7424  151.5919 C   0  0  1  0  0  0  0  0  0  0  0  0
  145.3191  133.4255  151.1155 C   0  0  0  0  0  0  0  0  0  0  0  0
  144.9215  133.5375  149.7659 O   0  0  0  0  0  0  0  0  0  0  0  0
  145.2068  135.9881  151.1078 C   0  0  2  0  0  0  0  0  0  0  0  0
  145.5180  136.3499  149.7760 O   0  0  0  0  0  0  0  0  0  0  0  0
  145.6365  137.0363  152.1234 C   0  0  2  0  0  0  0  0  0  0  0  0
  146.8670  137.6565  151.7797 O   0  0  0  0  0  0  0  0  0  0  0  0
  152.8999  141.9511  159.1943 C   0  0  0  0  0  0  0  0  0  0  0  0
  153.9056  141.0798  159.8719 C   0  0  0  0  0  0  0  0  0  0  0  0
  152.8654  143.2401  159.6347 O   0  0  0  0  0  0  0  0  0  0  0  0
  144.8228  136.2752  154.0266 H   0  0  0  0  0  0  0  0  0  0  0  0
  146.9987  134.8066  151.2936 H   0  0  0  0  0  0  0  0  0  0  0  0
  144.1308  135.8261  151.1897 H   0  0  0  0  0  0  0  0  0  0  0  0
  144.8827  137.8144  152.2483 H   0  0  0  0  0  0  0  0  0  0  0  0
  150.8918  145.7367  158.6271 H   0  0  0  0  0  0  0  0  0  0  0  0
  152.5946  145.8942  159.0625 H   0  0  0  0  0  0  0  0  0  0  0  0
  151.4080  145.4393  160.2878 H   0  0  0  0  0  0  0  0  0  0  0  0
  150.5449  143.2579  157.3381 H   0  0  0  0  0  0  0  0  0  0  0  0
  150.8607  141.5239  155.6779 H   0  0  0  0  0  0  0  0  0  0  0  0
  151.3856  139.8808  155.3385 H   0  0  0  0  0  0  0  0  0  0  0  0
  152.5772  141.1561  155.5725 H   0  0  0  0  0  0  0  0  0  0  0  0
  152.6723  139.2418  158.5048 H   0  0  0  0  0  0  0  0  0  0  0  0
  150.4141  139.4903  158.8981 H   0  0  0  0  0  0  0  0  0  0  0  0
  149.5069  140.5976  157.8917 H   0  0  0  0  0  0  0  0  0  0  0  0
  150.4423  137.8589  157.2042 H   0  0  0  0  0  0  0  0  0  0  0  0
  146.5963  140.9474  155.2142 H   0  0  0  0  0  0  0  0  0  0  0  0
  147.8638  134.6687  154.5642 H   0  0  0  0  0  0  0  0  0  0  0  0
  146.0048  132.5873  151.2423 H   0  0  0  0  0  0  0  0  0  0  0  0
  144.4258  133.2047  151.7006 H   0  0  0  0  0  0  0  0  0  0  0  0
  145.5674  134.0486  149.3029 H   0  0  0  0  0  0  0  0  0  0  0  0
  145.2279  137.2391  149.6368 H   0  0  0  0  0  0  0  0  0  0  0  0
  147.5733  137.1272  152.1172 H   0  0  0  0  0  0  0  0  0  0  0  0
  154.5854  140.6365  159.1443 H   0  0  0  0  0  0  0  0  0  0  0  0
  153.4137  140.2719  160.4141 H   0  0  0  0  0  0  0  0  0  0  0  0
  154.5030  141.6473  160.5860 H   0  0  0  0  0  0  0  0  0  0  0  0
  1  2  1  0  0  0  0
  1 35  1  0  0  0  0
  1 36  1  0  0  0  0
  1 37  1  0  0  0  0
  2 30  1  0  0  0  0
  2  3  2  0  0  0  0
  3  4  1  0  0  0  0
  3 38  1  0  0  0  0
  4  5  1  0  0  0  0
  4 28  2  0  0  0  0
  5  6  1  0  0  0  0
  5  7  1  0  0  0  0
  5  8  1  0  0  0  0
  6 39  1  0  0  0  0
  6 40  1  0  0  0  0
  6 41  1  0  0  0  0
  7 42  1  0  0  0  0
  8  9  1  0  0  0  0
  8 43  1  0  0  0  0
  8 44  1  0  0  0  0
  9 10  1  0  0  0  0
  9 45  1  0  0  0  0
 10 15  1  0  0  0  0
 10 11  2  0  0  0  0
 11 12  1  0  0  0  0
 12 13  2  0  0  0  0
 12 46  1  0  0  0  0
 13 14  1  0  0  0  0
 14 18  1  0  0  0  0
 14 15  2  0  0  0  0
 15 16  1  0  0  0  0
 16 17  2  0  0  0  0
 17 18  1  0  0  0  0
 17 47  1  0  0  0  0
 18 19  1  0  0  0  0
 19 31  1  0  0  0  0
 19 26  1  0  0  0  0
 19 20  1  0  0  0  0
 20 21  1  0  0  0  0
 21 32  1  0  0  0  0
 21 22  1  0  0  0  0
 21 24  1  0  0  0  0
 22 23  1  0  0  0  0
 22 48  1  0  0  0  0
 22 49  1  0  0  0  0
 23 50  1  0  0  0  0
 24 33  1  0  0  0  0
 24 25  1  0  0  0  0
 24 26  1  0  0  0  0
 25 51  1  0  0  0  0
 26 34  1  0  0  0  0
 26 27  1  0  0  0  0
 27 52  1  0  0  0  0
 28 29  1  0  0  0  0
 28 30  1  0  0  0  0
 29 53  1  0  0  0  0
 29 54  1  0  0  0  0
 29 55  1  0  0  0  0
M  END
> <s_m_source_file>
AV-unprocessed.smi

> <i_m_source_file_index>
287

> <i_lp_mmshare_version>
43012

> <i_f3d_flags>
0

> <s_epik_input>
W0NIM11jMVtjSF1jKGMobzEpW0NIM10pW0NAQF0oW0NIM10pKFtPSF0pW0NIMl1bTkhdYyhuW2NIXW4yKWMoYzIzKW5bY0hdbjNbQ0BASF00T1tDQEhdKFtDSDJdW09IXSlbQ0BASF0oW09IXSlbQ0BIXTRbT0hd

> <s_epik_cmdline>
J2VwaWtfcHl0aG9uJywgJy1waCcsICc3LjAnLCAnLXRuJywgJzgnLCAnLW1hJywgJzIwMCcsICctbWV0YWxfYmluZGluZycsICctaW1hZScsICc8aW5maWxlLm1hZT4nLCAnLW9tYWUnLCAnPG91dGZpbGUubWFlPic=

> <r_lp_tautomer_probability>
1

> <r_epik_Ionization_Penalty>
0.000992612

> <r_epik_Ionization_Penalty_Charging>
0

> <r_epik_Ionization_Penalty_Neutral>
0.000992612

> <r_epik_State_Penalty>
-0

> <r_epik_Charging_Adjusted_Penalty>
0

> <i_epik_Tot_Q>
0

> <i_epik_Tot_abs_Q>
0

> <r_epik_Metal_State_Penalty>
-0

> <b_epik_Metal_Only>
0

> <s_epik_Chemistry_Notes>
This compound contains an acetal/aminal-like group ( X-CH(R)-Y where X, Y are N, S, or O) that may be acid/base labile, releasing an aldehyde.

> <s_lp_Force_Field>
OPLS_2005

> <r_lp_Energy>
50.5208

> <b_lp_Chiralities_Consistent>
1

> <s_lp_Variant>
AV-unprocessed.smi:287-29

> <Gold.Version>
5.8.1

> <Gold.Id.Protein>
6NUR|6NUR_protein|mol2

> <Gold.PLP.Fitness>
52.0244

> <Gold.PLP.PLP>
-41.5019

> <Gold.PLP.part.hbond>
-4.9770

> <Gold.PLP.part.metal>
0.0000

> <Gold.PLP.part.buried>
-6.1027

> <Gold.PLP.part.nonpolar>
-29.9856

> <Gold.PLP.part.repulsive>
0.2552

> <Gold.PLP.ligand.clash>
0.0000

> <Gold.PLP.ligand.torsion>
0.7675

> <Gold.PLP.Chemscore.Hbond>
4.0015

> <Gold.PLP.Chemscore.CHOScore>
0.0000

> <Gold.PLP.Chemscore.Metal>
0.0000

> <Gold.Chemscore.Hbonds>
donor molecule, donor type, donor heavy atom, donor atom, acceptor molecule, acceptor atom, score
      L1  H    23    50       P1  7921  0.94
      L1  H    25    51       P1 10171  1.00
      L1  H    27    52       P1  7948  0.98
      P1  H  7954  7966       L1    27  0.09
      P1  H  7997  8008       L1     7  0.91

> <Gold.PLP.Chemscore.Internal.Correction>
0.0530

> <Gold.Rescore>
     Score         DG    S(hbond)    S(metal)    S(lipo)     H(rot)  DE(clash)    DE(int)     intcor
     14.09     -16.26       3.62        0.00     104.06       5.27       0.25       1.92       ----

> <Gold.Chemscore.Fitness>
14.0869

> <Gold.Chemscore.DG>
-16.2581

> <Gold.Chemscore.ZeroCoef>
-5.4800

> <Gold.Chemscore.Hbond>
3.6188

> <Gold.Chemscore.Metal>
0.0000

> <Gold.Chemscore.Lipo>
104.0635

> <Gold.Chemscore.Internal_Hbond>
0.0000

> <Gold.Chemscore.DEClash>
0.2465

> <Gold.Chemscore.DEInternal>
1.9248

> <Gold.Chemscore.Rot>
5.2672

> <Gold.Chemscore.Internal.Correction>
   9.000000E+99

> <Gold.Chemscore.Hbonds>
donor molecule, donor type, donor heavy atom, donor atom, acceptor molecule, acceptor atom, score
      L1  H    23    50       P1  7921  0.64
      L1  H    25    51       P1 10171  0.94
      L1  H    27    52       P1  7948  0.92
      P1  H  7997  8008       L1     7  0.60

> <Gold.Chemscore.Hbond.Weighted>
-12.0866

> <Gold.Chemscore.Metal.Weighted>
-0.0000

> <Gold.Chemscore.Lipo.Weighted>
-12.1754

> <Gold.Chemscore.Internal_Hbond.Weighted>
0.0000

> <Gold.Chemscore.DEClash.Weighted>
0.2465

> <Gold.Chemscore.DEInternal.Weighted>
1.9248

> <Gold.Chemscore.Rot.Weighted>
13.4839

> <Gold.Chemscore.Internal.Correction.Weighted>
   9.000000E+99

> <Gold.Protein.RotatedTorsions>
[ 6907 6896 6895 6894 ] final  139.93 input  -60.11 | X-H torsion
[ 7974 7965 7964 7962 ] final   36.02 input  175.53 | X-H torsion
[ 8008 7997 7996 7995 ] final  -68.82 input   59.86 | X-H torsion
[ 10167 10162 10161 10158 ] final   16.51 input  -65.29 | X-H torsion
[ 10718 10713 10712 10709 ] final -132.39 input   66.30 | X-H torsion
[ 10763 10752 10751 10750 ] final   29.73 input  -60.55 | X-H torsion
[ 11005 11000 10999 10996 ] final  -37.50 input  -57.11 | X-H torsion

> <Gold.Protein.ActiveResidues>
 VAL166  LYS551  ARG553  GLY616  TRP617  ASP618  TYR619  PRO620  LYS621  CYS622 
 ASP623  PHE694  ASN695  SER759  ASP760  ASP761  ALA762  ILE779  LEU786  VAL792 
 PHE793  MET794  SER795  GLU796  ALA797  LYS798  CYS799  TRP800  GLU811  SER814 

> <Gold.Protein.RotatedAtoms>
  152.2491  133.5200  159.5314 H   0  0  0  0  0  0  0  0  0  0  0  0  # atno 6907 bound_to 6896
  150.7088  134.0984  159.3966 H   0  0  0  0  0  0  0  0  0  0  0  0  # atno 6908 bound_to 6896
  151.8904  135.0418  160.0548 H   0  0  0  0  0  0  0  0  0  0  0  0  # atno 6909 bound_to 6896
  146.1241  139.6070  142.9270 H   0  0  0  0  0  0  0  0  0  0  0  0  # atno 7974 bound_to 7965
  154.4895  140.0865  156.7561 H   0  0  0  0  0  0  0  0  0  0  0  0  # atno 8008 bound_to 7997
  155.4267  140.3448  155.4258 H   0  0  0  0  0  0  0  0  0  0  0  0  # atno 8009 bound_to 7997
  156.1309  140.1501  156.9055 H   0  0  0  0  0  0  0  0  0  0  0  0  # atno 8010 bound_to 7997
  140.5792  143.9013  150.6775 H   0  0  0  0  0  0  0  0  0  0  0  0  # atno 10167 bound_to 10162
  156.2341  130.7056  151.0889 H   0  0  0  0  0  0  0  0  0  0  0  0  # atno 10718 bound_to 10713
  153.0413  135.6481  154.0936 H   0  0  0  0  0  0  0  0  0  0  0  0  # atno 10763 bound_to 10752
  154.0642  135.2885  155.3321 H   0  0  0  0  0  0  0  0  0  0  0  0  # atno 10764 bound_to 10752
  154.6637  135.5382  153.8115 H   0  0  0  0  0  0  0  0  0  0  0  0  # atno 10765 bound_to 10752
  140.9957  133.6981  156.1930 H   0  0  0  0  0  0  0  0  0  0  0  0  # atno 11005 bound_to 11000
  145.5402  141.0421  143.2335 LP  0  0  0  0  0  0  0  0  0  0  0  0  # atno 17320 bound_to 7965
  144.7625  139.6922  143.7228 LP  0  0  0  0  0  0  0  0  0  0  0  0  # atno 17321 bound_to 7965
  140.2508  143.3594  152.1407 LP  0  0  0  0  0  0  0  0  0  0  0  0  # atno 17342 bound_to 10162
  139.5160  144.6971  151.5600 LP  0  0  0  0  0  0  0  0  0  0  0  0  # atno 17343 bound_to 10162
  157.7146  131.0716  150.6373 LP  0  0  0  0  0  0  0  0  0  0  0  0  # atno 17370 bound_to 10713
  156.6443  130.4467  149.5741 LP  0  0  0  0  0  0  0  0  0  0  0  0  # atno 17371 bound_to 10713
  140.6970  134.4605  157.5587 LP  0  0  0  0  0  0  0  0  0  0  0  0  # atno 17394 bound_to 11000
  139.9013  134.8549  156.1883 LP  0  0  0  0  0  0  0  0  0  0  0  0  # atno 17395 bound_to 11000

$$$$
