#       Name:                AV-unprocessed.smi:1760
#       Creating user name   scv26
#       Creation time:       Fri Mar 27 08:31:07 2020


#       File generated by GOLD software.
#

@<TRIPOS>MOLECULE
AV-unprocessed.smi:1760
    48    50     1
SMALL
NO_CHARGES


@<TRIPOS>ATOM
      1 ****         2.0263   0.8924  -0.0443 O.2            1 S1                 0.0000
      2 ****         1.6146  -0.2674  -0.0502 C.2            1 S1                 0.0000
      3 ****         2.3758  -1.3763  -0.0728 N.am           1 S1                 0.0000
      4 ****         3.7756  -1.4995  -0.0575 C.2            1 S1                 0.0000
      5 ****         4.6401  -0.5117   0.3058 C.2            1 S1                 0.0000
      6 ****         6.0849  -0.7056   0.3118 C.2            1 S1                 0.0000
      7 ****         7.0915   0.3667   0.6859 C.3            1 S1                 0.0000
      8 ****         7.7967  -0.0161   1.7499 F              1 S1                 0.0000
      9 ****         7.9418   0.5726  -0.3193 F              1 S1                 0.0000
     10 ****         6.4906   1.5216   0.9726 F              1 S1                 0.0000
     11 ****         6.4463  -1.9798  -0.0773 C.2            1 S1                 0.0000
     12 ****         5.6573  -3.0155  -0.4377 N.pl3          1 S1                -1.0000
     13 ****         4.3079  -2.8236  -0.4424 C.2            1 S1                 0.0000
     14 ****         3.5299  -3.7246  -0.7586 O.2            1 S1                 0.0000
     15 ****         0.3124  -0.5878  -0.0547 N.am           1 S1                 0.0000
     16 ****        -0.8021   0.3562  -0.0545 C.3            1 S1                 0.0000
     17 ****        -1.6805   0.1321   1.1876 C.3            1 S1                 0.0000
     18 ****        -2.9271   1.0320   1.1544 C.3            1 S1                 0.0000
     19 ****        -3.7079   0.8141  -0.0887 N.4            1 S1                 1.0000
     20 ****        -4.9730   1.5801  -0.0946 C.3            1 S1                 0.0000
     21 ****        -6.1008   0.8973   0.6438 C.3            1 S1                 0.0000
     22 ****        -6.0843   0.9100  -0.8686 C.3            1 S1                 0.0000
     23 ****        -2.8928   1.0718  -1.3019 C.3            1 S1                 0.0000
     24 ****        -1.6438   0.1749  -1.3288 C.3            1 S1                 0.0000
     25 ****         1.8864  -2.2562  -0.1474 H              1 S1                 0.0000
     26 ****         4.2758   0.4518   0.6212 H              1 S1                 0.0000
     27 ****         7.5355  -2.1972  -0.1016 H              1 S1                 0.0000
     28 ****         0.0749  -1.5690  -0.0644 H              1 S1                 0.0000
     29 ****        -0.4349   1.3839  -0.0309 H              1 S1                 0.0000
     30 ****        -1.9900  -0.9129   1.2417 H              1 S1                 0.0000
     31 ****        -1.1057   0.3313   2.0929 H              1 S1                 0.0000
     32 ****        -3.5522   0.8191   2.0224 H              1 S1                 0.0000
     33 ****        -2.6361   2.0815   1.2240 H              1 S1                 0.0000
     34 ****        -4.8825   2.6650  -0.0839 H              1 S1                 0.0000
     35 ****        -5.8951  -0.0497   1.1395 H              1 S1                 0.0000
     36 ****        -6.8332   1.5316   1.1392 H              1 S1                 0.0000
     37 ****        -6.8058   1.5523  -1.3695 H              1 S1                 0.0000
     38 ****        -5.8676  -0.0288  -1.3752 H              1 S1                 0.0000
     39 ****        -3.4935   0.8859  -2.1930 H              1 S1                 0.0000
     40 ****        -2.6018   2.1232  -1.3298 H              1 S1                 0.0000
     41 ****        -1.0430   0.4055  -2.2095 H              1 S1                 0.0000
     42 ****        -1.9498  -0.8677  -1.4276 H              1 S1                 0.0000
     43 ****        -3.9611  -0.1635  -0.1079 H              1 S1                 0.0000
     44 ****         3.0096   1.0740  -0.0569 LP             1 S1                 0.0000
     45 ****         1.3775   1.6532  -0.0269 LP             1 S1                 0.0000
     46 ****         6.0521  -3.8979  -0.6938 LP             1 S1                 0.0000
     47 ****         2.5438  -3.5583  -0.7540 LP             1 S1                 0.0000
     48 ****         3.8843  -4.6224  -1.0199 LP             1 S1                 0.0000
@<TRIPOS>BOND
    1    1    2 2     
    2    2    3 am    
    3    2   15 am    
    4    3    4 1     
    5    3   25 1     
    6    4   13 1     
    7    4    5 2     
    8    5    6 1     
    9    5   26 1     
   10    6    7 1     
   11    6   11 2     
   12    7    8 1     
   13    7    9 1     
   14    7   10 1     
   15   11   12 1     
   16   11   27 1     
   17   12   13 1     
   18   13   14 2     
   19   15   16 1     
   20   15   28 1     
   21   16   24 1     
   22   16   17 1     
   23   16   29 1     
   24   17   18 1     
   25   17   30 1     
   26   17   31 1     
   27   18   19 1     
   28   18   32 1     
   29   18   33 1     
   30   19   20 1     
   31   19   23 1     
   32   19   43 1     
   33   20   22 1     
   34   20   21 1     
   35   20   34 1     
   36   21   22 1     
   37   21   35 1     
   38   21   36 1     
   39   22   37 1     
   40   22   38 1     
   41   23   24 1     
   42   23   39 1     
   43   23   40 1     
   44   24   41 1     
   45   24   42 1     
   46    1   44 1     
   47    1   45 1     
   48   12   46 1     
   49   14   47 1     
   50   14   48 1     
@<TRIPOS>SUBSTRUCTURE
      1 S1             1
@<TRIPOS>SET
LONE_PAIRS      STATIC     ATOMS    <user>   **** ""
5 44 45 46 47 48
DONOR_HYDROGENS      STATIC     ATOMS    <user>   **** ""
3 25 28 43
ATOM$BLUE        STATIC     ATOMS    COLORGROUP SYSTEM
5 44 45 46 47 48
ATOM$RED        STATIC     ATOMS    COLORGROUP SYSTEM
3 25 28 43
