AV-unprocessed.smi:1606|AV-procd|sdf|6462|dock2
  -GOLD-   22720 7113D 1   1.00000     0.00000
 Structure written by MMmdl.
 36 37  0  0  0  0  0  0  0  0  2 V2000
  153.1169  139.5472  157.6411 O   0  0  0  0  0  0  0  0  0  0  0  0
  152.0392  140.1397  157.5855 C   0  0  0  0  0  0  0  0  0  0  0  0
  151.0216  139.7396  156.8075 N   0  0  0  0  0  0  0  0  0  0  0  0
  151.0394  138.5750  155.9265 C   0  0  0  0  0  0  0  0  0  0  0  0
  150.9668  138.9276  154.4251 C   0  0  0  0  0  0  0  0  0  0  0  0
  149.6583  139.5738  154.0024 C   0  0  0  0  0  0  0  0  0  0  0  0
  149.3386  140.9078  154.3361 C   0  0  0  0  0  0  0  0  0  0  0  0
  148.1007  141.4436  153.9231 C   0  0  0  0  0  0  0  0  0  0  0  0
  147.2088  140.6351  153.1879 C   0  0  0  0  0  0  0  0  0  0  0  0
  147.5782  139.3093  152.8827 C   0  0  0  0  0  0  0  0  0  0  0  0
  148.7733  138.8334  153.2950 N   0  3  0  0  0  0  0  0  0  0  0  0
  151.7928  141.3866  158.4444 C   0  0  0  0  0  0  0  0  0  0  0  0
  151.4042  142.6001  157.5803 C   0  0  0  0  0  0  0  0  0  0  0  0
  151.2617  143.8588  158.4517 C   0  0  0  0  0  0  0  0  0  0  0  0
  152.4728  144.0988  159.1612 O   0  0  0  0  0  0  0  0  0  0  0  0
  152.8117  143.0458  160.0572 C   0  0  0  0  0  0  0  0  0  0  0  0
  153.0396  141.7430  159.2736 C   0  0  0  0  0  0  0  0  0  0  0  0
  150.1736  140.2880  156.8199 H   0  0  0  0  0  0  0  0  0  0  0  0
  151.9685  138.0394  156.1233 H   0  0  0  0  0  0  0  0  0  0  0  0
  150.2306  137.8933  156.1947 H   0  0  0  0  0  0  0  0  0  0  0  0
  151.7901  139.5952  154.1687 H   0  0  0  0  0  0  0  0  0  0  0  0
  151.1193  138.0279  153.8272 H   0  0  0  0  0  0  0  0  0  0  0  0
  150.0308  141.5133  154.9032 H   0  0  0  0  0  0  0  0  0  0  0  0
  147.8377  142.4622  154.1686 H   0  0  0  0  0  0  0  0  0  0  0  0
  146.2557  141.0267  152.8632 H   0  0  0  0  0  0  0  0  0  0  0  0
  146.9596  138.6200  152.3266 H   0  0  0  0  0  0  0  0  0  0  0  0
  150.9708  141.1802  159.1328 H   0  0  0  0  0  0  0  0  0  0  0  0
  152.1607  142.7825  156.8152 H   0  0  0  0  0  0  0  0  0  0  0  0
  150.4684  142.4073  157.0539 H   0  0  0  0  0  0  0  0  0  0  0  0
  151.0440  144.7242  157.8257 H   0  0  0  0  0  0  0  0  0  0  0  0
  150.4315  143.7559  159.1523 H   0  0  0  0  0  0  0  0  0  0  0  0
  153.7178  143.3214  160.5971 H   0  0  0  0  0  0  0  0  0  0  0  0
  152.0242  142.9200  160.8019 H   0  0  0  0  0  0  0  0  0  0  0  0
  153.2785  140.9343  159.9656 H   0  0  0  0  0  0  0  0  0  0  0  0
  153.9077  141.8649  158.6235 H   0  0  0  0  0  0  0  0  0  0  0  0
  149.0202  137.8702  153.0649 H   0  0  0  0  0  0  0  0  0  0  0  0
  1  2  2  0  0  0  0
  2  3  1  0  0  0  0
  2 12  1  0  0  0  0
  3  4  1  0  0  0  0
  3 18  1  0  0  0  0
  4  5  1  0  0  0  0
  4 19  1  0  0  0  0
  4 20  1  0  0  0  0
  5  6  1  0  0  0  0
  5 21  1  0  0  0  0
  5 22  1  0  0  0  0
  6 11  1  0  0  0  0
  6  7  2  0  0  0  0
  7  8  1  0  0  0  0
  7 23  1  0  0  0  0
  8  9  2  0  0  0  0
  8 24  1  0  0  0  0
  9 10  1  0  0  0  0
  9 25  1  0  0  0  0
 10 11  2  0  0  0  0
 10 26  1  0  0  0  0
 11 36  1  0  0  0  0
 12 17  1  0  0  0  0
 12 13  1  0  0  0  0
 12 27  1  0  0  0  0
 13 14  1  0  0  0  0
 13 28  1  0  0  0  0
 13 29  1  0  0  0  0
 14 15  1  0  0  0  0
 14 30  1  0  0  0  0
 14 31  1  0  0  0  0
 15 16  1  0  0  0  0
 16 17  1  0  0  0  0
 16 32  1  0  0  0  0
 16 33  1  0  0  0  0
 17 34  1  0  0  0  0
 17 35  1  0  0  0  0
M  CHG  1  11   1
M  END
> <s_m_source_file>
AV-unprocessed.smi

> <i_m_source_file_index>
1606

> <i_lp_mmshare_version>
43012

> <i_f3d_flags>
0

> <s_epik_input>
W0NIMl0xW0NIMl1PW0NIMl1bQ0gyXVtDSF0xQyg9TylbTkhdW0NIMl1bQ0gyXWMyW2NIXVtjSF1bY0hdW2NIXW4y

> <s_epik_cmdline>
J2VwaWtfcHl0aG9uJywgJy1waCcsICc3LjAnLCAnLXRuJywgJzgnLCAnLW1hJywgJzIwMCcsICctbWV0YWxfYmluZGluZycsICctaW1hZScsICc8aW5maWxlLm1hZT4nLCAnLW9tYWUnLCAnPG91dGZpbGUubWFlPic=

> <r_epik_Ionization_Penalty>
1.82741

> <r_epik_Ionization_Penalty_Charging>
1.82741

> <r_epik_Ionization_Penalty_Neutral>
1.59153e-08

> <r_epik_State_Penalty>
1.94311

> <r_epik_Charging_Adjusted_Penalty>
3.77052

> <i_epik_Tot_Q>
1

> <i_epik_Tot_abs_Q>
1

> <r_epik_Metal_State_Penalty>
1.96982

> <b_epik_Metal_Only>
0

> <s_lp_Force_Field>
OPLS_2005

> <r_lp_Energy>
14.6238

> <b_lp_Chiralities_Consistent>
1

> <s_lp_Variant>
AV-unprocessed.smi:1606-2

> <Gold.Version>
5.8.1

> <Gold.Id.Protein>
6NUR|6NUR_protein|mol2

> <Gold.PLP.Fitness>
45.0184

> <Gold.PLP.PLP>
-36.3884

> <Gold.PLP.part.hbond>
-3.0000

> <Gold.PLP.part.metal>
0.0000

> <Gold.PLP.part.buried>
-1.8013

> <Gold.PLP.part.nonpolar>
-31.9739

> <Gold.PLP.part.repulsive>
0.1124

> <Gold.PLP.ligand.clash>
0.0000

> <Gold.PLP.ligand.torsion>
0.1992

> <Gold.PLP.Chemscore.Hbond>
3.0000

> <Gold.PLP.Chemscore.CHOScore>
0.0000

> <Gold.PLP.Chemscore.Metal>
0.0000

> <Gold.Chemscore.Hbonds>
donor molecule, donor type, donor heavy atom, donor atom, acceptor molecule, acceptor atom, score
      L1  H    11    36       P1  7948  2.00
      P1  H  7997  8008       L1     1  1.00

> <Gold.PLP.Chemscore.Internal.Correction>
0.0284

> <Gold.Rescore>
     Score         DG    S(hbond)    S(metal)    S(lipo)     H(rot)  DE(clash)    DE(int)     intcor
     19.17     -19.45       1.94        0.00      98.17       1.56       0.17       0.10       ----

> <Gold.Chemscore.Fitness>
19.1720

> <Gold.Chemscore.DG>
-19.4486

> <Gold.Chemscore.ZeroCoef>
-5.4800

> <Gold.Chemscore.Hbond>
1.9366

> <Gold.Chemscore.Metal>
0.0000

> <Gold.Chemscore.Lipo>
98.1711

> <Gold.Chemscore.Internal_Hbond>
0.0000

> <Gold.Chemscore.DEClash>
0.1717

> <Gold.Chemscore.DEInternal>
0.1049

> <Gold.Chemscore.Rot>
1.5569

> <Gold.Chemscore.Internal.Correction>
   9.000000E+99

> <Gold.Chemscore.Hbonds>
donor molecule, donor type, donor heavy atom, donor atom, acceptor molecule, acceptor atom, score
      L1  H    11    36       P1  7948  0.92
      P1  H  7997  8008       L1     1  0.98

> <Gold.Chemscore.Hbond.Weighted>
-6.4683

> <Gold.Chemscore.Metal.Weighted>
-0.0000

> <Gold.Chemscore.Lipo.Weighted>
-11.4860

> <Gold.Chemscore.Internal_Hbond.Weighted>
0.0000

> <Gold.Chemscore.DEClash.Weighted>
0.1717

> <Gold.Chemscore.DEInternal.Weighted>
0.1049

> <Gold.Chemscore.Rot.Weighted>
3.9857

> <Gold.Chemscore.Internal.Correction.Weighted>
   9.000000E+99

> <Gold.Protein.RotatedTorsions>
[ 6907 6896 6895 6894 ] final -152.60 input  -60.11 | X-H torsion
[ 7974 7965 7964 7962 ] final  -92.58 input  175.53 | X-H torsion
[ 8008 7997 7996 7995 ] final  -66.17 input   59.86 | X-H torsion
[ 10167 10162 10161 10158 ] final  -72.60 input  -65.29 | X-H torsion
[ 10718 10713 10712 10709 ] final   36.27 input   66.30 | X-H torsion
[ 10763 10752 10751 10750 ] final   57.66 input  -60.55 | X-H torsion
[ 11005 11000 10999 10996 ] final  -80.46 input  -57.11 | X-H torsion

> <Gold.Protein.ActiveResidues>
 VAL166  LYS551  ARG553  GLY616  TRP617  ASP618  TYR619  PRO620  LYS621  CYS622 
 ASP623  PHE694  ASN695  SER759  ASP760  ASP761  ALA762  ILE779  LEU786  VAL792 
 PHE793  MET794  SER795  GLU796  ALA797  LYS798  CYS799  TRP800  GLU811  SER814 

> <Gold.Protein.RotatedAtoms>
  151.2301  133.4455  159.2603 H   0  0  0  0  0  0  0  0  0  0  0  0  # atno 6907 bound_to 6896
  151.0802  134.9854  159.8362 H   0  0  0  0  0  0  0  0  0  0  0  0  # atno 6908 bound_to 6896
  152.5423  134.2241  159.8852 H   0  0  0  0  0  0  0  0  0  0  0  0  # atno 6909 bound_to 6896
  145.3980  140.9534  143.2303 H   0  0  0  0  0  0  0  0  0  0  0  0  # atno 7974 bound_to 7965
  154.4717  140.0918  156.7162 H   0  0  0  0  0  0  0  0  0  0  0  0  # atno 8008 bound_to 7997
  155.4705  140.3464  155.4307 H   0  0  0  0  0  0  0  0  0  0  0  0  # atno 8009 bound_to 7997
  156.1050  140.1432  156.9404 H   0  0  0  0  0  0  0  0  0  0  0  0  # atno 8010 bound_to 7997
  140.5179  143.2335  151.7482 H   0  0  0  0  0  0  0  0  0  0  0  0  # atno 10167 bound_to 10162
  157.3329  130.7507  149.6859 H   0  0  0  0  0  0  0  0  0  0  0  0  # atno 10718 bound_to 10713
  152.9854  135.5634  154.5427 H   0  0  0  0  0  0  0  0  0  0  0  0  # atno 10763 bound_to 10752
  154.4878  135.2791  155.1522 H   0  0  0  0  0  0  0  0  0  0  0  0  # atno 10764 bound_to 10752
  154.3004  135.6308  153.5475 H   0  0  0  0  0  0  0  0  0  0  0  0  # atno 10765 bound_to 10752
  141.1668  133.7151  156.8276 H   0  0  0  0  0  0  0  0  0  0  0  0  # atno 11005 bound_to 11000
  144.8394  139.5497  143.6907 LP  0  0  0  0  0  0  0  0  0  0  0  0  # atno 17320 bound_to 7965
  146.2766  139.6768  142.9259 LP  0  0  0  0  0  0  0  0  0  0  0  0  # atno 17321 bound_to 7965
  139.4914  144.4298  151.9885 LP  0  0  0  0  0  0  0  0  0  0  0  0  # atno 17342 bound_to 10162
  140.3393  144.3223  150.5970 LP  0  0  0  0  0  0  0  0  0  0  0  0  # atno 17343 bound_to 10162
  155.9698  130.4190  150.4354 LP  0  0  0  0  0  0  0  0  0  0  0  0  # atno 17370 bound_to 10713
  157.2389  131.0521  151.2448 LP  0  0  0  0  0  0  0  0  0  0  0  0  # atno 17371 bound_to 10713
  140.2074  134.8853  157.3237 LP  0  0  0  0  0  0  0  0  0  0  0  0  # atno 17394 bound_to 11000
  140.2123  134.4124  155.7607 LP  0  0  0  0  0  0  0  0  0  0  0  0  # atno 17395 bound_to 11000

$$$$
