AV-unprocessed.smi:48|AV-procd|sdf|459|dock1
  -GOLD-   2262016323D 1   1.00000     0.00000
 Structure written by MMmdl.
 30 32  0  0  0  0  0  0  0  0  1 V2000
  148.7561  138.3209  153.5985 O   0  0  0  0  0  0  0  0  0  0  0  0
  148.9525  138.1633  154.9871 C   0  0  0  0  0  0  0  0  0  0  0  0
  148.7314  139.5059  155.7066 C   0  0  1  0  0  0  0  0  0  0  0  0
  149.1558  139.4322  157.0674 O   0  0  0  0  0  0  0  0  0  0  0  0
  149.6416  140.6652  157.5094 C   0  0  1  0  0  0  0  0  0  0  0  0
  151.0526  140.4538  157.9657 N   0  0  0  0  0  0  0  0  0  0  0  0
  151.9438  139.5195  157.5708 C   0  0  0  0  0  0  0  0  0  0  0  0
  153.1504  139.5451  158.1359 N   0  0  0  0  0  0  0  0  0  0  0  0
  153.0253  140.6166  159.0049 C   0  0  0  0  0  0  0  0  0  0  0  0
  153.9172  141.2166  159.9264 C   0  0  0  0  0  0  0  0  0  0  0  0
  155.5215  140.6147  160.1311 Cl  0  0  0  0  0  0  0  0  0  0  0  0
  153.4823  142.2787  160.6458 N   0  0  0  0  0  0  0  0  0  0  0  0
  152.2329  142.7260  160.4669 C   0  0  0  0  0  0  0  0  0  0  0  0
  151.2850  142.2657  159.6419 N   0  0  0  0  0  0  0  0  0  0  0  0
  151.7277  141.1953  158.9185 C   0  0  0  0  0  0  0  0  0  0  0  0
  149.5600  141.6413  156.3210 C   0  0  1  0  0  0  0  0  0  0  0  0
  150.6106  142.5881  156.2308 O   0  0  0  0  0  0  0  0  0  0  0  0
  149.4904  140.7059  155.1217 C   0  0  1  0  0  0  0  0  0  0  0  0
  150.7729  140.3311  154.6463 O   0  0  0  0  0  0  0  0  0  0  0  0
  147.6691  139.7577  155.7060 H   0  0  0  0  0  0  0  0  0  0  0  0
  149.1107  141.0088  158.3980 H   0  0  0  0  0  0  0  0  0  0  0  0
  148.6131  142.1760  156.4081 H   0  0  0  0  0  0  0  0  0  0  0  0
  148.9451  141.1569  154.2921 H   0  0  0  0  0  0  0  0  0  0  0  0
  149.1026  137.5599  153.1583 H   0  0  0  0  0  0  0  0  0  0  0  0
  148.2914  137.3887  155.3768 H   0  0  0  0  0  0  0  0  0  0  0  0
  149.9777  137.8220  155.1334 H   0  0  0  0  0  0  0  0  0  0  0  0
  151.6954  138.7779  156.8258 H   0  0  0  0  0  0  0  0  0  0  0  0
  151.9519  143.5763  161.0708 H   0  0  0  0  0  0  0  0  0  0  0  0
  150.2345  143.4537  156.2799 H   0  0  0  0  0  0  0  0  0  0  0  0
  151.2640  139.9703  155.3690 H   0  0  0  0  0  0  0  0  0  0  0  0
  1  2  1  0  0  0  0
  1 24  1  0  0  0  0
  2  3  1  0  0  0  0
  2 25  1  0  0  0  0
  2 26  1  0  0  0  0
  3 20  1  0  0  0  0
  3 18  1  0  0  0  0
  3  4  1  0  0  0  0
  4  5  1  0  0  0  0
  5 21  1  0  0  0  0
  5  6  1  0  0  0  0
  5 16  1  0  0  0  0
  6 15  1  0  0  0  0
  6  7  1  0  0  0  0
  7  8  2  0  0  0  0
  7 27  1  0  0  0  0
  8  9  1  0  0  0  0
  9 15  2  0  0  0  0
  9 10  1  0  0  0  0
 10 11  1  0  0  0  0
 10 12  2  0  0  0  0
 12 13  1  0  0  0  0
 13 14  2  0  0  0  0
 13 28  1  0  0  0  0
 14 15  1  0  0  0  0
 16 22  1  0  0  0  0
 16 17  1  0  0  0  0
 16 18  1  0  0  0  0
 17 29  1  0  0  0  0
 18 23  1  0  0  0  0
 18 19  1  0  0  0  0
 19 30  1  0  0  0  0
M  END
> <s_m_source_file>
AV-unprocessed.smi

> <i_m_source_file_index>
48

> <i_lp_mmshare_version>
43012

> <i_f3d_flags>
0

> <s_epik_input>
W09IXVtDSDJdW0NASF0xT1tDQEhdKFtDQEhdKFtPSF0pW0NAQEhdMVtPSF0pbihbY0hdbjIpYyhjMjMpbltjSF1uYzNDbA==

> <s_epik_cmdline>
J2VwaWtfcHl0aG9uJywgJy1waCcsICc3LjAnLCAnLXRuJywgJzgnLCAnLW1hJywgJzIwMCcsICctbWV0YWxfYmluZGluZycsICctaW1hZScsICc8aW5maWxlLm1hZT4nLCAnLW9tYWUnLCAnPG91dGZpbGUubWFlPic=

> <r_lp_tautomer_probability>
1

> <r_epik_Ionization_Penalty>
3.45505e-06

> <r_epik_Ionization_Penalty_Charging>
0

> <r_epik_Ionization_Penalty_Neutral>
3.45505e-06

> <r_epik_State_Penalty>
-0

> <r_epik_Charging_Adjusted_Penalty>
0

> <i_epik_Tot_Q>
0

> <i_epik_Tot_abs_Q>
0

> <r_epik_Metal_State_Penalty>
-0

> <b_epik_Metal_Only>
0

> <s_epik_Chemistry_Notes>
This compound contains an acetal/aminal-like group ( X-CH(R)-Y where X, Y are N, S, or O) that may be acid/base labile, releasing an aldehyde.

> <s_lp_Force_Field>
OPLS_2005

> <r_lp_Energy>
40.6027

> <b_lp_Chiralities_Consistent>
1

> <s_lp_Variant>
AV-unprocessed.smi:48-13

> <Gold.Version>
5.8.1

> <Gold.Id.Protein>
6NUR|6NUR_protein|mol2

> <Gold.PLP.Fitness>
39.8311

> <Gold.PLP.PLP>
-29.2710

> <Gold.PLP.part.hbond>
-5.3067

> <Gold.PLP.part.metal>
0.0000

> <Gold.PLP.part.buried>
-5.0227

> <Gold.PLP.part.nonpolar>
-19.0087

> <Gold.PLP.part.repulsive>
0.0000

> <Gold.PLP.ligand.clash>
0.0000

> <Gold.PLP.ligand.torsion>
0.7904

> <Gold.PLP.Chemscore.Hbond>
3.9913

> <Gold.PLP.Chemscore.CHOScore>
0.0000

> <Gold.PLP.Chemscore.Metal>
0.0000

> <Gold.Chemscore.Hbonds>
donor molecule, donor type, donor heavy atom, donor atom, acceptor molecule, acceptor atom, score
      L1  H     1    24       P1  7948  1.00
      L1  H    17    29       P1  8028  0.99
      P1  H  7989  7998       L1    19  1.00
      P1  H  7997  8009       L1     8  1.00

> <Gold.PLP.Chemscore.Internal.Correction>
0.1670

> <Gold.Rescore>
     Score         DG    S(hbond)    S(metal)    S(lipo)     H(rot)  DE(clash)    DE(int)     intcor
     12.06     -12.80       3.57        0.00      43.85       3.80       0.00       0.74       ----

> <Gold.Chemscore.Fitness>
12.0571

> <Gold.Chemscore.DG>
-12.7962

> <Gold.Chemscore.ZeroCoef>
-5.4800

> <Gold.Chemscore.Hbond>
3.5683

> <Gold.Chemscore.Metal>
0.0000

> <Gold.Chemscore.Lipo>
43.8500

> <Gold.Chemscore.Internal_Hbond>
0.0000

> <Gold.Chemscore.DEClash>
0.0038

> <Gold.Chemscore.DEInternal>
0.7352

> <Gold.Chemscore.Rot>
3.8017

> <Gold.Chemscore.Internal.Correction>
   9.000000E+99

> <Gold.Chemscore.Hbonds>
donor molecule, donor type, donor heavy atom, donor atom, acceptor molecule, acceptor atom, score
      L1  H     1    24       P1  7948  0.95
      L1  H    17    29       P1  8028  0.93
      P1  H  7989  7998       L1    19  0.84
      P1  H  7997  8009       L1     8  0.38

> <Gold.Chemscore.Hbond.Weighted>
-11.9181

> <Gold.Chemscore.Metal.Weighted>
-0.0000

> <Gold.Chemscore.Lipo.Weighted>
-5.1305

> <Gold.Chemscore.Internal_Hbond.Weighted>
0.0000

> <Gold.Chemscore.DEClash.Weighted>
0.0038

> <Gold.Chemscore.DEInternal.Weighted>
0.7352

> <Gold.Chemscore.Rot.Weighted>
9.7324

> <Gold.Chemscore.Internal.Correction.Weighted>
   9.000000E+99

> <Gold.Protein.RotatedTorsions>
[ 6907 6896 6895 6894 ] final   53.52 input  -60.11 | X-H torsion
[ 7974 7965 7964 7962 ] final -105.41 input  175.53 | X-H torsion
[ 8008 7997 7996 7995 ] final  169.97 input   59.86 | X-H torsion
[ 10167 10162 10161 10158 ] final  139.68 input  -65.29 | X-H torsion
[ 10718 10713 10712 10709 ] final -108.05 input   66.30 | X-H torsion
[ 10763 10752 10751 10750 ] final  141.86 input  -60.55 | X-H torsion
[ 11005 11000 10999 10996 ] final -121.09 input  -57.11 | X-H torsion

> <Gold.Protein.ActiveResidues>
 VAL166  LYS551  ARG553  GLY616  TRP617  ASP618  TYR619  PRO620  LYS621  CYS622 
 ASP623  PHE694  ASN695  SER759  ASP760  ASP761  ALA762  ILE779  LEU786  VAL792 
 PHE793  MET794  SER795  GLU796  ALA797  LYS798  CYS799  TRP800  GLU811  SER814 

> <Gold.Protein.RotatedAtoms>
  152.3346  134.7215  160.0280 H   0  0  0  0  0  0  0  0  0  0  0  0  # atno 6907 bound_to 6896
  151.7621  133.3329  159.3428 H   0  0  0  0  0  0  0  0  0  0  0  0  # atno 6908 bound_to 6896
  150.7443  134.6028  159.6090 H   0  0  0  0  0  0  0  0  0  0  0  0  # atno 6909 bound_to 6896
  145.2308  140.9170  143.3205 H   0  0  0  0  0  0  0  0  0  0  0  0  # atno 7974 bound_to 7965
  156.1409  140.1550  156.8922 H   0  0  0  0  0  0  0  0  0  0  0  0  # atno 8008 bound_to 7997
  154.4987  140.0831  156.7789 H   0  0  0  0  0  0  0  0  0  0  0  0  # atno 8009 bound_to 7997
  155.4080  140.3417  155.4264 H   0  0  0  0  0  0  0  0  0  0  0  0  # atno 8010 bound_to 7997
  139.5071  144.6280  151.5889 H   0  0  0  0  0  0  0  0  0  0  0  0  # atno 10167 bound_to 10162
  156.0466  130.5693  150.7906 H   0  0  0  0  0  0  0  0  0  0  0  0  # atno 10718 bound_to 10713
  153.9462  135.2975  155.3440 H   0  0  0  0  0  0  0  0  0  0  0  0  # atno 10763 bound_to 10752
  154.7451  135.5007  153.9192 H   0  0  0  0  0  0  0  0  0  0  0  0  # atno 10764 bound_to 10752
  153.1017  135.6736  153.9768 H   0  0  0  0  0  0  0  0  0  0  0  0  # atno 10765 bound_to 10752
  141.0096  134.0285  157.3432 H   0  0  0  0  0  0  0  0  0  0  0  0  # atno 11005 bound_to 11000
  144.9678  139.3912  143.6324 LP  0  0  0  0  0  0  0  0  0  0  0  0  # atno 17320 bound_to 7965
  146.3353  139.8761  142.8832 LP  0  0  0  0  0  0  0  0  0  0  0  0  # atno 17321 bound_to 7965
  140.6003  143.9622  150.6382 LP  0  0  0  0  0  0  0  0  0  0  0  0  # atno 17342 bound_to 10162
  140.2831  143.3375  152.1132 LP  0  0  0  0  0  0  0  0  0  0  0  0  # atno 17343 bound_to 10162
  157.5348  131.0938  150.9907 LP  0  0  0  0  0  0  0  0  0  0  0  0  # atno 17370 bound_to 10713
  157.0204  130.5672  149.5331 LP  0  0  0  0  0  0  0  0  0  0  0  0  # atno 17371 bound_to 10713
  139.9082  135.0184  156.7579 LP  0  0  0  0  0  0  0  0  0  0  0  0  # atno 17394 bound_to 11000
  140.6756  133.9520  155.7881 LP  0  0  0  0  0  0  0  0  0  0  0  0  # atno 17395 bound_to 11000

$$$$
