#       Name:                AV-unprocessed.smi:1599
#       Creating user name   scv26
#       Creation time:       Fri Mar 27 07:06:23 2020


#       File generated by GOLD software.
#

@<TRIPOS>MOLECULE
AV-unprocessed.smi:1599
    46    47     1
SMALL
NO_CHARGES


@<TRIPOS>ATOM
      1 ****        -2.4686  -2.6871  -1.7062 C.3            1 S1                 0.0000
      2 ****        -2.0908  -1.6610  -0.6267 C.3            1 S1                 0.0000
      3 ****        -0.6425  -1.4696  -0.6550 N.am           1 S1                 0.0000
      4 ****        -0.0056  -0.3016  -0.4871 C.2            1 S1                 0.0000
      5 ****        -0.5806   0.7711  -0.3024 O.2            1 S1                 0.0000
      6 ****         1.3265  -0.4627  -0.5429 N.am           1 S1                 0.0000
      7 ****         2.3209   0.5381  -0.4046 C.2            1 S1                 0.0000
      8 ****         3.7192   0.3006  -0.4450 C.2            1 S1                 0.0000
      9 ****         4.4011   1.4254  -0.2909 N.2            1 S1                 0.0000
     10 ****         3.4589   2.3922  -0.1522 N.pl3          1 S1                 0.0000
     11 ****         3.8667   3.7735   0.0322 C.3            1 S1                 0.0000
     12 ****         3.7934   4.5531  -1.2820 C.2            1 S1                 0.0000
     13 ****         4.7657   4.3393  -2.1728 N.am           1 S1                 0.0000
     14 ****         2.8726   5.3404  -1.4893 O.2            1 S1                 0.0000
     15 ****         2.1763   1.8836  -0.2161 C.2            1 S1                 0.0000
     16 ****        -2.5333  -2.1056   0.7830 C.3            1 S1                 0.0000
     17 ****        -4.0432  -2.2797   0.9556 C.3            1 S1                 0.0000
     18 ****        -4.2639  -2.0708   2.4459 C.3            1 S1                 0.0000
     19 ****        -2.9605  -1.4313   2.9307 C.3            1 S1                 0.0000
     20 ****        -2.2482  -1.1031   1.7469 O.3            1 S1                 0.0000
     21 ****        -3.5487  -2.8212  -1.7670 H              1 S1                 0.0000
     22 ****        -2.0232  -3.6614  -1.5019 H              1 S1                 0.0000
     23 ****        -2.1271  -2.3640  -2.6901 H              1 S1                 0.0000
     24 ****        -2.5902  -0.7225  -0.8744 H              1 S1                 0.0000
     25 ****        -0.0816  -2.2962  -0.7996 H              1 S1                 0.0000
     26 ****         1.6651  -1.4016  -0.6938 H              1 S1                 0.0000
     27 ****         4.2516  -0.6297  -0.5783 H              1 S1                 0.0000
     28 ****         3.2131   4.2337   0.7744 H              1 S1                 0.0000
     29 ****         4.8810   3.8071   0.4332 H              1 S1                 0.0000
     30 ****         4.7628   4.8386  -3.0507 H              1 S1                 0.0000
     31 ****         5.5051   3.6852  -1.9610 H              1 S1                 0.0000
     32 ****         1.3049   2.5153  -0.1263 H              1 S1                 0.0000
     33 ****        -2.0198  -3.0254   1.0710 H              1 S1                 0.0000
     34 ****        -4.5773  -1.5090   0.3979 H              1 S1                 0.0000
     35 ****        -4.3974  -3.2511   0.6090 H              1 S1                 0.0000
     36 ****        -5.1225  -1.4225   2.6242 H              1 S1                 0.0000
     37 ****        -4.4431  -3.0152   2.9609 H              1 S1                 0.0000
     38 ****        -3.1295  -0.5465   3.5448 H              1 S1                 0.0000
     39 ****        -2.3768  -2.1446   3.5142 H              1 S1                 0.0000
     40 ****        -1.5796   0.8040  -0.2709 LP             1 S1                 0.0000
     41 ****        -0.0487   1.6095  -0.1838 LP             1 S1                 0.0000
     42 ****         5.3947   1.5379  -0.2793 LP             1 S1                 0.0000
     43 ****         2.1643   5.4750  -0.7963 LP             1 S1                 0.0000
     44 ****         2.8317   5.8462  -2.3509 LP             1 S1                 0.0000
     45 ****        -2.5436  -0.2100   1.4077 LP             1 S1                 0.0000
     46 ****        -1.2663  -1.0802   1.9350 LP             1 S1                 0.0000
@<TRIPOS>BOND
    1    1    2 1     
    2    1   21 1     
    3    1   22 1     
    4    1   23 1     
    5    2    3 1     
    6    2   16 1     
    7    2   24 1     
    8    3    4 am    
    9    3   25 1     
   10    4    5 2     
   11    4    6 am    
   12    6    7 1     
   13    6   26 1     
   14    7   15 2     
   15    7    8 1     
   16    8    9 2     
   17    8   27 1     
   18    9   10 1     
   19   10   11 1     
   20   10   15 1     
   21   11   12 1     
   22   11   28 1     
   23   11   29 1     
   24   12   13 am    
   25   12   14 2     
   26   13   30 1     
   27   13   31 1     
   28   15   32 1     
   29   16   20 1     
   30   16   17 1     
   31   16   33 1     
   32   17   18 1     
   33   17   34 1     
   34   17   35 1     
   35   18   19 1     
   36   18   36 1     
   37   18   37 1     
   38   19   20 1     
   39   19   38 1     
   40   19   39 1     
   41    5   40 1     
   42    5   41 1     
   43    9   42 1     
   44   14   43 1     
   45   14   44 1     
   46   20   45 1     
   47   20   46 1     
@<TRIPOS>SUBSTRUCTURE
      1 S1             1
@<TRIPOS>SET
LONE_PAIRS      STATIC     ATOMS    <user>   **** ""
7 40 41 42 43 44 45 46
DONOR_HYDROGENS      STATIC     ATOMS    <user>   **** ""
4 25 26 30 31
ATOM$BLUE        STATIC     ATOMS    COLORGROUP SYSTEM
7 40 41 42 43 44 45 46
ATOM$RED        STATIC     ATOMS    COLORGROUP SYSTEM
4 25 26 30 31
