AV-unprocessed.smi:107|AV-procd|sdf|1018|dock9
  -GOLD-   2262018 23D 1   1.00000     0.00000
 Structure written by MMmdl.
 31 32  0  0  0  0  0  0  0  0  1 V2000
  151.4183  142.6694  158.2991 C   0  0  0  0  0  0  0  0  0  0  0  0
  151.2667  141.5886  157.2417 C   0  0  0  0  0  0  0  0  0  0  0  0
  150.3756  141.6880  156.2224 C   0  0  0  0  0  0  0  0  0  0  0  0
  150.2135  140.7190  155.2420 N   0  0  0  0  0  0  0  0  0  0  0  0
  149.1989  140.8904  154.1343 C   0  0  1  0  0  0  0  0  0  0  0  0
  148.2403  139.6998  154.0849 C   0  0  0  0  0  0  0  0  0  0  0  0
  146.9294  140.3869  153.7657 C   0  0  1  0  0  0  0  0  0  0  0  0
  145.8321  139.6111  154.2021 O   0  0  0  0  0  0  0  0  0  0  0  0
  147.0615  141.7016  154.5383 C   0  0  2  0  0  0  0  0  0  0  0  0
  146.1844  142.8317  153.9787 C   0  0  0  0  0  0  0  0  0  0  0  0
  144.8239  142.5640  154.2432 O   0  0  0  0  0  0  0  0  0  0  0  0
  148.4403  142.0379  154.3838 O   0  0  0  0  0  0  0  0  0  0  0  0
  150.9959  139.5464  155.2940 C   0  0  0  0  0  0  0  0  0  0  0  0
  150.8927  138.6323  154.4770 O   0  0  0  0  0  0  0  0  0  0  0  0
  151.9135  139.4450  156.3385 N   0  0  0  0  0  0  0  0  0  0  0  0
  152.1162  140.3984  157.3392 C   0  0  0  0  0  0  0  0  0  0  0  0
  152.9587  140.1934  158.2114 O   0  0  0  0  0  0  0  0  0  0  0  0
  152.4779  138.6088  156.3776 H   0  0  0  0  0  0  0  0  0  0  0  0
  150.7512  143.5120  158.1152 H   0  0  0  0  0  0  0  0  0  0  0  0
  152.4402  143.0501  158.3118 H   0  0  0  0  0  0  0  0  0  0  0  0
  151.1885  142.2702  159.2877 H   0  0  0  0  0  0  0  0  0  0  0  0
  149.7569  142.5713  156.1778 H   0  0  0  0  0  0  0  0  0  0  0  0
  149.7374  141.0528  153.1995 H   0  0  0  0  0  0  0  0  0  0  0  0
  148.5527  138.9681  153.3393 H   0  0  0  0  0  0  0  0  0  0  0  0
  148.1992  139.2177  155.0635 H   0  0  0  0  0  0  0  0  0  0  0  0
  146.8567  140.5740  152.6931 H   0  0  0  0  0  0  0  0  0  0  0  0
  145.0761  139.8397  153.6831 H   0  0  0  0  0  0  0  0  0  0  0  0
  146.8483  141.5252  155.5945 H   0  0  0  0  0  0  0  0  0  0  0  0
  146.4707  143.7989  154.3931 H   0  0  0  0  0  0  0  0  0  0  0  0
  146.2996  142.8955  152.8962 H   0  0  0  0  0  0  0  0  0  0  0  0
  144.6129  141.7105  153.8968 H   0  0  0  0  0  0  0  0  0  0  0  0
  1  2  1  0  0  0  0
  1 19  1  0  0  0  0
  1 20  1  0  0  0  0
  1 21  1  0  0  0  0
  2 16  1  0  0  0  0
  2  3  2  0  0  0  0
  3  4  1  0  0  0  0
  3 22  1  0  0  0  0
  4  5  1  0  0  0  0
  4 13  1  0  0  0  0
  5 12  1  0  0  0  0
  5  6  1  0  0  0  0
  5 23  1  0  0  0  0
  6  7  1  0  0  0  0
  6 24  1  0  0  0  0
  6 25  1  0  0  0  0
  7  8  1  0  0  0  0
  7  9  1  0  0  0  0
  7 26  1  0  0  0  0
  8 27  1  0  0  0  0
  9 10  1  0  0  0  0
  9 12  1  0  0  0  0
  9 28  1  0  0  0  0
 10 11  1  0  0  0  0
 10 29  1  0  0  0  0
 10 30  1  0  0  0  0
 11 31  1  0  0  0  0
 13 14  2  0  0  0  0
 13 15  1  0  0  0  0
 15 18  1  0  0  0  0
 15 16  1  0  0  0  0
 16 17  2  0  0  0  0
M  END
> <s_m_source_file>
AV-unprocessed.smi

> <i_m_source_file_index>
107

> <i_lp_mmshare_version>
43012

> <i_f3d_flags>
0

> <s_epik_input>
Tz1jMVtuSF1jKD1PKW4oW2NIXWMxW0NIM10pW0NAQEhdMltDSDJdW0NAQEhdKFtPSF0pW0NASF0oTzIpW0NIMl1bT0hd

> <s_epik_cmdline>
J2VwaWtfcHl0aG9uJywgJy1waCcsICc3LjAnLCAnLXRuJywgJzgnLCAnLW1hJywgJzIwMCcsICctbWV0YWxfYmluZGluZycsICctaW1hZScsICc8aW5maWxlLm1hZT4nLCAnLW9tYWUnLCAnPG91dGZpbGUubWFlPic=

> <r_lp_tautomer_probability>
0.999537

> <r_epik_Ionization_Penalty>
0.00121888

> <r_epik_Ionization_Penalty_Charging>
0.00121876

> <r_epik_Ionization_Penalty_Neutral>
1.19946e-07

> <r_epik_State_Penalty>
0.000805124

> <r_epik_Charging_Adjusted_Penalty>
0.00202389

> <i_epik_Tot_Q>
0

> <i_epik_Tot_abs_Q>
0

> <r_epik_Metal_State_Penalty>
0.662472

> <b_epik_Metal_Only>
0

> <s_epik_Chemistry_Notes>
This compound contains an acetal/aminal-like group ( X-CH(R)-Y where X, Y are N, S, or O) that may be acid/base labile, releasing an aldehyde.

> <s_lp_Force_Field>
OPLS_2005

> <r_lp_Energy>
25.0544

> <b_lp_Chiralities_Consistent>
1

> <s_lp_Variant>
AV-unprocessed.smi:107-6

> <Gold.Version>
5.8.1

> <Gold.Id.Protein>
6NUR|6NUR_protein|mol2

> <Gold.PLP.Fitness>
40.0244

> <Gold.PLP.PLP>
-29.1689

> <Gold.PLP.part.hbond>
-4.7652

> <Gold.PLP.part.metal>
0.0000

> <Gold.PLP.part.buried>
0.0270

> <Gold.PLP.part.nonpolar>
-25.1964

> <Gold.PLP.part.repulsive>
1.4281

> <Gold.PLP.ligand.clash>
0.0000

> <Gold.PLP.ligand.torsion>
0.1051

> <Gold.PLP.Chemscore.Hbond>
2.6854

> <Gold.PLP.Chemscore.CHOScore>
1.0000

> <Gold.PLP.Chemscore.Metal>
0.0000

> <Gold.Chemscore.Hbonds>
donor molecule, donor type, donor heavy atom, donor atom, acceptor molecule, acceptor atom, score
      L1  H     8    27       P1 10175  1.00
      L1  H    11    31       P1 10175  0.63
      P1  H  7997  8009       L1    17  0.94
      L1  C     3    22       P1  8028  1.00

> <Gold.PLP.Chemscore.Internal.Correction>
0.0096

> <Gold.Rescore>
     Score         DG    S(hbond)    S(metal)    S(lipo)     H(rot)  DE(clash)    DE(int)     intcor
      8.14     -10.17       1.86        0.00      46.67       2.73       0.64       1.40       ----

> <Gold.Chemscore.Fitness>
8.1370

> <Gold.Chemscore.DG>
-10.1716

> <Gold.Chemscore.ZeroCoef>
-5.4800

> <Gold.Chemscore.Hbond>
1.8587

> <Gold.Chemscore.Metal>
0.0000

> <Gold.Chemscore.Lipo>
46.6690

> <Gold.Chemscore.Internal_Hbond>
0.0000

> <Gold.Chemscore.DEClash>
0.6377

> <Gold.Chemscore.DEInternal>
1.3969

> <Gold.Chemscore.Rot>
2.7253

> <Gold.Chemscore.Internal.Correction>
   9.000000E+99

> <Gold.Chemscore.Hbonds>
donor molecule, donor type, donor heavy atom, donor atom, acceptor molecule, acceptor atom, score
      L1  H     8    27       P1 10175  0.99
      L1  H    11    31       P1 10175  0.06
      P1  H  7997  8009       L1    17  0.22

> <Gold.Chemscore.Hbond.Weighted>
-6.2082

> <Gold.Chemscore.Metal.Weighted>
-0.0000

> <Gold.Chemscore.Lipo.Weighted>
-5.4603

> <Gold.Chemscore.Internal_Hbond.Weighted>
0.0000

> <Gold.Chemscore.DEClash.Weighted>
0.6377

> <Gold.Chemscore.DEInternal.Weighted>
1.3969

> <Gold.Chemscore.Rot.Weighted>
6.9769

> <Gold.Chemscore.Internal.Correction.Weighted>
   9.000000E+99

> <Gold.Protein.RotatedTorsions>
[ 6907 6896 6895 6894 ] final   47.69 input  -60.11 | X-H torsion
[ 7974 7965 7964 7962 ] final   19.83 input  175.53 | X-H torsion
[ 8008 7997 7996 7995 ] final  151.77 input   59.86 | X-H torsion
[ 10167 10162 10161 10158 ] final  -99.32 input  -65.29 | X-H torsion
[ 10718 10713 10712 10709 ] final -152.78 input   66.30 | X-H torsion
[ 10763 10752 10751 10750 ] final -142.62 input  -60.55 | X-H torsion
[ 11005 11000 10999 10996 ] final   35.92 input  -57.11 | X-H torsion

> <Gold.Protein.ActiveResidues>
 VAL166  LYS551  ARG553  GLY616  TRP617  ASP618  TYR619  PRO620  LYS621  CYS622 
 ASP623  PHE694  ASN695  SER759  ASP760  ASP761  ALA762  ILE779  LEU786  VAL792 
 PHE793  MET794  SER795  GLU796  ALA797  LYS798  CYS799  TRP800  GLU811  SER814 

> <Gold.Protein.RotatedAtoms>
  152.2709  134.7933  160.0414 H   0  0  0  0  0  0  0  0  0  0  0  0  # atno 6907 bound_to 6896
  151.8546  133.3441  159.3692 H   0  0  0  0  0  0  0  0  0  0  0  0  # atno 6908 bound_to 6896
  150.7151  134.5193  159.5690 H   0  0  0  0  0  0  0  0  0  0  0  0  # atno 6909 bound_to 6896
  146.2134  139.8257  142.8670 H   0  0  0  0  0  0  0  0  0  0  0  0  # atno 7974 bound_to 7965
  156.2659  140.2039  156.6228 H   0  0  0  0  0  0  0  0  0  0  0  0  # atno 8008 bound_to 7997
  154.6744  140.0546  157.0223 H   0  0  0  0  0  0  0  0  0  0  0  0  # atno 8009 bound_to 7997
  155.1091  140.3213  155.4529 H   0  0  0  0  0  0  0  0  0  0  0  0  # atno 8010 bound_to 7997
  140.2637  143.3390  152.0601 H   0  0  0  0  0  0  0  0  0  0  0  0  # atno 10167 bound_to 10162
  156.4771  130.8285  151.2513 H   0  0  0  0  0  0  0  0  0  0  0  0  # atno 10718 bound_to 10713
  154.8502  135.3491  154.6056 H   0  0  0  0  0  0  0  0  0  0  0  0  # atno 10763 bound_to 10752
  153.6665  135.6987  153.5165 H   0  0  0  0  0  0  0  0  0  0  0  0  # atno 10764 bound_to 10752
  153.2776  135.4273  155.1005 H   0  0  0  0  0  0  0  0  0  0  0  0  # atno 10765 bound_to 10752
  140.2378  134.3451  155.7938 H   0  0  0  0  0  0  0  0  0  0  0  0  # atno 11005 bound_to 11000
  145.3050  141.0204  143.3587 LP  0  0  0  0  0  0  0  0  0  0  0  0  # atno 17320 bound_to 7965
  144.8978  139.4689  143.6647 LP  0  0  0  0  0  0  0  0  0  0  0  0  # atno 17321 bound_to 7965
  139.5009  144.6702  151.6261 LP  0  0  0  0  0  0  0  0  0  0  0  0  # atno 17342 bound_to 10162
  140.5945  143.9720  150.6346 LP  0  0  0  0  0  0  0  0  0  0  0  0  # atno 17343 bound_to 10162
  157.7486  131.0057  150.3124 LP  0  0  0  0  0  0  0  0  0  0  0  0  # atno 17370 bound_to 10713
  156.3560  130.3839  149.7290 LP  0  0  0  0  0  0  0  0  0  0  0  0  # atno 17371 bound_to 10713
  141.2213  133.7281  156.8835 LP  0  0  0  0  0  0  0  0  0  0  0  0  # atno 17394 bound_to 11000
  140.1685  134.9117  157.2803 LP  0  0  0  0  0  0  0  0  0  0  0  0  # atno 17395 bound_to 11000

$$$$
