AV-unprocessed.smi:983|AV-procd|sdf|4316|dock4
  -GOLD-   22720 2223D 1   1.00000     0.00000
 Structure written by MMmdl.
 35 36  0  0  0  0  0  0  0  0  1 V2000
  146.8658  142.0583  153.8211 C   0  0  0  0  0  0  0  0  0  0  0  0
  147.7317  141.4057  154.8788 C   0  0  0  0  0  0  0  0  0  0  0  0
  147.2549  141.2574  156.2383 C   0  0  0  0  0  0  0  0  0  0  0  0
  148.0507  140.6779  157.1504 C   0  0  0  0  0  0  0  0  0  0  0  0
  149.3362  140.2085  156.8245 N   0  0  0  0  0  0  0  0  0  0  0  0
  150.1198  139.5838  157.9031 C   0  0  0  0  0  0  0  0  0  0  0  0
  151.4350  140.3204  158.1928 C   0  0  0  0  0  0  0  0  0  0  0  0
  152.4077  140.1855  157.4491 O   0  0  0  0  0  0  0  0  0  0  0  0
  151.4553  141.0819  159.2971 N   0  0  0  0  0  0  0  0  0  0  0  0
  152.6022  141.8620  159.7535 C   0  0  0  0  0  0  0  0  0  0  0  0
  153.1228  141.3675  161.1181 C   0  0  0  0  0  0  0  0  0  0  0  0
  153.3277  142.6216  161.9681 C   0  0  0  0  0  0  0  0  0  0  0  0
  152.2675  143.5937  161.4605 C   0  0  0  0  0  0  0  0  0  0  0  0
  152.2138  143.3390  159.9531 C   0  0  0  0  0  0  0  0  0  0  0  0
  149.8436  140.3131  155.5596 C   0  0  0  0  0  0  0  0  0  0  0  0
  150.9657  139.8987  155.2669 O   0  0  0  0  0  0  0  0  0  0  0  0
  148.9665  140.9513  154.5711 C   0  0  0  0  0  0  0  0  0  0  0  0
  145.8595  142.2460  154.1963 H   0  0  0  0  0  0  0  0  0  0  0  0
  146.7863  141.4159  152.9437 H   0  0  0  0  0  0  0  0  0  0  0  0
  147.2985  143.0103  153.5128 H   0  0  0  0  0  0  0  0  0  0  0  0
  146.2707  141.6040  156.5179 H   0  0  0  0  0  0  0  0  0  0  0  0
  147.7532  140.5303  158.1785 H   0  0  0  0  0  0  0  0  0  0  0  0
  149.5216  139.5257  158.8148 H   0  0  0  0  0  0  0  0  0  0  0  0
  150.3596  138.5495  157.6531 H   0  0  0  0  0  0  0  0  0  0  0  0
  150.6163  141.1324  159.8565 H   0  0  0  0  0  0  0  0  0  0  0  0
  153.3984  141.8100  159.0083 H   0  0  0  0  0  0  0  0  0  0  0  0
  152.3809  140.7308  161.6034 H   0  0  0  0  0  0  0  0  0  0  0  0
  154.0371  140.7810  161.0231 H   0  0  0  0  0  0  0  0  0  0  0  0
  153.2414  142.4239  163.0367 H   0  0  0  0  0  0  0  0  0  0  0  0
  154.3212  143.0326  161.7838 H   0  0  0  0  0  0  0  0  0  0  0  0
  151.3032  143.3519  161.9092 H   0  0  0  0  0  0  0  0  0  0  0  0
  152.4976  144.6315  161.7031 H   0  0  0  0  0  0  0  0  0  0  0  0
  152.9490  143.9729  159.4556 H   0  0  0  0  0  0  0  0  0  0  0  0
  151.2395  143.5920  159.5323 H   0  0  0  0  0  0  0  0  0  0  0  0
  149.3283  141.0589  153.5588 H   0  0  0  0  0  0  0  0  0  0  0  0
  1  2  1  0  0  0  0
  1 18  1  0  0  0  0
  1 19  1  0  0  0  0
  1 20  1  0  0  0  0
  2 17  2  0  0  0  0
  2  3  1  0  0  0  0
  3  4  2  0  0  0  0
  3 21  1  0  0  0  0
  4  5  1  0  0  0  0
  4 22  1  0  0  0  0
  5  6  1  0  0  0  0
  5 15  1  0  0  0  0
  6  7  1  0  0  0  0
  6 23  1  0  0  0  0
  6 24  1  0  0  0  0
  7  8  2  0  0  0  0
  7  9  1  0  0  0  0
  9 10  1  0  0  0  0
  9 25  1  0  0  0  0
 10 14  1  0  0  0  0
 10 11  1  0  0  0  0
 10 26  1  0  0  0  0
 11 12  1  0  0  0  0
 11 27  1  0  0  0  0
 11 28  1  0  0  0  0
 12 13  1  0  0  0  0
 12 29  1  0  0  0  0
 12 30  1  0  0  0  0
 13 14  1  0  0  0  0
 13 31  1  0  0  0  0
 13 32  1  0  0  0  0
 14 33  1  0  0  0  0
 14 34  1  0  0  0  0
 15 16  2  0  0  0  0
 15 17  1  0  0  0  0
 17 35  1  0  0  0  0
M  END
> <s_m_source_file>
AV-unprocessed.smi

> <i_m_source_file_index>
983

> <i_lp_mmshare_version>
43012

> <i_f3d_flags>
0

> <s_epik_input>
W0NIM11jMVtjSF1bY0hdbihjKD1PKVtjSF0xKVtDSDJdQyg9TylbTkhdW0NIXTJbQ0gyXVtDSDJdW0NIMl1bQ0gyXTI=

> <s_epik_cmdline>
J2VwaWtfcHl0aG9uJywgJy1waCcsICc3LjAnLCAnLXRuJywgJzgnLCAnLW1hJywgJzIwMCcsICctbWV0YWxfYmluZGluZycsICctaW1hZScsICc8aW5maWxlLm1hZT4nLCAnLW9tYWUnLCAnPG91dGZpbGUubWFlPic=

> <r_lp_tautomer_probability>
1

> <r_epik_Ionization_Penalty>
5.52576e-07

> <r_epik_Ionization_Penalty_Charging>
5.33275e-07

> <r_epik_Ionization_Penalty_Neutral>
1.93017e-08

> <r_epik_State_Penalty>
-0

> <r_epik_Charging_Adjusted_Penalty>
5.33275e-07

> <i_epik_Tot_Q>
0

> <i_epik_Tot_abs_Q>
0

> <r_epik_Metal_State_Penalty>
-0

> <b_epik_Metal_Only>
0

> <s_lp_Force_Field>
OPLS_2005

> <r_lp_Energy>
27.4502

> <b_lp_Chiralities_Consistent>
1

> <s_lp_Variant>
AV-unprocessed.smi:983-1

> <Gold.Version>
5.8.1

> <Gold.Id.Protein>
6NUR|6NUR_protein|mol2

> <Gold.PLP.Fitness>
42.1132

> <Gold.PLP.PLP>
-36.9053

> <Gold.PLP.part.hbond>
-2.0000

> <Gold.PLP.part.metal>
0.0000

> <Gold.PLP.part.buried>
-4.1387

> <Gold.PLP.part.nonpolar>
-29.7776

> <Gold.PLP.part.repulsive>
0.2105

> <Gold.PLP.ligand.clash>
0.0000

> <Gold.PLP.ligand.torsion>
0.2421

> <Gold.PLP.Chemscore.Hbond>
1.8960

> <Gold.PLP.Chemscore.CHOScore>
0.0000

> <Gold.PLP.Chemscore.Metal>
0.0000

> <Gold.Chemscore.Hbonds>
donor molecule, donor type, donor heavy atom, donor atom, acceptor molecule, acceptor atom, score
      P1  H  7989  7998       L1    16  0.76
      P1  H  7997  8009       L1     8  0.76

> <Gold.PLP.Chemscore.Internal.Correction>
0.0040

> <Gold.Rescore>
     Score         DG    S(hbond)    S(metal)    S(lipo)     H(rot)  DE(clash)    DE(int)     intcor
     16.36     -18.08       1.91        0.00      83.20       1.38       0.01       1.71       ----

> <Gold.Chemscore.Fitness>
16.3613

> <Gold.Chemscore.DG>
-18.0788

> <Gold.Chemscore.ZeroCoef>
-5.4800

> <Gold.Chemscore.Hbond>
1.9144

> <Gold.Chemscore.Metal>
0.0000

> <Gold.Chemscore.Lipo>
83.2039

> <Gold.Chemscore.Internal_Hbond>
0.0000

> <Gold.Chemscore.DEClash>
0.0067

> <Gold.Chemscore.DEInternal>
1.7108

> <Gold.Chemscore.Rot>
1.3789

> <Gold.Chemscore.Internal.Correction>
   9.000000E+99

> <Gold.Chemscore.Hbonds>
donor molecule, donor type, donor heavy atom, donor atom, acceptor molecule, acceptor atom, score
      P1  H  7989  7998       L1    16  0.54
      P1  H  7997  8009       L1     8  0.71

> <Gold.Chemscore.Hbond.Weighted>
-6.3940

> <Gold.Chemscore.Metal.Weighted>
-0.0000

> <Gold.Chemscore.Lipo.Weighted>
-9.7349

> <Gold.Chemscore.Internal_Hbond.Weighted>
0.0000

> <Gold.Chemscore.DEClash.Weighted>
0.0067

> <Gold.Chemscore.DEInternal.Weighted>
1.7108

> <Gold.Chemscore.Rot.Weighted>
3.5301

> <Gold.Chemscore.Internal.Correction.Weighted>
   9.000000E+99

> <Gold.Protein.RotatedTorsions>
[ 6907 6896 6895 6894 ] final  -12.44 input  -60.11 | X-H torsion
[ 7974 7965 7964 7962 ] final   28.22 input  175.53 | X-H torsion
[ 8008 7997 7996 7995 ] final -177.98 input   59.86 | X-H torsion
[ 10167 10162 10161 10158 ] final   42.53 input  -65.29 | X-H torsion
[ 10718 10713 10712 10709 ] final  -70.05 input   66.30 | X-H torsion
[ 10763 10752 10751 10750 ] final   24.48 input  -60.55 | X-H torsion
[ 11005 11000 10999 10996 ] final  -59.39 input  -57.11 | X-H torsion

> <Gold.Protein.ActiveResidues>
 VAL166  LYS551  ARG553  GLY616  TRP617  ASP618  TYR619  PRO620  LYS621  CYS622 
 ASP623  PHE694  ASN695  SER759  ASP760  ASP761  ALA762  ILE779  LEU786  VAL792 
 PHE793  MET794  SER795  GLU796  ALA797  LYS798  CYS799  TRP800  GLU811  SER814 

> <Gold.Protein.RotatedAtoms>
  151.3705  135.0921  159.9463 H   0  0  0  0  0  0  0  0  0  0  0  0  # atno 6907 bound_to 6896
  152.5137  133.9170  159.7526 H   0  0  0  0  0  0  0  0  0  0  0  0  # atno 6908 bound_to 6896
  150.9582  133.6419  159.2788 H   0  0  0  0  0  0  0  0  0  0  0  0  # atno 6909 bound_to 6896
  146.1741  139.7086  142.8947 H   0  0  0  0  0  0  0  0  0  0  0  0  # atno 7974 bound_to 7965
  156.0134  140.1245  157.0431 H   0  0  0  0  0  0  0  0  0  0  0  0  # atno 8008 bound_to 7997
  154.4284  140.1083  156.5931 H   0  0  0  0  0  0  0  0  0  0  0  0  # atno 8009 bound_to 7997
  155.6048  140.3471  155.4606 H   0  0  0  0  0  0  0  0  0  0  0  0  # atno 8010 bound_to 7997
  140.3534  144.2320  150.6143 H   0  0  0  0  0  0  0  0  0  0  0  0  # atno 10167 bound_to 10162
  156.0426  130.4324  150.2239 H   0  0  0  0  0  0  0  0  0  0  0  0  # atno 10718 bound_to 10713
  153.0761  135.6604  154.0144 H   0  0  0  0  0  0  0  0  0  0  0  0  # atno 10763 bound_to 10752
  153.9777  135.2958  155.3424 H   0  0  0  0  0  0  0  0  0  0  0  0  # atno 10764 bound_to 10752
  154.7149  135.5189  153.8793 H   0  0  0  0  0  0  0  0  0  0  0  0  # atno 10765 bound_to 10752
  141.1246  133.6616  156.5064 H   0  0  0  0  0  0  0  0  0  0  0  0  # atno 11005 bound_to 11000
  145.4260  141.0411  143.2937 LP  0  0  0  0  0  0  0  0  0  0  0  0  # atno 17320 bound_to 7965
  144.8209  139.5794  143.6987 LP  0  0  0  0  0  0  0  0  0  0  0  0  # atno 17321 bound_to 7965
  140.5197  143.2269  151.8409 LP  0  0  0  0  0  0  0  0  0  0  0  0  # atno 17342 bound_to 10162
  139.4823  144.4852  151.9256 LP  0  0  0  0  0  0  0  0  0  0  0  0  # atno 17343 bound_to 10162
  157.0332  131.0013  151.3306 LP  0  0  0  0  0  0  0  0  0  0  0  0  # atno 17370 bound_to 10713
  157.5262  130.8029  149.7865 LP  0  0  0  0  0  0  0  0  0  0  0  0  # atno 17371 bound_to 10713
  140.4404  134.7020  157.4989 LP  0  0  0  0  0  0  0  0  0  0  0  0  # atno 17394 bound_to 11000
  140.0233  134.6515  155.9209 LP  0  0  0  0  0  0  0  0  0  0  0  0  # atno 17395 bound_to 11000

$$$$
