#       Name:                AV-unprocessed.smi:2464
#       Creating user name   scv26
#       Creation time:       Fri Mar 27 13:36:10 2020


#       File generated by GOLD software.
#

@<TRIPOS>MOLECULE
AV-unprocessed.smi:2464
    37    38     1
SMALL
NO_CHARGES


@<TRIPOS>ATOM
      1 ****        -2.6752   1.5385  -0.7839 C.3            1 S1                 0.0000
      2 ****        -2.2922   0.0565  -0.8536 C.3            1 S1                 0.0000
      3 ****        -0.8372  -0.0872  -0.7686 N.am           1 S1                 0.0000
      4 ****        -0.0841   0.0798   0.3300 C.2            1 S1                 0.0000
      5 ****        -0.5420   0.3775   1.4335 O.2            1 S1                 0.0000
      6 ****         1.2189  -0.1004   0.0563 N.am           1 S1                 0.0000
      7 ****         2.3269   0.0206   0.9421 C.ar           1 S1                 0.0000
      8 ****         2.2248  -0.3313   2.3101 C.ar           1 S1                 0.0000
      9 ****         3.3683  -0.2431   3.1252 C.ar           1 S1                 0.0000
     10 ****         4.5737   0.1486   2.6683 N.ar           1 S1                 0.0000
     11 ****         4.6767   0.4690   1.3619 C.ar           1 S1                 0.0000
     12 ****         3.5974   0.4276   0.4491 C.ar           1 S1                 0.0000
     13 ****         3.8288   0.8046  -0.9585 N.pl3          1 S1                 1.0000
     14 ****         2.9604   1.4369  -1.5508 O.2            1 S1                 0.0000
     15 ****         4.8995   0.4833  -1.4625 O.2            1 S1                -1.0000
     16 ****        -3.0333  -0.9458   0.0578 C.3            1 S1                 0.0000
     17 ****        -3.9799  -1.2257  -1.1121 C.3            1 S1                 0.0000
     18 ****        -2.8415  -0.7717  -2.0307 C.3            1 S1                 0.0000
     19 ****        -3.7413   1.6859  -0.9576 H              1 S1                 0.0000
     20 ****        -2.1420   2.1237  -1.5340 H              1 S1                 0.0000
     21 ****        -2.4476   1.9683   0.1918 H              1 S1                 0.0000
     22 ****        -0.3638  -0.3287  -1.6270 H              1 S1                 0.0000
     23 ****         1.4523  -0.2361  -0.9164 H              1 S1                 0.0000
     24 ****         1.2994  -0.6823   2.7411 H              1 S1                 0.0000
     25 ****         3.3147  -0.5068   4.1710 H              1 S1                 0.0000
     26 ****         5.6597   0.7776   1.0372 H              1 S1                 0.0000
     27 ****        -2.4393  -1.8212   0.3292 H              1 S1                 0.0000
     28 ****        -3.5113  -0.5026   0.9320 H              1 S1                 0.0000
     29 ****        -4.2713  -2.2700  -1.2257 H              1 S1                 0.0000
     30 ****        -4.8423  -0.5575  -1.1335 H              1 S1                 0.0000
     31 ****        -3.1628  -0.1873  -2.8935 H              1 S1                 0.0000
     32 ****        -2.1942  -1.5992  -2.3288 H              1 S1                 0.0000
     33 ****        -1.5268   0.5085   1.5474 LP             1 S1                 0.0000
     34 ****         0.0709   0.4882   2.2159 LP             1 S1                 0.0000
     35 ****         5.3654   0.2001   3.2771 LP             1 S1                 0.0000
     36 ****         2.1148   1.6873  -1.0793 LP             1 S1                 0.0000
     37 ****         3.0980   1.7019  -2.5051 LP             1 S1                 0.0000
@<TRIPOS>BOND
    1    1    2 1     
    2    1   19 1     
    3    1   20 1     
    4    1   21 1     
    5    2   18 1     
    6    2    3 1     
    7    2   16 1     
    8    3    4 am    
    9    3   22 1     
   10    4    5 2     
   11    4    6 am    
   12    6    7 1     
   13    6   23 1     
   14    7   12 ar    
   15    7    8 ar    
   16    8    9 ar    
   17    8   24 1     
   18    9   10 ar    
   19    9   25 1     
   20   10   11 ar    
   21   11   12 ar    
   22   11   26 1     
   23   12   13 1     
   24   13   14 2     
   25   13   15 1     
   26   16   17 1     
   27   16   27 1     
   28   16   28 1     
   29   17   18 1     
   30   17   29 1     
   31   17   30 1     
   32   18   31 1     
   33   18   32 1     
   34    5   33 1     
   35    5   34 1     
   36   10   35 1     
   37   14   36 1     
   38   14   37 1     
@<TRIPOS>SUBSTRUCTURE
      1 S1             1
@<TRIPOS>SET
LONE_PAIRS      STATIC     ATOMS    <user>   **** ""
6 33 34 35 36 37 15
DONOR_HYDROGENS      STATIC     ATOMS    <user>   **** ""
2 22 23
ATOM$BLUE        STATIC     ATOMS    COLORGROUP SYSTEM
6 33 34 35 36 37 15
ATOM$RED        STATIC     ATOMS    COLORGROUP SYSTEM
2 22 23
