#       Name:                AV-unprocessed.smi:2889
#       Creating user name   scv26
#       Creation time:       Fri Mar 27 15:57:25 2020


#       File generated by GOLD software.
#

@<TRIPOS>MOLECULE
AV-unprocessed.smi:2889
    40    41     1
SMALL
NO_CHARGES


@<TRIPOS>ATOM
      1 ****         0.3040  -1.5872  -2.8405 C.3            1 S1                 0.0000
      2 ****        -1.2428  -0.7143  -2.4737 S.3            1 S1                 0.0000
      3 ****        -1.6493  -1.3874  -0.8304 C.3            1 S1                 0.0000
      4 ****        -3.1678  -1.6302  -0.7371 C.3            1 S1                 0.0000
      5 ****        -3.5812  -2.1561   0.6452 C.3            1 S1                 0.0000
      6 ****        -3.1282  -1.1971   1.7547 C.3            1 S1                 0.0000
      7 ****        -1.6123  -0.9610   1.6915 C.3            1 S1                 0.0000
      8 ****        -1.1719  -0.4510   0.3054 C.3            1 S1                 0.0000
      9 ****         0.2881  -0.3289   0.2829 N.3            1 S1                 0.0000
     10 ****         1.0052   1.2031   0.6164 S.o2           1 S1                 0.0000
     11 ****         0.3712   2.1963  -0.2644 O.2            1 S1                 0.0000
     12 ****         0.9852   1.3948   2.0745 O.2            1 S1                 0.0000
     13 ****         2.7432   0.9537   0.0606 C.3            1 S1                 0.0000
     14 ****         3.5239   2.2192   0.2694 C.2            1 S1                 0.0000
     15 ****         3.5775   3.3716  -0.5628 C.2            1 S1                 0.0000
     16 ****         4.4307   4.2047   0.1018 C.2            1 S1                 0.0000
     17 ****         4.8719   3.6202   1.2443 O.3            1 S1                 0.0000
     18 ****         4.2885   2.3518   1.3420 N.2            1 S1                 0.0000
     19 ****         0.6694  -1.2984  -3.8259 H              1 S1                 0.0000
     20 ****         0.1433  -2.6653  -2.8361 H              1 S1                 0.0000
     21 ****         1.0734  -1.3461  -2.1081 H              1 S1                 0.0000
     22 ****        -1.1527  -2.3537  -0.7305 H              1 S1                 0.0000
     23 ****        -3.7011  -0.7008  -0.9423 H              1 S1                 0.0000
     24 ****        -3.4786  -2.3388  -1.5056 H              1 S1                 0.0000
     25 ****        -4.6633  -2.2852   0.6848 H              1 S1                 0.0000
     26 ****        -3.1452  -3.1424   0.8094 H              1 S1                 0.0000
     27 ****        -3.6519  -0.2455   1.6545 H              1 S1                 0.0000
     28 ****        -3.4016  -1.6002   2.7302 H              1 S1                 0.0000
     29 ****        -1.3219  -0.2476   2.4636 H              1 S1                 0.0000
     30 ****        -1.0948  -1.8932   1.9230 H              1 S1                 0.0000
     31 ****        -1.6125   0.5334   0.1417 H              1 S1                 0.0000
     32 ****         0.7280  -1.0699   0.8279 H              1 S1                 0.0000
     33 ****         3.1700   0.1219   0.6218 H              1 S1                 0.0000
     34 ****         2.7292   0.6734  -0.9926 H              1 S1                 0.0000
     35 ****         3.0673   3.5583  -1.4961 H              1 S1                 0.0000
     36 ****         4.8058   5.1972  -0.0994 H              1 S1                 0.0000
     37 ****         0.4837  -0.4319  -0.6924 LP             1 S1                 0.0000
     38 ****         4.6073   4.1758   2.0325 LP             1 S1                 0.0000
     39 ****         5.8678   3.5333   1.2170 LP             1 S1                 0.0000
     40 ****         4.4220   1.6824   2.0728 LP             1 S1                 0.0000
@<TRIPOS>BOND
    1    1    2 1     
    2    1   19 1     
    3    1   20 1     
    4    1   21 1     
    5    2    3 1     
    6    3    8 1     
    7    3    4 1     
    8    3   22 1     
    9    4    5 1     
   10    4   23 1     
   11    4   24 1     
   12    5    6 1     
   13    5   25 1     
   14    5   26 1     
   15    6    7 1     
   16    6   27 1     
   17    6   28 1     
   18    7    8 1     
   19    7   29 1     
   20    7   30 1     
   21    8    9 1     
   22    8   31 1     
   23    9   10 1     
   24    9   32 1     
   25   10   11 2     
   26   10   12 2     
   27   10   13 1     
   28   13   14 1     
   29   13   33 1     
   30   13   34 1     
   31   14   18 2     
   32   14   15 1     
   33   15   16 2     
   34   15   35 1     
   35   16   17 1     
   36   16   36 1     
   37   17   18 1     
   38    9   37 1     
   39   17   38 1     
   40   17   39 1     
   41   18   40 1     
@<TRIPOS>SUBSTRUCTURE
      1 S1             1
@<TRIPOS>SET
LONE_PAIRS      STATIC     ATOMS    <user>   **** ""
6 37 11 12 38 39 40
DONOR_HYDROGENS      STATIC     ATOMS    <user>   **** ""
1 32
ATOM$BLUE        STATIC     ATOMS    COLORGROUP SYSTEM
6 37 11 12 38 39 40
ATOM$RED        STATIC     ATOMS    COLORGROUP SYSTEM
1 32
