AV-unprocessed.smi:3331|AV-procd|sdf|12818|dock8
  -GOLD-   2272019193D 1   1.00000     0.00000
 Structure written by MMmdl.
 47 48  0  0  0  0  0  0  0  0  2 V2000
  153.2394  138.5256  154.5395 C   0  0  0  0  0  0  0  0  0  0  0  0
  151.8506  137.8739  154.4865 C   0  0  2  0  0  0  0  0  0  0  0  0
  150.7267  138.9349  154.4590 C   0  0  0  0  0  0  0  0  0  0  0  0
  149.3172  138.3060  154.5420 C   0  0  2  0  0  0  0  0  0  0  0  0
  148.2255  139.3799  154.6411 C   0  0  0  0  0  0  0  0  0  0  0  0
  149.2554  137.3183  155.7246 C   0  0  0  0  0  0  0  0  0  0  0  0
  150.2988  136.3028  155.5353 N   0  0  0  0  0  0  0  0  0  0  0  0
  150.1070  135.0214  155.1326 C   0  0  0  0  0  0  0  0  0  0  0  0
  151.0474  134.2413  154.9695 O   0  0  0  0  0  0  0  0  0  0  0  0
  148.6791  134.4996  154.8639 C   0  0  2  0  0  0  0  0  0  0  0  0
  148.3443  133.3529  155.8314 C   0  0  0  0  0  0  0  0  0  0  0  0
  148.5197  134.0296  153.4676 N   0  3  0  0  0  0  0  0  0  0  0  0
  147.1862  133.4789  153.1431 C   0  0  0  0  0  0  0  0  0  0  0  0
  147.2272  132.6687  151.8401 C   0  0  0  0  0  0  0  0  0  0  0  0
  145.9734  132.7530  151.1165 N   0  0  0  0  0  0  0  0  0  0  0  0
  145.6583  132.2281  149.8807 C   0  0  0  0  0  0  0  0  0  0  0  0
  144.3611  132.5631  149.6165 C   0  0  0  0  0  0  0  0  0  0  0  0
  143.9608  133.2994  150.7664 C   0  0  0  0  0  0  0  0  0  0  0  0
  144.9281  133.4104  151.6633 N   0  0  0  0  0  0  0  0  0  0  0  0
  151.6362  136.8953  155.6611 C   0  0  0  0  0  0  0  0  0  0  0  0
  153.3682  139.1121  155.4497 H   0  0  0  0  0  0  0  0  0  0  0  0
  153.3932  139.1912  153.6898 H   0  0  0  0  0  0  0  0  0  0  0  0
  154.0271  137.7722  154.5144 H   0  0  0  0  0  0  0  0  0  0  0  0
  151.7931  137.3014  153.5593 H   0  0  0  0  0  0  0  0  0  0  0  0
  150.8615  139.6171  155.2998 H   0  0  0  0  0  0  0  0  0  0  0  0
  150.8110  139.5420  153.5568 H   0  0  0  0  0  0  0  0  0  0  0  0
  149.1424  137.7443  153.6228 H   0  0  0  0  0  0  0  0  0  0  0  0
  148.3394  139.9789  155.5451 H   0  0  0  0  0  0  0  0  0  0  0  0
  147.2327  138.9296  154.6620 H   0  0  0  0  0  0  0  0  0  0  0  0
  148.2626  140.0561  153.7864 H   0  0  0  0  0  0  0  0  0  0  0  0
  149.4389  137.8492  156.6602 H   0  0  0  0  0  0  0  0  0  0  0  0
  148.2554  136.9040  155.8351 H   0  0  0  0  0  0  0  0  0  0  0  0
  147.9499  135.2978  154.9975 H   0  0  0  0  0  0  0  0  0  0  0  0
  148.4436  133.6619  156.8725 H   0  0  0  0  0  0  0  0  0  0  0  0
  149.0013  132.4955  155.6783 H   0  0  0  0  0  0  0  0  0  0  0  0
  147.3181  133.0119  155.6917 H   0  0  0  0  0  0  0  0  0  0  0  0
  148.7197  134.8009  152.8464 H   0  0  0  0  0  0  0  0  0  0  0  0
  146.8522  132.8466  153.9671 H   0  0  0  0  0  0  0  0  0  0  0  0
  146.4638  134.2904  153.0480 H   0  0  0  0  0  0  0  0  0  0  0  0
  148.0264  133.0324  151.1927 H   0  0  0  0  0  0  0  0  0  0  0  0
  147.4377  131.6183  152.0463 H   0  0  0  0  0  0  0  0  0  0  0  0
  146.3742  131.6674  149.2978 H   0  0  0  0  0  0  0  0  0  0  0  0
  143.7851  132.3185  148.7362 H   0  0  0  0  0  0  0  0  0  0  0  0
  143.0030  133.7532  150.9742 H   0  0  0  0  0  0  0  0  0  0  0  0
  152.4293  136.1463  155.6755 H   0  0  0  0  0  0  0  0  0  0  0  0
  151.7143  137.4217  156.6136 H   0  0  0  0  0  0  0  0  0  0  0  0
  149.1979  133.2992  153.3050 H   0  0  0  0  0  0  0  0  0  0  0  0
  1  2  1  0  0  0  0
  1 21  1  0  0  0  0
  1 22  1  0  0  0  0
  1 23  1  0  0  0  0
  2 20  1  0  0  0  0
  2  3  1  0  0  0  0
  2 24  1  0  0  0  0
  3  4  1  0  0  0  0
  3 25  1  0  0  0  0
  3 26  1  0  0  0  0
  4  5  1  0  0  0  0
  4  6  1  0  0  0  0
  4 27  1  0  0  0  0
  5 28  1  0  0  0  0
  5 29  1  0  0  0  0
  5 30  1  0  0  0  0
  6  7  1  0  0  0  0
  6 31  1  0  0  0  0
  6 32  1  0  0  0  0
  7  8  1  0  0  0  0
  7 20  1  0  0  0  0
  8  9  2  0  0  0  0
  8 10  1  0  0  0  0
 10 11  1  0  0  0  0
 10 12  1  0  0  0  0
 10 33  1  0  0  0  0
 11 34  1  0  0  0  0
 11 35  1  0  0  0  0
 11 36  1  0  0  0  0
 12 13  1  0  0  0  0
 12 37  1  0  0  0  0
 12 47  1  0  0  0  0
 13 14  1  0  0  0  0
 13 38  1  0  0  0  0
 13 39  1  0  0  0  0
 14 15  1  0  0  0  0
 14 40  1  0  0  0  0
 14 41  1  0  0  0  0
 15 19  1  0  0  0  0
 15 16  1  0  0  0  0
 16 17  2  0  0  0  0
 16 42  1  0  0  0  0
 17 18  1  0  0  0  0
 17 43  1  0  0  0  0
 18 19  2  0  0  0  0
 18 44  1  0  0  0  0
 20 45  1  0  0  0  0
 20 46  1  0  0  0  0
M  CHG  1  12   1
M  END
> <s_m_source_file>
AV-unprocessed.smi

> <i_m_source_file_index>
3331

> <i_lp_mmshare_version>
43012

> <i_f3d_flags>
0

> <s_epik_input>
W0NIM11bQ0BASF0xW0NIMl1bQ0BASF0oW0NIM10pW0NIMl1OKFtDSDJdMSlDKD1PKVtDQEhdKFtDSDNdKVtOSF1bQ0gyXVtDSDJdbjJbY0hdW2NIXVtjSF1uMg==

> <s_epik_cmdline>
J2VwaWtfcHl0aG9uJywgJy1waCcsICc3LjAnLCAnLXRuJywgJzgnLCAnLW1hJywgJzIwMCcsICctbWV0YWxfYmluZGluZycsICctaW1hZScsICc8aW5maWxlLm1hZT4nLCAnLW9tYWUnLCAnPG91dGZpbGUubWFlPic=

> <r_lp_tautomer_probability>
1

> <r_epik_Ionization_Penalty>
0.189706

> <r_epik_Ionization_Penalty_Charging>
0.189703

> <r_epik_Ionization_Penalty_Neutral>
2.45875e-06

> <r_epik_State_Penalty>
0.179341

> <r_epik_Charging_Adjusted_Penalty>
0.369044

> <i_epik_Tot_Q>
1

> <i_epik_Tot_abs_Q>
1

> <r_epik_Metal_State_Penalty>
0.179578

> <b_epik_Metal_Only>
0

> <s_lp_Force_Field>
OPLS_2005

> <r_lp_Energy>
26.1648

> <b_lp_Chiralities_Consistent>
1

> <s_lp_Variant>
AV-unprocessed.smi:3331-2

> <Gold.Version>
5.8.1

> <Gold.Id.Protein>
6NUR|6NUR_protein|mol2

> <Gold.PLP.Fitness>
46.3258

> <Gold.PLP.PLP>
-34.9036

> <Gold.PLP.part.hbond>
-1.0000

> <Gold.PLP.part.metal>
0.0000

> <Gold.PLP.part.buried>
-3.7275

> <Gold.PLP.part.nonpolar>
-30.3873

> <Gold.PLP.part.repulsive>
0.1841

> <Gold.PLP.ligand.clash>
0.0000

> <Gold.PLP.ligand.torsion>
0.3110

> <Gold.PLP.Chemscore.Hbond>
2.0000

> <Gold.PLP.Chemscore.CHOScore>
1.9939

> <Gold.PLP.Chemscore.Metal>
0.0000

> <Gold.Chemscore.Hbonds>
donor molecule, donor type, donor heavy atom, donor atom, acceptor molecule, acceptor atom, score
      L1  H    12    37       P1  7948  1.80
      P1  H 10752 10764       L1     9  0.03
      L1  C    16    42       P1 10747  0.13
      L1  C    18    44       P1 10186  0.99

> <Gold.PLP.Chemscore.Internal.Correction>
0.0624

> <Gold.Rescore>
     Score         DG    S(hbond)    S(metal)    S(lipo)     H(rot)  DE(clash)    DE(int)     intcor
     14.30     -14.74       0.96        0.00      89.51       1.73       0.04       0.41       ----

> <Gold.Chemscore.Fitness>
14.2965

> <Gold.Chemscore.DG>
-14.7433

> <Gold.Chemscore.ZeroCoef>
-5.4800

> <Gold.Chemscore.Hbond>
0.9604

> <Gold.Chemscore.Metal>
0.0000

> <Gold.Chemscore.Lipo>
89.5079

> <Gold.Chemscore.Internal_Hbond>
0.0000

> <Gold.Chemscore.DEClash>
0.0402

> <Gold.Chemscore.DEInternal>
0.4065

> <Gold.Chemscore.Rot>
1.7254

> <Gold.Chemscore.Internal.Correction>
   9.000000E+99

> <Gold.Chemscore.Hbonds>
donor molecule, donor type, donor heavy atom, donor atom, acceptor molecule, acceptor atom, score
      L1  H    12    37       P1  7948  0.18
      P1  H 10752 10764       L1     9  0.03

> <Gold.Chemscore.Hbond.Weighted>
-3.2079

> <Gold.Chemscore.Metal.Weighted>
-0.0000

> <Gold.Chemscore.Lipo.Weighted>
-10.4724

> <Gold.Chemscore.Internal_Hbond.Weighted>
0.0000

> <Gold.Chemscore.DEClash.Weighted>
0.0402

> <Gold.Chemscore.DEInternal.Weighted>
0.4065

> <Gold.Chemscore.Rot.Weighted>
4.4170

> <Gold.Chemscore.Internal.Correction.Weighted>
   9.000000E+99

> <Gold.Protein.RotatedTorsions>
[ 6907 6896 6895 6894 ] final  133.30 input  -60.11 | X-H torsion
[ 7974 7965 7964 7962 ] final  159.11 input  175.53 | X-H torsion
[ 8008 7997 7996 7995 ] final  177.43 input   59.86 | X-H torsion
[ 10167 10162 10161 10158 ] final  133.01 input  -65.29 | X-H torsion
[ 10718 10713 10712 10709 ] final   12.12 input   66.30 | X-H torsion
[ 10763 10752 10751 10750 ] final  -28.79 input  -60.55 | X-H torsion
[ 11005 11000 10999 10996 ] final -103.54 input  -57.11 | X-H torsion

> <Gold.Protein.ActiveResidues>
 VAL166  LYS551  ARG553  GLY616  TRP617  ASP618  TYR619  PRO620  LYS621  CYS622 
 ASP623  PHE694  ASN695  SER759  ASP760  ASP761  ALA762  ILE779  LEU786  VAL792 
 PHE793  MET794  SER795  GLU796  ALA797  LYS798  CYS799  TRP800  GLU811  SER814 

> <Gold.Protein.RotatedAtoms>
  152.3234  133.5878  159.5759 H   0  0  0  0  0  0  0  0  0  0  0  0  # atno 6907 bound_to 6896
  150.7383  133.9977  159.3637 H   0  0  0  0  0  0  0  0  0  0  0  0  # atno 6908 bound_to 6896
  151.7860  135.0749  160.0431 H   0  0  0  0  0  0  0  0  0  0  0  0  # atno 6909 bound_to 6896
  144.7808  139.7572  143.6260 H   0  0  0  0  0  0  0  0  0  0  0  0  # atno 7974 bound_to 7965
  156.0657  140.1358  156.9888 H   0  0  0  0  0  0  0  0  0  0  0  0  # atno 8008 bound_to 7997
  154.4505  140.0982  156.6655 H   0  0  0  0  0  0  0  0  0  0  0  0  # atno 8009 bound_to 7997
  155.5307  140.3458  155.4428 H   0  0  0  0  0  0  0  0  0  0  0  0  # atno 8010 bound_to 7997
  139.5315  144.6635  151.4935 H   0  0  0  0  0  0  0  0  0  0  0  0  # atno 10167 bound_to 10162
  157.0056  130.6096  149.5701 H   0  0  0  0  0  0  0  0  0  0  0  0  # atno 10718 bound_to 10713
  153.7541  135.6924  153.4939 H   0  0  0  0  0  0  0  0  0  0  0  0  # atno 10763 bound_to 10752
  153.1983  135.4446  155.0234 H   0  0  0  0  0  0  0  0  0  0  0  0  # atno 10764 bound_to 10752
  154.8177  135.3406  154.7060 H   0  0  0  0  0  0  0  0  0  0  0  0  # atno 10765 bound_to 10752
  141.1141  133.8649  157.1499 H   0  0  0  0  0  0  0  0  0  0  0  0  # atno 11005 bound_to 11000
  146.2015  139.5312  142.9740 LP  0  0  0  0  0  0  0  0  0  0  0  0  # atno 17320 bound_to 7965
  145.6056  141.0348  143.1994 LP  0  0  0  0  0  0  0  0  0  0  0  0  # atno 17321 bound_to 7965
  140.6496  143.8724  150.6772 LP  0  0  0  0  0  0  0  0  0  0  0  0  # atno 17342 bound_to 10162
  140.2085  143.3902  152.1737 LP  0  0  0  0  0  0  0  0  0  0  0  0  # atno 17343 bound_to 10162
  156.0155  130.5249  150.8121 LP  0  0  0  0  0  0  0  0  0  0  0  0  # atno 17370 bound_to 10713
  157.5358  131.0938  150.9894 LP  0  0  0  0  0  0  0  0  0  0  0  0  # atno 17371 bound_to 10713
  140.0052  135.0011  157.0277 LP  0  0  0  0  0  0  0  0  0  0  0  0  # atno 17394 bound_to 11000
  140.4695  134.1401  155.7201 LP  0  0  0  0  0  0  0  0  0  0  0  0  # atno 17395 bound_to 11000

$$$$
