AV-unprocessed.smi:281|AV-procd|sdf|2101|dock2
  -GOLD-   2262021393D 1   1.00000     0.00000
 Structure written by MMmdl.
 55 59  0  0  0  0  0  0  0  0  1 V2000
  146.1569  136.0398  155.5676 C   0  0  0  0  0  0  0  0  0  0  0  0
  147.6398  135.7903  155.8606 C   0  0  2  0  0  0  0  0  0  0  0  0
  148.5147  136.9906  155.4657 C   0  0  0  0  0  0  0  0  0  0  0  0
  149.9169  136.6618  155.6708 N   0  0  0  0  0  0  0  0  0  0  0  0
  150.7443  137.7170  155.5189 C   0  0  0  0  0  0  0  0  0  0  0  0
  151.8984  137.5832  154.8136 N   0  0  0  0  0  0  0  0  0  0  0  0
  152.7129  138.6326  154.6657 C   0  0  0  0  0  0  0  0  0  0  0  0
  152.5660  139.8760  155.1296 N   0  0  0  0  0  0  0  0  0  0  0  0
  151.4050  140.0097  155.8339 C   0  0  0  0  0  0  0  0  0  0  0  0
  150.4459  138.9874  156.0751 C   0  0  0  0  0  0  0  0  0  0  0  0
  149.3947  139.4854  156.8336 N   0  0  0  0  0  0  0  0  0  0  0  0
  149.7151  140.7354  157.0313 C   0  0  0  0  0  0  0  0  0  0  0  0
  150.9019  141.1371  156.4591 N   0  0  0  0  0  0  0  0  0  0  0  0
  151.4933  142.4649  156.5160 C   0  0  0  0  0  0  0  0  0  0  0  0
  151.7061  142.9819  157.9580 C   0  0  1  0  0  0  0  0  0  0  0  0
  152.3973  141.9970  158.7065 O   0  0  0  0  0  0  0  0  0  0  0  0
  152.4885  144.2902  158.0432 C   0  0  0  0  0  0  0  0  0  0  0  0
  151.8787  144.9738  159.2588 C   0  0  0  0  0  0  0  0  0  0  0  0
  150.5027  144.6632  159.1257 O   0  0  0  0  0  0  0  0  0  0  0  0
  150.3880  143.3139  158.6861 C   0  0  0  0  0  0  0  0  0  0  0  0
  150.3249  135.4741  154.9324 C   0  0  0  0  0  0  0  0  0  0  0  0
  149.4259  134.2665  155.2846 C   0  0  2  0  0  0  0  0  0  0  0  0
  149.6722  133.7050  156.6928 C   0  0  0  0  0  0  0  0  0  0  0  0
  150.3675  132.3708  156.4553 C   0  0  0  0  0  0  0  0  0  0  0  0
  149.7892  131.9333  155.2401 O   0  0  0  0  0  0  0  0  0  0  0  0
  149.7569  133.0584  154.3753 C   0  0  1  0  0  0  0  0  0  0  0  0
  148.7943  132.8121  153.2049 C   0  0  0  0  0  0  0  0  0  0  0  0
  148.0507  134.6390  155.1209 O   0  0  0  0  0  0  0  0  0  0  0  0
  145.7889  136.9063  156.1178 H   0  0  0  0  0  0  0  0  0  0  0  0
  145.5526  135.1803  155.8583 H   0  0  0  0  0  0  0  0  0  0  0  0
  145.9892  136.2210  154.5055 H   0  0  0  0  0  0  0  0  0  0  0  0
  147.7497  135.6006  156.9288 H   0  0  0  0  0  0  0  0  0  0  0  0
  148.3476  137.2503  154.4191 H   0  0  0  0  0  0  0  0  0  0  0  0
  148.2463  137.8631  156.0633 H   0  0  0  0  0  0  0  0  0  0  0  0
  153.6104  138.4504  154.0932 H   0  0  0  0  0  0  0  0  0  0  0  0
  149.0870  141.4043  157.6013 H   0  0  0  0  0  0  0  0  0  0  0  0
  152.4455  142.4331  155.9847 H   0  0  0  0  0  0  0  0  0  0  0  0
  150.8560  143.1523  155.9580 H   0  0  0  0  0  0  0  0  0  0  0  0
  151.7627  141.4709  159.1686 H   0  0  0  0  0  0  0  0  0  0  0  0
  153.5684  144.1554  158.1202 H   0  0  0  0  0  0  0  0  0  0  0  0
  152.2921  144.9050  157.1640 H   0  0  0  0  0  0  0  0  0  0  0  0
  152.2662  144.5498  160.1865 H   0  0  0  0  0  0  0  0  0  0  0  0
  152.0505  146.0504  159.2695 H   0  0  0  0  0  0  0  0  0  0  0  0
  149.5177  143.2218  158.0355 H   0  0  0  0  0  0  0  0  0  0  0  0
  150.2202  142.6651  159.5474 H   0  0  0  0  0  0  0  0  0  0  0  0
  150.2567  135.6772  153.8624 H   0  0  0  0  0  0  0  0  0  0  0  0
  151.3697  135.2450  155.1479 H   0  0  0  0  0  0  0  0  0  0  0  0
  150.2543  134.3683  157.3334 H   0  0  0  0  0  0  0  0  0  0  0  0
  148.7238  133.5119  157.1952 H   0  0  0  0  0  0  0  0  0  0  0  0
  151.4430  132.5047  156.3278 H   0  0  0  0  0  0  0  0  0  0  0  0
  150.1999  131.6574  157.2624 H   0  0  0  0  0  0  0  0  0  0  0  0
  150.7666  133.1710  153.9755 H   0  0  0  0  0  0  0  0  0  0  0  0
  148.7472  133.6811  152.5482 H   0  0  0  0  0  0  0  0  0  0  0  0
  147.7844  132.5982  153.5554 H   0  0  0  0  0  0  0  0  0  0  0  0
  149.1221  131.9611  152.6077 H   0  0  0  0  0  0  0  0  0  0  0  0
  1  2  1  0  0  0  0
  1 29  1  0  0  0  0
  1 30  1  0  0  0  0
  1 31  1  0  0  0  0
  2 28  1  0  0  0  0
  2  3  1  0  0  0  0
  2 32  1  0  0  0  0
  3  4  1  0  0  0  0
  3 33  1  0  0  0  0
  3 34  1  0  0  0  0
  4  5  1  0  0  0  0
  4 21  1  0  0  0  0
  5 10  1  0  0  0  0
  5  6  2  0  0  0  0
  6  7  1  0  0  0  0
  7  8  2  0  0  0  0
  7 35  1  0  0  0  0
  8  9  1  0  0  0  0
  9 13  1  0  0  0  0
  9 10  2  0  0  0  0
 10 11  1  0  0  0  0
 11 12  2  0  0  0  0
 12 13  1  0  0  0  0
 12 36  1  0  0  0  0
 13 14  1  0  0  0  0
 14 15  1  0  0  0  0
 14 37  1  0  0  0  0
 14 38  1  0  0  0  0
 15 20  1  0  0  0  0
 15 16  1  0  0  0  0
 15 17  1  0  0  0  0
 16 39  1  0  0  0  0
 17 18  1  0  0  0  0
 17 40  1  0  0  0  0
 17 41  1  0  0  0  0
 18 19  1  0  0  0  0
 18 42  1  0  0  0  0
 18 43  1  0  0  0  0
 19 20  1  0  0  0  0
 20 44  1  0  0  0  0
 20 45  1  0  0  0  0
 21 22  1  0  0  0  0
 21 46  1  0  0  0  0
 21 47  1  0  0  0  0
 22 26  1  0  0  0  0
 22 23  1  0  0  0  0
 22 28  1  0  0  0  0
 23 24  1  0  0  0  0
 23 48  1  0  0  0  0
 23 49  1  0  0  0  0
 24 25  1  0  0  0  0
 24 50  1  0  0  0  0
 24 51  1  0  0  0  0
 25 26  1  0  0  0  0
 26 27  1  0  0  0  0
 26 52  1  0  0  0  0
 27 53  1  0  0  0  0
 27 54  1  0  0  0  0
 27 55  1  0  0  0  0
M  END
> <s_m_source_file>
AV-unprocessed.smi

> <i_m_source_file_index>
281

> <i_lp_mmshare_version>
43012

> <i_f3d_flags>
0

> <s_epik_input>
W0NIM11bQ0BASF0xT1tDSDJdW0NIMl1bQ0BAXTEyW0NIMl1OKFtDSDJdW0NASF0oTzIpW0NIM10pYyhuW2NIXW4zKWMoYzM0KW5bY0hdbjRbQ0gyXVtDQEBdNShbT0hdKVtDSDJdW0NIMl1PW0NIMl01

> <s_epik_cmdline>
J2VwaWtfcHl0aG9uJywgJy1waCcsICc3LjAnLCAnLXRuJywgJzgnLCAnLW1hJywgJzIwMCcsICctbWV0YWxfYmluZGluZycsICctaW1hZScsICc8aW5maWxlLm1hZT4nLCAnLW9tYWUnLCAnPG91dGZpbGUubWFlPic=

> <r_lp_tautomer_probability>
1

> <r_epik_Ionization_Penalty>
0.00571331

> <r_epik_Ionization_Penalty_Charging>
0

> <r_epik_Ionization_Penalty_Neutral>
0.00571331

> <r_epik_State_Penalty>
0.00399586

> <r_epik_Charging_Adjusted_Penalty>
0.00399586

> <i_epik_Tot_Q>
0

> <i_epik_Tot_abs_Q>
0

> <r_epik_Metal_State_Penalty>
-0

> <b_epik_Metal_Only>
0

> <s_lp_Force_Field>
OPLS_2005

> <r_lp_Energy>
53.2983

> <b_lp_Chiralities_Consistent>
1

> <s_lp_Variant>
AV-unprocessed.smi:281-1

> <Gold.Version>
5.8.1

> <Gold.Id.Protein>
6NUR|6NUR_protein|mol2

> <Gold.PLP.Fitness>
46.9332

> <Gold.PLP.PLP>
-42.4570

> <Gold.PLP.part.hbond>
-2.8142

> <Gold.PLP.part.metal>
0.0000

> <Gold.PLP.part.buried>
-8.2710

> <Gold.PLP.part.nonpolar>
-32.1942

> <Gold.PLP.part.repulsive>
0.4316

> <Gold.PLP.ligand.clash>
0.0000

> <Gold.PLP.ligand.torsion>
0.3010

> <Gold.PLP.Chemscore.Hbond>
1.6524

> <Gold.PLP.Chemscore.CHOScore>
0.0000

> <Gold.PLP.Chemscore.Metal>
0.0000

> <Gold.Chemscore.Hbonds>
donor molecule, donor type, donor heavy atom, donor atom, acceptor molecule, acceptor atom, score
      P1  H  7989  7998       L1     8  0.25
      P1  H  7997  8010       L1     8  0.94
      P1  H 10752 10763       L1     6  0.42

> <Gold.PLP.Chemscore.Internal.Correction>
0.1210

> <Gold.Rescore>
     Score         DG    S(hbond)    S(metal)    S(lipo)     H(rot)  DE(clash)    DE(int)     intcor
     11.74     -13.58       0.98        0.00      87.09       2.09       1.75       0.08       ----

> <Gold.Chemscore.Fitness>
11.7444

> <Gold.Chemscore.DG>
-13.5809

> <Gold.Chemscore.ZeroCoef>
-5.4800

> <Gold.Chemscore.Hbond>
0.9786

> <Gold.Chemscore.Metal>
0.0000

> <Gold.Chemscore.Lipo>
87.0918

> <Gold.Chemscore.Internal_Hbond>
0.0000

> <Gold.Chemscore.DEClash>
1.7518

> <Gold.Chemscore.DEInternal>
0.0846

> <Gold.Chemscore.Rot>
2.0927

> <Gold.Chemscore.Internal.Correction>
   9.000000E+99

> <Gold.Chemscore.Hbonds>
donor molecule, donor type, donor heavy atom, donor atom, acceptor molecule, acceptor atom, score
      P1  H  7997  8010       L1     8  0.27
      P1  H 10752 10763       L1     6  0.35

> <Gold.Chemscore.Hbond.Weighted>
-3.2685

> <Gold.Chemscore.Metal.Weighted>
-0.0000

> <Gold.Chemscore.Lipo.Weighted>
-10.1897

> <Gold.Chemscore.Internal_Hbond.Weighted>
0.0000

> <Gold.Chemscore.DEClash.Weighted>
1.7518

> <Gold.Chemscore.DEInternal.Weighted>
0.0846

> <Gold.Chemscore.Rot.Weighted>
5.3573

> <Gold.Chemscore.Internal.Correction.Weighted>
   9.000000E+99

> <Gold.Protein.RotatedTorsions>
[ 6907 6896 6895 6894 ] final  -77.97 input  -60.11 | X-H torsion
[ 7974 7965 7964 7962 ] final  166.10 input  175.53 | X-H torsion
[ 8008 7997 7996 7995 ] final   94.20 input   59.86 | X-H torsion
[ 10167 10162 10161 10158 ] final -162.05 input  -65.29 | X-H torsion
[ 10718 10713 10712 10709 ] final  164.28 input   66.30 | X-H torsion
[ 10763 10752 10751 10750 ] final   49.09 input  -60.55 | X-H torsion
[ 11005 11000 10999 10996 ] final  136.42 input  -57.11 | X-H torsion

> <Gold.Protein.ActiveResidues>
 VAL166  LYS551  ARG553  GLY616  TRP617  ASP618  TYR619  PRO620  LYS621  CYS622 
 ASP623  PHE694  ASN695  SER759  ASP760  ASP761  ALA762  ILE779  LEU786  VAL792 
 PHE793  MET794  SER795  GLU796  ALA797  LYS798  CYS799  TRP800  GLU811  SER814 

> <Gold.Protein.RotatedAtoms>
  150.6985  134.4342  159.5262 H   0  0  0  0  0  0  0  0  0  0  0  0  # atno 6907 bound_to 6896
  152.2064  134.8539  160.0511 H   0  0  0  0  0  0  0  0  0  0  0  0  # atno 6908 bound_to 6896
  151.9440  133.3611  159.4012 H   0  0  0  0  0  0  0  0  0  0  0  0  # atno 6909 bound_to 6896
  144.7476  139.8566  143.6377 H   0  0  0  0  0  0  0  0  0  0  0  0  # atno 7974 bound_to 7965
  156.0553  140.3303  155.7398 H   0  0  0  0  0  0  0  0  0  0  0  0  # atno 8008 bound_to 7997
  155.5538  140.0612  157.2861 H   0  0  0  0  0  0  0  0  0  0  0  0  # atno 8009 bound_to 7997
  154.4455  140.1889  156.0702 H   0  0  0  0  0  0  0  0  0  0  0  0  # atno 8010 bound_to 7997
  139.6420  144.0241  152.2099 H   0  0  0  0  0  0  0  0  0  0  0  0  # atno 10167 bound_to 10162
  157.0965  131.0431  151.2515 H   0  0  0  0  0  0  0  0  0  0  0  0  # atno 10718 bound_to 10713
  152.9788  135.5923  154.4032 H   0  0  0  0  0  0  0  0  0  0  0  0  # atno 10763 bound_to 10752
  154.3675  135.2767  155.2287 H   0  0  0  0  0  0  0  0  0  0  0  0  # atno 10764 bound_to 10752
  154.4257  135.6048  153.6092 H   0  0  0  0  0  0  0  0  0  0  0  0  # atno 10765 bound_to 10752
  140.0045  134.9465  157.0145 H   0  0  0  0  0  0  0  0  0  0  0  0  # atno 11005 bound_to 11000
  146.1378  139.4428  143.0128 LP  0  0  0  0  0  0  0  0  0  0  0  0  # atno 17320 bound_to 7965
  145.7064  141.0120  143.1476 LP  0  0  0  0  0  0  0  0  0  0  0  0  # atno 17321 bound_to 7965
  139.9933  144.6346  150.7795 LP  0  0  0  0  0  0  0  0  0  0  0  0  # atno 17342 bound_to 10162
  140.7496  143.2941  151.3252 LP  0  0  0  0  0  0  0  0  0  0  0  0  # atno 17343 bound_to 10162
  157.4677  130.7690  149.7294 LP  0  0  0  0  0  0  0  0  0  0  0  0  # atno 17370 bound_to 10713
  155.9884  130.3959  150.3119 LP  0  0  0  0  0  0  0  0  0  0  0  0  # atno 17371 bound_to 10713
  140.4667  134.1429  155.7198 LP  0  0  0  0  0  0  0  0  0  0  0  0  # atno 17394 bound_to 11000
  141.1666  133.8690  157.1695 LP  0  0  0  0  0  0  0  0  0  0  0  0  # atno 17395 bound_to 11000

$$$$
