AV-unprocessed.smi:709|AV-procd|sdf|3460|dock7
  -GOLD-   22720 0453D 1   1.00000     0.00000
 Structure written by MMmdl.
 48 50  0  0  0  0  0  0  0  0  1 V2000
  144.8562  137.1078  152.8108 C   0  0  0  0  0  0  0  0  0  0  0  0
  146.1925  137.8112  152.5645 C   0  0  0  0  0  0  0  0  0  0  0  0
  146.4179  138.7433  153.6080 O   0  0  0  0  0  0  0  0  0  0  0  0
  147.6314  139.4614  153.4508 C   0  0  2  0  0  0  0  0  0  0  0  0
  148.8913  138.6947  153.8671 C   0  0  0  0  0  0  0  0  0  0  0  0
  149.3988  140.0404  154.3896 C   0  0  2  0  0  0  0  0  0  0  0  0
  150.1858  139.9132  155.6115 N   0  0  0  0  0  0  0  0  0  0  0  0
  150.6119  140.9506  156.3449 C   0  0  0  0  0  0  0  0  0  0  0  0
  150.3748  142.1219  156.0514 O   0  0  0  0  0  0  0  0  0  0  0  0
  151.3025  140.5286  157.4206 N   0  0  0  0  0  0  0  0  0  0  0  0
  151.9430  141.2754  158.4264 C   0  0  0  0  0  0  0  0  0  0  0  0
  151.5001  142.4626  158.9130 C   0  0  0  0  0  0  0  0  0  0  0  0
  152.2325  143.1640  159.9399 C   0  0  0  0  0  0  0  0  0  0  0  0
  153.3684  142.6201  160.3974 C   0  0  0  0  0  0  0  0  0  0  0  0
  153.8505  141.3965  159.9030 N   0  0  0  0  0  0  0  0  0  0  0  0
  155.1037  140.8857  160.4644 C   0  0  0  0  0  0  0  0  0  0  0  0
  153.1974  140.6863  158.9354 C   0  0  0  0  0  0  0  0  0  0  0  0
  153.6449  139.6142  158.5207 O   0  0  0  0  0  0  0  0  0  0  0  0
  147.9202  140.4561  154.6030 C   0  0  0  0  0  0  0  0  0  0  0  0
  147.2468  140.1810  155.9543 C   0  0  0  0  0  0  0  0  0  0  0  0
  145.9342  140.9667  155.9571 C   0  0  0  0  0  0  0  0  0  0  0  0
  146.1475  142.1254  154.9776 C   0  0  0  0  0  0  0  0  0  0  0  0
  147.5378  141.9135  154.3680 C   0  0  0  0  0  0  0  0  0  0  0  0
  144.6491  136.3791  152.0269 H   0  0  0  0  0  0  0  0  0  0  0  0
  144.0346  137.8242  152.8280 H   0  0  0  0  0  0  0  0  0  0  0  0
  144.8623  136.5806  153.7651 H   0  0  0  0  0  0  0  0  0  0  0  0
  146.9991  137.0776  152.5300 H   0  0  0  0  0  0  0  0  0  0  0  0
  146.1696  138.3230  151.6013 H   0  0  0  0  0  0  0  0  0  0  0  0
  147.7279  139.9289  152.4676 H   0  0  0  0  0  0  0  0  0  0  0  0
  148.7061  137.9556  154.6490 H   0  0  0  0  0  0  0  0  0  0  0  0
  149.4659  138.2772  153.0400 H   0  0  0  0  0  0  0  0  0  0  0  0
  149.8876  140.6194  153.6019 H   0  0  0  0  0  0  0  0  0  0  0  0
  150.4139  138.9786  155.9180 H   0  0  0  0  0  0  0  0  0  0  0  0
  151.3618  139.5283  157.5457 H   0  0  0  0  0  0  0  0  0  0  0  0
  150.6024  142.9334  158.5479 H   0  0  0  0  0  0  0  0  0  0  0  0
  151.8738  144.1053  160.3295 H   0  0  0  0  0  0  0  0  0  0  0  0
  153.9732  143.0839  161.1629 H   0  0  0  0  0  0  0  0  0  0  0  0
  154.9446  139.9145  160.9348 H   0  0  0  0  0  0  0  0  0  0  0  0
  155.5280  141.5478  161.2200 H   0  0  0  0  0  0  0  0  0  0  0  0
  155.8536  140.7656  159.6811 H   0  0  0  0  0  0  0  0  0  0  0  0
  147.0773  139.1197  156.1391 H   0  0  0  0  0  0  0  0  0  0  0  0
  147.8688  140.5458  156.7722 H   0  0  0  0  0  0  0  0  0  0  0  0
  145.1196  140.3328  155.6046 H   0  0  0  0  0  0  0  0  0  0  0  0
  145.6722  141.3133  156.9573 H   0  0  0  0  0  0  0  0  0  0  0  0
  145.3820  142.1018  154.2012 H   0  0  0  0  0  0  0  0  0  0  0  0
  146.0806  143.0935  155.4748 H   0  0  0  0  0  0  0  0  0  0  0  0
  148.2531  142.5683  154.8667 H   0  0  0  0  0  0  0  0  0  0  0  0
  147.5523  142.1824  153.3114 H   0  0  0  0  0  0  0  0  0  0  0  0
  1  2  1  0  0  0  0
  1 24  1  0  0  0  0
  1 25  1  0  0  0  0
  1 26  1  0  0  0  0
  2  3  1  0  0  0  0
  2 27  1  0  0  0  0
  2 28  1  0  0  0  0
  3  4  1  0  0  0  0
  4 19  1  0  0  0  0
  4  5  1  0  0  0  0
  4 29  1  0  0  0  0
  5  6  1  0  0  0  0
  5 30  1  0  0  0  0
  5 31  1  0  0  0  0
  6  7  1  0  0  0  0
  6 19  1  0  0  0  0
  6 32  1  0  0  0  0
  7  8  1  0  0  0  0
  7 33  1  0  0  0  0
  8  9  2  0  0  0  0
  8 10  1  0  0  0  0
 10 11  1  0  0  0  0
 10 34  1  0  0  0  0
 11 17  1  0  0  0  0
 11 12  2  0  0  0  0
 12 13  1  0  0  0  0
 12 35  1  0  0  0  0
 13 14  2  0  0  0  0
 13 36  1  0  0  0  0
 14 15  1  0  0  0  0
 14 37  1  0  0  0  0
 15 16  1  0  0  0  0
 15 17  1  0  0  0  0
 16 38  1  0  0  0  0
 16 39  1  0  0  0  0
 16 40  1  0  0  0  0
 17 18  2  0  0  0  0
 19 23  1  0  0  0  0
 19 20  1  0  0  0  0
 20 21  1  0  0  0  0
 20 41  1  0  0  0  0
 20 42  1  0  0  0  0
 21 22  1  0  0  0  0
 21 43  1  0  0  0  0
 21 44  1  0  0  0  0
 22 23  1  0  0  0  0
 22 45  1  0  0  0  0
 22 46  1  0  0  0  0
 23 47  1  0  0  0  0
 23 48  1  0  0  0  0
M  END
> <s_m_source_file>
AV-unprocessed.smi

> <i_m_source_file_index>
709

> <i_lp_mmshare_version>
43012

> <i_f3d_flags>
0

> <s_epik_input>
W0NIMl0xW0NIMl1bQ0gyXVtDSDJdQzEyW0NASF0oT1tDSDJdW0NIM10pW0NIMl1bQ0BIXTJbTkhdQyg9TylbTkhdYzNbY0hdW2NIXVtjSF1uKFtDSDNdKWMzPU8=

> <s_epik_cmdline>
J2VwaWtfcHl0aG9uJywgJy1waCcsICc3LjAnLCAnLXRuJywgJzgnLCAnLW1hJywgJzIwMCcsICctbWV0YWxfYmluZGluZycsICctaW1hZScsICc8aW5maWxlLm1hZT4nLCAnLW9tYWUnLCAnPG91dGZpbGUubWFlPic=

> <r_lp_tautomer_probability>
1

> <r_epik_Ionization_Penalty>
2.50859e-05

> <r_epik_Ionization_Penalty_Charging>
5.10493e-06

> <r_epik_Ionization_Penalty_Neutral>
1.9981e-05

> <r_epik_State_Penalty>
-0

> <r_epik_Charging_Adjusted_Penalty>
5.10493e-06

> <i_epik_Tot_Q>
0

> <i_epik_Tot_abs_Q>
0

> <r_epik_Metal_State_Penalty>
-0

> <b_epik_Metal_Only>
0

> <s_lp_Force_Field>
OPLS_2005

> <r_lp_Energy>
49.811

> <b_lp_Chiralities_Consistent>
1

> <s_lp_Variant>
AV-unprocessed.smi:709-3

> <Gold.Version>
5.8.1

> <Gold.Id.Protein>
6NUR|6NUR_protein|mol2

> <Gold.PLP.Fitness>
41.1298

> <Gold.PLP.PLP>
-38.6917

> <Gold.PLP.part.hbond>
-1.0000

> <Gold.PLP.part.metal>
0.0000

> <Gold.PLP.part.buried>
-1.7663

> <Gold.PLP.part.nonpolar>
-37.2731

> <Gold.PLP.part.repulsive>
0.9899

> <Gold.PLP.ligand.clash>
0.0000

> <Gold.PLP.ligand.torsion>
0.4383

> <Gold.PLP.Chemscore.Hbond>
1.0000

> <Gold.PLP.Chemscore.CHOScore>
0.0000

> <Gold.PLP.Chemscore.Metal>
0.0000

> <Gold.Chemscore.Hbonds>
donor molecule, donor type, donor heavy atom, donor atom, acceptor molecule, acceptor atom, score
      P1  H  7997  8008       L1    18  1.00

> <Gold.PLP.Chemscore.Internal.Correction>
0.3146

> <Gold.Rescore>
     Score         DG    S(hbond)    S(metal)    S(lipo)     H(rot)  DE(clash)    DE(int)     intcor
     15.75     -16.77       0.97        0.00      98.44       1.36       0.46       0.56       ----

> <Gold.Chemscore.Fitness>
15.7504

> <Gold.Chemscore.DG>
-16.7718

> <Gold.Chemscore.ZeroCoef>
-5.4800

> <Gold.Chemscore.Hbond>
0.9746

> <Gold.Chemscore.Metal>
0.0000

> <Gold.Chemscore.Lipo>
98.4449

> <Gold.Chemscore.Internal_Hbond>
0.0000

> <Gold.Chemscore.DEClash>
0.4585

> <Gold.Chemscore.DEInternal>
0.5629

> <Gold.Chemscore.Rot>
1.3599

> <Gold.Chemscore.Internal.Correction>
   9.000000E+99

> <Gold.Chemscore.Hbonds>
donor molecule, donor type, donor heavy atom, donor atom, acceptor molecule, acceptor atom, score
      P1  H  7997  8008       L1    18  0.55

> <Gold.Chemscore.Hbond.Weighted>
-3.2550

> <Gold.Chemscore.Metal.Weighted>
-0.0000

> <Gold.Chemscore.Lipo.Weighted>
-11.5181

> <Gold.Chemscore.Internal_Hbond.Weighted>
0.0000

> <Gold.Chemscore.DEClash.Weighted>
0.4585

> <Gold.Chemscore.DEInternal.Weighted>
0.5629

> <Gold.Chemscore.Rot.Weighted>
3.4813

> <Gold.Chemscore.Internal.Correction.Weighted>
   9.000000E+99

> <Gold.Protein.RotatedTorsions>
[ 6907 6896 6895 6894 ] final -124.11 input  -60.11 | X-H torsion
[ 7974 7965 7964 7962 ] final  -90.77 input  175.53 | X-H torsion
[ 8008 7997 7996 7995 ] final  -91.35 input   59.86 | X-H torsion
[ 10167 10162 10161 10158 ] final  153.28 input  -65.29 | X-H torsion
[ 10718 10713 10712 10709 ] final  118.94 input   66.30 | X-H torsion
[ 10763 10752 10751 10750 ] final  141.46 input  -60.55 | X-H torsion
[ 11005 11000 10999 10996 ] final  -83.80 input  -57.11 | X-H torsion

> <Gold.Protein.ActiveResidues>
 VAL166  LYS551  ARG553  GLY616  TRP617  ASP618  TYR619  PRO620  LYS621  CYS622 
 ASP623  PHE694  ASN695  SER759  ASP760  ASP761  ALA762  ILE779  LEU786  VAL792 
 PHE793  MET794  SER795  GLU796  ALA797  LYS798  CYS799  TRP800  GLU811  SER814 

> <Gold.Protein.RotatedAtoms>
  150.8736  133.7471  159.2953 H   0  0  0  0  0  0  0  0  0  0  0  0  # atno 6907 bound_to 6896
  151.5075  135.1062  159.9854 H   0  0  0  0  0  0  0  0  0  0  0  0  # atno 6908 bound_to 6896
  152.4712  133.7989  159.6998 H   0  0  0  0  0  0  0  0  0  0  0  0  # atno 6909 bound_to 6896
  145.4221  140.9551  143.2175 H   0  0  0  0  0  0  0  0  0  0  0  0  # atno 7974 bound_to 7965
  154.7096  140.0520  157.0538 H   0  0  0  0  0  0  0  0  0  0  0  0  # atno 8008 bound_to 7997
  155.0572  140.3185  155.4653 H   0  0  0  0  0  0  0  0  0  0  0  0  # atno 8009 bound_to 7997
  156.2785  140.2105  156.5699 H   0  0  0  0  0  0  0  0  0  0  0  0  # atno 8010 bound_to 7997
  139.4828  144.5286  151.7760 H   0  0  0  0  0  0  0  0  0  0  0  0  # atno 10167 bound_to 10162
  157.5996  131.1053  150.7827 H   0  0  0  0  0  0  0  0  0  0  0  0  # atno 10718 bound_to 10713
  153.9397  135.2981  155.3443 H   0  0  0  0  0  0  0  0  0  0  0  0  # atno 10763 bound_to 10752
  154.7483  135.4992  153.9247 H   0  0  0  0  0  0  0  0  0  0  0  0  # atno 10764 bound_to 10752
  153.1049  135.6744  153.9712 H   0  0  0  0  0  0  0  0  0  0  0  0  # atno 10765 bound_to 10752
  141.1655  133.7313  156.8774 H   0  0  0  0  0  0  0  0  0  0  0  0  # atno 11005 bound_to 11000
  144.8239  139.5744  143.6974 LP  0  0  0  0  0  0  0  0  0  0  0  0  # atno 17320 bound_to 7965
  146.2651  139.6501  142.9335 LP  0  0  0  0  0  0  0  0  0  0  0  0  # atno 17321 bound_to 7965
  140.4809  144.1451  150.5932 LP  0  0  0  0  0  0  0  0  0  0  0  0  # atno 17342 bound_to 10162
  140.4279  143.2582  151.9633 LP  0  0  0  0  0  0  0  0  0  0  0  0  # atno 17343 bound_to 10162
  156.8229  130.4990  149.5341 LP  0  0  0  0  0  0  0  0  0  0  0  0  # atno 17370 bound_to 10713
  156.1066  130.6009  150.9980 LP  0  0  0  0  0  0  0  0  0  0  0  0  # atno 17371 bound_to 10713
  140.1739  134.9081  157.2867 LP  0  0  0  0  0  0  0  0  0  0  0  0  # atno 17394 bound_to 11000
  140.2471  134.3727  155.7457 LP  0  0  0  0  0  0  0  0  0  0  0  0  # atno 17395 bound_to 11000

$$$$
