#       Name:                AV-unprocessed.smi:12
#       Creating user name   scv26
#       Creation time:       Thu Mar 26 15:18:24 2020


#       File generated by GOLD software.
#

@<TRIPOS>MOLECULE
AV-unprocessed.smi:12
    52    55     1
SMALL
NO_CHARGES


@<TRIPOS>ATOM
      1 ****        -3.3574   5.8697   0.6059 C.3            1 S1                 0.0000
      2 ****        -3.2269   4.3917   0.9276 C.2            1 S1                 0.0000
      3 ****        -2.8455   3.4905  -0.0081 C.2            1 S1                 0.0000
      4 ****        -2.7377   2.1719   0.3348 N.pl3          1 S1                 0.0000
      5 ****        -3.0466   1.7627   1.6520 C.2            1 S1                 0.0000
      6 ****        -3.4195   2.5633   2.6015 N.2            1 S1                 0.0000
      7 ****        -3.5270   3.9363   2.3084 C.2            1 S1                 0.0000
      8 ****        -3.8655   4.7355   3.1803 O.2            1 S1                 0.0000
      9 ****        -2.9010   0.4110   1.7432 O.3            1 S1                 0.0000
     10 ****        -2.4598  -0.1083   0.4804 C.3            1 S1                 0.0000
     11 ****        -1.0372  -0.6739   0.5170 C.3            1 S1                 0.0000
     12 ****        -0.3228  -0.2540   1.6668 O.3            1 S1                 0.0000
     13 ****        -0.4079  -0.0884  -0.7560 C.3            1 S1                 0.0000
     14 ****         1.1236   0.0353  -0.7818 C.3            1 S1                 0.0000
     15 ****         1.7052  -1.2588  -0.7779 O.3            1 S1                 0.0000
     16 ****         3.0464  -1.3932  -0.7840 C.2            1 S1                 0.0000
     17 ****         3.8271  -0.4394  -0.7852 O.2            1 S1                 0.0000
     18 ****         3.4890  -2.8176  -0.7927 C.ar           1 S1                 0.0000
     19 ****         4.8724  -3.1127  -0.8117 C.ar           1 S1                 0.0000
     20 ****         5.3215  -4.4475  -0.8268 C.ar           1 S1                 0.0000
     21 ****         4.3924  -5.5041  -0.8221 C.ar           1 S1                 0.0000
     22 ****         3.0136  -5.2241  -0.8012 C.ar           1 S1                 0.0000
     23 ****         2.5625  -3.8896  -0.7860 C.ar           1 S1                 0.0000
     24 ****        -1.0235   1.1850  -0.8810 O.3            1 S1                 0.0000
     25 ****        -2.3624   1.0515  -0.5274 C.3            1 S1                 0.0000
     26 ****        -3.1130   6.0709  -0.4377 H              1 S1                 0.0000
     27 ****        -2.6823   6.4569   1.2292 H              1 S1                 0.0000
     28 ****        -4.3774   6.2109   0.7856 H              1 S1                 0.0000
     29 ****        -2.6201   3.7981  -1.0188 H              1 S1                 0.0000
     30 ****        -3.1694  -0.8427   0.0974 H              1 S1                 0.0000
     31 ****        -1.0374  -1.7641   0.4975 H              1 S1                 0.0000
     32 ****         0.5550  -0.6002   1.6192 H              1 S1                 0.0000
     33 ****        -0.7294  -0.6833  -1.6134 H              1 S1                 0.0000
     34 ****         1.4308   0.5605  -1.6872 H              1 S1                 0.0000
     35 ****         1.4835   0.6194   0.0663 H              1 S1                 0.0000
     36 ****         5.6049  -2.3184  -0.8168 H              1 S1                 0.0000
     37 ****         6.3804  -4.6598  -0.8427 H              1 S1                 0.0000
     38 ****         4.7372  -6.5277  -0.8348 H              1 S1                 0.0000
     39 ****         2.2994  -6.0344  -0.7975 H              1 S1                 0.0000
     40 ****         1.4975  -3.7099  -0.7708 H              1 S1                 0.0000
     41 ****        -3.0747   1.0322  -1.3530 H              1 S1                 0.0000
     42 ****        -3.6249   2.2153   3.5163 LP             1 S1                 0.0000
     43 ****        -3.9421   5.7088   2.9639 LP             1 S1                 0.0000
     44 ****        -4.0640   4.4118   4.1054 LP             1 S1                 0.0000
     45 ****        -3.7782  -0.0033   1.9860 LP             1 S1                 0.0000
     46 ****        -2.2243   0.1952   2.4472 LP             1 S1                 0.0000
     47 ****        -0.7762  -0.5974   2.4893 LP             1 S1                 0.0000
     48 ****        -0.2898   0.7450   1.6968 LP             1 S1                 0.0000
     49 ****         3.4737   0.4960  -0.7815 LP             1 S1                 0.0000
     50 ****         4.8140  -0.6010  -0.7898 LP             1 S1                 0.0000
     51 ****        -0.9522   1.5052  -1.8256 LP             1 S1                 0.0000
     52 ****        -0.5753   1.8398  -0.2724 LP             1 S1                 0.0000
@<TRIPOS>BOND
    1    1    2 1     
    2    1   26 1     
    3    1   27 1     
    4    1   28 1     
    5    2    7 1     
    6    2    3 2     
    7    3    4 1     
    8    3   29 1     
    9    4   25 1     
   10    4    5 1     
   11    5    6 2     
   12    5    9 1     
   13    6    7 1     
   14    7    8 2     
   15    9   10 1     
   16   10   25 1     
   17   10   11 1     
   18   10   30 1     
   19   11   12 1     
   20   11   13 1     
   21   11   31 1     
   22   12   32 1     
   23   13   14 1     
   24   13   24 1     
   25   13   33 1     
   26   14   15 1     
   27   14   34 1     
   28   14   35 1     
   29   15   16 1     
   30   16   17 2     
   31   16   18 1     
   32   18   23 ar    
   33   18   19 ar    
   34   19   20 ar    
   35   19   36 1     
   36   20   21 ar    
   37   20   37 1     
   38   21   22 ar    
   39   21   38 1     
   40   22   23 ar    
   41   22   39 1     
   42   23   40 1     
   43   24   25 1     
   44   25   41 1     
   45    6   42 1     
   46    8   43 1     
   47    8   44 1     
   48    9   45 1     
   49    9   46 1     
   50   12   47 1     
   51   12   48 1     
   52   17   49 1     
   53   17   50 1     
   54   24   51 1     
   55   24   52 1     
@<TRIPOS>SUBSTRUCTURE
      1 S1             1
@<TRIPOS>SET
LONE_PAIRS      STATIC     ATOMS    <user>   **** ""
11 42 43 44 45 46 47 48 49 50 51 52
DONOR_HYDROGENS      STATIC     ATOMS    <user>   **** ""
1 32
ATOM$BLUE        STATIC     ATOMS    COLORGROUP SYSTEM
11 42 43 44 45 46 47 48 49 50 51 52
ATOM$RED        STATIC     ATOMS    COLORGROUP SYSTEM
1 32
