AV-unprocessed.smi:1099|AV-procd|sdf|4758|dock9
  -GOLD-   22720 3293D 1   1.00000     0.00000
 Structure written by MMmdl.
 41 43  0  0  0  0  0  0  0  0  1 V2000
  152.9405  143.0435  161.9624 C   0  0  0  0  0  0  0  0  0  0  0  0
  153.5509  142.6178  160.6240 C   0  0  0  0  0  0  0  0  0  0  0  0
  152.7141  143.0163  159.4546 C   0  0  0  0  0  0  0  0  0  0  0  0
  152.2460  142.1491  158.5533 N   0  0  0  0  0  0  0  0  0  0  0  0
  151.4933  142.7680  157.5497 C   0  0  0  0  0  0  0  0  0  0  0  0
  150.8780  141.9435  156.4557 C   0  0  0  0  0  0  0  0  0  0  0  0
  149.7338  141.0262  156.9296 C   0  0  0  0  0  0  0  0  0  0  0  0
  149.1940  140.1894  155.8596 N   0  0  0  0  0  0  0  0  0  0  0  0
  148.9231  140.6017  154.6104 C   0  0  0  0  0  0  0  0  0  0  0  0
  149.0998  141.7607  154.2337 O   0  0  0  0  0  0  0  0  0  0  0  0
  148.3624  139.5381  153.6499 C   0  0  1  0  0  0  0  0  0  0  0  0
  148.0788  138.1794  154.3361 C   0  0  0  0  0  0  0  0  0  0  0  0
  146.5930  137.9231  154.0166 C   0  0  2  0  0  0  0  0  0  0  0  0
  146.4379  137.6266  152.5131 C   0  0  0  0  0  0  0  0  0  0  0  0
  146.6715  139.0075  151.8694 C   0  0  0  0  0  0  0  0  0  0  0  0
  146.9641  139.9022  153.0894 C   0  0  1  0  0  0  0  0  0  0  0  0
  145.9980  139.3201  154.1210 C   0  0  0  0  0  0  0  0  0  0  0  0
  151.3747  144.1246  157.7219 C   0  0  0  0  0  0  0  0  0  0  0  0
  152.2012  144.6724  159.1540 S   0  0  0  0  0  0  0  0  0  0  0  0
  153.5844  142.7541  162.7931 H   0  0  0  0  0  0  0  0  0  0  0  0
  151.9707  142.5704  162.1143 H   0  0  0  0  0  0  0  0  0  0  0  0
  152.8009  144.1241  162.0073 H   0  0  0  0  0  0  0  0  0  0  0  0
  154.5406  143.0610  160.5112 H   0  0  0  0  0  0  0  0  0  0  0  0
  153.6899  141.5363  160.6056 H   0  0  0  0  0  0  0  0  0  0  0  0
  150.5035  142.5979  155.6681 H   0  0  0  0  0  0  0  0  0  0  0  0
  151.6457  141.3301  155.9821 H   0  0  0  0  0  0  0  0  0  0  0  0
  150.0802  140.4074  157.7589 H   0  0  0  0  0  0  0  0  0  0  0  0
  148.9222  141.6338  157.3302 H   0  0  0  0  0  0  0  0  0  0  0  0
  149.0108  139.2228  156.0870 H   0  0  0  0  0  0  0  0  0  0  0  0
  149.0702  139.4023  152.8301 H   0  0  0  0  0  0  0  0  0  0  0  0
  148.7160  137.3868  153.9437 H   0  0  0  0  0  0  0  0  0  0  0  0
  148.2351  138.2188  155.4155 H   0  0  0  0  0  0  0  0  0  0  0  0
  146.1304  137.1747  154.6605 H   0  0  0  0  0  0  0  0  0  0  0  0
  147.1495  136.8773  152.1641 H   0  0  0  0  0  0  0  0  0  0  0  0
  145.4337  137.2645  152.2890 H   0  0  0  0  0  0  0  0  0  0  0  0
  147.4896  139.0005  151.1480 H   0  0  0  0  0  0  0  0  0  0  0  0
  145.7732  139.3439  151.3500 H   0  0  0  0  0  0  0  0  0  0  0  0
  146.8267  140.9656  152.8884 H   0  0  0  0  0  0  0  0  0  0  0  0
  144.9530  139.3684  153.8094 H   0  0  0  0  0  0  0  0  0  0  0  0
  146.0859  139.7543  155.1170 H   0  0  0  0  0  0  0  0  0  0  0  0
  150.8376  144.8296  157.1049 H   0  0  0  0  0  0  0  0  0  0  0  0
  1  2  1  0  0  0  0
  1 20  1  0  0  0  0
  1 21  1  0  0  0  0
  1 22  1  0  0  0  0
  2  3  1  0  0  0  0
  2 23  1  0  0  0  0
  2 24  1  0  0  0  0
  3 19  1  0  0  0  0
  3  4  2  0  0  0  0
  4  5  1  0  0  0  0
  5  6  1  0  0  0  0
  5 18  2  0  0  0  0
  6  7  1  0  0  0  0
  6 25  1  0  0  0  0
  6 26  1  0  0  0  0
  7  8  1  0  0  0  0
  7 27  1  0  0  0  0
  7 28  1  0  0  0  0
  8  9  1  0  0  0  0
  8 29  1  0  0  0  0
  9 10  2  0  0  0  0
  9 11  1  0  0  0  0
 11 16  1  0  0  0  0
 11 12  1  0  0  0  0
 11 30  1  0  0  0  0
 12 13  1  0  0  0  0
 12 31  1  0  0  0  0
 12 32  1  0  0  0  0
 13 17  1  0  0  0  0
 13 14  1  0  0  0  0
 13 33  1  0  0  0  0
 14 15  1  0  0  0  0
 14 34  1  0  0  0  0
 14 35  1  0  0  0  0
 15 16  1  0  0  0  0
 15 36  1  0  0  0  0
 15 37  1  0  0  0  0
 16 17  1  0  0  0  0
 16 38  1  0  0  0  0
 17 39  1  0  0  0  0
 17 40  1  0  0  0  0
 18 19  1  0  0  0  0
 18 41  1  0  0  0  0
M  END
> <s_m_source_file>
AV-unprocessed.smi

> <i_m_source_file_index>
1099

> <i_lp_mmshare_version>
43012

> <i_f3d_flags>
0

> <s_epik_input>
W0NIM11bQ0gyXWMxbmMoW2NIXXMxKVtDSDJdW0NIMl1bTkhdQyg9TylbQ0BIXShbQ0gyXVtDQEBIXTIzKVtDQEBIXShbQ0gyXTMpW0NIMl1bQ0gyXTI=

> <s_epik_cmdline>
J2VwaWtfcHl0aG9uJywgJy1waCcsICc3LjAnLCAnLXRuJywgJzgnLCAnLW1hJywgJzIwMCcsICctbWV0YWxfYmluZGluZycsICctaW1hZScsICc8aW5maWxlLm1hZT4nLCAnLW9tYWUnLCAnPG91dGZpbGUubWFlPic=

> <r_epik_Ionization_Penalty>
0.00110131

> <r_epik_Ionization_Penalty_Charging>
0

> <r_epik_Ionization_Penalty_Neutral>
0.00110131

> <r_epik_State_Penalty>
0.00072257

> <r_epik_Charging_Adjusted_Penalty>
0.00072257

> <i_epik_Tot_Q>
0

> <i_epik_Tot_abs_Q>
0

> <r_epik_Metal_State_Penalty>
-0

> <b_epik_Metal_Only>
0

> <s_lp_Force_Field>
OPLS_2005

> <r_lp_Energy>
38.7505

> <b_lp_Chiralities_Consistent>
1

> <s_lp_Variant>
AV-unprocessed.smi:1099-4

> <Gold.Version>
5.8.1

> <Gold.Id.Protein>
6NUR|6NUR_protein|mol2

> <Gold.PLP.Fitness>
43.4442

> <Gold.PLP.PLP>
-39.2488

> <Gold.PLP.part.hbond>
-1.9677

> <Gold.PLP.part.metal>
0.0000

> <Gold.PLP.part.buried>
4.2010

> <Gold.PLP.part.nonpolar>
-40.6319

> <Gold.PLP.part.repulsive>
0.2278

> <Gold.PLP.ligand.clash>
0.0000

> <Gold.PLP.ligand.torsion>
0.2462

> <Gold.PLP.Chemscore.Hbond>
0.5440

> <Gold.PLP.Chemscore.CHOScore>
1.0000

> <Gold.PLP.Chemscore.Metal>
0.0000

> <Gold.Chemscore.Hbonds>
donor molecule, donor type, donor heavy atom, donor atom, acceptor molecule, acceptor atom, score
      P1  H  8011  8017       L1    10  0.40
      L1  C    18    41       P1  8028  1.00

> <Gold.PLP.Chemscore.Internal.Correction>
0.0557

> <Gold.Rescore>
     Score         DG    S(hbond)    S(metal)    S(lipo)     H(rot)  DE(clash)    DE(int)     intcor
     15.38     -18.34       0.61        0.00     123.37       1.42       1.38       1.59       ----

> <Gold.Chemscore.Fitness>
15.3758

> <Gold.Chemscore.DG>
-18.3423

> <Gold.Chemscore.ZeroCoef>
-5.4800

> <Gold.Chemscore.Hbond>
0.6149

> <Gold.Chemscore.Metal>
0.0000

> <Gold.Chemscore.Lipo>
123.3742

> <Gold.Chemscore.Internal_Hbond>
0.0000

> <Gold.Chemscore.DEClash>
1.3776

> <Gold.Chemscore.DEInternal>
1.5889

> <Gold.Chemscore.Rot>
1.4165

> <Gold.Chemscore.Internal.Correction>
   9.000000E+99

> <Gold.Chemscore.Hbonds>
donor molecule, donor type, donor heavy atom, donor atom, acceptor molecule, acceptor atom, score
      P1  H  8011  8017       L1    10  0.38

> <Gold.Chemscore.Hbond.Weighted>
-2.0537

> <Gold.Chemscore.Metal.Weighted>
-0.0000

> <Gold.Chemscore.Lipo.Weighted>
-14.4348

> <Gold.Chemscore.Internal_Hbond.Weighted>
0.0000

> <Gold.Chemscore.DEClash.Weighted>
1.3776

> <Gold.Chemscore.DEInternal.Weighted>
1.5889

> <Gold.Chemscore.Rot.Weighted>
3.6262

> <Gold.Chemscore.Internal.Correction.Weighted>
   9.000000E+99

> <Gold.Protein.RotatedTorsions>
[ 6907 6896 6895 6894 ] final  165.60 input  -60.11 | X-H torsion
[ 7974 7965 7964 7962 ] final  168.37 input  175.53 | X-H torsion
[ 8008 7997 7996 7995 ] final   20.36 input   59.86 | X-H torsion
[ 10167 10162 10161 10158 ] final  -57.49 input  -65.29 | X-H torsion
[ 10718 10713 10712 10709 ] final  135.42 input   66.30 | X-H torsion
[ 10763 10752 10751 10750 ] final  177.35 input  -60.55 | X-H torsion
[ 11005 11000 10999 10996 ] final  116.19 input  -57.11 | X-H torsion

> <Gold.Protein.ActiveResidues>
 VAL166  LYS551  ARG553  GLY616  TRP617  ASP618  TYR619  PRO620  LYS621  CYS622 
 ASP623  PHE694  ASN695  SER759  ASP760  ASP761  ALA762  ILE779  LEU786  VAL792 
 PHE793  MET794  SER795  GLU796  ALA797  LYS798  CYS799  TRP800  GLU811  SER814 

> <Gold.Protein.RotatedAtoms>
  151.8919  133.3518  159.3800 H   0  0  0  0  0  0  0  0  0  0  0  0  # atno 6907 bound_to 6896
  150.7101  134.4915  159.5527 H   0  0  0  0  0  0  0  0  0  0  0  0  # atno 6908 bound_to 6896
  152.2487  134.8155  160.0500 H   0  0  0  0  0  0  0  0  0  0  0  0  # atno 6909 bound_to 6896
  144.7391  139.8898  143.6402 H   0  0  0  0  0  0  0  0  0  0  0  0  # atno 7974 bound_to 7965
  154.9345  140.3045  155.5151 H   0  0  0  0  0  0  0  0  0  0  0  0  # atno 8008 bound_to 7997
  156.3001  140.2348  156.4345 H   0  0  0  0  0  0  0  0  0  0  0  0  # atno 8009 bound_to 7997
  154.8205  140.0423  157.1396 H   0  0  0  0  0  0  0  0  0  0  0  0  # atno 8010 bound_to 7997
  140.6255  143.2436  151.5375 H   0  0  0  0  0  0  0  0  0  0  0  0  # atno 10167 bound_to 10162
  157.4572  131.1070  150.9963 H   0  0  0  0  0  0  0  0  0  0  0  0  # atno 10718 bound_to 10713
  154.4933  135.2780  155.1479 H   0  0  0  0  0  0  0  0  0  0  0  0  # atno 10763 bound_to 10752
  154.3142  135.6223  153.5482 H   0  0  0  0  0  0  0  0  0  0  0  0  # atno 10764 bound_to 10752
  152.9891  135.5727  154.5359 H   0  0  0  0  0  0  0  0  0  0  0  0  # atno 10765 bound_to 10752
  139.9033  134.9594  156.7160 H   0  0  0  0  0  0  0  0  0  0  0  0  # atno 11005 bound_to 11000
  146.1150  139.4160  143.0264 LP  0  0  0  0  0  0  0  0  0  0  0  0  # atno 17320 bound_to 7965
  145.7387  141.0016  143.1312 LP  0  0  0  0  0  0  0  0  0  0  0  0  # atno 17321 bound_to 7965
  139.5476  144.2480  152.1471 LP  0  0  0  0  0  0  0  0  0  0  0  0  # atno 17342 bound_to 10162
  140.1711  144.4935  150.6579 LP  0  0  0  0  0  0  0  0  0  0  0  0  # atno 17343 bound_to 10162
  157.0773  130.5888  149.5413 LP  0  0  0  0  0  0  0  0  0  0  0  0  # atno 17370 bound_to 10713
  156.0012  130.5092  150.7671 LP  0  0  0  0  0  0  0  0  0  0  0  0  # atno 17371 bound_to 10713
  140.7038  133.9283  155.8041 LP  0  0  0  0  0  0  0  0  0  0  0  0  # atno 17394 bound_to 11000
  141.0352  134.0700  157.3968 LP  0  0  0  0  0  0  0  0  0  0  0  0  # atno 17395 bound_to 11000

$$$$
