AV-unprocessed.smi:59|AV-procd|sdf|591|dock3
  -GOLD-   2262016483D 1   1.00000     0.00000
 Structure written by MMmdl.
 29 30  0  0  0  0  0  0  0  0  2 V2000
  148.3938  141.9476  154.9679 C   0  0  0  0  0  0  0  0  0  0  0  0
  149.1280  140.6912  154.8537 N   0  0  0  0  0  0  0  0  0  0  0  0
  148.6421  139.5651  154.3145 C   0  0  0  0  0  0  0  0  0  0  0  0
  147.4907  139.3863  153.9165 O   0  0  0  0  0  0  0  0  0  0  0  0
  149.7405  138.5214  154.1959 C   0  0  2  0  0  0  0  0  0  0  0  0
  149.2818  137.2246  154.5270 O   0  0  0  0  0  0  0  0  0  0  0  0
  150.7979  139.0507  155.1789 C   0  0  1  0  0  0  0  0  0  0  0  0
  152.2341  138.6883  154.7724 C   0  0  0  0  0  0  0  0  0  0  0  0
  153.0745  139.6139  154.7217 O   0  0  0  0  0  0  0  0  0  0  0  0
  152.4719  137.4833  154.5382 O   0  5  0  0  0  0  0  0  0  0  0  0
  150.5291  140.5702  155.2595 C   0  0  2  0  0  0  0  0  0  0  0  0
  150.8458  141.1153  156.6348 C   0  0  0  0  0  0  0  0  0  0  0  0
  151.2344  140.4117  157.8126 C   0  0  0  0  0  0  0  0  0  0  0  0
  151.4444  141.2095  158.8467 N   0  0  0  0  0  0  0  0  0  0  0  0
  151.2112  142.4475  158.3658 N   0  0  0  0  0  0  0  0  0  0  0  0
  151.3563  143.5929  159.2384 C   0  0  0  0  0  0  0  0  0  0  0  0
  150.8564  142.4218  157.0348 C   0  0  0  0  0  0  0  0  0  0  0  0
  150.0986  138.5211  153.1653 H   0  0  0  0  0  0  0  0  0  0  0  0
  150.5927  138.6085  156.1570 H   0  0  0  0  0  0  0  0  0  0  0  0
  151.1137  141.0976  154.5033 H   0  0  0  0  0  0  0  0  0  0  0  0
  147.8634  142.1737  154.0421 H   0  0  0  0  0  0  0  0  0  0  0  0
  149.0665  142.7800  155.1759 H   0  0  0  0  0  0  0  0  0  0  0  0
  147.6632  141.8874  155.7748 H   0  0  0  0  0  0  0  0  0  0  0  0
  149.3943  136.6686  153.7712 H   0  0  0  0  0  0  0  0  0  0  0  0
  151.3684  139.3484  157.9454 H   0  0  0  0  0  0  0  0  0  0  0  0
  150.8724  144.4633  158.7945 H   0  0  0  0  0  0  0  0  0  0  0  0
  152.4145  143.8103  159.3852 H   0  0  0  0  0  0  0  0  0  0  0  0
  150.8940  143.3872  160.2045 H   0  0  0  0  0  0  0  0  0  0  0  0
  150.6425  143.3259  156.4838 H   0  0  0  0  0  0  0  0  0  0  0  0
  1  2  1  0  0  0  0
  1 21  1  0  0  0  0
  1 22  1  0  0  0  0
  1 23  1  0  0  0  0
  2 11  1  0  0  0  0
  2  3  1  0  0  0  0
  3  4  2  0  0  0  0
  3  5  1  0  0  0  0
  5 18  1  0  0  0  0
  5  6  1  0  0  0  0
  5  7  1  0  0  0  0
  6 24  1  0  0  0  0
  7 19  1  0  0  0  0
  7  8  1  0  0  0  0
  7 11  1  0  0  0  0
  8  9  2  0  0  0  0
  8 10  1  0  0  0  0
 11 20  1  0  0  0  0
 11 12  1  0  0  0  0
 12 17  2  0  0  0  0
 12 13  1  0  0  0  0
 13 14  2  0  0  0  0
 13 25  1  0  0  0  0
 14 15  1  0  0  0  0
 15 16  1  0  0  0  0
 15 17  1  0  0  0  0
 16 26  1  0  0  0  0
 16 27  1  0  0  0  0
 16 28  1  0  0  0  0
 17 29  1  0  0  0  0
M  CHG  1  10  -1
M  END
> <s_m_source_file>
AV-unprocessed.smi

> <i_m_source_file_index>
59

> <i_lp_mmshare_version>
43012

> <i_f3d_flags>
0

> <s_epik_input>
W0NIM11OMUMoPU8pW0NASF0oW09IXSlbQ0BIXShDKD1PKVtPSF0pW0NASF0xYzJbY0hdbm4oW0NIM10pW2NIXTI=

> <s_epik_cmdline>
J2VwaWtfcHl0aG9uJywgJy1waCcsICc3LjAnLCAnLXRuJywgJzgnLCAnLW1hJywgJzIwMCcsICctbWV0YWxfYmluZGluZycsICctaW1hZScsICc8aW5maWxlLm1hZT4nLCAnLW9tYWUnLCAnPG91dGZpbGUubWFlPic=

> <r_lp_tautomer_probability>
1

> <r_epik_Ionization_Penalty>
0.00173515

> <r_epik_Ionization_Penalty_Charging>
0.00120567

> <r_epik_Ionization_Penalty_Neutral>
0.000529476

> <r_epik_State_Penalty>
-0

> <r_epik_Charging_Adjusted_Penalty>
0.00120567

> <i_epik_Tot_Q>
-1

> <i_epik_Tot_abs_Q>
1

> <r_epik_Metal_State_Penalty>
-0

> <b_epik_Metal_Only>
0

> <s_lp_Force_Field>
OPLS_2005

> <r_lp_Energy>
8.8991

> <b_lp_Chiralities_Consistent>
1

> <s_lp_Variant>
AV-unprocessed.smi:59-7

> <Gold.Version>
5.8.1

> <Gold.Id.Protein>
6NUR|6NUR_protein|mol2

> <Gold.PLP.Fitness>
47.4408

> <Gold.PLP.PLP>
-31.6431

> <Gold.PLP.part.hbond>
-4.0000

> <Gold.PLP.part.metal>
0.0000

> <Gold.PLP.part.buried>
-1.7843

> <Gold.PLP.part.nonpolar>
-27.7999

> <Gold.PLP.part.repulsive>
0.2907

> <Gold.PLP.ligand.clash>
0.0000

> <Gold.PLP.ligand.torsion>
0.2472

> <Gold.PLP.Chemscore.Hbond>
4.4268

> <Gold.PLP.Chemscore.CHOScore>
1.0000

> <Gold.PLP.Chemscore.Metal>
0.0000

> <Gold.Chemscore.Hbonds>
donor molecule, donor type, donor heavy atom, donor atom, acceptor molecule, acceptor atom, score
      L1  H     6    24       P1  7948  1.00
      P1  H  7989  7998       L1     9  0.10
      P1  H  7997  8010       L1     9  2.00
      P1  H 10752 10765       L1    10  1.25
      L1  C    17    29       P1  8028  1.00

> <Gold.PLP.Chemscore.Internal.Correction>
0.0117

> <Gold.Rescore>
     Score         DG    S(hbond)    S(metal)    S(lipo)     H(rot)  DE(clash)    DE(int)     intcor
     14.31     -16.26       2.78        0.00      58.00       2.06       1.84       0.11       ----

> <Gold.Chemscore.Fitness>
14.3141

> <Gold.Chemscore.DG>
-16.2640

> <Gold.Chemscore.ZeroCoef>
-5.4800

> <Gold.Chemscore.Hbond>
2.7791

> <Gold.Chemscore.Metal>
0.0000

> <Gold.Chemscore.Lipo>
57.9957

> <Gold.Chemscore.Internal_Hbond>
0.0000

> <Gold.Chemscore.DEClash>
1.8420

> <Gold.Chemscore.DEInternal>
0.1079

> <Gold.Chemscore.Rot>
2.0639

> <Gold.Chemscore.Internal.Correction>
   9.000000E+99

> <Gold.Chemscore.Hbonds>
donor molecule, donor type, donor heavy atom, donor atom, acceptor molecule, acceptor atom, score
      L1  H     6    24       P1  7948  0.84
      P1  H  7989  7998       L1     9  0.01
      P1  H  7997  8010       L1     9  1.00
      P1  H 10752 10765       L1    10  0.64

> <Gold.Chemscore.Hbond.Weighted>
-9.2821

> <Gold.Chemscore.Metal.Weighted>
-0.0000

> <Gold.Chemscore.Lipo.Weighted>
-6.7855

> <Gold.Chemscore.Internal_Hbond.Weighted>
0.0000

> <Gold.Chemscore.DEClash.Weighted>
1.8420

> <Gold.Chemscore.DEInternal.Weighted>
0.1079

> <Gold.Chemscore.Rot.Weighted>
5.2837

> <Gold.Chemscore.Internal.Correction.Weighted>
   9.000000E+99

> <Gold.Protein.RotatedTorsions>
[ 6907 6896 6895 6894 ] final  167.42 input  -60.11 | X-H torsion
[ 7974 7965 7964 7962 ] final  -98.94 input  175.53 | X-H torsion
[ 8008 7997 7996 7995 ] final  102.18 input   59.86 | X-H torsion
[ 10167 10162 10161 10158 ] final -136.03 input  -65.29 | X-H torsion
[ 10718 10713 10712 10709 ] final   96.39 input   66.30 | X-H torsion
[ 10763 10752 10751 10750 ] final  164.86 input  -60.55 | X-H torsion
[ 11005 11000 10999 10996 ] final  -75.93 input  -57.11 | X-H torsion

> <Gold.Protein.ActiveResidues>
 VAL166  LYS551  ARG553  GLY616  TRP617  ASP618  TYR619  PRO620  LYS621  CYS622 
 ASP623  PHE694  ASN695  SER759  ASP760  ASP761  ALA762  ILE779  LEU786  VAL792 
 PHE793  MET794  SER795  GLU796  ALA797  LYS798  CYS799  TRP800  GLU811  SER814 

> <Gold.Protein.RotatedAtoms>
  151.8636  133.3462  159.3711 H   0  0  0  0  0  0  0  0  0  0  0  0  # atno 6907 bound_to 6896
  150.7172  134.5182  159.5650 H   0  0  0  0  0  0  0  0  0  0  0  0  # atno 6908 bound_to 6896
  152.2700  134.7943  160.0467 H   0  0  0  0  0  0  0  0  0  0  0  0  # atno 6909 bound_to 6896
  145.3140  140.9407  143.2753 H   0  0  0  0  0  0  0  0  0  0  0  0  # atno 7974 bound_to 7965
  156.1369  140.3185  155.8435 H   0  0  0  0  0  0  0  0  0  0  0  0  # atno 8008 bound_to 7997
  155.4227  140.0513  157.3041 H   0  0  0  0  0  0  0  0  0  0  0  0  # atno 8009 bound_to 7997
  154.4944  140.2105  155.9491 H   0  0  0  0  0  0  0  0  0  0  0  0  # atno 8010 bound_to 7997
  139.8719  143.6947  152.2639 H   0  0  0  0  0  0  0  0  0  0  0  0  # atno 10167 bound_to 10162
  157.6927  131.0576  150.4484 H   0  0  0  0  0  0  0  0  0  0  0  0  # atno 10718 bound_to 10713
  154.3153  135.2756  155.2546 H   0  0  0  0  0  0  0  0  0  0  0  0  # atno 10763 bound_to 10752
  154.4923  135.5830  153.6472 H   0  0  0  0  0  0  0  0  0  0  0  0  # atno 10764 bound_to 10752
  152.9883  135.6137  154.3334 H   0  0  0  0  0  0  0  0  0  0  0  0  # atno 10765 bound_to 10752
  141.1650  133.6965  156.7592 H   0  0  0  0  0  0  0  0  0  0  0  0  # atno 11005 bound_to 11000
  144.8992  139.4671  143.6640 LP  0  0  0  0  0  0  0  0  0  0  0  0  # atno 17320 bound_to 7965
  146.3107  139.7736  142.9022 LP  0  0  0  0  0  0  0  0  0  0  0  0  # atno 17321 bound_to 7965
  139.7276  144.7589  151.0854 LP  0  0  0  0  0  0  0  0  0  0  0  0  # atno 17342 bound_to 10162
  140.7759  143.5128  150.9631 LP  0  0  0  0  0  0  0  0  0  0  0  0  # atno 17343 bound_to 10162
  156.4837  130.4079  149.6446 LP  0  0  0  0  0  0  0  0  0  0  0  0  # atno 17370 bound_to 10713
  156.3482  130.7418  151.2374 LP  0  0  0  0  0  0  0  0  0  0  0  0  # atno 17371 bound_to 10713
  140.2547  134.8513  157.3701 LP  0  0  0  0  0  0  0  0  0  0  0  0  # atno 17394 bound_to 11000
  140.1669  134.4658  155.7857 LP  0  0  0  0  0  0  0  0  0  0  0  0  # atno 17395 bound_to 11000

$$$$
