AV-unprocessed.smi:1036|AV-procd|sdf|4516|dock1
  -GOLD-   22720 2523D 1   1.00000     0.00000
 Structure written by MMmdl.
 42 44  0  0  0  0  0  0  0  0  2 V2000
  149.5085  135.0780  154.4487 O   0  0  0  0  0  0  0  0  0  0  0  0
  150.0087  136.1638  155.1964 C   0  0  0  0  0  0  0  0  0  0  0  0
  151.2540  136.7283  154.5043 C   0  0  0  0  0  0  0  0  0  0  0  0
  151.4098  138.1483  154.7700 N   0  0  0  0  0  0  0  0  0  0  0  0
  150.3274  138.9916  154.4976 C   0  0  0  0  0  0  0  0  0  0  0  0
  149.2884  138.7160  153.6646 N   0  3  0  0  0  0  0  0  0  0  0  0
  148.4089  139.8026  153.6857 C   0  0  0  0  0  0  0  0  0  0  0  0
  147.2063  140.0104  153.0173 C   0  0  0  0  0  0  0  0  0  0  0  0
  146.5464  141.2319  153.2655 C   0  0  0  0  0  0  0  0  0  0  0  0
  147.0825  142.1918  154.1485 C   0  0  0  0  0  0  0  0  0  0  0  0
  148.3023  141.9736  154.8218 C   0  0  0  0  0  0  0  0  0  0  0  0
  148.9511  140.7653  154.5711 C   0  0  0  0  0  0  0  0  0  0  0  0
  150.1473  140.2185  155.0517 N   0  0  0  0  0  0  0  0  0  0  0  0
  150.9526  140.9639  156.0306 C   0  0  0  0  0  0  0  0  0  0  0  0
  150.9388  140.3032  157.4240 C   0  0  2  0  0  0  0  0  0  0  0  0
  149.5933  140.0657  157.7826 O   0  0  0  0  0  0  0  0  0  0  0  0
  151.6792  141.1402  158.4619 C   0  0  0  0  0  0  0  0  0  0  0  0
  152.7867  140.6015  159.1547 C   0  0  0  0  0  0  0  0  0  0  0  0
  153.4478  141.3591  160.1403 C   0  0  0  0  0  0  0  0  0  0  0  0
  154.5043  140.8321  160.8028 F   0  0  0  0  0  0  0  0  0  0  0  0
  153.0052  142.6603  160.4431 C   0  0  0  0  0  0  0  0  0  0  0  0
  151.9014  143.2035  159.7590 C   0  0  0  0  0  0  0  0  0  0  0  0
  151.2391  142.4479  158.7720 C   0  0  0  0  0  0  0  0  0  0  0  0
  150.1657  142.9793  158.1387 F   0  0  0  0  0  0  0  0  0  0  0  0
  149.0656  135.4168  153.6853 H   0  0  0  0  0  0  0  0  0  0  0  0
  149.2317  136.9241  155.2809 H   0  0  0  0  0  0  0  0  0  0  0  0
  150.2463  135.8230  156.2047 H   0  0  0  0  0  0  0  0  0  0  0  0
  152.1431  136.1994  154.8503 H   0  0  0  0  0  0  0  0  0  0  0  0
  151.1813  136.5730  153.4267 H   0  0  0  0  0  0  0  0  0  0  0  0
  152.0829  138.4334  155.4672 H   0  0  0  0  0  0  0  0  0  0  0  0
  146.7908  139.2770  152.3419 H   0  0  0  0  0  0  0  0  0  0  0  0
  145.6085  141.4363  152.7695 H   0  0  0  0  0  0  0  0  0  0  0  0
  146.5466  143.1153  154.3138 H   0  0  0  0  0  0  0  0  0  0  0  0
  148.7028  142.7143  155.4981 H   0  0  0  0  0  0  0  0  0  0  0  0
  151.9712  141.0317  155.6463 H   0  0  0  0  0  0  0  0  0  0  0  0
  150.5747  141.9862  156.0769 H   0  0  0  0  0  0  0  0  0  0  0  0
  151.4096  139.3220  157.3581 H   0  0  0  0  0  0  0  0  0  0  0  0
  149.5262  139.1917  158.1363 H   0  0  0  0  0  0  0  0  0  0  0  0
  153.1275  139.5992  158.9403 H   0  0  0  0  0  0  0  0  0  0  0  0
  153.5092  143.2403  161.2022 H   0  0  0  0  0  0  0  0  0  0  0  0
  151.5586  144.1998  159.9958 H   0  0  0  0  0  0  0  0  0  0  0  0
  149.1889  137.8604  153.1336 H   0  0  0  0  0  0  0  0  0  0  0  0
  1  2  1  0  0  0  0
  1 25  1  0  0  0  0
  2  3  1  0  0  0  0
  2 26  1  0  0  0  0
  2 27  1  0  0  0  0
  3  4  1  0  0  0  0
  3 28  1  0  0  0  0
  3 29  1  0  0  0  0
  4  5  1  0  0  0  0
  4 30  1  0  0  0  0
  5 13  1  0  0  0  0
  5  6  2  0  0  0  0
  6  7  1  0  0  0  0
  6 42  1  0  0  0  0
  7 12  2  0  0  0  0
  7  8  1  0  0  0  0
  8  9  2  0  0  0  0
  8 31  1  0  0  0  0
  9 10  1  0  0  0  0
  9 32  1  0  0  0  0
 10 11  2  0  0  0  0
 10 33  1  0  0  0  0
 11 12  1  0  0  0  0
 11 34  1  0  0  0  0
 12 13  1  0  0  0  0
 13 14  1  0  0  0  0
 14 15  1  0  0  0  0
 14 35  1  0  0  0  0
 14 36  1  0  0  0  0
 15 16  1  0  0  0  0
 15 17  1  0  0  0  0
 15 37  1  0  0  0  0
 16 38  1  0  0  0  0
 17 23  1  0  0  0  0
 17 18  2  0  0  0  0
 18 19  1  0  0  0  0
 18 39  1  0  0  0  0
 19 20  1  0  0  0  0
 19 21  2  0  0  0  0
 21 22  1  0  0  0  0
 21 40  1  0  0  0  0
 22 23  2  0  0  0  0
 22 41  1  0  0  0  0
 23 24  1  0  0  0  0
M  CHG  1   6   1
M  END
> <s_m_source_file>
AV-unprocessed.smi

> <i_m_source_file_index>
1036

> <i_lp_mmshare_version>
43012

> <i_f3d_flags>
0

> <s_epik_input>
W09IXVtDSDJdW0NIMl1bTkhdYyhuMSluKGMoYzEyKVtjSF1bY0hdW2NIXVtjSF0yKVtDSDJdW0NASF0oW09IXSljM1tjSF1jKEYpW2NIXVtjSF1jM0Y=

> <s_epik_cmdline>
J2VwaWtfcHl0aG9uJywgJy1waCcsICc3LjAnLCAnLXRuJywgJzgnLCAnLW1hJywgJzIwMCcsICctbWV0YWxfYmluZGluZycsICctaW1hZScsICc8aW5maWxlLm1hZT4nLCAnLW9tYWUnLCAnPG91dGZpbGUubWFlPic=

> <r_epik_Ionization_Penalty>
0.0688114

> <r_epik_Ionization_Penalty_Charging>
0.0688055

> <r_epik_Ionization_Penalty_Neutral>
5.85933e-06

> <r_epik_State_Penalty>
0.0602293

> <r_epik_Charging_Adjusted_Penalty>
0.129035

> <i_epik_Tot_Q>
1

> <i_epik_Tot_abs_Q>
1

> <r_epik_Metal_State_Penalty>
2.77411

> <b_epik_Metal_Only>
0

> <s_lp_Force_Field>
OPLS_2005

> <r_lp_Energy>
18.4992

> <b_lp_Chiralities_Consistent>
1

> <s_lp_Variant>
AV-unprocessed.smi:1036-1

> <Gold.Version>
5.8.1

> <Gold.Id.Protein>
6NUR|6NUR_protein|mol2

> <Gold.PLP.Fitness>
55.2579

> <Gold.PLP.PLP>
-46.7513

> <Gold.PLP.part.hbond>
-2.9794

> <Gold.PLP.part.metal>
0.0000

> <Gold.PLP.part.buried>
5.0146

> <Gold.PLP.part.nonpolar>
-48.8083

> <Gold.PLP.part.repulsive>
0.1928

> <Gold.PLP.ligand.clash>
0.0000

> <Gold.PLP.ligand.torsion>
0.3040

> <Gold.PLP.Chemscore.Hbond>
3.0000

> <Gold.PLP.Chemscore.CHOScore>
0.0000

> <Gold.PLP.Chemscore.Metal>
0.0000

> <Gold.Chemscore.Hbonds>
donor molecule, donor type, donor heavy atom, donor atom, acceptor molecule, acceptor atom, score
      L1  H     1    25       P1  7948  1.00
      L1  H     6    42       P1  7948  1.89

> <Gold.PLP.Chemscore.Internal.Correction>
0.1148

> <Gold.Rescore>
     Score         DG    S(hbond)    S(metal)    S(lipo)     H(rot)  DE(clash)    DE(int)     intcor
     12.52     -16.64       1.61        0.00     121.50       3.29       2.49       1.63       ----

> <Gold.Chemscore.Fitness>
12.5191

> <Gold.Chemscore.DG>
-16.6408

> <Gold.Chemscore.ZeroCoef>
-5.4800

> <Gold.Chemscore.Hbond>
1.6051

> <Gold.Chemscore.Metal>
0.0000

> <Gold.Chemscore.Lipo>
121.5009

> <Gold.Chemscore.Internal_Hbond>
0.0000

> <Gold.Chemscore.DEClash>
2.4893

> <Gold.Chemscore.DEInternal>
1.6323

> <Gold.Chemscore.Rot>
3.2874

> <Gold.Chemscore.Internal.Correction>
   9.000000E+99

> <Gold.Chemscore.Hbonds>
donor molecule, donor type, donor heavy atom, donor atom, acceptor molecule, acceptor atom, score
      L1  H     1    25       P1  7948  0.63
      L1  H     6    42       P1  7948  0.89

> <Gold.Chemscore.Hbond.Weighted>
-5.3610

> <Gold.Chemscore.Metal.Weighted>
-0.0000

> <Gold.Chemscore.Lipo.Weighted>
-14.2156

> <Gold.Chemscore.Internal_Hbond.Weighted>
0.0000

> <Gold.Chemscore.DEClash.Weighted>
2.4893

> <Gold.Chemscore.DEInternal.Weighted>
1.6323

> <Gold.Chemscore.Rot.Weighted>
8.4158

> <Gold.Chemscore.Internal.Correction.Weighted>
   9.000000E+99

> <Gold.Protein.RotatedTorsions>
[ 6907 6896 6895 6894 ] final   -8.12 input  -60.11 | X-H torsion
[ 7974 7965 7964 7962 ] final -110.86 input  175.53 | X-H torsion
[ 8008 7997 7996 7995 ] final -174.95 input   59.86 | X-H torsion
[ 10167 10162 10161 10158 ] final  -40.04 input  -65.29 | X-H torsion
[ 10718 10713 10712 10709 ] final  129.57 input   66.30 | X-H torsion
[ 10763 10752 10751 10750 ] final  110.98 input  -60.55 | X-H torsion
[ 11005 11000 10999 10996 ] final   82.85 input  -57.11 | X-H torsion

> <Gold.Protein.ActiveResidues>
 VAL166  LYS551  ARG553  GLY616  TRP617  ASP618  TYR619  PRO620  LYS621  CYS622 
 ASP623  PHE694  ASN695  SER759  ASP760  ASP761  ALA762  ILE779  LEU786  VAL792 
 PHE793  MET794  SER795  GLU796  ALA797  LYS798  CYS799  TRP800  GLU811  SER814 

> <Gold.Protein.RotatedAtoms>
  151.4388  135.1018  159.9663 H   0  0  0  0  0  0  0  0  0  0  0  0  # atno 6907 bound_to 6896
  152.4930  133.8548  159.7231 H   0  0  0  0  0  0  0  0  0  0  0  0  # atno 6908 bound_to 6896
  150.9103  133.6947  159.2884 H   0  0  0  0  0  0  0  0  0  0  0  0  # atno 6909 bound_to 6896
  145.1631  140.8888  143.3579 H   0  0  0  0  0  0  0  0  0  0  0  0  # atno 7974 bound_to 7965
  155.9765  140.1173  157.0766 H   0  0  0  0  0  0  0  0  0  0  0  0  # atno 8008 bound_to 7997
  154.4170  140.1153  156.5444 H   0  0  0  0  0  0  0  0  0  0  0  0  # atno 8009 bound_to 7997
  155.6528  140.3473  155.4756 H   0  0  0  0  0  0  0  0  0  0  0  0  # atno 8010 bound_to 7997
  140.7046  143.3177  151.2868 H   0  0  0  0  0  0  0  0  0  0  0  0  # atno 10167 bound_to 10162
  157.5142  131.1097  150.9249 H   0  0  0  0  0  0  0  0  0  0  0  0  # atno 10718 bound_to 10713
  153.4568  135.3731  155.2315 H   0  0  0  0  0  0  0  0  0  0  0  0  # atno 10763 bound_to 10752
  154.8757  135.3899  154.3973 H   0  0  0  0  0  0  0  0  0  0  0  0  # atno 10764 bound_to 10752
  153.4540  135.7086  153.6155 H   0  0  0  0  0  0  0  0  0  0  0  0  # atno 10765 bound_to 10752
  139.9050  134.8102  156.2230 H   0  0  0  0  0  0  0  0  0  0  0  0  # atno 11005 bound_to 11000
  145.0310  139.3341  143.6024 LP  0  0  0  0  0  0  0  0  0  0  0  0  # atno 17320 bound_to 7965
  146.3479  139.9647  142.8713 LP  0  0  0  0  0  0  0  0  0  0  0  0  # atno 17321 bound_to 7965
  139.6621  144.0170  152.2699 LP  0  0  0  0  0  0  0  0  0  0  0  0  # atno 17342 bound_to 10162
  139.9741  144.6473  150.7962 LP  0  0  0  0  0  0  0  0  0  0  0  0  # atno 17343 bound_to 10162
  156.9879  130.5552  149.5301 LP  0  0  0  0  0  0  0  0  0  0  0  0  # atno 17370 bound_to 10713
  156.0309  130.5400  150.8531 LP  0  0  0  0  0  0  0  0  0  0  0  0  # atno 17371 bound_to 10713
  141.0393  133.6946  156.1570 LP  0  0  0  0  0  0  0  0  0  0  0  0  # atno 17394 bound_to 11000
  140.6979  134.4596  157.5587 LP  0  0  0  0  0  0  0  0  0  0  0  0  # atno 17395 bound_to 11000

$$$$
