AV-unprocessed.smi:2189|AV-procd|sdf|8887|dock5
  -GOLD-   2272012 83D 1   1.00000     0.00000
 Structure written by MMmdl.
 39 41  0  0  0  0  0  0  0  0  3 V2000
  152.5016  139.9341  155.4095 O   0  0  0  0  0  0  0  0  0  0  0  0
  151.6260  140.0673  156.2743 C   0  0  0  0  0  0  0  0  0  0  0  0
  150.4300  139.4024  156.2981 N   0  5  0  0  0  0  0  0  0  0  0  0
  149.7755  138.7800  155.1452 C   0  0  0  0  0  0  0  0  0  0  0  0
  150.7351  137.7729  154.4738 C   0  0  0  0  0  0  0  0  0  0  0  0
  150.6255  136.3429  154.9955 C   0  0  0  0  0  0  0  0  0  0  0  0
  151.2154  135.9467  156.2175 C   0  0  0  0  0  0  0  0  0  0  0  0
  151.0777  134.6130  156.6532 C   0  0  0  0  0  0  0  0  0  0  0  0
  150.3604  133.6973  155.8563 C   0  0  0  0  0  0  0  0  0  0  0  0
  149.7970  134.1405  154.6425 C   0  0  0  0  0  0  0  0  0  0  0  0
  149.9497  135.4270  154.2598 N   0  3  0  0  0  0  0  0  0  0  0  0
  151.8442  141.0338  157.3655 C   0  0  0  0  0  0  0  0  0  0  0  0
  151.1173  142.1817  157.3668 C   0  0  0  0  0  0  0  0  0  0  0  0
  151.2596  143.1700  158.4065 C   0  0  0  0  0  0  0  0  0  0  0  0
  152.1584  142.9423  159.3702 C   0  0  0  0  0  0  0  0  0  0  0  0
  152.9591  141.8020  159.4147 N   0  0  0  0  0  0  0  0  0  0  0  0
  153.9585  141.7364  160.4755 C   0  0  0  0  0  0  0  0  0  0  0  0
  154.0285  140.3336  161.0507 C   0  0  0  0  0  0  0  0  0  0  0  0
  154.5935  139.2612  159.6815 S   0  0  0  0  0  0  0  0  0  0  0  0
  155.9122  139.7420  159.2399 O   0  0  0  0  0  0  0  0  0  0  0  0
  154.4415  137.8614  160.1064 O   0  0  0  0  0  0  0  0  0  0  0  0
  153.4507  139.6315  158.5145 N   0  0  0  0  0  0  0  0  0  0  0  0
  152.8128  140.7662  158.4487 C   0  0  0  0  0  0  0  0  0  0  0  0
  148.8554  138.2567  155.4090 H   0  0  0  0  0  0  0  0  0  0  0  0
  149.4852  139.5296  154.4091 H   0  0  0  0  0  0  0  0  0  0  0  0
  150.5455  137.7603  153.4000 H   0  0  0  0  0  0  0  0  0  0  0  0
  151.7650  138.1138  154.5887 H   0  0  0  0  0  0  0  0  0  0  0  0
  151.7562  136.6625  156.8194 H   0  0  0  0  0  0  0  0  0  0  0  0
  151.5160  134.2975  157.5885 H   0  0  0  0  0  0  0  0  0  0  0  0
  150.2422  132.6713  156.1724 H   0  0  0  0  0  0  0  0  0  0  0  0
  149.2304  133.5109  153.9723 H   0  0  0  0  0  0  0  0  0  0  0  0
  150.4110  142.3918  156.5762 H   0  0  0  0  0  0  0  0  0  0  0  0
  150.6574  144.0665  158.4071 H   0  0  0  0  0  0  0  0  0  0  0  0
  152.3113  143.6457  160.1757 H   0  0  0  0  0  0  0  0  0  0  0  0
  154.9268  142.0442  160.0795 H   0  0  0  0  0  0  0  0  0  0  0  0
  153.7143  142.4329  161.2782 H   0  0  0  0  0  0  0  0  0  0  0  0
  154.7446  140.2649  161.8691 H   0  0  0  0  0  0  0  0  0  0  0  0
  153.0578  139.9863  161.4066 H   0  0  0  0  0  0  0  0  0  0  0  0
  149.5270  135.7283  153.3815 H   0  0  0  0  0  0  0  0  0  0  0  0
  1  2  2  0  0  0  0
  2  3  1  0  0  0  0
  2 12  1  0  0  0  0
  3  4  1  0  0  0  0
  4  5  1  0  0  0  0
  4 24  1  0  0  0  0
  4 25  1  0  0  0  0
  5  6  1  0  0  0  0
  5 26  1  0  0  0  0
  5 27  1  0  0  0  0
  6 11  1  0  0  0  0
  6  7  2  0  0  0  0
  7  8  1  0  0  0  0
  7 28  1  0  0  0  0
  8  9  2  0  0  0  0
  8 29  1  0  0  0  0
  9 10  1  0  0  0  0
  9 30  1  0  0  0  0
 10 11  2  0  0  0  0
 10 31  1  0  0  0  0
 11 39  1  0  0  0  0
 12 23  1  0  0  0  0
 12 13  2  0  0  0  0
 13 14  1  0  0  0  0
 13 32  1  0  0  0  0
 14 15  2  0  0  0  0
 14 33  1  0  0  0  0
 15 16  1  0  0  0  0
 15 34  1  0  0  0  0
 16 23  1  0  0  0  0
 16 17  1  0  0  0  0
 17 18  1  0  0  0  0
 17 35  1  0  0  0  0
 17 36  1  0  0  0  0
 18 19  1  0  0  0  0
 18 37  1  0  0  0  0
 18 38  1  0  0  0  0
 19 20  2  0  0  0  0
 19 21  2  0  0  0  0
 19 22  1  0  0  0  0
 22 23  2  0  0  0  0
M  CHG  1   3  -1
M  CHG  1  11   1
M  END
> <s_m_source_file>
AV-unprocessed.smi

> <i_m_source_file_index>
2189

> <i_lp_mmshare_version>
43012

> <i_f3d_flags>
0

> <s_epik_input>
W0NIMl0xW0NIMl1TKD1PKSg9TylOPUMoTjEyKUMoPVtDSF1bQ0hdPVtDSF0yKUMoPU8pW05IXVtDSDJdW0NIMl1jM1tjSF1bY0hdW2NIXVtjSF1uMw==

> <s_epik_cmdline>
J2VwaWtfcHl0aG9uJywgJy1waCcsICc3LjAnLCAnLXRuJywgJzgnLCAnLW1hJywgJzIwMCcsICctbWV0YWxfYmluZGluZycsICctaW1hZScsICc8aW5maWxlLm1hZT4nLCAnLW9tYWUnLCAnPG91dGZpbGUubWFlPic=

> <r_epik_Ionization_Penalty>
6.52844

> <r_epik_Ionization_Penalty_Charging>
6.52844

> <r_epik_Ionization_Penalty_Neutral>
1.18271e-13

> <r_epik_State_Penalty>
7.49351

> <r_epik_Charging_Adjusted_Penalty>
14.0219

> <i_epik_Tot_Q>
0

> <i_epik_Tot_abs_Q>
2

> <r_epik_Metal_State_Penalty>
3.53414

> <b_epik_Metal_Only>
1

> <s_lp_Force_Field>
OPLS_2005

> <r_lp_Energy>
35.7172

> <b_lp_Chiralities_Consistent>
1

> <s_lp_Variant>
AV-unprocessed.smi:2189-4

> <Gold.Version>
5.8.1

> <Gold.Id.Protein>
6NUR|6NUR_protein|mol2

> <Gold.PLP.Fitness>
49.3385

> <Gold.PLP.PLP>
-39.7907

> <Gold.PLP.part.hbond>
-6.0000

> <Gold.PLP.part.metal>
0.0000

> <Gold.PLP.part.buried>
-1.8267

> <Gold.PLP.part.nonpolar>
-31.7013

> <Gold.PLP.part.repulsive>
0.0682

> <Gold.PLP.ligand.clash>
0.0000

> <Gold.PLP.ligand.torsion>
1.9207

> <Gold.PLP.Chemscore.Hbond>
4.3360

> <Gold.PLP.Chemscore.CHOScore>
0.0000

> <Gold.PLP.Chemscore.Metal>
0.0000

> <Gold.Chemscore.Hbonds>
donor molecule, donor type, donor heavy atom, donor atom, acceptor molecule, acceptor atom, score
      L1  H    11    39       P1  7948  1.80
      P1  H  7989  7998       L1     1  0.24
      P1  H  7997  8008       L1     1  1.00
      P1  H  7997  8010       L1    20  1.00

> <Gold.PLP.Chemscore.Internal.Correction>
0.3811

> <Gold.Rescore>
     Score         DG    S(hbond)    S(metal)    S(lipo)     H(rot)  DE(clash)    DE(int)     intcor
     17.31     -20.35       2.52        0.00      88.30       1.51       0.12       2.93       ----

> <Gold.Chemscore.Fitness>
17.3128

> <Gold.Chemscore.DG>
-20.3533

> <Gold.Chemscore.ZeroCoef>
-5.4800

> <Gold.Chemscore.Hbond>
2.5181

> <Gold.Chemscore.Metal>
0.0000

> <Gold.Chemscore.Lipo>
88.2980

> <Gold.Chemscore.Internal_Hbond>
0.0000

> <Gold.Chemscore.DEClash>
0.1154

> <Gold.Chemscore.DEInternal>
2.9251

> <Gold.Chemscore.Rot>
1.5109

> <Gold.Chemscore.Internal.Correction>
   9.000000E+99

> <Gold.Chemscore.Hbonds>
donor molecule, donor type, donor heavy atom, donor atom, acceptor molecule, acceptor atom, score
      L1  H    11    39       P1  7948  0.18
      P1  H  7989  7998       L1     1  0.15
      P1  H  7997  8008       L1     1  0.89
      P1  H  7997  8010       L1    20  0.25

> <Gold.Chemscore.Hbond.Weighted>
-8.4105

> <Gold.Chemscore.Metal.Weighted>
-0.0000

> <Gold.Chemscore.Lipo.Weighted>
-10.3309

> <Gold.Chemscore.Internal_Hbond.Weighted>
0.0000

> <Gold.Chemscore.DEClash.Weighted>
0.1154

> <Gold.Chemscore.DEInternal.Weighted>
2.9251

> <Gold.Chemscore.Rot.Weighted>
3.8680

> <Gold.Chemscore.Internal.Correction.Weighted>
   9.000000E+99

> <Gold.Protein.RotatedTorsions>
[ 6907 6896 6895 6894 ] final   94.19 input  -60.11 | X-H torsion
[ 7974 7965 7964 7962 ] final  -56.20 input  175.53 | X-H torsion
[ 8008 7997 7996 7995 ] final  -25.21 input   59.86 | X-H torsion
[ 10167 10162 10161 10158 ] final  -28.11 input  -65.29 | X-H torsion
[ 10718 10713 10712 10709 ] final   15.65 input   66.30 | X-H torsion
[ 10763 10752 10751 10750 ] final   -2.24 input  -60.55 | X-H torsion
[ 11005 11000 10999 10996 ] final  116.25 input  -57.11 | X-H torsion

> <Gold.Protein.ActiveResidues>
 VAL166  LYS551  ARG553  GLY616  TRP617  ASP618  TYR619  PRO620  LYS621  CYS622 
 ASP623  PHE694  ASN695  SER759  ASP760  ASP761  ALA762  ILE779  LEU786  VAL792 
 PHE793  MET794  SER795  GLU796  ALA797  LYS798  CYS799  TRP800  GLU811  SER814 

> <Gold.Protein.RotatedAtoms>
  152.5450  134.1232  159.8407 H   0  0  0  0  0  0  0  0  0  0  0  0  # atno 6907 bound_to 6896
  151.1286  133.5046  159.2607 H   0  0  0  0  0  0  0  0  0  0  0  0  # atno 6908 bound_to 6896
  151.1700  135.0323  159.8802 H   0  0  0  0  0  0  0  0  0  0  0  0  # atno 6909 bound_to 6896
  145.8654  140.8255  142.9915 H   0  0  0  0  0  0  0  0  0  0  0  0  # atno 7974 bound_to 7965
  154.4488  140.1932  156.0584 H   0  0  0  0  0  0  0  0  0  0  0  0  # atno 8008 bound_to 7997
  156.0601  140.3298  155.7424 H   0  0  0  0  0  0  0  0  0  0  0  0  # atno 8009 bound_to 7997
  155.5425  140.0587  157.2858 H   0  0  0  0  0  0  0  0  0  0  0  0  # atno 8010 bound_to 7997
  140.7272  143.4037  151.1221 H   0  0  0  0  0  0  0  0  0  0  0  0  # atno 10167 bound_to 10162
  157.0566  130.6291  149.5778 H   0  0  0  0  0  0  0  0  0  0  0  0  # atno 10718 bound_to 10713
  153.3554  135.6988  153.6755 H   0  0  0  0  0  0  0  0  0  0  0  0  # atno 10763 bound_to 10752
  153.5464  135.3562  155.2741 H   0  0  0  0  0  0  0  0  0  0  0  0  # atno 10764 bound_to 10752
  154.8660  135.4216  154.2799 H   0  0  0  0  0  0  0  0  0  0  0  0  # atno 10765 bound_to 10752
  139.9035  134.9595  156.7169 H   0  0  0  0  0  0  0  0  0  0  0  0  # atno 11005 bound_to 11000
  144.6726  140.1159  143.7452 LP  0  0  0  0  0  0  0  0  0  0  0  0  # atno 17320 bound_to 7965
  145.9199  139.2539  143.1387 LP  0  0  0  0  0  0  0  0  0  0  0  0  # atno 17321 bound_to 7965
  139.7660  143.8564  152.3111 LP  0  0  0  0  0  0  0  0  0  0  0  0  # atno 17342 bound_to 10162
  139.8466  144.7184  150.9265 LP  0  0  0  0  0  0  0  0  0  0  0  0  # atno 17343 bound_to 10162
  155.9991  130.5066  150.7596 LP  0  0  0  0  0  0  0  0  0  0  0  0  # atno 17370 bound_to 10713
  157.4988  131.0917  151.0339 LP  0  0  0  0  0  0  0  0  0  0  0  0  # atno 17371 bound_to 10713
  140.7031  133.9288  155.8037 LP  0  0  0  0  0  0  0  0  0  0  0  0  # atno 17394 bound_to 11000
  141.0356  134.0694  157.3963 LP  0  0  0  0  0  0  0  0  0  0  0  0  # atno 17395 bound_to 11000

$$$$
