AV-unprocessed.smi:216|AV-procd|sdf|1658|dock4
  -GOLD-   2262020 53D 1   1.00000     0.00000
 Structure written by MMmdl.
 65 69  0  0  0  0  0  0  0  0  1 V2000
  153.4629  142.0926  162.2582 C   0  0  0  0  0  0  0  0  0  0  0  0
  152.7717  141.4207  161.0521 C   0  0  2  0  0  0  0  0  0  0  0  0
  153.7810  140.5087  160.3252 C   0  0  0  0  0  0  0  0  0  0  0  0
  153.1164  139.7299  159.1871 C   0  0  0  0  0  0  0  0  0  0  0  0
  152.4294  140.6393  158.2743 N   0  0  0  0  0  0  0  0  0  0  0  0
  152.0438  140.1332  157.0742 C   0  0  0  0  0  0  0  0  0  0  0  0
  152.8026  139.1847  156.4611 N   0  0  0  0  0  0  0  0  0  0  0  0
  152.4310  138.6781  155.2822 C   0  0  0  0  0  0  0  0  0  0  0  0
  151.3543  138.9703  154.5516 N   0  0  0  0  0  0  0  0  0  0  0  0
  150.5865  139.9194  155.1589 C   0  0  0  0  0  0  0  0  0  0  0  0
  150.8581  140.5510  156.4059 C   0  0  0  0  0  0  0  0  0  0  0  0
  149.8658  141.4815  156.6872 N   0  0  0  0  0  0  0  0  0  0  0  0
  149.0490  141.3963  155.6739 C   0  0  0  0  0  0  0  0  0  0  0  0
  149.3964  140.4711  154.7155 N   0  0  0  0  0  0  0  0  0  0  0  0
  148.6703  140.1762  153.4882 C   0  0  0  0  0  0  0  0  0  0  0  0
  147.4340  139.2446  153.6648 C   0  0  0  0  0  0  0  0  0  0  0  0
  146.6736  139.0680  152.3187 C   0  0  0  0  0  0  0  0  0  0  0  0
  147.3680  138.2292  151.4172 O   0  0  0  0  0  0  0  0  0  0  0  0
  147.9259  137.8835  154.2180 C   0  0  0  0  0  0  0  0  0  0  0  0
  146.7784  136.9837  154.7110 C   0  0  0  0  0  0  0  0  0  0  0  0
  146.0199  137.6665  155.7002 O   0  0  0  0  0  0  0  0  0  0  0  0
  145.4033  138.8466  155.2029 C   0  0  0  0  0  0  0  0  0  0  0  0
  146.4751  139.8432  154.7248 C   0  0  0  0  0  0  0  0  0  0  0  0
  151.4385  141.5069  158.9119 C   0  0  0  0  0  0  0  0  0  0  0  0
  152.0396  142.3834  160.0520 C   0  0  0  0  0  0  0  0  0  0  0  0
  150.8711  143.1109  160.7784 C   0  0  0  0  0  0  0  0  0  0  0  0
  150.1607  144.1674  159.9127 C   0  0  0  0  0  0  0  0  0  0  0  0
  151.1572  145.2074  159.3856 C   0  0  0  0  0  0  0  0  0  0  0  0
  152.3000  144.5331  158.6166 C   0  0  0  0  0  0  0  0  0  0  0  0
  153.0034  143.4611  159.4699 C   0  0  0  0  0  0  0  0  0  0  0  0
  154.2904  142.7325  161.9542 H   0  0  0  0  0  0  0  0  0  0  0  0
  153.8794  141.3370  162.9247 H   0  0  0  0  0  0  0  0  0  0  0  0
  152.7780  142.6869  162.8602 H   0  0  0  0  0  0  0  0  0  0  0  0
  152.0085  140.7631  161.4718 H   0  0  0  0  0  0  0  0  0  0  0  0
  154.6097  141.0984  159.9328 H   0  0  0  0  0  0  0  0  0  0  0  0
  154.2209  139.8014  161.0288 H   0  0  0  0  0  0  0  0  0  0  0  0
  153.8736  139.1572  158.6496 H   0  0  0  0  0  0  0  0  0  0  0  0
  152.3989  139.0167  159.5957 H   0  0  0  0  0  0  0  0  0  0  0  0
  153.0906  137.9312  154.8659 H   0  0  0  0  0  0  0  0  0  0  0  0
  148.1620  142.0083  155.5986 H   0  0  0  0  0  0  0  0  0  0  0  0
  148.3666  141.1252  153.0441 H   0  0  0  0  0  0  0  0  0  0  0  0
  149.3756  139.7372  152.7811 H   0  0  0  0  0  0  0  0  0  0  0  0
  145.6848  138.6383  152.4689 H   0  0  0  0  0  0  0  0  0  0  0  0
  146.5080  140.0310  151.8356 H   0  0  0  0  0  0  0  0  0  0  0  0
  147.8527  137.5887  151.9156 H   0  0  0  0  0  0  0  0  0  0  0  0
  148.5177  137.3529  153.4716 H   0  0  0  0  0  0  0  0  0  0  0  0
  148.5986  138.0577  155.0591 H   0  0  0  0  0  0  0  0  0  0  0  0
  146.1342  136.6660  153.8908 H   0  0  0  0  0  0  0  0  0  0  0  0
  147.1864  136.0753  155.1543 H   0  0  0  0  0  0  0  0  0  0  0  0
  144.7006  138.5987  154.4071 H   0  0  0  0  0  0  0  0  0  0  0  0
  144.8166  139.2944  156.0052 H   0  0  0  0  0  0  0  0  0  0  0  0
  147.0508  140.1585  155.5960 H   0  0  0  0  0  0  0  0  0  0  0  0
  145.9885  140.7405  154.3413 H   0  0  0  0  0  0  0  0  0  0  0  0
  150.9441  142.1280  158.1679 H   0  0  0  0  0  0  0  0  0  0  0  0
  150.6579  140.8646  159.3218 H   0  0  0  0  0  0  0  0  0  0  0  0
  150.1407  142.3847  161.1368 H   0  0  0  0  0  0  0  0  0  0  0  0
  151.2378  143.6251  161.6649 H   0  0  0  0  0  0  0  0  0  0  0  0
  149.6405  143.6938  159.0803 H   0  0  0  0  0  0  0  0  0  0  0  0
  149.3910  144.6663  160.5023 H   0  0  0  0  0  0  0  0  0  0  0  0
  150.6449  145.9221  158.7411 H   0  0  0  0  0  0  0  0  0  0  0  0
  151.5658  145.7785  160.2201 H   0  0  0  0  0  0  0  0  0  0  0  0
  151.9121  144.0945  157.6995 H   0  0  0  0  0  0  0  0  0  0  0  0
  153.0250  145.2851  158.3043 H   0  0  0  0  0  0  0  0  0  0  0  0
  153.5111  143.9809  160.2810 H   0  0  0  0  0  0  0  0  0  0  0  0
  153.7892  142.9962  158.8747 H   0  0  0  0  0  0  0  0  0  0  0  0
  1  2  1  0  0  0  0
  1 31  1  0  0  0  0
  1 32  1  0  0  0  0
  1 33  1  0  0  0  0
  2 25  1  0  0  0  0
  2  3  1  0  0  0  0
  2 34  1  0  0  0  0
  3  4  1  0  0  0  0
  3 35  1  0  0  0  0
  3 36  1  0  0  0  0
  4  5  1  0  0  0  0
  4 37  1  0  0  0  0
  4 38  1  0  0  0  0
  5  6  1  0  0  0  0
  5 24  1  0  0  0  0
  6 11  1  0  0  0  0
  6  7  2  0  0  0  0
  7  8  1  0  0  0  0
  8  9  2  0  0  0  0
  8 39  1  0  0  0  0
  9 10  1  0  0  0  0
 10 14  1  0  0  0  0
 10 11  2  0  0  0  0
 11 12  1  0  0  0  0
 12 13  2  0  0  0  0
 13 14  1  0  0  0  0
 13 40  1  0  0  0  0
 14 15  1  0  0  0  0
 15 16  1  0  0  0  0
 15 41  1  0  0  0  0
 15 42  1  0  0  0  0
 16 23  1  0  0  0  0
 16 17  1  0  0  0  0
 16 19  1  0  0  0  0
 17 18  1  0  0  0  0
 17 43  1  0  0  0  0
 17 44  1  0  0  0  0
 18 45  1  0  0  0  0
 19 20  1  0  0  0  0
 19 46  1  0  0  0  0
 19 47  1  0  0  0  0
 20 21  1  0  0  0  0
 20 48  1  0  0  0  0
 20 49  1  0  0  0  0
 21 22  1  0  0  0  0
 22 23  1  0  0  0  0
 22 50  1  0  0  0  0
 22 51  1  0  0  0  0
 23 52  1  0  0  0  0
 23 53  1  0  0  0  0
 24 25  1  0  0  0  0
 24 54  1  0  0  0  0
 24 55  1  0  0  0  0
 25 30  1  0  0  0  0
 25 26  1  0  0  0  0
 26 27  1  0  0  0  0
 26 56  1  0  0  0  0
 26 57  1  0  0  0  0
 27 28  1  0  0  0  0
 27 58  1  0  0  0  0
 27 59  1  0  0  0  0
 28 29  1  0  0  0  0
 28 60  1  0  0  0  0
 28 61  1  0  0  0  0
 29 30  1  0  0  0  0
 29 62  1  0  0  0  0
 29 63  1  0  0  0  0
 30 64  1  0  0  0  0
 30 65  1  0  0  0  0
M  END
> <s_m_source_file>
AV-unprocessed.smi

> <i_m_source_file_index>
216

> <i_lp_mmshare_version>
43012

> <i_f3d_flags>
0

> <s_epik_input>
W0NIMl0xW0NIMl1bQ0gyXVtDSDJdW0NIMl1DMTJbQ0BIXShbQ0gzXSlbQ0gyXVtDSDJdTihbQ0gyXTIpYyhuW2NIXW4zKWMoYzM0KW5bY0hdbjRbQ0gyXUM1KFtDSDJdW09IXSlbQ0gyXVtDSDJdT1tDSDJdW0NIMl01

> <s_epik_cmdline>
J2VwaWtfcHl0aG9uJywgJy1waCcsICc3LjAnLCAnLXRuJywgJzgnLCAnLW1hJywgJzIwMCcsICctbWV0YWxfYmluZGluZycsICctaW1hZScsICc8aW5maWxlLm1hZT4nLCAnLW9tYWUnLCAnPG91dGZpbGUubWFlPic=

> <r_lp_tautomer_probability>
1

> <r_epik_Ionization_Penalty>
0.00291566

> <r_epik_Ionization_Penalty_Charging>
0

> <r_epik_Ionization_Penalty_Neutral>
0.00291566

> <r_epik_State_Penalty>
0.00199166

> <r_epik_Charging_Adjusted_Penalty>
0.00199166

> <i_epik_Tot_Q>
0

> <i_epik_Tot_abs_Q>
0

> <r_epik_Metal_State_Penalty>
-0

> <b_epik_Metal_Only>
0

> <s_lp_Force_Field>
OPLS_2005

> <r_lp_Energy>
50.3698

> <b_lp_Chiralities_Consistent>
1

> <s_lp_Variant>
AV-unprocessed.smi:216-1

> <Gold.Version>
5.8.1

> <Gold.Id.Protein>
6NUR|6NUR_protein|mol2

> <Gold.PLP.Fitness>
62.9040

> <Gold.PLP.PLP>
-55.9241

> <Gold.PLP.part.hbond>
-4.3200

> <Gold.PLP.part.metal>
0.0000

> <Gold.PLP.part.buried>
3.9753

> <Gold.PLP.part.nonpolar>
-54.8501

> <Gold.PLP.part.repulsive>
0.2181

> <Gold.PLP.ligand.clash>
1.1311

> <Gold.PLP.ligand.torsion>
0.8410

> <Gold.PLP.Chemscore.Hbond>
2.3392

> <Gold.PLP.Chemscore.CHOScore>
0.8127

> <Gold.PLP.Chemscore.Metal>
0.0000

> <Gold.Chemscore.Hbonds>
donor molecule, donor type, donor heavy atom, donor atom, acceptor molecule, acceptor atom, score
      L1  H    18    45       P1  7948  0.90
      P1  H  7954  7966       L1    18  0.75
      P1  H  7997  8009       L1     7  1.00
      L1  C    13    40       P1  8028  0.21

> <Gold.PLP.Chemscore.Internal.Correction>
0.3372

> <Gold.Rescore>
     Score         DG    S(hbond)    S(metal)    S(lipo)     H(rot)  DE(clash)    DE(int)     intcor
     16.56     -22.39       1.57        0.00     147.83       2.20       3.41       2.41       ----

> <Gold.Chemscore.Fitness>
16.5581

> <Gold.Chemscore.DG>
-22.3856

> <Gold.Chemscore.ZeroCoef>
-5.4800

> <Gold.Chemscore.Hbond>
1.5709

> <Gold.Chemscore.Metal>
0.0000

> <Gold.Chemscore.Lipo>
147.8281

> <Gold.Chemscore.Internal_Hbond>
0.0000

> <Gold.Chemscore.DEClash>
3.4129

> <Gold.Chemscore.DEInternal>
2.4147

> <Gold.Chemscore.Rot>
2.2019

> <Gold.Chemscore.Internal.Correction>
   9.000000E+99

> <Gold.Chemscore.Hbonds>
donor molecule, donor type, donor heavy atom, donor atom, acceptor molecule, acceptor atom, score
      L1  H    18    45       P1  7948  0.88
      P1  H  7954  7966       L1    18  0.09
      P1  H  7997  8009       L1     7  0.16

> <Gold.Chemscore.Hbond.Weighted>
-5.2467

> <Gold.Chemscore.Metal.Weighted>
-0.0000

> <Gold.Chemscore.Lipo.Weighted>
-17.2959

> <Gold.Chemscore.Internal_Hbond.Weighted>
0.0000

> <Gold.Chemscore.DEClash.Weighted>
3.4129

> <Gold.Chemscore.DEInternal.Weighted>
2.4147

> <Gold.Chemscore.Rot.Weighted>
5.6370

> <Gold.Chemscore.Internal.Correction.Weighted>
   9.000000E+99

> <Gold.Protein.RotatedTorsions>
[ 6907 6896 6895 6894 ] final  143.86 input  -60.11 | X-H torsion
[ 7974 7965 7964 7962 ] final   80.92 input  175.53 | X-H torsion
[ 8008 7997 7996 7995 ] final -148.67 input   59.86 | X-H torsion
[ 10167 10162 10161 10158 ] final -102.01 input  -65.29 | X-H torsion
[ 10718 10713 10712 10709 ] final   45.28 input   66.30 | X-H torsion
[ 10763 10752 10751 10750 ] final -134.79 input  -60.55 | X-H torsion
[ 11005 11000 10999 10996 ] final   14.10 input  -57.11 | X-H torsion

> <Gold.Protein.ActiveResidues>
 VAL166  LYS551  ARG553  GLY616  TRP617  ASP618  TYR619  PRO620  LYS621  CYS622 
 ASP623  PHE694  ASN695  SER759  ASP760  ASP761  ALA762  ILE779  LEU786  VAL792 
 PHE793  MET794  SER795  GLU796  ALA797  LYS798  CYS799  TRP800  GLU811  SER814 

> <Gold.Protein.RotatedAtoms>
  152.2010  133.4841  159.5058 H   0  0  0  0  0  0  0  0  0  0  0  0  # atno 6907 bound_to 6896
  150.6969  134.1591  159.4178 H   0  0  0  0  0  0  0  0  0  0  0  0  # atno 6908 bound_to 6896
  151.9508  135.0170  160.0592 H   0  0  0  0  0  0  0  0  0  0  0  0  # atno 6909 bound_to 6896
  145.6449  139.2434  143.2010 H   0  0  0  0  0  0  0  0  0  0  0  0  # atno 7974 bound_to 7965
  155.5953  140.0656  157.2747 H   0  0  0  0  0  0  0  0  0  0  0  0  # atno 8008 bound_to 7997
  154.4294  140.1828  156.1164 H   0  0  0  0  0  0  0  0  0  0  0  0  # atno 8009 bound_to 7997
  156.0201  140.3317  155.7033 H   0  0  0  0  0  0  0  0  0  0  0  0  # atno 8010 bound_to 7997
  140.2352  143.3578  152.0851 H   0  0  0  0  0  0  0  0  0  0  0  0  # atno 10167 bound_to 10162
  157.4359  130.8052  149.7647 H   0  0  0  0  0  0  0  0  0  0  0  0  # atno 10718 bound_to 10713
  154.8713  135.3723  154.4794 H   0  0  0  0  0  0  0  0  0  0  0  0  # atno 10763 bound_to 10752
  153.5448  135.7026  153.5624 H   0  0  0  0  0  0  0  0  0  0  0  0  # atno 10764 bound_to 10752
  153.3769  135.4006  155.1793 H   0  0  0  0  0  0  0  0  0  0  0  0  # atno 10765 bound_to 10752
  140.4733  134.1008  155.7737 H   0  0  0  0  0  0  0  0  0  0  0  0  # atno 11005 bound_to 11000
  146.1251  140.7259  142.9439 LP  0  0  0  0  0  0  0  0  0  0  0  0  # atno 17320 bound_to 7965
  144.7144  140.4155  143.7056 LP  0  0  0  0  0  0  0  0  0  0  0  0  # atno 17321 bound_to 7965
  139.5096  144.6870  151.5861 LP  0  0  0  0  0  0  0  0  0  0  0  0  # atno 17342 bound_to 10162
  140.6155  143.9357  150.6485 LP  0  0  0  0  0  0  0  0  0  0  0  0  # atno 17343 bound_to 10162
  155.9930  130.3927  150.2917 LP  0  0  0  0  0  0  0  0  0  0  0  0  # atno 17370 bound_to 10713
  157.1078  131.0213  151.3060 LP  0  0  0  0  0  0  0  0  0  0  0  0  # atno 17371 bound_to 10713
  141.1566  133.8871  157.1960 LP  0  0  0  0  0  0  0  0  0  0  0  0  # atno 17394 bound_to 11000
  139.9871  135.0078  156.9889 LP  0  0  0  0  0  0  0  0  0  0  0  0  # atno 17395 bound_to 11000

$$$$
