AV-unprocessed.smi:190|AV-procd|sdf|1491|dock10
  -GOLD-   2262019313D 1   1.00000     0.00000
 Structure written by MMmdl.
 54 58  0  0  0  0  0  0  0  0  1 V2000
  150.6249  140.5054  154.7344 O   0  0  0  0  0  0  0  0  0  0  0  0
  151.1956  141.1050  155.8808 C   0  0  0  0  0  0  0  0  0  0  0  0
  150.7714  140.3925  157.1967 C   0  0  0  0  0  0  0  0  0  0  0  0
  150.8954  138.8556  156.9583 C   0  0  0  0  0  0  0  0  0  0  0  0
  150.3583  138.0067  158.0126 N   0  0  0  0  0  0  0  0  0  0  0  0
  150.9411  137.7286  159.2268 C   0  0  0  0  0  0  0  0  0  0  0  0
  150.2609  136.9254  159.9970 N   0  0  0  0  0  0  0  0  0  0  0  0
  149.1247  136.6086  159.2583 C   0  0  0  0  0  0  0  0  0  0  0  0
  147.9758  135.7884  159.4844 C   0  0  0  0  0  0  0  0  0  0  0  0
  147.7536  135.0805  160.6318 N   0  0  0  0  0  0  0  0  0  0  0  0
  147.5631  135.7896  161.8933 C   0  0  0  0  0  0  0  0  0  0  0  0
  146.9883  134.7716  162.8829 C   0  0  0  0  0  0  0  0  0  0  0  0
  147.2330  133.4234  162.2074 C   0  0  0  0  0  0  0  0  0  0  0  0
  147.1341  133.7491  160.7080 C   0  0  1  0  0  0  0  0  0  0  0  0
  145.6692  133.7269  160.2439 C   0  0  0  0  0  0  0  0  0  0  0  0
  145.5482  132.3704  159.5605 C   0  0  0  0  0  0  0  0  0  0  0  0
  146.8085  132.2216  158.9300 O   0  0  0  0  0  0  0  0  0  0  0  0
  147.8052  132.6531  159.8478 C   0  0  0  0  0  0  0  0  0  0  0  0
  147.0715  135.7188  158.4715 N   0  0  0  0  0  0  0  0  0  0  0  0
  147.2535  136.3945  157.3350 C   0  0  0  0  0  0  0  0  0  0  0  0
  148.2632  137.1947  156.9964 N   0  0  0  0  0  0  0  0  0  0  0  0
  149.1843  137.2731  157.9979 C   0  0  0  0  0  0  0  0  0  0  0  0
  151.6476  140.8485  158.3926 C   0  0  0  0  0  0  0  0  0  0  0  0
  151.4057  142.3196  158.7772 C   0  0  0  0  0  0  0  0  0  0  0  0
  150.0313  142.5200  159.0836 O   0  0  0  0  0  0  0  0  0  0  0  0
  149.1702  142.2537  157.9834 C   0  0  0  0  0  0  0  0  0  0  0  0
  149.3113  140.7826  157.5484 C   0  0  0  0  0  0  0  0  0  0  0  0
  149.7798  140.8989  154.5784 H   0  0  0  0  0  0  0  0  0  0  0  0
  152.2752  141.1076  155.7426 H   0  0  0  0  0  0  0  0  0  0  0  0
  150.8915  142.1520  155.9033 H   0  0  0  0  0  0  0  0  0  0  0  0
  150.3923  138.5844  156.0293 H   0  0  0  0  0  0  0  0  0  0  0  0
  151.9409  138.5781  156.8191 H   0  0  0  0  0  0  0  0  0  0  0  0
  151.8912  138.1463  159.5273 H   0  0  0  0  0  0  0  0  0  0  0  0
  148.5296  136.1443  162.2521 H   0  0  0  0  0  0  0  0  0  0  0  0
  146.9006  136.6485  161.7789 H   0  0  0  0  0  0  0  0  0  0  0  0
  147.4478  134.8374  163.8693 H   0  0  0  0  0  0  0  0  0  0  0  0
  145.9173  134.9391  163.0029 H   0  0  0  0  0  0  0  0  0  0  0  0
  148.2406  133.0828  162.4528 H   0  0  0  0  0  0  0  0  0  0  0  0
  146.5356  132.6508  162.5333 H   0  0  0  0  0  0  0  0  0  0  0  0
  144.9464  133.8472  161.0513 H   0  0  0  0  0  0  0  0  0  0  0  0
  145.4623  134.5111  159.5165 H   0  0  0  0  0  0  0  0  0  0  0  0
  145.4052  131.5732  160.2916 H   0  0  0  0  0  0  0  0  0  0  0  0
  144.7303  132.3324  158.8410 H   0  0  0  0  0  0  0  0  0  0  0  0
  148.7018  132.9878  159.3260 H   0  0  0  0  0  0  0  0  0  0  0  0
  148.0939  131.7960  160.4579 H   0  0  0  0  0  0  0  0  0  0  0  0
  146.4786  136.2759  156.5921 H   0  0  0  0  0  0  0  0  0  0  0  0
  151.4219  140.2454  159.2710 H   0  0  0  0  0  0  0  0  0  0  0  0
  152.7053  140.6864  158.1830 H   0  0  0  0  0  0  0  0  0  0  0  0
  151.9961  142.5721  159.6581 H   0  0  0  0  0  0  0  0  0  0  0  0
  151.7217  143.0014  157.9873 H   0  0  0  0  0  0  0  0  0  0  0  0
  148.1438  142.4482  158.2952 H   0  0  0  0  0  0  0  0  0  0  0  0
  149.3769  142.9428  157.1645 H   0  0  0  0  0  0  0  0  0  0  0  0
  148.6484  140.5752  156.7076 H   0  0  0  0  0  0  0  0  0  0  0  0
  148.9481  140.1764  158.3775 H   0  0  0  0  0  0  0  0  0  0  0  0
  1  2  1  0  0  0  0
  1 28  1  0  0  0  0
  2  3  1  0  0  0  0
  2 29  1  0  0  0  0
  2 30  1  0  0  0  0
  3 27  1  0  0  0  0
  3  4  1  0  0  0  0
  3 23  1  0  0  0  0
  4  5  1  0  0  0  0
  4 31  1  0  0  0  0
  4 32  1  0  0  0  0
  5 22  1  0  0  0  0
  5  6  1  0  0  0  0
  6  7  2  0  0  0  0
  6 33  1  0  0  0  0
  7  8  1  0  0  0  0
  8 22  2  0  0  0  0
  8  9  1  0  0  0  0
  9 10  1  0  0  0  0
  9 19  2  0  0  0  0
 10 14  1  0  0  0  0
 10 11  1  0  0  0  0
 11 12  1  0  0  0  0
 11 34  1  0  0  0  0
 11 35  1  0  0  0  0
 12 13  1  0  0  0  0
 12 36  1  0  0  0  0
 12 37  1  0  0  0  0
 13 14  1  0  0  0  0
 13 38  1  0  0  0  0
 13 39  1  0  0  0  0
 14 18  1  0  0  0  0
 14 15  1  0  0  0  0
 15 16  1  0  0  0  0
 15 40  1  0  0  0  0
 15 41  1  0  0  0  0
 16 17  1  0  0  0  0
 16 42  1  0  0  0  0
 16 43  1  0  0  0  0
 17 18  1  0  0  0  0
 18 44  1  0  0  0  0
 18 45  1  0  0  0  0
 19 20  1  0  0  0  0
 20 21  2  0  0  0  0
 20 46  1  0  0  0  0
 21 22  1  0  0  0  0
 23 24  1  0  0  0  0
 23 47  1  0  0  0  0
 23 48  1  0  0  0  0
 24 25  1  0  0  0  0
 24 49  1  0  0  0  0
 24 50  1  0  0  0  0
 25 26  1  0  0  0  0
 26 27  1  0  0  0  0
 26 51  1  0  0  0  0
 26 52  1  0  0  0  0
 27 53  1  0  0  0  0
 27 54  1  0  0  0  0
M  END
> <s_m_source_file>
AV-unprocessed.smi

> <i_m_source_file_index>
190

> <i_lp_mmshare_version>
43012

> <i_f3d_flags>
0

> <s_epik_input>
W0NIMl0xW0NIMl1PW0NIMl1bQ0gyXUMxKFtDSDJdW09IXSlbQ0gyXW4oW2NIXW4yKWMoYzIzKW5bY0hdbmMzTihbQ0gyXVtDSDJdW0NIMl00KVtDQF00NVtDSDJdW0NIMl1PW0NIMl01

> <s_epik_cmdline>
J2VwaWtfcHl0aG9uJywgJy1waCcsICc3LjAnLCAnLXRuJywgJzgnLCAnLW1hJywgJzIwMCcsICctbWV0YWxfYmluZGluZycsICctaW1hZScsICc8aW5maWxlLm1hZT4nLCAnLW9tYWUnLCAnPG91dGZpbGUubWFlPic=

> <r_lp_tautomer_probability>
1

> <r_epik_Ionization_Penalty>
0.00423054

> <r_epik_Ionization_Penalty_Charging>
0

> <r_epik_Ionization_Penalty_Neutral>
0.00423054

> <r_epik_State_Penalty>
0.00298851

> <r_epik_Charging_Adjusted_Penalty>
0.00298851

> <i_epik_Tot_Q>
0

> <i_epik_Tot_abs_Q>
0

> <r_epik_Metal_State_Penalty>
-0

> <b_epik_Metal_Only>
0

> <s_lp_Force_Field>
OPLS_2005

> <r_lp_Energy>
66.7697

> <b_lp_Chiralities_Consistent>
1

> <s_lp_Variant>
AV-unprocessed.smi:190-1

> <Gold.Version>
5.8.1

> <Gold.Id.Protein>
6NUR|6NUR_protein|mol2

> <Gold.PLP.Fitness>
40.3331

> <Gold.PLP.PLP>
-36.8086

> <Gold.PLP.part.hbond>
-3.7299

> <Gold.PLP.part.metal>
0.0000

> <Gold.PLP.part.buried>
-4.5826

> <Gold.PLP.part.nonpolar>
-29.1799

> <Gold.PLP.part.repulsive>
0.0359

> <Gold.PLP.ligand.clash>
0.0000

> <Gold.PLP.ligand.torsion>
1.2676

> <Gold.PLP.Chemscore.Hbond>
1.9600

> <Gold.PLP.Chemscore.CHOScore>
0.0000

> <Gold.PLP.Chemscore.Metal>
0.0000

> <Gold.Chemscore.Hbonds>
donor molecule, donor type, donor heavy atom, donor atom, acceptor molecule, acceptor atom, score
      P1  H  6896  6907       L1     7  0.62
      P1  H  7989  7998       L1     1  1.00

> <Gold.PLP.Chemscore.Internal.Correction>
0.1796

> <Gold.Rescore>
     Score         DG    S(hbond)    S(metal)    S(lipo)     H(rot)  DE(clash)    DE(int)     intcor
     11.48     -13.93       1.28        0.00      81.55       2.10       0.31       2.14       ----

> <Gold.Chemscore.Fitness>
11.4779

> <Gold.Chemscore.DG>
-13.9269

> <Gold.Chemscore.ZeroCoef>
-5.4800

> <Gold.Chemscore.Hbond>
1.2802

> <Gold.Chemscore.Metal>
0.0000

> <Gold.Chemscore.Lipo>
81.5496

> <Gold.Chemscore.Internal_Hbond>
0.0000

> <Gold.Chemscore.DEClash>
0.3073

> <Gold.Chemscore.DEInternal>
2.1417

> <Gold.Chemscore.Rot>
2.0978

> <Gold.Chemscore.Internal.Correction>
   9.000000E+99

> <Gold.Chemscore.Hbonds>
donor molecule, donor type, donor heavy atom, donor atom, acceptor molecule, acceptor atom, score
      P1  H  6896  6907       L1     7  0.04
      P1  H  7989  7998       L1     1  0.37

> <Gold.Chemscore.Hbond.Weighted>
-4.2759

> <Gold.Chemscore.Metal.Weighted>
-0.0000

> <Gold.Chemscore.Lipo.Weighted>
-9.5413

> <Gold.Chemscore.Internal_Hbond.Weighted>
0.0000

> <Gold.Chemscore.DEClash.Weighted>
0.3073

> <Gold.Chemscore.DEInternal.Weighted>
2.1417

> <Gold.Chemscore.Rot.Weighted>
5.3703

> <Gold.Chemscore.Internal.Correction.Weighted>
   9.000000E+99

> <Gold.Protein.RotatedTorsions>
[ 6907 6896 6895 6894 ] final  -33.18 input  -60.11 | X-H torsion
[ 7974 7965 7964 7962 ] final  -11.69 input  175.53 | X-H torsion
[ 8008 7997 7996 7995 ] final -130.42 input   59.86 | X-H torsion
[ 10167 10162 10161 10158 ] final  -50.01 input  -65.29 | X-H torsion
[ 10718 10713 10712 10709 ] final -136.98 input   66.30 | X-H torsion
[ 10763 10752 10751 10750 ] final  -61.60 input  -60.55 | X-H torsion
[ 11005 11000 10999 10996 ] final -107.44 input  -57.11 | X-H torsion

> <Gold.Protein.ActiveResidues>
 VAL166  LYS551  ARG553  GLY616  TRP617  ASP618  TYR619  PRO620  LYS621  CYS622 
 ASP623  PHE694  ASN695  SER759  ASP760  ASP761  ALA762  ILE779  LEU786  VAL792 
 PHE793  MET794  SER795  GLU796  ALA797  LYS798  CYS799  TRP800  GLU811  SER814 

> <Gold.Protein.RotatedAtoms>
  151.0690  134.9786  159.8298 H   0  0  0  0  0  0  0  0  0  0  0  0  # atno 6907 bound_to 6896
  152.5406  134.2323  159.8840 H   0  0  0  0  0  0  0  0  0  0  0  0  # atno 6908 bound_to 6896
  151.2347  133.4388  159.2638 H   0  0  0  0  0  0  0  0  0  0  0  0  # atno 6909 bound_to 6896
  146.2179  140.2947  142.8371 H   0  0  0  0  0  0  0  0  0  0  0  0  # atno 7974 bound_to 7965
  155.2955  140.0450  157.3026 H   0  0  0  0  0  0  0  0  0  0  0  0  # atno 8008 bound_to 7997
  154.5517  140.2319  155.8442 H   0  0  0  0  0  0  0  0  0  0  0  0  # atno 8009 bound_to 7997
  156.1972  140.3035  155.9459 H   0  0  0  0  0  0  0  0  0  0  0  0  # atno 8010 bound_to 7997
  140.6658  143.2674  151.4298 H   0  0  0  0  0  0  0  0  0  0  0  0  # atno 10167 bound_to 10162
  156.2831  130.7332  151.1335 H   0  0  0  0  0  0  0  0  0  0  0  0  # atno 10718 bound_to 10713
  154.2870  135.6261  153.5370 H   0  0  0  0  0  0  0  0  0  0  0  0  # atno 10763 bound_to 10752
  152.9857  135.5646  154.5432 H   0  0  0  0  0  0  0  0  0  0  0  0  # atno 10764 bound_to 10752
  154.5035  135.2873  155.1377 H   0  0  0  0  0  0  0  0  0  0  0  0  # atno 10765 bound_to 10752
  141.0954  133.8981  157.1976 H   0  0  0  0  0  0  0  0  0  0  0  0  # atno 11005 bound_to 11000
  144.9101  140.7746  143.5813 LP  0  0  0  0  0  0  0  0  0  0  0  0  # atno 17320 bound_to 7965
  145.2878  139.1895  143.4756 LP  0  0  0  0  0  0  0  0  0  0  0  0  # atno 17321 bound_to 7965
  139.5906  144.1507  152.2083 LP  0  0  0  0  0  0  0  0  0  0  0  0  # atno 17342 bound_to 10162
  140.0861  144.5660  150.7088 LP  0  0  0  0  0  0  0  0  0  0  0  0  # atno 17343 bound_to 10162
  157.7320  131.0603  150.5648 LP  0  0  0  0  0  0  0  0  0  0  0  0  # atno 17370 bound_to 10713
  156.5756  130.4291  149.6000 LP  0  0  0  0  0  0  0  0  0  0  0  0  # atno 17371 bound_to 10713
  139.9789  135.0105  156.9700 LP  0  0  0  0  0  0  0  0  0  0  0  0  # atno 17394 bound_to 11000
  140.5153  134.0961  155.7279 LP  0  0  0  0  0  0  0  0  0  0  0  0  # atno 17395 bound_to 11000

$$$$
