AV-unprocessed.smi:3039|AV-procd|sdf|11594|dock9
  -GOLD-   2272016573D 1   1.00000     0.00000
 Structure written by MMmdl.
 38 39  0  0  0  0  0  0  0  0  1 V2000
  154.0220  140.0703  158.9364 O   0  0  0  0  0  0  0  0  0  0  0  0
  152.9270  139.5090  158.9657 C   0  0  0  0  0  0  0  0  0  0  0  0
  152.8398  137.9944  158.7774 C   0  0  0  0  0  0  0  0  0  0  0  0
  153.4502  137.2914  159.9595 C   0  0  0  0  0  0  0  0  0  0  0  0
  153.8219  137.8413  161.2182 C   0  0  0  0  0  0  0  0  0  0  0  0
  154.3214  136.7694  161.8999 C   0  0  0  0  0  0  0  0  0  0  0  0
  154.2611  135.6500  161.1356 O   0  0  0  0  0  0  0  0  0  0  0  0
  153.7017  135.9924  159.8993 N   0  0  0  0  0  0  0  0  0  0  0  0
  151.7657  140.1561  159.1551 N   0  0  0  0  0  0  0  0  0  0  0  0
  151.6140  141.5958  159.3689 C   0  0  1  0  0  0  0  0  0  0  0  0
  152.6466  142.0655  160.4216 C   0  0  0  0  0  0  0  0  0  0  0  0
  152.1785  143.2899  161.2297 C   0  0  0  0  0  0  0  0  0  0  0  0
  152.2310  144.6269  160.4789 C   0  0  0  0  0  0  0  0  0  0  0  0
  151.4408  144.6481  159.1621 C   0  0  0  0  0  0  0  0  0  0  0  0
  152.1106  143.8076  158.0631 C   0  0  0  0  0  0  0  0  0  0  0  0
  151.6795  142.3239  157.9924 C   0  0  2  0  0  0  0  0  0  0  0  0
  150.3524  142.1962  157.2031 C   0  0  0  0  0  0  0  0  0  0  0  0
  150.3782  142.9221  155.9913 O   0  0  0  0  0  0  0  0  0  0  0  0
  151.7941  137.7060  158.6649 H   0  0  0  0  0  0  0  0  0  0  0  0
  153.3394  137.7113  157.8496 H   0  0  0  0  0  0  0  0  0  0  0  0
  153.7391  138.8615  161.5621 H   0  0  0  0  0  0  0  0  0  0  0  0
  154.7369  136.6473  162.8894 H   0  0  0  0  0  0  0  0  0  0  0  0
  150.9178  139.6073  159.1625 H   0  0  0  0  0  0  0  0  0  0  0  0
  150.6197  141.7681  159.7849 H   0  0  0  0  0  0  0  0  0  0  0  0
  152.8073  141.2637  161.1439 H   0  0  0  0  0  0  0  0  0  0  0  0
  153.6214  142.2420  159.9658 H   0  0  0  0  0  0  0  0  0  0  0  0
  151.1684  143.1183  161.6036 H   0  0  0  0  0  0  0  0  0  0  0  0
  152.8058  143.3786  162.1172 H   0  0  0  0  0  0  0  0  0  0  0  0
  151.8381  145.4039  161.1356 H   0  0  0  0  0  0  0  0  0  0  0  0
  153.2697  144.9003  160.2892 H   0  0  0  0  0  0  0  0  0  0  0  0
  150.4054  144.3441  159.3190 H   0  0  0  0  0  0  0  0  0  0  0  0
  151.3989  145.6826  158.8195 H   0  0  0  0  0  0  0  0  0  0  0  0
  151.9201  144.2783  157.0980 H   0  0  0  0  0  0  0  0  0  0  0  0
  153.1939  143.8645  158.1773 H   0  0  0  0  0  0  0  0  0  0  0  0
  152.4526  141.8394  157.3929 H   0  0  0  0  0  0  0  0  0  0  0  0
  150.1250  141.1511  156.9917 H   0  0  0  0  0  0  0  0  0  0  0  0
  149.5183  142.5872  157.7862 H   0  0  0  0  0  0  0  0  0  0  0  0
  149.7868  143.6554  156.0682 H   0  0  0  0  0  0  0  0  0  0  0  0
  1  2  2  0  0  0  0
  2  3  1  0  0  0  0
  2  9  1  0  0  0  0
  3  4  1  0  0  0  0
  3 19  1  0  0  0  0
  3 20  1  0  0  0  0
  4  8  2  0  0  0  0
  4  5  1  0  0  0  0
  5  6  2  0  0  0  0
  5 21  1  0  0  0  0
  6  7  1  0  0  0  0
  6 22  1  0  0  0  0
  7  8  1  0  0  0  0
  9 10  1  0  0  0  0
  9 23  1  0  0  0  0
 10 16  1  0  0  0  0
 10 11  1  0  0  0  0
 10 24  1  0  0  0  0
 11 12  1  0  0  0  0
 11 25  1  0  0  0  0
 11 26  1  0  0  0  0
 12 13  1  0  0  0  0
 12 27  1  0  0  0  0
 12 28  1  0  0  0  0
 13 14  1  0  0  0  0
 13 29  1  0  0  0  0
 13 30  1  0  0  0  0
 14 15  1  0  0  0  0
 14 31  1  0  0  0  0
 14 32  1  0  0  0  0
 15 16  1  0  0  0  0
 15 33  1  0  0  0  0
 15 34  1  0  0  0  0
 16 17  1  0  0  0  0
 16 35  1  0  0  0  0
 17 18  1  0  0  0  0
 17 36  1  0  0  0  0
 17 37  1  0  0  0  0
 18 38  1  0  0  0  0
M  END
> <s_m_source_file>
AV-unprocessed.smi

> <i_m_source_file_index>
3039

> <i_lp_mmshare_version>
43012

> <i_f3d_flags>
0

> <s_epik_input>
bjFvW2NIXVtjSF1jMVtDSDJdQyg9TylbTkhdW0NAQEhdMltDSDJdW0NIMl1bQ0gyXVtDSDJdW0NIMl1bQ0BIXTJbQ0gyXVtPSF0=

> <s_epik_cmdline>
J2VwaWtfcHl0aG9uJywgJy1waCcsICc3LjAnLCAnLXRuJywgJzgnLCAnLW1hJywgJzIwMCcsICctbWV0YWxfYmluZGluZycsICctaW1hZScsICc8aW5maWxlLm1hZT4nLCAnLW9tYWUnLCAnPG91dGZpbGUubWFlPic=

> <r_lp_tautomer_probability>
1

> <r_epik_Ionization_Penalty>
3.05817e-07

> <r_epik_Ionization_Penalty_Charging>
0

> <r_epik_Ionization_Penalty_Neutral>
3.05817e-07

> <r_epik_State_Penalty>
-0

> <r_epik_Charging_Adjusted_Penalty>
0

> <i_epik_Tot_Q>
0

> <i_epik_Tot_abs_Q>
0

> <r_epik_Metal_State_Penalty>
-0

> <b_epik_Metal_Only>
0

> <s_lp_Force_Field>
OPLS_2005

> <r_lp_Energy>
18.8226

> <b_lp_Chiralities_Consistent>
1

> <s_lp_Variant>
AV-unprocessed.smi:3039-4

> <Gold.Version>
5.8.1

> <Gold.Id.Protein>
6NUR|6NUR_protein|mol2

> <Gold.PLP.Fitness>
44.4779

> <Gold.PLP.PLP>
-36.3626

> <Gold.PLP.part.hbond>
-2.8014

> <Gold.PLP.part.metal>
0.0000

> <Gold.PLP.part.buried>
-4.5774

> <Gold.PLP.part.nonpolar>
-28.6143

> <Gold.PLP.part.repulsive>
0.1663

> <Gold.PLP.ligand.clash>
0.0000

> <Gold.PLP.ligand.torsion>
0.4667

> <Gold.PLP.Chemscore.Hbond>
3.0000

> <Gold.PLP.Chemscore.CHOScore>
0.0000

> <Gold.PLP.Chemscore.Metal>
0.0000

> <Gold.Chemscore.Hbonds>
donor molecule, donor type, donor heavy atom, donor atom, acceptor molecule, acceptor atom, score
      L1  H    18    38       P1  8028  0.80
      P1  H  6896  6909       L1     8  0.80
      P1  H  7997  8010       L1     1  0.98

> <Gold.PLP.Chemscore.Internal.Correction>
0.0488

> <Gold.Rescore>
     Score         DG    S(hbond)    S(metal)    S(lipo)     H(rot)  DE(clash)    DE(int)     intcor
     19.99     -22.05       2.93        0.00     107.46       2.26       0.51       1.55       ----

> <Gold.Chemscore.Fitness>
19.9889

> <Gold.Chemscore.DG>
-22.0529

> <Gold.Chemscore.ZeroCoef>
-5.4800

> <Gold.Chemscore.Hbond>
2.9310

> <Gold.Chemscore.Metal>
0.0000

> <Gold.Chemscore.Lipo>
107.4603

> <Gold.Chemscore.Internal_Hbond>
0.0000

> <Gold.Chemscore.DEClash>
0.5119

> <Gold.Chemscore.DEInternal>
1.5520

> <Gold.Chemscore.Rot>
2.2616

> <Gold.Chemscore.Internal.Correction>
   9.000000E+99

> <Gold.Chemscore.Hbonds>
donor molecule, donor type, donor heavy atom, donor atom, acceptor molecule, acceptor atom, score
      L1  H    18    38       P1  8028  0.78
      P1  H  6896  6909       L1     8  0.10
      P1  H  7997  8010       L1     1  0.80

> <Gold.Chemscore.Hbond.Weighted>
-9.7896

> <Gold.Chemscore.Metal.Weighted>
-0.0000

> <Gold.Chemscore.Lipo.Weighted>
-12.5729

> <Gold.Chemscore.Internal_Hbond.Weighted>
0.0000

> <Gold.Chemscore.DEClash.Weighted>
0.5119

> <Gold.Chemscore.DEInternal.Weighted>
1.5520

> <Gold.Chemscore.Rot.Weighted>
5.7896

> <Gold.Chemscore.Internal.Correction.Weighted>
   9.000000E+99

> <Gold.Protein.RotatedTorsions>
[ 6907 6896 6895 6894 ] final  159.04 input  -60.11 | X-H torsion
[ 7974 7965 7964 7962 ] final    5.11 input  175.53 | X-H torsion
[ 8008 7997 7996 7995 ] final   19.13 input   59.86 | X-H torsion
[ 10167 10162 10161 10158 ] final   87.78 input  -65.29 | X-H torsion
[ 10718 10713 10712 10709 ] final   45.67 input   66.30 | X-H torsion
[ 10763 10752 10751 10750 ] final   39.73 input  -60.55 | X-H torsion
[ 11005 11000 10999 10996 ] final -165.96 input  -57.11 | X-H torsion

> <Gold.Protein.ActiveResidues>
 VAL166  LYS551  ARG553  GLY616  TRP617  ASP618  TYR619  PRO620  LYS621  CYS622 
 ASP623  PHE694  ASN695  SER759  ASP760  ASP761  ALA762  ILE779  LEU786  VAL792 
 PHE793  MET794  SER795  GLU796  ALA797  LYS798  CYS799  TRP800  GLU811  SER814 

> <Gold.Protein.RotatedAtoms>
  151.9915  133.3792  159.4145 H   0  0  0  0  0  0  0  0  0  0  0  0  # atno 6907 bound_to 6896
  150.6921  134.3931  159.5094 H   0  0  0  0  0  0  0  0  0  0  0  0  # atno 6908 bound_to 6896
  152.1665  134.8869  160.0588 H   0  0  0  0  0  0  0  0  0  0  0  0  # atno 6909 bound_to 6896
  146.2442  140.0433  142.8380 H   0  0  0  0  0  0  0  0  0  0  0  0  # atno 7974 bound_to 7965
  154.9162  140.3021  155.5240 H   0  0  0  0  0  0  0  0  0  0  0  0  # atno 8008 bound_to 7997
  156.3012  140.2380  156.4143 H   0  0  0  0  0  0  0  0  0  0  0  0  # atno 8009 bound_to 7997
  154.8376  140.0415  157.1508 H   0  0  0  0  0  0  0  0  0  0  0  0  # atno 8010 bound_to 7997
  139.8739  144.6477  150.8918 H   0  0  0  0  0  0  0  0  0  0  0  0  # atno 10167 bound_to 10162
  157.4400  130.8076  149.7685 H   0  0  0  0  0  0  0  0  0  0  0  0  # atno 10718 bound_to 10713
  152.9958  135.6212  154.2511 H   0  0  0  0  0  0  0  0  0  0  0  0  # atno 10763 bound_to 10752
  154.2250  135.2794  155.2912 H   0  0  0  0  0  0  0  0  0  0  0  0  # atno 10764 bound_to 10752
  154.5497  135.5737  153.6969 H   0  0  0  0  0  0  0  0  0  0  0  0  # atno 10765 bound_to 10752
  140.5698  134.5249  157.5159 H   0  0  0  0  0  0  0  0  0  0  0  0  # atno 11005 bound_to 11000
  145.1050  140.9369  143.4690 LP  0  0  0  0  0  0  0  0  0  0  0  0  # atno 17320 bound_to 7965
  145.0634  139.3087  143.5869 LP  0  0  0  0  0  0  0  0  0  0  0  0  # atno 17321 bound_to 7965
  140.7756  143.3641  151.1773 LP  0  0  0  0  0  0  0  0  0  0  0  0  # atno 17342 bound_to 10162
  139.7258  143.9151  152.3002 LP  0  0  0  0  0  0  0  0  0  0  0  0  # atno 17343 bound_to 10162
  155.9945  130.3917  150.2856 LP  0  0  0  0  0  0  0  0  0  0  0  0  # atno 17370 bound_to 10713
  157.1020  131.0198  151.3082 LP  0  0  0  0  0  0  0  0  0  0  0  0  # atno 17371 bound_to 10713
  139.9367  134.7862  156.0784 LP  0  0  0  0  0  0  0  0  0  0  0  0  # atno 17394 bound_to 11000
  141.1063  133.6659  156.2872 LP  0  0  0  0  0  0  0  0  0  0  0  0  # atno 17395 bound_to 11000

$$$$
