AV-unprocessed.smi:1986|AV-procd|sdf|8053|dock10
  -GOLD-   2272010253D 1   1.00000     0.00000
 Structure written by MMmdl.
 48 49  0  0  0  0  0  0  0  0  2 V2000
  144.7988  136.8077  152.8605 C   0  0  0  0  0  0  0  0  0  0  0  0
  145.5024  135.8696  153.8590 C   0  0  0  0  0  0  0  0  0  0  0  0
  144.6914  134.6388  154.3882 C   0  0  2  0  0  0  0  0  0  0  0  0
  143.3084  135.1291  154.8822 C   0  0  0  0  0  0  0  0  0  0  0  0
  145.4572  133.9997  155.5873 C   0  0  0  0  0  0  0  0  0  0  0  0
  145.5601  134.9202  156.7163 N   0  0  0  0  0  0  0  0  0  0  0  0
  146.1428  134.6711  157.9007 C   0  0  0  0  0  0  0  0  0  0  0  0
  146.5764  133.5645  158.2168 O   0  0  0  0  0  0  0  0  0  0  0  0
  146.3219  135.8559  158.8650 C   0  0  0  0  0  0  0  0  0  0  0  0
  146.5614  135.4662  160.2654 N   0  0  0  0  0  0  0  0  0  0  0  0
  145.8310  134.3639  160.6807 N   0  0  0  0  0  0  0  0  0  0  0  0
  145.9408  133.9365  161.8931 C   0  0  0  0  0  0  0  0  0  0  0  0
  145.1965  132.8433  162.2632 O   0  0  0  0  0  0  0  0  0  0  0  0
  146.8202  134.5876  162.8393 C   0  0  0  0  0  0  0  0  0  0  0  0
  147.5283  135.6613  162.4261 C   0  0  0  0  0  0  0  0  0  0  0  0
  147.4228  136.1754  161.0599 C   0  0  0  0  0  0  0  0  0  0  0  0
  148.0324  137.1690  160.6644 O   0  0  0  0  0  0  0  0  0  0  0  0
  144.5347  133.6054  153.2939 N   0  3  0  0  0  0  0  0  0  0  0  0
  143.8273  134.0712  152.0670 C   0  0  0  0  0  0  0  0  0  0  0  0
  143.5111  132.8834  151.1475 C   0  0  0  0  0  0  0  0  0  0  0  0
  144.7278  132.2530  150.7755 O   0  0  0  0  0  0  0  0  0  0  0  0
  145.4111  131.7280  151.9042 C   0  0  0  0  0  0  0  0  0  0  0  0
  145.7599  132.8552  152.8938 C   0  0  0  0  0  0  0  0  0  0  0  0
  145.8234  132.1608  162.4479 H   0  0  0  0  0  0  0  0  0  0  0  0
  145.4955  137.5670  152.5052 H   0  0  0  0  0  0  0  0  0  0  0  0
  143.9634  137.3391  153.3159 H   0  0  0  0  0  0  0  0  0  0  0  0
  144.4294  136.2766  151.9841 H   0  0  0  0  0  0  0  0  0  0  0  0
  146.4081  135.5204  153.3626 H   0  0  0  0  0  0  0  0  0  0  0  0
  145.8363  136.4791  154.6997 H   0  0  0  0  0  0  0  0  0  0  0  0
  143.4039  135.8975  155.6485 H   0  0  0  0  0  0  0  0  0  0  0  0
  142.7238  134.3285  155.3350 H   0  0  0  0  0  0  0  0  0  0  0  0
  142.7174  135.5545  154.0709 H   0  0  0  0  0  0  0  0  0  0  0  0
  144.9481  133.1013  155.9345 H   0  0  0  0  0  0  0  0  0  0  0  0
  146.4419  133.6384  155.2932 H   0  0  0  0  0  0  0  0  0  0  0  0
  145.2194  135.8582  156.5594 H   0  0  0  0  0  0  0  0  0  0  0  0
  147.1473  136.4665  158.4947 H   0  0  0  0  0  0  0  0  0  0  0  0
  145.4387  136.4948  158.8099 H   0  0  0  0  0  0  0  0  0  0  0  0
  146.9039  134.2165  163.8502 H   0  0  0  0  0  0  0  0  0  0  0  0
  148.1888  136.1566  163.1224 H   0  0  0  0  0  0  0  0  0  0  0  0
  142.8958  134.5795  152.3038 H   0  0  0  0  0  0  0  0  0  0  0  0
  144.4471  134.7827  151.5207 H   0  0  0  0  0  0  0  0  0  0  0  0
  142.8430  132.1728  151.6376 H   0  0  0  0  0  0  0  0  0  0  0  0
  143.0048  133.2300  150.2463 H   0  0  0  0  0  0  0  0  0  0  0  0
  144.7987  130.9642  152.3852 H   0  0  0  0  0  0  0  0  0  0  0  0
  146.3213  131.2335  151.5647 H   0  0  0  0  0  0  0  0  0  0  0  0
  146.4837  133.5376  152.4469 H   0  0  0  0  0  0  0  0  0  0  0  0
  146.2434  132.3802  153.7453 H   0  0  0  0  0  0  0  0  0  0  0  0
  143.9302  132.9047  153.6995 H   0  0  0  0  0  0  0  0  0  0  0  0
  1  2  1  0  0  0  0
  1 25  1  0  0  0  0
  1 26  1  0  0  0  0
  1 27  1  0  0  0  0
  2  3  1  0  0  0  0
  2 28  1  0  0  0  0
  2 29  1  0  0  0  0
  3  4  1  0  0  0  0
  3  5  1  0  0  0  0
  3 18  1  0  0  0  0
  4 30  1  0  0  0  0
  4 31  1  0  0  0  0
  4 32  1  0  0  0  0
  5  6  1  0  0  0  0
  5 33  1  0  0  0  0
  5 34  1  0  0  0  0
  6  7  1  0  0  0  0
  6 35  1  0  0  0  0
  7  8  2  0  0  0  0
  7  9  1  0  0  0  0
  9 36  1  0  0  0  0
  9 37  1  0  0  0  0
  9 10  1  0  0  0  0
 10 11  1  0  0  0  0
 10 16  1  0  0  0  0
 11 12  2  0  0  0  0
 12 13  1  0  0  0  0
 12 14  1  0  0  0  0
 13 24  1  0  0  0  0
 14 38  1  0  0  0  0
 14 15  2  0  0  0  0
 15 39  1  0  0  0  0
 15 16  1  0  0  0  0
 16 17  2  0  0  0  0
 18 23  1  0  0  0  0
 18 19  1  0  0  0  0
 18 48  1  0  0  0  0
 19 20  1  0  0  0  0
 19 40  1  0  0  0  0
 19 41  1  0  0  0  0
 20 21  1  0  0  0  0
 20 42  1  0  0  0  0
 20 43  1  0  0  0  0
 21 22  1  0  0  0  0
 22 23  1  0  0  0  0
 22 44  1  0  0  0  0
 22 45  1  0  0  0  0
 23 46  1  0  0  0  0
 23 47  1  0  0  0  0
M  CHG  1  18   1
M  END
> <s_m_source_file>
AV-unprocessed.smi

> <i_m_source_file_index>
1986

> <i_lp_mmshare_version>
43012

> <i_f3d_flags>
0

> <s_epik_input>
W0NIMl0xW0NIMl1PW0NIMl1bQ0gyXU4xW0NAQF0oW0NIM10pKFtDSDJdW0NIM10pW0NIMl1bTkhdQyg9TylbQ0gyXW4yW25IXWMoPU8pW2NIXVtjSF1jMj1P

> <s_epik_cmdline>
J2VwaWtfcHl0aG9uJywgJy1waCcsICc3LjAnLCAnLXRuJywgJzgnLCAnLW1hJywgJzIwMCcsICctbWV0YWxfYmluZGluZycsICctaW1hZScsICc8aW5maWxlLm1hZT4nLCAnLW9tYWUnLCAnPG91dGZpbGUubWFlPic=

> <r_lp_tautomer_probability>
0.9996

> <r_epik_Ionization_Penalty>
2.73198

> <r_epik_Ionization_Penalty_Charging>
0.519658

> <r_epik_Ionization_Penalty_Neutral>
2.21233

> <r_epik_State_Penalty>
2.2852

> <r_epik_Charging_Adjusted_Penalty>
2.80486

> <i_epik_Tot_Q>
1

> <i_epik_Tot_abs_Q>
1

> <r_epik_Metal_State_Penalty>
2.2852

> <b_epik_Metal_Only>
0

> <s_lp_Force_Field>
OPLS_2005

> <r_lp_Energy>
41.4304

> <b_lp_Chiralities_Consistent>
1

> <s_lp_Variant>
AV-unprocessed.smi:1986-8

> <Gold.Version>
5.8.1

> <Gold.Id.Protein>
6NUR|6NUR_protein|mol2

> <Gold.PLP.Fitness>
38.8204

> <Gold.PLP.PLP>
-29.6801

> <Gold.PLP.part.hbond>
-3.0000

> <Gold.PLP.part.metal>
0.0000

> <Gold.PLP.part.buried>
-5.2106

> <Gold.PLP.part.nonpolar>
-22.0463

> <Gold.PLP.part.repulsive>
0.1337

> <Gold.PLP.ligand.clash>
0.0000

> <Gold.PLP.ligand.torsion>
0.7877

> <Gold.PLP.Chemscore.Hbond>
3.5020

> <Gold.PLP.Chemscore.CHOScore>
0.0000

> <Gold.PLP.Chemscore.Metal>
0.0000

> <Gold.Chemscore.Hbonds>
donor molecule, donor type, donor heavy atom, donor atom, acceptor molecule, acceptor atom, score
      L1  H    18    48       P1 10957  2.00
      P1  H  6931  6943       L1    17  0.83
      P1  H  6934  6947       L1    17  0.72

> <Gold.PLP.Chemscore.Internal.Correction>
0.2098

> <Gold.Rescore>
     Score         DG    S(hbond)    S(metal)    S(lipo)     H(rot)  DE(clash)    DE(int)     intcor
     10.09     -12.75       2.69        0.00      54.34       3.15       0.00       2.66       ----

> <Gold.Chemscore.Fitness>
10.0907

> <Gold.Chemscore.DG>
-12.7466

> <Gold.Chemscore.ZeroCoef>
-5.4800

> <Gold.Chemscore.Hbond>
2.6853

> <Gold.Chemscore.Metal>
0.0000

> <Gold.Chemscore.Lipo>
54.3400

> <Gold.Chemscore.Internal_Hbond>
0.0000

> <Gold.Chemscore.DEClash>
0.0000

> <Gold.Chemscore.DEInternal>
2.6559

> <Gold.Chemscore.Rot>
3.1485

> <Gold.Chemscore.Internal.Correction>
   9.000000E+99

> <Gold.Chemscore.Hbonds>
donor molecule, donor type, donor heavy atom, donor atom, acceptor molecule, acceptor atom, score
      L1  H    18    48       P1 10957  0.81
      P1  H  6931  6943       L1    17  0.80
      P1  H  6934  6947       L1    17  0.64

> <Gold.Chemscore.Hbond.Weighted>
-8.9689

> <Gold.Chemscore.Metal.Weighted>
-0.0000

> <Gold.Chemscore.Lipo.Weighted>
-6.3578

> <Gold.Chemscore.Internal_Hbond.Weighted>
0.0000

> <Gold.Chemscore.DEClash.Weighted>
0.0000

> <Gold.Chemscore.DEInternal.Weighted>
2.6559

> <Gold.Chemscore.Rot.Weighted>
8.0601

> <Gold.Chemscore.Internal.Correction.Weighted>
   9.000000E+99

> <Gold.Protein.RotatedTorsions>
[ 6907 6896 6895 6894 ] final  -11.02 input  -60.11 | X-H torsion
[ 7974 7965 7964 7962 ] final   38.15 input  175.53 | X-H torsion
[ 8008 7997 7996 7995 ] final  -21.65 input   59.86 | X-H torsion
[ 10167 10162 10161 10158 ] final  -60.61 input  -65.29 | X-H torsion
[ 10718 10713 10712 10709 ] final  132.68 input   66.30 | X-H torsion
[ 10763 10752 10751 10750 ] final  -40.52 input  -60.55 | X-H torsion
[ 11005 11000 10999 10996 ] final -108.34 input  -57.11 | X-H torsion

> <Gold.Protein.ActiveResidues>
 VAL166  LYS551  ARG553  GLY616  TRP617  ASP618  TYR619  PRO620  LYS621  CYS622 
 ASP623  PHE694  ASN695  SER759  ASP760  ASP761  ALA762  ILE779  LEU786  VAL792 
 PHE793  MET794  SER795  GLU796  ALA797  LYS798  CYS799  TRP800  GLU811  SER814 

> <Gold.Protein.RotatedAtoms>
  151.3928  135.0958  159.9531 H   0  0  0  0  0  0  0  0  0  0  0  0  # atno 6907 bound_to 6896
  152.5074  133.8963  159.7429 H   0  0  0  0  0  0  0  0  0  0  0  0  # atno 6908 bound_to 6896
  150.9421  133.6589  159.2817 H   0  0  0  0  0  0  0  0  0  0  0  0  # atno 6909 bound_to 6896
  146.1083  139.5807  142.9369 H   0  0  0  0  0  0  0  0  0  0  0  0  # atno 7974 bound_to 7965
  154.4692  140.2029  156.0038 H   0  0  0  0  0  0  0  0  0  0  0  0  # atno 8008 bound_to 7997
  156.0981  140.3248  155.7876 H   0  0  0  0  0  0  0  0  0  0  0  0  # atno 8009 bound_to 7997
  155.4843  140.0541  157.2953 H   0  0  0  0  0  0  0  0  0  0  0  0  # atno 8010 bound_to 7997
  140.6060  143.2374  151.5819 H   0  0  0  0  0  0  0  0  0  0  0  0  # atno 10167 bound_to 10162
  157.4847  131.1087  150.9635 H   0  0  0  0  0  0  0  0  0  0  0  0  # atno 10718 bound_to 10713
  153.9473  135.6754  153.4744 H   0  0  0  0  0  0  0  0  0  0  0  0  # atno 10763 bound_to 10752
  153.0901  135.4879  154.8671 H   0  0  0  0  0  0  0  0  0  0  0  0  # atno 10764 bound_to 10752
  154.7344  135.3146  154.8795 H   0  0  0  0  0  0  0  0  0  0  0  0  # atno 10765 bound_to 10752
  141.0907  133.9060  157.2082 H   0  0  0  0  0  0  0  0  0  0  0  0  # atno 11005 bound_to 11000
  145.5715  141.0393  143.2172 LP  0  0  0  0  0  0  0  0  0  0  0  0  # atno 17320 bound_to 7965
  144.7490  139.7244  143.7281 LP  0  0  0  0  0  0  0  0  0  0  0  0  # atno 17321 bound_to 7965
  139.5325  144.2874  152.1180 LP  0  0  0  0  0  0  0  0  0  0  0  0  # atno 17342 bound_to 10162
  140.2064  144.4607  150.6407 LP  0  0  0  0  0  0  0  0  0  0  0  0  # atno 17343 bound_to 10162
  157.0356  130.5729  149.5349 LP  0  0  0  0  0  0  0  0  0  0  0  0  # atno 17370 bound_to 10713
  156.0140  130.5234  150.8079 LP  0  0  0  0  0  0  0  0  0  0  0  0  # atno 17371 bound_to 10713
  139.9732  135.0122  156.9566 LP  0  0  0  0  0  0  0  0  0  0  0  0  # atno 17394 bound_to 11000
  140.5259  134.0861  155.7303 LP  0  0  0  0  0  0  0  0  0  0  0  0  # atno 17395 bound_to 11000

$$$$
