#       Name:                AV-unprocessed.smi:3303
#       Creating user name   scv26
#       Creation time:       Fri Mar 27 19:01:05 2020


#       File generated by GOLD software.
#

@<TRIPOS>MOLECULE
AV-unprocessed.smi:3303
    46    47     1
SMALL
NO_CHARGES


@<TRIPOS>ATOM
      1 ****        -0.7669  -0.8338  -2.4479 C.3            1 S1                 0.0000
      2 ****        -1.1186  -1.5592  -1.1381 C.3            1 S1                 0.0000
      3 ****        -2.6420  -1.7897  -1.0591 C.3            1 S1                 0.0000
      4 ****        -3.0001  -2.4773   0.1814 N.3            1 S1                 0.0000
      5 ****        -4.4052  -2.8645   0.1621 C.3            1 S1                 0.0000
      6 ****        -2.6350  -1.7174   1.3862 C.3            1 S1                 0.0000
      7 ****        -3.4238  -0.4024   1.5828 C.3            1 S1                 0.0000
      8 ****        -1.1087  -1.4969   1.3827 C.3            1 S1                 0.0000
      9 ****        -0.6150  -0.7939   0.1050 C.3            1 S1                 0.0000
     10 ****         0.8636  -0.7288   0.1160 N.4            1 S1                 1.0000
     11 ****         1.4244   0.6363   0.1533 C.3            1 S1                 0.0000
     12 ****         2.9577   0.6022   0.1005 C.3            1 S1                 0.0000
     13 ****         3.5631   1.9928   0.1221 C.ar           1 S1                 0.0000
     14 ****         4.0007   2.6071  -1.0707 C.ar           1 S1                 0.0000
     15 ****         4.5480   3.9027  -0.9958 C.ar           1 S1                 0.0000
     16 ****         4.6362   4.5298   0.2619 C.ar           1 S1                 0.0000
     17 ****         4.1690   3.8321   1.3936 C.ar           1 S1                 0.0000
     18 ****         3.6403   2.5903   1.3325 N.ar           1 S1                 0.0000
     19 ****        -1.2090   0.1626  -2.4789 H              1 S1                 0.0000
     20 ****        -1.1373  -1.3867  -3.3116 H              1 S1                 0.0000
     21 ****         0.3106  -0.7244  -2.5717 H              1 S1                 0.0000
     22 ****        -0.6361  -2.5381  -1.1583 H              1 S1                 0.0000
     23 ****        -3.1837  -0.8476  -1.1460 H              1 S1                 0.0000
     24 ****        -2.9522  -2.4043  -1.9054 H              1 S1                 0.0000
     25 ****        -4.6763  -3.3794   1.0842 H              1 S1                 0.0000
     26 ****        -4.5962  -3.5481  -0.6658 H              1 S1                 0.0000
     27 ****        -5.0619  -2.0029   0.0401 H              1 S1                 0.0000
     28 ****        -2.8635  -2.3543   2.2419 H              1 S1                 0.0000
     29 ****        -3.0953   0.1056   2.4897 H              1 S1                 0.0000
     30 ****        -4.4919  -0.5836   1.6990 H              1 S1                 0.0000
     31 ****        -3.2928   0.2976   0.7585 H              1 S1                 0.0000
     32 ****        -0.8140  -0.9243   2.2632 H              1 S1                 0.0000
     33 ****        -0.6153  -2.4660   1.4754 H              1 S1                 0.0000
     34 ****        -1.0243   0.2173   0.0815 H              1 S1                 0.0000
     35 ****         1.2018  -1.2407   0.9184 H              1 S1                 0.0000
     36 ****         1.0392   1.2058  -0.6936 H              1 S1                 0.0000
     37 ****         1.0873   1.1368   1.0622 H              1 S1                 0.0000
     38 ****         3.3496   0.0329   0.9450 H              1 S1                 0.0000
     39 ****         3.2888   0.0822  -0.7996 H              1 S1                 0.0000
     40 ****         3.9198   2.1010  -2.0217 H              1 S1                 0.0000
     41 ****         4.8930   4.4066  -1.8868 H              1 S1                 0.0000
     42 ****         5.0517   5.5222   0.3568 H              1 S1                 0.0000
     43 ****         4.2199   4.2838   2.3734 H              1 S1                 0.0000
     44 ****         1.2015  -1.1848  -0.7194 H              1 S1                 0.0000
     45 ****        -2.4540  -3.3136   0.2300 LP             1 S1                 0.0000
     46 ****         3.3159   2.1272   2.1574 LP             1 S1                 0.0000
@<TRIPOS>BOND
    1    1    2 1     
    2    1   19 1     
    3    1   20 1     
    4    1   21 1     
    5    2    9 1     
    6    2    3 1     
    7    2   22 1     
    8    3    4 1     
    9    3   23 1     
   10    3   24 1     
   11    4    5 1     
   12    4    6 1     
   13    5   25 1     
   14    5   26 1     
   15    5   27 1     
   16    6    7 1     
   17    6    8 1     
   18    6   28 1     
   19    7   29 1     
   20    7   30 1     
   21    7   31 1     
   22    8    9 1     
   23    8   32 1     
   24    8   33 1     
   25    9   10 1     
   26    9   34 1     
   27   10   11 1     
   28   10   35 1     
   29   10   44 1     
   30   11   12 1     
   31   11   36 1     
   32   11   37 1     
   33   12   13 1     
   34   12   38 1     
   35   12   39 1     
   36   13   18 ar    
   37   13   14 ar    
   38   14   15 ar    
   39   14   40 1     
   40   15   16 ar    
   41   15   41 1     
   42   16   17 ar    
   43   16   42 1     
   44   17   18 ar    
   45   17   43 1     
   46    4   45 1     
   47   18   46 1     
@<TRIPOS>SUBSTRUCTURE
      1 S1             1
@<TRIPOS>SET
LONE_PAIRS      STATIC     ATOMS    <user>   **** ""
2 45 46
DONOR_HYDROGENS      STATIC     ATOMS    <user>   **** ""
2 35 44
ATOM$BLUE        STATIC     ATOMS    COLORGROUP SYSTEM
2 45 46
ATOM$RED        STATIC     ATOMS    COLORGROUP SYSTEM
2 35 44
