AV-unprocessed.smi:2534|AV-procd|sdf|9974|dock10
  -GOLD-   2272014 23D 1   1.00000     0.00000
 Structure written by MMmdl.
 40 42  0  0  0  0  0  0  0  0  1 V2000
  153.1325  143.0414  162.5148 C   0  0  0  0  0  0  0  0  0  0  0  0
  152.8954  143.0174  160.9983 C   0  0  2  0  0  0  0  0  0  0  0  0
  151.5454  143.6563  160.6299 C   0  0  0  0  0  0  0  0  0  0  0  0
  151.3090  143.6449  159.1094 C   0  0  0  0  0  0  0  0  0  0  0  0
  151.4181  142.2342  158.4858 C   0  0  1  0  0  0  0  0  0  0  0  0
  150.3455  141.4491  158.9765 O   0  0  0  0  0  0  0  0  0  0  0  0
  151.2774  142.3337  156.9437 C   0  0  0  0  0  0  0  0  0  0  0  0
  151.2891  141.0512  156.2500 N   0  0  0  0  0  0  0  0  0  0  0  0
  152.3789  140.2448  156.3451 N   0  0  0  0  0  0  0  0  0  0  0  0
  152.0977  139.1655  155.6186 C   0  0  0  0  0  0  0  0  0  0  0  0
  150.8134  139.2501  155.0152 C   0  0  0  0  0  0  0  0  0  0  0  0
  150.0228  138.3880  154.1434 C   0  0  0  0  0  0  0  0  0  0  0  0
  148.8512  138.7999  153.7729 N   0  0  0  0  0  0  0  0  0  0  0  0
  148.3471  140.0378  154.1871 N   0  0  0  0  0  0  0  0  0  0  0  0
  147.0119  140.3270  153.6653 C   0  0  0  0  0  0  0  0  0  0  0  0
  149.0111  140.9219  154.9946 C   0  0  0  0  0  0  0  0  0  0  0  0
  148.5664  142.0169  155.3394 O   0  0  0  0  0  0  0  0  0  0  0  0
  150.3479  140.4525  155.4344 C   0  0  0  0  0  0  0  0  0  0  0  0
  152.7420  141.5549  158.9158 C   0  0  0  0  0  0  0  0  0  0  0  0
  152.9713  141.5866  160.4379 C   0  0  0  0  0  0  0  0  0  0  0  0
  152.3741  142.4634  163.0439 H   0  0  0  0  0  0  0  0  0  0  0  0
  153.1034  144.0610  162.9001 H   0  0  0  0  0  0  0  0  0  0  0  0
  154.1071  142.6222  162.7667 H   0  0  0  0  0  0  0  0  0  0  0  0
  153.6870  143.6057  160.5319 H   0  0  0  0  0  0  0  0  0  0  0  0
  150.7352  143.1267  161.1329 H   0  0  0  0  0  0  0  0  0  0  0  0
  151.5100  144.6839  160.9933 H   0  0  0  0  0  0  0  0  0  0  0  0
  150.3344  144.0817  158.8883 H   0  0  0  0  0  0  0  0  0  0  0  0
  152.0443  144.3012  158.6415 H   0  0  0  0  0  0  0  0  0  0  0  0
  150.4531  141.3416  159.9094 H   0  0  0  0  0  0  0  0  0  0  0  0
  150.3638  142.8646  156.6762 H   0  0  0  0  0  0  0  0  0  0  0  0
  152.0915  142.9391  156.5421 H   0  0  0  0  0  0  0  0  0  0  0  0
  152.8269  138.3715  155.5526 H   0  0  0  0  0  0  0  0  0  0  0  0
  150.4127  137.4247  153.8154 H   0  0  0  0  0  0  0  0  0  0  0  0
  146.6075  141.2855  153.9927 H   0  0  0  0  0  0  0  0  0  0  0  0
  146.3113  139.5535  153.9820 H   0  0  0  0  0  0  0  0  0  0  0  0
  147.0309  140.3358  152.5749 H   0  0  0  0  0  0  0  0  0  0  0  0
  152.7698  140.5190  158.5767 H   0  0  0  0  0  0  0  0  0  0  0  0
  153.5775  142.0568  158.4257 H   0  0  0  0  0  0  0  0  0  0  0  0
  153.9439  141.1496  160.6658 H   0  0  0  0  0  0  0  0  0  0  0  0
  152.2312  140.9562  160.9328 H   0  0  0  0  0  0  0  0  0  0  0  0
  1  2  1  0  0  0  0
  1 21  1  0  0  0  0
  1 22  1  0  0  0  0
  1 23  1  0  0  0  0
  2 20  1  0  0  0  0
  2  3  1  0  0  0  0
  2 24  1  0  0  0  0
  3  4  1  0  0  0  0
  3 25  1  0  0  0  0
  3 26  1  0  0  0  0
  4  5  1  0  0  0  0
  4 27  1  0  0  0  0
  4 28  1  0  0  0  0
  5  6  1  0  0  0  0
  5  7  1  0  0  0  0
  5 19  1  0  0  0  0
  6 29  1  0  0  0  0
  7  8  1  0  0  0  0
  7 30  1  0  0  0  0
  7 31  1  0  0  0  0
  8 18  1  0  0  0  0
  8  9  1  0  0  0  0
  9 10  2  0  0  0  0
 10 11  1  0  0  0  0
 10 32  1  0  0  0  0
 11 18  2  0  0  0  0
 11 12  1  0  0  0  0
 12 13  2  0  0  0  0
 12 33  1  0  0  0  0
 13 14  1  0  0  0  0
 14 15  1  0  0  0  0
 14 16  1  0  0  0  0
 15 34  1  0  0  0  0
 15 35  1  0  0  0  0
 15 36  1  0  0  0  0
 16 17  2  0  0  0  0
 16 18  1  0  0  0  0
 19 20  1  0  0  0  0
 19 37  1  0  0  0  0
 19 38  1  0  0  0  0
 20 39  1  0  0  0  0
 20 40  1  0  0  0  0
M  END
> <s_m_source_file>
AV-unprocessed.smi

> <i_m_source_file_index>
2534

> <i_lp_mmshare_version>
43012

> <i_f3d_flags>
0

> <s_epik_input>
W0NIMl0xW0NIMl1bQ0BIXShbQ0gzXSlbQ0gyXVtDSDJdW0NAQF0xKFtPSF0pW0NIMl1uKG5bY0hdMiljKGMyMyljKD1PKW4oW0NIM10pbltjSF0z

> <s_epik_cmdline>
J2VwaWtfcHl0aG9uJywgJy1waCcsICc3LjAnLCAnLXRuJywgJzgnLCAnLW1hJywgJzIwMCcsICctbWV0YWxfYmluZGluZycsICctaW1hZScsICc8aW5maWxlLm1hZT4nLCAnLW9tYWUnLCAnPG91dGZpbGUubWFlPic=

> <r_lp_tautomer_probability>
1

> <r_epik_Ionization_Penalty>
4.4666e-07

> <r_epik_Ionization_Penalty_Charging>
3.10141e-10

> <r_epik_Ionization_Penalty_Neutral>
4.46349e-07

> <r_epik_State_Penalty>
-0

> <r_epik_Charging_Adjusted_Penalty>
3.10141e-10

> <i_epik_Tot_Q>
0

> <i_epik_Tot_abs_Q>
0

> <r_epik_Metal_State_Penalty>
-0

> <b_epik_Metal_Only>
0

> <s_lp_Force_Field>
OPLS_2005

> <r_lp_Energy>
31.1347

> <b_lp_Chiralities_Consistent>
1

> <s_lp_Variant>
AV-unprocessed.smi:2534-1

> <Gold.Version>
5.8.1

> <Gold.Id.Protein>
6NUR|6NUR_protein|mol2

> <Gold.PLP.Fitness>
45.1237

> <Gold.PLP.PLP>
-40.0077

> <Gold.PLP.part.hbond>
-1.8816

> <Gold.PLP.part.metal>
0.0000

> <Gold.PLP.part.buried>
-4.4532

> <Gold.PLP.part.nonpolar>
-38.3011

> <Gold.PLP.part.repulsive>
5.5768

> <Gold.PLP.ligand.clash>
0.0000

> <Gold.PLP.ligand.torsion>
0.0033

> <Gold.PLP.Chemscore.Hbond>
1.0000

> <Gold.PLP.Chemscore.CHOScore>
0.7064

> <Gold.PLP.Chemscore.Metal>
0.0000

> <Gold.Chemscore.Hbonds>
donor molecule, donor type, donor heavy atom, donor atom, acceptor molecule, acceptor atom, score
      P1  H  7997  8009       L1     9  1.00
      L1  C    12    33       P1  7948  0.42
      L1  C    12    33       P1  7949  0.13

> <Gold.PLP.Chemscore.Internal.Correction>
0.0035

> <Gold.Rescore>
     Score         DG    S(hbond)    S(metal)    S(lipo)     H(rot)  DE(clash)    DE(int)     intcor
     14.29     -16.95       0.80        0.00     111.93       1.68       1.41       1.24       ----

> <Gold.Chemscore.Fitness>
14.2910

> <Gold.Chemscore.DG>
-16.9463

> <Gold.Chemscore.ZeroCoef>
-5.4800

> <Gold.Chemscore.Hbond>
0.7967

> <Gold.Chemscore.Metal>
0.0000

> <Gold.Chemscore.Lipo>
111.9255

> <Gold.Chemscore.Internal_Hbond>
0.0000

> <Gold.Chemscore.DEClash>
1.4103

> <Gold.Chemscore.DEInternal>
1.2450

> <Gold.Chemscore.Rot>
1.6758

> <Gold.Chemscore.Internal.Correction>
   9.000000E+99

> <Gold.Chemscore.Hbonds>
donor molecule, donor type, donor heavy atom, donor atom, acceptor molecule, acceptor atom, score
      P1  H  7997  8009       L1     9  0.29

> <Gold.Chemscore.Hbond.Weighted>
-2.6609

> <Gold.Chemscore.Metal.Weighted>
-0.0000

> <Gold.Chemscore.Lipo.Weighted>
-13.0953

> <Gold.Chemscore.Internal_Hbond.Weighted>
0.0000

> <Gold.Chemscore.DEClash.Weighted>
1.4103

> <Gold.Chemscore.DEInternal.Weighted>
1.2450

> <Gold.Chemscore.Rot.Weighted>
4.2899

> <Gold.Chemscore.Internal.Correction.Weighted>
   9.000000E+99

> <Gold.Protein.RotatedTorsions>
[ 6907 6896 6895 6894 ] final -116.10 input  -60.11 | X-H torsion
[ 7974 7965 7964 7962 ] final  -23.13 input  175.53 | X-H torsion
[ 8008 7997 7996 7995 ] final -169.00 input   59.86 | X-H torsion
[ 10167 10162 10161 10158 ] final   -0.08 input  -65.29 | X-H torsion
[ 10718 10713 10712 10709 ] final  139.31 input   66.30 | X-H torsion
[ 10763 10752 10751 10750 ] final -178.90 input  -60.55 | X-H torsion
[ 11005 11000 10999 10996 ] final -119.42 input  -57.11 | X-H torsion

> <Gold.Protein.ActiveResidues>
 VAL166  LYS551  ARG553  GLY616  TRP617  ASP618  TYR619  PRO620  LYS621  CYS622 
 ASP623  PHE694  ASN695  SER759  ASP760  ASP761  ALA762  ILE779  LEU786  VAL792 
 PHE793  MET794  SER795  GLU796  ALA797  LYS798  CYS799  TRP800  GLU811  SER814 

> <Gold.Protein.RotatedAtoms>
  150.8029  133.8564  159.3219 H   0  0  0  0  0  0  0  0  0  0  0  0  # atno 6907 bound_to 6896
  151.6371  135.1015  160.0143 H   0  0  0  0  0  0  0  0  0  0  0  0  # atno 6908 bound_to 6896
  152.4118  133.6936  159.6439 H   0  0  0  0  0  0  0  0  0  0  0  0  # atno 6909 bound_to 6896
  146.1634  140.4574  142.8562 H   0  0  0  0  0  0  0  0  0  0  0  0  # atno 7974 bound_to 7965
  155.8990  140.1038  157.1363 H   0  0  0  0  0  0  0  0  0  0  0  0  # atno 8008 bound_to 7997
  154.4024  140.1296  156.4476 H   0  0  0  0  0  0  0  0  0  0  0  0  # atno 8009 bound_to 7997
  155.7445  140.3466  155.5122 H   0  0  0  0  0  0  0  0  0  0  0  0  # atno 8010 bound_to 7997
  140.6752  143.6937  150.8007 H   0  0  0  0  0  0  0  0  0  0  0  0  # atno 10167 bound_to 10162
  157.4158  131.1033  151.0406 H   0  0  0  0  0  0  0  0  0  0  0  0  # atno 10718 bound_to 10713
  154.5418  135.2806  155.1088 H   0  0  0  0  0  0  0  0  0  0  0  0  # atno 10763 bound_to 10752
  154.2568  135.6329  153.5263 H   0  0  0  0  0  0  0  0  0  0  0  0  # atno 10764 bound_to 10752
  152.9981  135.5596  154.5960 H   0  0  0  0  0  0  0  0  0  0  0  0  # atno 10765 bound_to 10752
  141.0217  134.0115  157.3273 H   0  0  0  0  0  0  0  0  0  0  0  0  # atno 11005 bound_to 11000
  144.8059  140.6298  143.6447 LP  0  0  0  0  0  0  0  0  0  0  0  0  # atno 17320 bound_to 7965
  145.4529  139.1521  143.3909 LP  0  0  0  0  0  0  0  0  0  0  0  0  # atno 17321 bound_to 7965
  140.0629  143.5137  152.2619 LP  0  0  0  0  0  0  0  0  0  0  0  0  # atno 17342 bound_to 10162
  139.6040  144.7591  151.3105 LP  0  0  0  0  0  0  0  0  0  0  0  0  # atno 17343 bound_to 10162
  157.1354  130.6120  149.5540 LP  0  0  0  0  0  0  0  0  0  0  0  0  # atno 17370 bound_to 10713
  155.9865  130.4899  150.7080 LP  0  0  0  0  0  0  0  0  0  0  0  0  # atno 17371 bound_to 10713
  139.9150  135.0195  156.7845 LP  0  0  0  0  0  0  0  0  0  0  0  0  # atno 17394 bound_to 11000
  140.6562  133.9687  155.7780 LP  0  0  0  0  0  0  0  0  0  0  0  0  # atno 17395 bound_to 11000

$$$$
