AV-unprocessed.smi:49|AV-procd|sdf|472|dock9
  -GOLD-   2262016343D 1   1.00000     0.00000
 Structure written by MMmdl.
 27 28  0  0  0  0  0  0  0  0  1 V2000
  152.3354  144.6906  158.3043 C   0  0  0  0  0  0  0  0  0  0  0  0
  151.6130  143.4653  158.8744 C   0  0  0  0  0  0  0  0  0  0  0  0
  151.2757  142.4587  157.8241 C   0  0  0  0  0  0  0  0  0  0  0  0
  151.8005  141.2415  157.7339 N   0  0  0  0  0  0  0  0  0  0  0  0
  151.1406  140.7723  156.6318 C   0  0  0  0  0  0  0  0  0  0  0  0
  151.3416  139.3796  156.1171 C   0  0  1  0  0  0  0  0  0  0  0  0
  150.0665  138.5294  156.2091 C   0  0  0  0  0  0  0  0  0  0  0  0
  150.2399  137.5428  155.0635 C   0  0  1  0  0  0  0  0  0  0  0  0
  149.0180  136.9891  154.6237 O   0  0  0  0  0  0  0  0  0  0  0  0
  150.9037  138.4083  153.9967 C   0  0  0  0  0  0  0  0  0  0  0  0
  151.7918  139.3149  154.7200 N   0  0  0  0  0  0  0  0  0  0  0  0
  150.2538  141.6064  156.0861 N   0  0  0  0  0  0  0  0  0  0  0  0
  150.3682  142.6951  156.8749 N   0  0  0  0  0  0  0  0  0  0  0  0
  152.1041  138.9027  156.7346 H   0  0  0  0  0  0  0  0  0  0  0  0
  150.9141  136.7394  155.3638 H   0  0  0  0  0  0  0  0  0  0  0  0
  149.8239  143.5349  156.7387 H   0  0  0  0  0  0  0  0  0  0  0  0
  152.5696  145.4057  159.0930 H   0  0  0  0  0  0  0  0  0  0  0  0
  151.7185  145.2013  157.5642 H   0  0  0  0  0  0  0  0  0  0  0  0
  153.2711  144.4064  157.8221 H   0  0  0  0  0  0  0  0  0  0  0  0
  152.2320  142.9912  159.6371 H   0  0  0  0  0  0  0  0  0  0  0  0
  150.6918  143.7746  159.3695 H   0  0  0  0  0  0  0  0  0  0  0  0
  149.9389  138.0531  157.1814 H   0  0  0  0  0  0  0  0  0  0  0  0
  149.1877  139.1500  156.0225 H   0  0  0  0  0  0  0  0  0  0  0  0
  149.1496  136.6129  153.7669 H   0  0  0  0  0  0  0  0  0  0  0  0
  151.4399  137.8203  153.2516 H   0  0  0  0  0  0  0  0  0  0  0  0
  150.1451  138.9926  153.4738 H   0  0  0  0  0  0  0  0  0  0  0  0
  152.7304  138.9297  154.7046 H   0  0  0  0  0  0  0  0  0  0  0  0
  1  2  1  0  0  0  0
  1 17  1  0  0  0  0
  1 18  1  0  0  0  0
  1 19  1  0  0  0  0
  2  3  1  0  0  0  0
  2 20  1  0  0  0  0
  2 21  1  0  0  0  0
  3 13  1  0  0  0  0
  3  4  2  0  0  0  0
  4  5  1  0  0  0  0
  5  6  1  0  0  0  0
  5 12  2  0  0  0  0
  6 14  1  0  0  0  0
  6 11  1  0  0  0  0
  6  7  1  0  0  0  0
  7  8  1  0  0  0  0
  7 22  1  0  0  0  0
  7 23  1  0  0  0  0
  8 15  1  0  0  0  0
  8  9  1  0  0  0  0
  8 10  1  0  0  0  0
  9 24  1  0  0  0  0
 10 11  1  0  0  0  0
 10 25  1  0  0  0  0
 10 26  1  0  0  0  0
 11 27  1  0  0  0  0
 12 13  1  0  0  0  0
 13 16  1  0  0  0  0
M  END
> <s_m_source_file>
AV-unprocessed.smi

> <i_m_source_file_index>
49

> <i_lp_mmshare_version>
43012

> <i_f3d_flags>
0

> <s_epik_input>
W0NIM11bQ0gyXWMxbmMobltuSF0xKVtDQEBIXTJbQ0gyXVtDQEBIXShbT0hdKVtDSDJdW05IXTI=

> <s_epik_cmdline>
J2VwaWtfcHl0aG9uJywgJy1waCcsICc3LjAnLCAnLXRuJywgJzgnLCAnLW1hJywgJzIwMCcsICctbWV0YWxfYmluZGluZycsICctaW1hZScsICc8aW5maWxlLm1hZT4nLCAnLW9tYWUnLCAnPG91dGZpbGUubWFlPic=

> <r_lp_tautomer_probability>
0.948284

> <r_epik_Ionization_Penalty>
1.6657

> <r_epik_Ionization_Penalty_Charging>
0

> <r_epik_Ionization_Penalty_Neutral>
1.6657

> <r_epik_State_Penalty>
2.01417

> <r_epik_Charging_Adjusted_Penalty>
2.01417

> <i_epik_Tot_Q>
0

> <i_epik_Tot_abs_Q>
0

> <r_epik_Metal_State_Penalty>
2.28256

> <b_epik_Metal_Only>
0

> <s_lp_Force_Field>
OPLS_2005

> <r_lp_Energy>
18.9273

> <b_lp_Chiralities_Consistent>
1

> <s_lp_Variant>
AV-unprocessed.smi:49-10

> <Gold.Version>
5.8.1

> <Gold.Id.Protein>
6NUR|6NUR_protein|mol2

> <Gold.PLP.Fitness>
32.5357

> <Gold.PLP.PLP>
-23.6506

> <Gold.PLP.part.hbond>
-3.0000

> <Gold.PLP.part.metal>
0.0000

> <Gold.PLP.part.buried>
-4.4479

> <Gold.PLP.part.nonpolar>
-16.4679

> <Gold.PLP.part.repulsive>
0.1111

> <Gold.PLP.ligand.clash>
0.0000

> <Gold.PLP.ligand.torsion>
0.0665

> <Gold.PLP.Chemscore.Hbond>
3.0000

> <Gold.PLP.Chemscore.CHOScore>
0.0000

> <Gold.PLP.Chemscore.Metal>
0.0000

> <Gold.Chemscore.Hbonds>
donor molecule, donor type, donor heavy atom, donor atom, acceptor molecule, acceptor atom, score
      L1  H     9    24       P1  7948  1.00
      L1  H    13    16       P1  8028  1.00
      P1  H  7989  7998       L1    11  0.90

> <Gold.PLP.Chemscore.Internal.Correction>
0.0182

> <Gold.Rescore>
     Score         DG    S(hbond)    S(metal)    S(lipo)     H(rot)  DE(clash)    DE(int)     intcor
     14.02     -14.06       2.28        0.00      48.76       1.86       0.00       0.04       ----

> <Gold.Chemscore.Fitness>
14.0238

> <Gold.Chemscore.DG>
-14.0603

> <Gold.Chemscore.ZeroCoef>
-5.4800

> <Gold.Chemscore.Hbond>
2.2832

> <Gold.Chemscore.Metal>
0.0000

> <Gold.Chemscore.Lipo>
48.7613

> <Gold.Chemscore.Internal_Hbond>
0.0000

> <Gold.Chemscore.DEClash>
0.0004

> <Gold.Chemscore.DEInternal>
0.0361

> <Gold.Chemscore.Rot>
1.8558

> <Gold.Chemscore.Internal.Correction>
   9.000000E+99

> <Gold.Chemscore.Hbonds>
donor molecule, donor type, donor heavy atom, donor atom, acceptor molecule, acceptor atom, score
      L1  H     9    24       P1  7948  0.98
      L1  H    13    16       P1  8028  0.97
      P1  H  7989  7998       L1    11  0.12

> <Gold.Chemscore.Hbond.Weighted>
-7.6260

> <Gold.Chemscore.Metal.Weighted>
-0.0000

> <Gold.Chemscore.Lipo.Weighted>
-5.7051

> <Gold.Chemscore.Internal_Hbond.Weighted>
0.0000

> <Gold.Chemscore.DEClash.Weighted>
0.0004

> <Gold.Chemscore.DEInternal.Weighted>
0.0361

> <Gold.Chemscore.Rot.Weighted>
4.7507

> <Gold.Chemscore.Internal.Correction.Weighted>
   9.000000E+99

> <Gold.Protein.RotatedTorsions>
[ 6907 6896 6895 6894 ] final  -19.82 input  -60.11 | X-H torsion
[ 7974 7965 7964 7962 ] final  136.66 input  175.53 | X-H torsion
[ 8008 7997 7996 7995 ] final -133.53 input   59.86 | X-H torsion
[ 10167 10162 10161 10158 ] final -135.38 input  -65.29 | X-H torsion
[ 10718 10713 10712 10709 ] final -133.37 input   66.30 | X-H torsion
[ 10763 10752 10751 10750 ] final    4.23 input  -60.55 | X-H torsion
[ 11005 11000 10999 10996 ] final  143.38 input  -57.11 | X-H torsion

> <Gold.Protein.ActiveResidues>
 VAL166  LYS551  ARG553  GLY616  TRP617  ASP618  TYR619  PRO620  LYS621  CYS622 
 ASP623  PHE694  ASN695  SER759  ASP760  ASP761  ALA762  ILE779  LEU786  VAL792 
 PHE793  MET794  SER795  GLU796  ALA797  LYS798  CYS799  TRP800  GLU811  SER814 

> <Gold.Protein.RotatedAtoms>
  151.2574  135.0642  159.9084 H   0  0  0  0  0  0  0  0  0  0  0  0  # atno 6907 bound_to 6896
  152.5371  134.0267  159.8016 H   0  0  0  0  0  0  0  0  0  0  0  0  # atno 6908 bound_to 6896
  151.0485  133.5595  159.2675 H   0  0  0  0  0  0  0  0  0  0  0  0  # atno 6909 bound_to 6896
  144.9543  139.4782  143.5510 H   0  0  0  0  0  0  0  0  0  0  0  0  # atno 7974 bound_to 7965
  155.3470  140.0475  157.3045 H   0  0  0  0  0  0  0  0  0  0  0  0  # atno 8008 bound_to 7997
  154.5247  140.2237  155.8876 H   0  0  0  0  0  0  0  0  0  0  0  0  # atno 8009 bound_to 7997
  156.1727  140.3092  155.9008 H   0  0  0  0  0  0  0  0  0  0  0  0  # atno 8010 bound_to 7997
  139.8784  143.6869  152.2630 H   0  0  0  0  0  0  0  0  0  0  0  0  # atno 10167 bound_to 10162
  156.2442  130.7114  151.0988 H   0  0  0  0  0  0  0  0  0  0  0  0  # atno 10718 bound_to 10713
  153.2737  135.6934  153.7454 H   0  0  0  0  0  0  0  0  0  0  0  0  # atno 10763 bound_to 10752
  153.6468  135.3383  155.3089 H   0  0  0  0  0  0  0  0  0  0  0  0  # atno 10764 bound_to 10752
  154.8472  135.4445  154.1768 H   0  0  0  0  0  0  0  0  0  0  0  0  # atno 10765 bound_to 10752
  140.0549  134.9236  157.1083 H   0  0  0  0  0  0  0  0  0  0  0  0  # atno 11005 bound_to 11000
  146.3332  139.8651  142.8849 LP  0  0  0  0  0  0  0  0  0  0  0  0  # atno 17320 bound_to 7965
  145.2795  141.0134  143.3725 LP  0  0  0  0  0  0  0  0  0  0  0  0  # atno 17321 bound_to 7965
  139.7218  144.7601  151.0942 LP  0  0  0  0  0  0  0  0  0  0  0  0  # atno 17342 bound_to 10162
  140.7749  143.5197  150.9551 LP  0  0  0  0  0  0  0  0  0  0  0  0  # atno 17343 bound_to 10162
  157.7188  131.0694  150.6220 LP  0  0  0  0  0  0  0  0  0  0  0  0  # atno 17370 bound_to 10713
  156.6295  130.4428  149.5792 LP  0  0  0  0  0  0  0  0  0  0  0  0  # atno 17371 bound_to 10713
  140.3859  134.2236  155.7168 LP  0  0  0  0  0  0  0  0  0  0  0  0  # atno 17394 bound_to 11000
  141.1947  133.8121  157.0744 LP  0  0  0  0  0  0  0  0  0  0  0  0  # atno 17395 bound_to 11000

$$$$
