#       Name:                AV-unprocessed.smi:1056
#       Creating user name   scv26
#       Creation time:       Fri Mar 27 03:15:34 2020


#       File generated by GOLD software.
#

@<TRIPOS>MOLECULE
AV-unprocessed.smi:1056
    50    52     1
SMALL
NO_CHARGES


@<TRIPOS>ATOM
      1 ****        -3.2585   4.2062  -3.1101 C.3            1 S1                 0.0000
      2 ****        -2.7975   3.1895  -2.0795 C.ar           1 S1                 0.0000
      3 ****        -2.8404   3.5471  -0.7131 C.ar           1 S1                 0.0000
      4 ****        -2.4117   2.5962   0.2054 C.ar           1 S1                 0.0000
      5 ****        -2.3307   2.6429   1.5986 N.pl3          1 S1                 1.0000
      6 ****        -1.8447   1.4597   2.0658 C.2            1 S1                 0.0000
      7 ****        -1.6141   0.6567   0.9915 N.pl3          1 S1                 0.0000
      8 ****        -1.0989  -0.7201   0.9422 C.3            1 S1                 0.0000
      9 ****         0.4416  -0.7904   0.9392 C.3            1 S1                 0.0000
     10 ****         0.9420  -0.1125  -0.1978 O.3            1 S1                 0.0000
     11 ****         0.9374  -2.2509   0.9093 C.3            1 S1                 0.0000
     12 ****         2.4077  -2.3642   1.0812 N.4            1 S1                 1.0000
     13 ****         2.8574  -2.2199   2.4908 C.3            1 S1                 0.0000
     14 ****         4.3862  -2.0366   2.5458 C.3            1 S1                 0.0000
     15 ****         5.0507  -3.0364   1.7011 N.pl3          1 S1                -1.0000
     16 ****         4.4925  -3.7171   0.6516 C.2            1 S1                 0.0000
     17 ****         5.0991  -4.4505  -0.1260 O.2            1 S1                 0.0000
     18 ****         2.9575  -3.5969   0.4518 C.3            1 S1                 0.0000
     19 ****        -1.9535   1.3248  -0.1920 C.ar           1 S1                 0.0000
     20 ****        -1.9050   0.9572  -1.5349 C.ar           1 S1                 0.0000
     21 ****        -2.3354   1.9108  -2.4850 C.ar           1 S1                 0.0000
     22 ****        -2.2923   1.5373  -3.9570 C.3            1 S1                 0.0000
     23 ****        -3.5498   5.1463  -2.6408 H              1 S1                 0.0000
     24 ****        -4.1198   3.8277  -3.6610 H              1 S1                 0.0000
     25 ****        -2.4603   4.4228  -3.8204 H              1 S1                 0.0000
     26 ****        -3.1911   4.5188  -0.3972 H              1 S1                 0.0000
     27 ****        -1.6760   1.2047   3.1022 H              1 S1                 0.0000
     28 ****        -1.4893  -1.2360   1.8204 H              1 S1                 0.0000
     29 ****        -1.5224  -1.2321   0.0776 H              1 S1                 0.0000
     30 ****         0.8096  -0.2778   1.8276 H              1 S1                 0.0000
     31 ****         1.8828  -0.0524  -0.1305 H              1 S1                 0.0000
     32 ****         0.4456  -2.8400   1.6849 H              1 S1                 0.0000
     33 ****         0.6415  -2.6970  -0.0418 H              1 S1                 0.0000
     34 ****         2.3817  -1.3654   2.9702 H              1 S1                 0.0000
     35 ****         2.5590  -3.1026   3.0590 H              1 S1                 0.0000
     36 ****         4.6252  -1.0276   2.2093 H              1 S1                 0.0000
     37 ****         4.7190  -2.0914   3.5820 H              1 S1                 0.0000
     38 ****         2.4780  -4.4787   0.8794 H              1 S1                 0.0000
     39 ****         2.7375  -3.5915  -0.6166 H              1 S1                 0.0000
     40 ****        -1.5482  -0.0133  -1.8461 H              1 S1                 0.0000
     41 ****        -1.9341   0.5174  -4.0999 H              1 S1                 0.0000
     42 ****        -1.6239   2.2045  -4.5016 H              1 S1                 0.0000
     43 ****        -3.2867   1.6053  -4.3986 H              1 S1                 0.0000
     44 ****         2.8220  -1.5962   0.5736 H              1 S1                 0.0000
     45 ****        -2.5897   3.4231   2.1892 H              1 S1                 0.0000
     46 ****         0.5494   0.8062  -0.2402 LP             1 S1                 0.0000
     47 ****         0.6966  -0.6183  -1.0248 LP             1 S1                 0.0000
     48 ****         6.0063  -3.2411   1.9130 LP             1 S1                 0.0000
     49 ****         6.0836  -4.5886  -0.0180 LP             1 S1                 0.0000
     50 ****         4.6081  -4.9092  -0.8667 LP             1 S1                 0.0000
@<TRIPOS>BOND
    1    1    2 1     
    2    1   23 1     
    3    1   24 1     
    4    1   25 1     
    5    2   21 ar    
    6    2    3 ar    
    7    3    4 ar    
    8    3   26 1     
    9    4   19 ar    
   10    4    5 1     
   11    5    6 2     
   12    5   45 1     
   13    6    7 1     
   14    6   27 1     
   15    7    8 1     
   16    7   19 1     
   17    8    9 1     
   18    8   28 1     
   19    8   29 1     
   20    9   10 1     
   21    9   11 1     
   22    9   30 1     
   23   10   31 1     
   24   11   12 1     
   25   11   32 1     
   26   11   33 1     
   27   12   18 1     
   28   12   13 1     
   29   12   44 1     
   30   13   14 1     
   31   13   34 1     
   32   13   35 1     
   33   14   15 1     
   34   14   36 1     
   35   14   37 1     
   36   15   16 1     
   37   16   17 2     
   38   16   18 1     
   39   18   38 1     
   40   18   39 1     
   41   19   20 ar    
   42   20   21 ar    
   43   20   40 1     
   44   21   22 1     
   45   22   41 1     
   46   22   42 1     
   47   22   43 1     
   48   10   46 1     
   49   10   47 1     
   50   15   48 1     
   51   17   49 1     
   52   17   50 1     
@<TRIPOS>SUBSTRUCTURE
      1 S1             1
@<TRIPOS>SET
LONE_PAIRS      STATIC     ATOMS    <user>   **** ""
5 46 47 48 49 50
DONOR_HYDROGENS      STATIC     ATOMS    <user>   **** ""
3 45 31 44
ATOM$BLUE        STATIC     ATOMS    COLORGROUP SYSTEM
5 46 47 48 49 50
ATOM$RED        STATIC     ATOMS    COLORGROUP SYSTEM
3 45 31 44
