AV-unprocessed.smi:2693|AV-procd|sdf|10398|dock5
  -GOLD-   2272014433D 1   1.00000     0.00000
 Structure written by MMmdl.
 45 47  0  0  0  0  0  0  0  0  1 V2000
  146.2099  128.4191  152.6804 C   0  0  0  0  0  0  0  0  0  0  0  0
  147.3651  128.8724  153.4497 N   0  0  0  0  0  0  0  0  0  0  0  0
  148.1400  127.8624  154.1645 C   0  0  0  0  0  0  0  0  0  0  0  0
  147.7162  130.2245  153.5006 C   0  0  0  0  0  0  0  0  0  0  0  0
  148.8007  130.5548  154.2144 N   0  0  0  0  0  0  0  0  0  0  0  0
  149.1452  131.8590  154.2616 C   0  0  0  0  0  0  0  0  0  0  0  0
  148.3991  132.8532  153.5975 C   0  0  0  0  0  0  0  0  0  0  0  0
  148.8313  134.2047  153.6678 N   0  0  0  0  0  0  0  0  0  0  0  0
  149.4503  134.8278  154.6845 C   0  0  0  0  0  0  0  0  0  0  0  0
  149.8456  134.2855  155.7160 O   0  0  0  0  0  0  0  0  0  0  0  0
  149.6043  136.1341  154.4329 N   0  0  0  0  0  0  0  0  0  0  0  0
  150.2112  137.0825  155.3594 C   0  0  1  0  0  0  0  0  0  0  0  0
  151.3725  137.8538  154.7317 C   0  0  2  0  0  0  0  0  0  0  0  0
  152.8401  137.9064  154.9651 C   0  0  0  0  0  0  0  0  0  0  0  0
  153.0004  139.4505  154.9643 C   0  0  0  0  0  0  0  0  0  0  0  0
  151.6564  139.9898  155.0067 O   0  0  0  0  0  0  0  0  0  0  0  0
  150.9078  138.9742  155.6420 C   0  0  1  0  0  0  0  0  0  0  0  0
  149.4680  138.4710  155.4185 C   0  0  0  0  0  0  0  0  0  0  0  0
  148.7116  138.9876  154.1776 C   0  0  0  0  0  0  0  0  0  0  0  0
  148.5215  138.6569  156.6049 C   0  0  0  0  0  0  0  0  0  0  0  0
  147.2770  132.3945  152.8670 C   0  0  0  0  0  0  0  0  0  0  0  0
  146.9447  131.0868  152.8257 N   0  0  0  0  0  0  0  0  0  0  0  0
  145.2929  128.8477  153.0858 H   0  0  0  0  0  0  0  0  0  0  0  0
  146.1083  127.3340  152.6989 H   0  0  0  0  0  0  0  0  0  0  0  0
  146.3023  128.7254  151.6379 H   0  0  0  0  0  0  0  0  0  0  0  0
  148.1982  128.1057  155.2261 H   0  0  0  0  0  0  0  0  0  0  0  0
  149.1543  127.8115  153.7673 H   0  0  0  0  0  0  0  0  0  0  0  0
  147.6963  126.8706  154.0774 H   0  0  0  0  0  0  0  0  0  0  0  0
  150.0254  132.1087  154.8358 H   0  0  0  0  0  0  0  0  0  0  0  0
  148.6524  134.7612  152.8446 H   0  0  0  0  0  0  0  0  0  0  0  0
  149.2608  136.5012  153.5577 H   0  0  0  0  0  0  0  0  0  0  0  0
  150.4558  136.6598  156.3382 H   0  0  0  0  0  0  0  0  0  0  0  0
  151.1718  138.0488  153.6757 H   0  0  0  0  0  0  0  0  0  0  0  0
  153.1170  137.4671  155.9245 H   0  0  0  0  0  0  0  0  0  0  0  0
  153.4141  137.4254  154.1728 H   0  0  0  0  0  0  0  0  0  0  0  0
  153.5721  139.7819  155.8319 H   0  0  0  0  0  0  0  0  0  0  0  0
  153.5078  139.8074  154.0677 H   0  0  0  0  0  0  0  0  0  0  0  0
  151.2238  138.8571  156.6850 H   0  0  0  0  0  0  0  0  0  0  0  0
  148.4711  140.0464  154.2792 H   0  0  0  0  0  0  0  0  0  0  0  0
  147.7701  138.4555  154.0379 H   0  0  0  0  0  0  0  0  0  0  0  0
  149.2681  138.8835  153.2481 H   0  0  0  0  0  0  0  0  0  0  0  0
  148.2734  139.7075  156.7579 H   0  0  0  0  0  0  0  0  0  0  0  0
  148.9641  138.2915  157.5320 H   0  0  0  0  0  0  0  0  0  0  0  0
  147.5867  138.1143  156.4616 H   0  0  0  0  0  0  0  0  0  0  0  0
  146.6454  133.0515  152.2899 H   0  0  0  0  0  0  0  0  0  0  0  0
  1  2  1  0  0  0  0
  1 23  1  0  0  0  0
  1 24  1  0  0  0  0
  1 25  1  0  0  0  0
  2  3  1  0  0  0  0
  2  4  1  0  0  0  0
  3 26  1  0  0  0  0
  3 27  1  0  0  0  0
  3 28  1  0  0  0  0
  4 22  1  0  0  0  0
  4  5  2  0  0  0  0
  5  6  1  0  0  0  0
  6  7  2  0  0  0  0
  6 29  1  0  0  0  0
  7  8  1  0  0  0  0
  7 21  1  0  0  0  0
  8  9  1  0  0  0  0
  8 30  1  0  0  0  0
  9 10  2  0  0  0  0
  9 11  1  0  0  0  0
 11 12  1  0  0  0  0
 11 31  1  0  0  0  0
 12 18  1  0  0  0  0
 12 13  1  0  0  0  0
 12 32  1  0  0  0  0
 13 17  1  0  0  0  0
 13 14  1  0  0  0  0
 13 33  1  0  0  0  0
 14 15  1  0  0  0  0
 14 34  1  0  0  0  0
 14 35  1  0  0  0  0
 15 16  1  0  0  0  0
 15 36  1  0  0  0  0
 15 37  1  0  0  0  0
 16 17  1  0  0  0  0
 17 18  1  0  0  0  0
 17 38  1  0  0  0  0
 18 19  1  0  0  0  0
 18 20  1  0  0  0  0
 19 39  1  0  0  0  0
 19 40  1  0  0  0  0
 19 41  1  0  0  0  0
 20 42  1  0  0  0  0
 20 43  1  0  0  0  0
 20 44  1  0  0  0  0
 21 22  2  0  0  0  0
 21 45  1  0  0  0  0
M  END
> <s_m_source_file>
AV-unprocessed.smi

> <i_m_source_file_index>
2693

> <i_lp_mmshare_version>
43012

> <i_f3d_flags>
0

> <s_epik_input>
W0NIM11OKFtDSDNdKWMxbltjSF1jKFtjSF1uMSlbTkhdQyg9TylbTkhdW0NASF0yQyhbQ0gzXSkoW0NIM10pW0NAQEhdKFtDQEhdMjMpT1tDSDJdW0NIMl0z

> <s_epik_cmdline>
J2VwaWtfcHl0aG9uJywgJy1waCcsICc3LjAnLCAnLXRuJywgJzgnLCAnLW1hJywgJzIwMCcsICctbWV0YWxfYmluZGluZycsICctaW1hZScsICc8aW5maWxlLm1hZT4nLCAnLW9tYWUnLCAnPG91dGZpbGUubWFlPic=

> <r_lp_tautomer_probability>
1

> <r_epik_Ionization_Penalty>
0.00031779

> <r_epik_Ionization_Penalty_Charging>
0

> <r_epik_Ionization_Penalty_Neutral>
0.00031779

> <r_epik_State_Penalty>
-0

> <r_epik_Charging_Adjusted_Penalty>
0

> <i_epik_Tot_Q>
0

> <i_epik_Tot_abs_Q>
0

> <r_epik_Metal_State_Penalty>
-0

> <b_epik_Metal_Only>
0

> <s_lp_Force_Field>
OPLS_2005

> <r_lp_Energy>
52.7678

> <b_lp_Chiralities_Consistent>
1

> <s_lp_Variant>
AV-unprocessed.smi:2693-2

> <Gold.Version>
5.8.1

> <Gold.Id.Protein>
6NUR|6NUR_protein|mol2

> <Gold.PLP.Fitness>
36.5667

> <Gold.PLP.PLP>
-28.3338

> <Gold.PLP.part.hbond>
-3.0426

> <Gold.PLP.part.metal>
0.0000

> <Gold.PLP.part.buried>
2.1189

> <Gold.PLP.part.nonpolar>
-27.7245

> <Gold.PLP.part.repulsive>
0.3090

> <Gold.PLP.ligand.clash>
0.0000

> <Gold.PLP.ligand.torsion>
0.3583

> <Gold.PLP.Chemscore.Hbond>
2.8940

> <Gold.PLP.Chemscore.CHOScore>
0.0000

> <Gold.PLP.Chemscore.Metal>
0.0000

> <Gold.Chemscore.Hbonds>
donor molecule, donor type, donor heavy atom, donor atom, acceptor molecule, acceptor atom, score
      L1  H     8    30       P1  7948  0.95
      L1  H    11    31       P1  7948  0.94
      P1  H  7989  7998       L1    16  0.95

> <Gold.PLP.Chemscore.Internal.Correction>
0.2675

> <Gold.Rescore>
     Score         DG    S(hbond)    S(metal)    S(lipo)     H(rot)  DE(clash)    DE(int)     intcor
     14.74     -18.49       2.01        0.00      75.64       1.00       2.13       1.61       ----

> <Gold.Chemscore.Fitness>
14.7409

> <Gold.Chemscore.DG>
-18.4872

> <Gold.Chemscore.ZeroCoef>
-5.4800

> <Gold.Chemscore.Hbond>
2.0111

> <Gold.Chemscore.Metal>
0.0000

> <Gold.Chemscore.Lipo>
75.6417

> <Gold.Chemscore.Internal_Hbond>
0.0000

> <Gold.Chemscore.DEClash>
2.1317

> <Gold.Chemscore.DEInternal>
1.6146

> <Gold.Chemscore.Rot>
1.0000

> <Gold.Chemscore.Internal.Correction>
   9.000000E+99

> <Gold.Chemscore.Hbonds>
donor molecule, donor type, donor heavy atom, donor atom, acceptor molecule, acceptor atom, score
      L1  H     8    30       P1  7948  0.21
      L1  H    11    31       P1  7948  0.86
      P1  H  7989  7998       L1    16  0.21

> <Gold.Chemscore.Hbond.Weighted>
-6.7171

> <Gold.Chemscore.Metal.Weighted>
-0.0000

> <Gold.Chemscore.Lipo.Weighted>
-8.8501

> <Gold.Chemscore.Internal_Hbond.Weighted>
0.0000

> <Gold.Chemscore.DEClash.Weighted>
2.1317

> <Gold.Chemscore.DEInternal.Weighted>
1.6146

> <Gold.Chemscore.Rot.Weighted>
2.5600

> <Gold.Chemscore.Internal.Correction.Weighted>
   9.000000E+99

> <Gold.Protein.RotatedTorsions>
[ 6907 6896 6895 6894 ] final  -52.84 input  -60.11 | X-H torsion
[ 7974 7965 7964 7962 ] final  146.24 input  175.53 | X-H torsion
[ 8008 7997 7996 7995 ] final   76.92 input   59.86 | X-H torsion
[ 10167 10162 10161 10158 ] final  -43.02 input  -65.29 | X-H torsion
[ 10718 10713 10712 10709 ] final   -6.27 input   66.30 | X-H torsion
[ 10763 10752 10751 10750 ] final  165.14 input  -60.55 | X-H torsion
[ 11005 11000 10999 10996 ] final -158.03 input  -57.11 | X-H torsion

> <Gold.Protein.ActiveResidues>
 VAL166  LYS551  ARG553  GLY616  TRP617  ASP618  TYR619  PRO620  LYS621  CYS622 
 ASP623  PHE694  ASN695  SER759  ASP760  ASP761  ALA762  ILE779  LEU786  VAL792 
 PHE793  MET794  SER795  GLU796  ALA797  LYS798  CYS799  TRP800  GLU811  SER814 

> <Gold.Protein.RotatedAtoms>
  150.8481  134.7797  159.6986 H   0  0  0  0  0  0  0  0  0  0  0  0  # atno 6907 bound_to 6896
  152.4553  134.5302  159.9818 H   0  0  0  0  0  0  0  0  0  0  0  0  # atno 6908 bound_to 6896
  151.5429  133.3392  159.2974 H   0  0  0  0  0  0  0  0  0  0  0  0  # atno 6909 bound_to 6896
  144.8687  139.5881  143.5897 H   0  0  0  0  0  0  0  0  0  0  0  0  # atno 7974 bound_to 7965
  155.8343  140.3465  155.5591 H   0  0  0  0  0  0  0  0  0  0  0  0  # atno 8008 bound_to 7997
  155.8209  140.0912  157.1869 H   0  0  0  0  0  0  0  0  0  0  0  0  # atno 8009 bound_to 7997
  154.4004  140.1430  156.3486 H   0  0  0  0  0  0  0  0  0  0  0  0  # atno 8010 bound_to 7997
  140.6949  143.3006  151.3292 H   0  0  0  0  0  0  0  0  0  0  0  0  # atno 10167 bound_to 10162
  156.7343  130.5190  149.5838 H   0  0  0  0  0  0  0  0  0  0  0  0  # atno 10718 bound_to 10713
  154.3196  135.2756  155.2526 H   0  0  0  0  0  0  0  0  0  0  0  0  # atno 10763 bound_to 10752
  154.4885  135.5839  153.6445 H   0  0  0  0  0  0  0  0  0  0  0  0  # atno 10764 bound_to 10752
  152.9878  135.6129  154.3379 H   0  0  0  0  0  0  0  0  0  0  0  0  # atno 10765 bound_to 10752
  140.6581  134.4378  157.5235 H   0  0  0  0  0  0  0  0  0  0  0  0  # atno 11005 bound_to 11000
  146.2914  139.7151  142.9158 LP  0  0  0  0  0  0  0  0  0  0  0  0  # atno 17320 bound_to 7965
  145.4173  141.0403  143.2984 LP  0  0  0  0  0  0  0  0  0  0  0  0  # atno 17321 bound_to 7965
  139.6392  144.0571  152.2541 LP  0  0  0  0  0  0  0  0  0  0  0  0  # atno 17342 bound_to 10162
  140.0071  144.6251  150.7679 LP  0  0  0  0  0  0  0  0  0  0  0  0  # atno 17343 bound_to 10162
  156.1508  130.6308  151.0592 LP  0  0  0  0  0  0  0  0  0  0  0  0  # atno 17370 bound_to 10713
  157.6846  131.0828  150.7279 LP  0  0  0  0  0  0  0  0  0  0  0  0  # atno 17371 bound_to 10713
  139.9022  134.8529  156.1848 LP  0  0  0  0  0  0  0  0  0  0  0  0  # atno 17394 bound_to 11000
  141.0486  133.6900  156.1729 LP  0  0  0  0  0  0  0  0  0  0  0  0  # atno 17395 bound_to 11000

$$$$
