AV-unprocessed.smi:1085|AV-procd|sdf|4723|dock3
  -GOLD-   22720 3253D 1   1.00000     0.00000
 Structure written by MMmdl.
 33 34  0  0  0  0  0  0  0  0  1 V2000
  152.8230  140.4051  157.4242 O   0  0  0  0  0  0  0  0  0  0  0  0
  151.8498  140.9929  157.8946 C   0  0  0  0  0  0  0  0  0  0  0  0
  150.4362  140.5321  157.5401 C   0  0  0  0  0  0  0  0  0  0  0  0
  150.1713  140.7186  156.1261 N   0  0  0  0  0  0  0  0  0  0  0  0
  149.3500  141.5573  155.4905 C   0  0  0  0  0  0  0  0  0  0  0  0
  149.4027  141.3930  154.1780 N   0  0  0  0  0  0  0  0  0  0  0  0
  150.3305  140.3760  154.0256 N   0  0  0  0  0  0  0  0  0  0  0  0
  150.7896  139.9715  155.1780 N   0  0  0  0  0  0  0  0  0  0  0  0
  151.9403  142.0399  158.7297 N   0  0  0  0  0  0  0  0  0  0  0  0
  153.1742  142.6294  159.2480 C   0  0  1  0  0  0  0  0  0  0  0  0
  152.8901  143.4416  160.5257 C   0  0  0  0  0  0  0  0  0  0  0  0
  152.5260  142.5392  161.7162 C   0  0  0  0  0  0  0  0  0  0  0  0
  153.6077  141.4755  161.9611 C   0  0  0  0  0  0  0  0  0  0  0  0
  153.8631  140.6205  160.7016 C   0  0  2  0  0  0  0  0  0  0  0  0
  154.9330  139.5362  160.9453 C   0  0  0  0  0  0  0  0  0  0  0  0
  156.1121  140.0883  161.2332 F   0  0  0  0  0  0  0  0  0  0  0  0
  154.5654  138.7516  161.9584 F   0  0  0  0  0  0  0  0  0  0  0  0
  155.0662  138.7755  159.8587 F   0  0  0  0  0  0  0  0  0  0  0  0
  154.2251  141.5308  159.5052 C   0  0  0  0  0  0  0  0  0  0  0  0
  150.3100  139.4769  157.7866 H   0  0  0  0  0  0  0  0  0  0  0  0
  149.7022  141.0901  158.1236 H   0  0  0  0  0  0  0  0  0  0  0  0
  148.7155  142.2774  155.9858 H   0  0  0  0  0  0  0  0  0  0  0  0
  151.0781  142.4558  159.0511 H   0  0  0  0  0  0  0  0  0  0  0  0
  153.5883  143.3149  158.5069 H   0  0  0  0  0  0  0  0  0  0  0  0
  153.7760  144.0246  160.7816 H   0  0  0  0  0  0  0  0  0  0  0  0
  152.0938  144.1647  160.3452 H   0  0  0  0  0  0  0  0  0  0  0  0
  152.3936  143.1459  162.6125 H   0  0  0  0  0  0  0  0  0  0  0  0
  151.5677  142.0518  161.5326 H   0  0  0  0  0  0  0  0  0  0  0  0
  154.5324  141.9642  162.2703 H   0  0  0  0  0  0  0  0  0  0  0  0
  153.3043  140.8387  162.7923 H   0  0  0  0  0  0  0  0  0  0  0  0
  152.9334  140.1030  160.4604 H   0  0  0  0  0  0  0  0  0  0  0  0
  154.3570  140.9327  158.6027 H   0  0  0  0  0  0  0  0  0  0  0  0
  155.1892  142.0044  159.6945 H   0  0  0  0  0  0  0  0  0  0  0  0
  1  2  2  0  0  0  0
  2  3  1  0  0  0  0
  2  9  1  0  0  0  0
  3  4  1  0  0  0  0
  3 20  1  0  0  0  0
  3 21  1  0  0  0  0
  4  8  1  0  0  0  0
  4  5  1  0  0  0  0
  5  6  2  0  0  0  0
  5 22  1  0  0  0  0
  6  7  1  0  0  0  0
  7  8  2  0  0  0  0
  9 10  1  0  0  0  0
  9 23  1  0  0  0  0
 10 19  1  0  0  0  0
 10 11  1  0  0  0  0
 10 24  1  0  0  0  0
 11 12  1  0  0  0  0
 11 25  1  0  0  0  0
 11 26  1  0  0  0  0
 12 13  1  0  0  0  0
 12 27  1  0  0  0  0
 12 28  1  0  0  0  0
 13 14  1  0  0  0  0
 13 29  1  0  0  0  0
 13 30  1  0  0  0  0
 14 15  1  0  0  0  0
 14 19  1  0  0  0  0
 14 31  1  0  0  0  0
 15 16  1  0  0  0  0
 15 17  1  0  0  0  0
 15 18  1  0  0  0  0
 19 32  1  0  0  0  0
 19 33  1  0  0  0  0
M  END
> <s_m_source_file>
AV-unprocessed.smi

> <i_m_source_file_index>
1085

> <i_lp_mmshare_version>
43012

> <i_f3d_flags>
0

> <s_epik_input>
bjFubltjSF1uMVtDSDJdQyg9TylbTkhdW0NAQEhdMltDSDJdW0NIMl1bQ0gyXVtDQEBIXShDKEYpKEYpRilbQ0gyXTI=

> <s_epik_cmdline>
J2VwaWtfcHl0aG9uJywgJy1waCcsICc3LjAnLCAnLXRuJywgJzgnLCAnLW1hJywgJzIwMCcsICctbWV0YWxfYmluZGluZycsICctaW1hZScsICc8aW5maWxlLm1hZT4nLCAnLW9tYWUnLCAnPG91dGZpbGUubWFlPic=

> <r_lp_tautomer_probability>
1

> <r_epik_Ionization_Penalty>
8.41315e-07

> <r_epik_Ionization_Penalty_Charging>
0

> <r_epik_Ionization_Penalty_Neutral>
8.41315e-07

> <r_epik_State_Penalty>
-0

> <r_epik_Charging_Adjusted_Penalty>
0

> <i_epik_Tot_Q>
0

> <i_epik_Tot_abs_Q>
0

> <r_epik_Metal_State_Penalty>
-0

> <b_epik_Metal_Only>
0

> <s_lp_Force_Field>
OPLS_2005

> <r_lp_Energy>
12.3827

> <b_lp_Chiralities_Consistent>
1

> <s_lp_Variant>
AV-unprocessed.smi:1085-4

> <Gold.Version>
5.8.1

> <Gold.Id.Protein>
6NUR|6NUR_protein|mol2

> <Gold.PLP.Fitness>
43.1913

> <Gold.PLP.PLP>
-33.6039

> <Gold.PLP.part.hbond>
-4.2331

> <Gold.PLP.part.metal>
0.0000

> <Gold.PLP.part.buried>
-3.0749

> <Gold.PLP.part.nonpolar>
-26.0457

> <Gold.PLP.part.repulsive>
1.2865

> <Gold.PLP.ligand.clash>
0.0000

> <Gold.PLP.ligand.torsion>
0.4215

> <Gold.PLP.Chemscore.Hbond>
2.4686

> <Gold.PLP.Chemscore.CHOScore>
1.0000

> <Gold.PLP.Chemscore.Metal>
0.0000

> <Gold.Chemscore.Hbonds>
donor molecule, donor type, donor heavy atom, donor atom, acceptor molecule, acceptor atom, score
      P1  H  7989  7998       L1     7  0.69
      P1  H  7997  8009       L1     1  0.88
      P1  H  8011  8017       L1     6  0.44
      L1  C     5    22       P1  8028  0.89

> <Gold.PLP.Chemscore.Internal.Correction>
0.0247

> <Gold.Rescore>
     Score         DG    S(hbond)    S(metal)    S(lipo)     H(rot)  DE(clash)    DE(int)     intcor
     11.24     -13.54       1.29        0.00      76.78       2.05       0.40       1.90       ----

> <Gold.Chemscore.Fitness>
11.2374

> <Gold.Chemscore.DG>
-13.5419

> <Gold.Chemscore.ZeroCoef>
-5.4800

> <Gold.Chemscore.Hbond>
1.2921

> <Gold.Chemscore.Metal>
0.0000

> <Gold.Chemscore.Lipo>
76.7785

> <Gold.Chemscore.Internal_Hbond>
0.0000

> <Gold.Chemscore.DEClash>
0.4015

> <Gold.Chemscore.DEInternal>
1.9029

> <Gold.Chemscore.Rot>
2.0456

> <Gold.Chemscore.Internal.Correction>
   9.000000E+99

> <Gold.Chemscore.Hbonds>
donor molecule, donor type, donor heavy atom, donor atom, acceptor molecule, acceptor atom, score
      P1  H  7989  7998       L1     7  0.11
      P1  H  7997  8009       L1     1  0.87
      P1  H  8011  8017       L1     6  0.09

> <Gold.Chemscore.Hbond.Weighted>
-4.3155

> <Gold.Chemscore.Metal.Weighted>
-0.0000

> <Gold.Chemscore.Lipo.Weighted>
-8.9831

> <Gold.Chemscore.Internal_Hbond.Weighted>
0.0000

> <Gold.Chemscore.DEClash.Weighted>
0.4015

> <Gold.Chemscore.DEInternal.Weighted>
1.9029

> <Gold.Chemscore.Rot.Weighted>
5.2368

> <Gold.Chemscore.Internal.Correction.Weighted>
   9.000000E+99

> <Gold.Protein.RotatedTorsions>
[ 6907 6896 6895 6894 ] final   23.36 input  -60.11 | X-H torsion
[ 7974 7965 7964 7962 ] final -172.17 input  175.53 | X-H torsion
[ 8008 7997 7996 7995 ] final  177.31 input   59.86 | X-H torsion
[ 10167 10162 10161 10158 ] final   13.28 input  -65.29 | X-H torsion
[ 10718 10713 10712 10709 ] final  173.31 input   66.30 | X-H torsion
[ 10763 10752 10751 10750 ] final   -6.07 input  -60.55 | X-H torsion
[ 11005 11000 10999 10996 ] final  158.64 input  -57.11 | X-H torsion

> <Gold.Protein.ActiveResidues>
 VAL166  LYS551  ARG553  GLY616  TRP617  ASP618  TYR619  PRO620  LYS621  CYS622 
 ASP623  PHE694  ASN695  SER759  ASP760  ASP761  ALA762  ILE779  LEU786  VAL792 
 PHE793  MET794  SER795  GLU796  ALA797  LYS798  CYS799  TRP800  GLU811  SER814 

> <Gold.Protein.RotatedAtoms>
  151.9412  135.0212  160.0535 H   0  0  0  0  0  0  0  0  0  0  0  0  # atno 6907 bound_to 6896
  152.2034  133.4853  159.5079 H   0  0  0  0  0  0  0  0  0  0  0  0  # atno 6908 bound_to 6896
  150.6960  134.1477  159.4171 H   0  0  0  0  0  0  0  0  0  0  0  0  # atno 6909 bound_to 6896
  144.7149  140.1813  143.6358 H   0  0  0  0  0  0  0  0  0  0  0  0  # atno 7974 bound_to 7965
  156.0670  140.1361  156.9874 H   0  0  0  0  0  0  0  0  0  0  0  0  # atno 8008 bound_to 7997
  154.4511  140.0979  156.6673 H   0  0  0  0  0  0  0  0  0  0  0  0  # atno 8009 bound_to 7997
  155.5288  140.3458  155.4424 H   0  0  0  0  0  0  0  0  0  0  0  0  # atno 8010 bound_to 7997
  140.6013  143.8599  150.6968 H   0  0  0  0  0  0  0  0  0  0  0  0  # atno 10167 bound_to 10162
  156.9661  131.0075  151.2916 H   0  0  0  0  0  0  0  0  0  0  0  0  # atno 10718 bound_to 10713
  153.4073  135.7006  153.6384 H   0  0  0  0  0  0  0  0  0  0  0  0  # atno 10763 bound_to 10752
  153.4892  135.3676  155.2483 H   0  0  0  0  0  0  0  0  0  0  0  0  # atno 10764 bound_to 10752
  154.8714  135.4085  154.3419 H   0  0  0  0  0  0  0  0  0  0  0  0  # atno 10765 bound_to 10752
  140.1885  134.8424  157.2885 H   0  0  0  0  0  0  0  0  0  0  0  0  # atno 11005 bound_to 11000
  145.8854  139.2346  143.1581 LP  0  0  0  0  0  0  0  0  0  0  0  0  # atno 17320 bound_to 7965
  145.9955  140.8566  143.0045 LP  0  0  0  0  0  0  0  0  0  0  0  0  # atno 17321 bound_to 7965
  140.2145  143.3857  152.1692 LP  0  0  0  0  0  0  0  0  0  0  0  0  # atno 17342 bound_to 10162
  139.5293  144.7140  151.5114 LP  0  0  0  0  0  0  0  0  0  0  0  0  # atno 17343 bound_to 10162
  157.5624  130.8255  149.8284 LP  0  0  0  0  0  0  0  0  0  0  0  0  # atno 17370 bound_to 10713
  156.0302  130.3767  150.1709 LP  0  0  0  0  0  0  0  0  0  0  0  0  # atno 17371 bound_to 10713
  140.2187  134.4050  155.7576 LP  0  0  0  0  0  0  0  0  0  0  0  0  # atno 17394 bound_to 11000
  141.2225  133.7155  156.8455 LP  0  0  0  0  0  0  0  0  0  0  0  0  # atno 17395 bound_to 11000

$$$$
