AV-unprocessed.smi:2222|AV-procd|sdf|8986|dock7
  -GOLD-   2272012203D 1   1.00000     0.00000
 Structure written by MMmdl.
 34 35  0  0  0  0  0  0  0  0  1 V2000
  151.6811  145.5939  159.8331 C   0  0  0  0  0  0  0  0  0  0  0  0
  151.4376  144.4623  159.0105 O   0  0  0  0  0  0  0  0  0  0  0  0
  152.0422  143.2668  159.3476 C   0  0  0  0  0  0  0  0  0  0  0  0
  152.8972  143.1085  160.4681 C   0  0  0  0  0  0  0  0  0  0  0  0
  153.4683  141.8509  160.7292 C   0  0  0  0  0  0  0  0  0  0  0  0
  153.1642  140.7895  159.8586 C   0  0  0  0  0  0  0  0  0  0  0  0
  153.7464  139.4090  160.0765 C   0  0  0  0  0  0  0  0  0  0  0  0
  152.3532  140.9277  158.7908 N   0  0  0  0  0  0  0  0  0  0  0  0
  151.7948  142.1353  158.5279 C   0  0  0  0  0  0  0  0  0  0  0  0
  150.9304  142.3616  157.4218 N   0  0  0  0  0  0  0  0  0  0  0  0
  150.5927  141.5161  156.4279 C   0  0  0  0  0  0  0  0  0  0  0  0
  150.9635  140.3463  156.3470 O   0  0  0  0  0  0  0  0  0  0  0  0
  149.7589  142.0434  155.5137 N   0  0  0  0  0  0  0  0  0  0  0  0
  149.2175  141.4116  154.3463 C   0  0  1  0  0  0  0  0  0  0  0  0
  148.3366  140.2010  154.5670 C   0  0  0  0  0  0  0  0  0  0  0  0
  147.7240  141.4905  154.0885 C   0  0  1  0  0  0  0  0  0  0  0  0
  146.7924  142.2839  154.9841 C   0  0  0  0  0  0  0  0  0  0  0  0
  151.1417  146.4516  159.4317 H   0  0  0  0  0  0  0  0  0  0  0  0
  152.7409  145.8515  159.8533 H   0  0  0  0  0  0  0  0  0  0  0  0
  151.3282  145.4306  160.8522 H   0  0  0  0  0  0  0  0  0  0  0  0
  153.1276  143.9263  161.1336 H   0  0  0  0  0  0  0  0  0  0  0  0
  154.1231  141.7096  161.5766 H   0  0  0  0  0  0  0  0  0  0  0  0
  154.2781  139.3494  161.0264 H   0  0  0  0  0  0  0  0  0  0  0  0
  154.4464  139.1644  159.2772 H   0  0  0  0  0  0  0  0  0  0  0  0
  152.9554  138.6585  160.0827 H   0  0  0  0  0  0  0  0  0  0  0  0
  150.5283  143.2863  157.3742 H   0  0  0  0  0  0  0  0  0  0  0  0
  149.4224  142.9769  155.7004 H   0  0  0  0  0  0  0  0  0  0  0  0
  149.8578  141.3504  153.4675 H   0  0  0  0  0  0  0  0  0  0  0  0
  148.4126  139.3869  153.8491 H   0  0  0  0  0  0  0  0  0  0  0  0
  148.1411  139.8960  155.5936 H   0  0  0  0  0  0  0  0  0  0  0  0
  147.4364  141.5205  153.0392 H   0  0  0  0  0  0  0  0  0  0  0  0
  147.0614  142.1680  156.0343 H   0  0  0  0  0  0  0  0  0  0  0  0
  145.7666  141.9392  154.8527 H   0  0  0  0  0  0  0  0  0  0  0  0
  146.8389  143.3423  154.7273 H   0  0  0  0  0  0  0  0  0  0  0  0
  1  2  1  0  0  0  0
  1 18  1  0  0  0  0
  1 19  1  0  0  0  0
  1 20  1  0  0  0  0
  2  3  1  0  0  0  0
  3  9  1  0  0  0  0
  3  4  2  0  0  0  0
  4  5  1  0  0  0  0
  4 21  1  0  0  0  0
  5  6  2  0  0  0  0
  5 22  1  0  0  0  0
  6  7  1  0  0  0  0
  6  8  1  0  0  0  0
  7 23  1  0  0  0  0
  7 24  1  0  0  0  0
  7 25  1  0  0  0  0
  8  9  2  0  0  0  0
  9 10  1  0  0  0  0
 10 11  1  0  0  0  0
 10 26  1  0  0  0  0
 11 12  2  0  0  0  0
 11 13  1  0  0  0  0
 13 14  1  0  0  0  0
 13 27  1  0  0  0  0
 14 16  1  0  0  0  0
 14 15  1  0  0  0  0
 14 28  1  0  0  0  0
 15 16  1  0  0  0  0
 15 29  1  0  0  0  0
 15 30  1  0  0  0  0
 16 17  1  0  0  0  0
 16 31  1  0  0  0  0
 17 32  1  0  0  0  0
 17 33  1  0  0  0  0
 17 34  1  0  0  0  0
M  END
> <s_m_source_file>
AV-unprocessed.smi

> <i_m_source_file_index>
2222

> <i_lp_mmshare_version>
43012

> <i_f3d_flags>
0

> <s_epik_input>
W0NIM11PYzFbY0hdW2NIXWMoW0NIM10pbmMxW05IXUMoPU8pW05IXVtDQEBIXTJbQ0gyXVtDQEhdMltDSDNd

> <s_epik_cmdline>
J2VwaWtfcHl0aG9uJywgJy1waCcsICc3LjAnLCAnLXRuJywgJzgnLCAnLW1hJywgJzIwMCcsICctbWV0YWxfYmluZGluZycsICctaW1hZScsICc8aW5maWxlLm1hZT4nLCAnLW9tYWUnLCAnPG91dGZpbGUubWFlPic=

> <r_lp_tautomer_probability>
1

> <r_epik_Ionization_Penalty>
6.59103e-05

> <r_epik_Ionization_Penalty_Charging>
0

> <r_epik_Ionization_Penalty_Neutral>
6.59103e-05

> <r_epik_State_Penalty>
-0

> <r_epik_Charging_Adjusted_Penalty>
0

> <i_epik_Tot_Q>
0

> <i_epik_Tot_abs_Q>
0

> <r_epik_Metal_State_Penalty>
-0

> <b_epik_Metal_Only>
0

> <s_lp_Force_Field>
OPLS_2005

> <r_lp_Energy>
34.1661

> <b_lp_Chiralities_Consistent>
1

> <s_lp_Variant>
AV-unprocessed.smi:2222-2

> <Gold.Version>
5.8.1

> <Gold.Id.Protein>
6NUR|6NUR_protein|mol2

> <Gold.PLP.Fitness>
41.3362

> <Gold.PLP.PLP>
-38.4153

> <Gold.PLP.part.hbond>
-1.0000

> <Gold.PLP.part.metal>
0.0000

> <Gold.PLP.part.buried>
-4.6978

> <Gold.PLP.part.nonpolar>
-32.6877

> <Gold.PLP.part.repulsive>
0.2888

> <Gold.PLP.ligand.clash>
0.0000

> <Gold.PLP.ligand.torsion>
0.0584

> <Gold.PLP.Chemscore.Hbond>
1.0000

> <Gold.PLP.Chemscore.CHOScore>
0.0000

> <Gold.PLP.Chemscore.Metal>
0.0000

> <Gold.Chemscore.Hbonds>
donor molecule, donor type, donor heavy atom, donor atom, acceptor molecule, acceptor atom, score
      L1  H    13    27       P1  8028  1.00

> <Gold.PLP.Chemscore.Internal.Correction>
0.0376

> <Gold.Rescore>
     Score         DG    S(hbond)    S(metal)    S(lipo)     H(rot)  DE(clash)    DE(int)     intcor
     14.65     -16.14       1.00        0.00      89.18       1.22       0.07       1.42       ----

> <Gold.Chemscore.Fitness>
14.6469

> <Gold.Chemscore.DG>
-16.1382

> <Gold.Chemscore.ZeroCoef>
-5.4800

> <Gold.Chemscore.Hbond>
0.9998

> <Gold.Chemscore.Metal>
0.0000

> <Gold.Chemscore.Lipo>
89.1786

> <Gold.Chemscore.Internal_Hbond>
0.0000

> <Gold.Chemscore.DEClash>
0.0710

> <Gold.Chemscore.DEInternal>
1.4203

> <Gold.Chemscore.Rot>
1.2168

> <Gold.Chemscore.Internal.Correction>
   9.000000E+99

> <Gold.Chemscore.Hbonds>
donor molecule, donor type, donor heavy atom, donor atom, acceptor molecule, acceptor atom, score
      L1  H    13    27       P1  8028  1.00

> <Gold.Chemscore.Hbond.Weighted>
-3.3393

> <Gold.Chemscore.Metal.Weighted>
-0.0000

> <Gold.Chemscore.Lipo.Weighted>
-10.4339

> <Gold.Chemscore.Internal_Hbond.Weighted>
0.0000

> <Gold.Chemscore.DEClash.Weighted>
0.0710

> <Gold.Chemscore.DEInternal.Weighted>
1.4203

> <Gold.Chemscore.Rot.Weighted>
3.1150

> <Gold.Chemscore.Internal.Correction.Weighted>
   9.000000E+99

> <Gold.Protein.RotatedTorsions>
[ 6907 6896 6895 6894 ] final  -57.65 input  -60.11 | X-H torsion
[ 7974 7965 7964 7962 ] final  -18.49 input  175.53 | X-H torsion
[ 8008 7997 7996 7995 ] final -177.80 input   59.86 | X-H torsion
[ 10167 10162 10161 10158 ] final   -7.36 input  -65.29 | X-H torsion
[ 10718 10713 10712 10709 ] final   87.98 input   66.30 | X-H torsion
[ 10763 10752 10751 10750 ] final -147.47 input  -60.55 | X-H torsion
[ 11005 11000 10999 10996 ] final -105.66 input  -57.11 | X-H torsion

> <Gold.Protein.ActiveResidues>
 VAL166  LYS551  ARG553  GLY616  TRP617  ASP618  TYR619  PRO620  LYS621  CYS622 
 ASP623  PHE694  ASN695  SER759  ASP760  ASP761  ALA762  ILE779  LEU786  VAL792 
 PHE793  MET794  SER795  GLU796  ALA797  LYS798  CYS799  TRP800  GLU811  SER814 

> <Gold.Protein.RotatedAtoms>
  150.8069  134.7200  159.6652 H   0  0  0  0  0  0  0  0  0  0  0  0  # atno 6907 bound_to 6896
  152.4189  134.5988  160.0004 H   0  0  0  0  0  0  0  0  0  0  0  0  # atno 6908 bound_to 6896
  151.6209  133.3302  159.3124 H   0  0  0  0  0  0  0  0  0  0  0  0  # atno 6909 bound_to 6896
  146.1889  140.3928  142.8465 H   0  0  0  0  0  0  0  0  0  0  0  0  # atno 7974 bound_to 7965
  156.0113  140.1241  157.0451 H   0  0  0  0  0  0  0  0  0  0  0  0  # atno 8008 bound_to 7997
  154.4277  140.1087  156.5903 H   0  0  0  0  0  0  0  0  0  0  0  0  # atno 8009 bound_to 7997
  155.6076  140.3471  155.4614 H   0  0  0  0  0  0  0  0  0  0  0  0  # atno 8010 bound_to 7997
  140.7026  143.6090  150.8723 H   0  0  0  0  0  0  0  0  0  0  0  0  # atno 10167 bound_to 10162
  157.6945  131.0277  150.3206 H   0  0  0  0  0  0  0  0  0  0  0  0  # atno 10718 bound_to 10713
  154.8284  135.3359  154.6824 H   0  0  0  0  0  0  0  0  0  0  0  0  # atno 10763 bound_to 10752
  153.7447  135.6943  153.4963 H   0  0  0  0  0  0  0  0  0  0  0  0  # atno 10764 bound_to 10752
  153.2219  135.4446  155.0450 H   0  0  0  0  0  0  0  0  0  0  0  0  # atno 10765 bound_to 10752
  141.1042  133.8827  157.1762 H   0  0  0  0  0  0  0  0  0  0  0  0  # atno 11005 bound_to 11000
  144.8450  140.6915  143.6205 LP  0  0  0  0  0  0  0  0  0  0  0  0  # atno 17320 bound_to 7965
  145.3852  139.1628  143.4259 LP  0  0  0  0  0  0  0  0  0  0  0  0  # atno 17321 bound_to 7965
  139.9813  143.5948  152.2942 LP  0  0  0  0  0  0  0  0  0  0  0  0  # atno 17342 bound_to 10162
  139.6570  144.7662  151.2036 LP  0  0  0  0  0  0  0  0  0  0  0  0  # atno 17343 bound_to 10162
  156.3693  130.3861  149.7188 LP  0  0  0  0  0  0  0  0  0  0  0  0  # atno 17370 bound_to 10713
  156.4608  130.7950  151.2971 LP  0  0  0  0  0  0  0  0  0  0  0  0  # atno 17371 bound_to 10713
  139.9906  135.0066  156.9965 LP  0  0  0  0  0  0  0  0  0  0  0  0  # atno 17394 bound_to 11000
  140.4944  134.1160  155.7238 LP  0  0  0  0  0  0  0  0  0  0  0  0  # atno 17395 bound_to 11000

$$$$
