#       Name:                AV-unprocessed.smi:271
#       Creating user name   scv26
#       Creation time:       Thu Mar 26 21:28:16 2020


#       File generated by GOLD software.
#

@<TRIPOS>MOLECULE
AV-unprocessed.smi:271
    67    69     1
SMALL
NO_CHARGES


@<TRIPOS>ATOM
      1 ****        -2.3560  -4.1237   2.1569 C.3            1 S1                 0.0000
      2 ****        -2.9117  -2.8380   1.5253 C.3            1 S1                 0.0000
      3 ****        -2.7914  -2.8981  -0.0070 C.3            1 S1                 0.0000
      4 ****        -2.2177  -1.5956   2.1173 C.3            1 S1                 0.0000
      5 ****        -2.8979  -0.2647   1.7330 C.3            1 S1                 0.0000
      6 ****        -2.3005   0.9065   2.3746 N.3            1 S1                 0.0000
      7 ****        -3.0587   2.1459   2.2184 C.3            1 S1                 0.0000
      8 ****        -2.5386   3.2934   3.0991 C.3            1 S1                 0.0000
      9 ****        -3.3703   4.5009   2.9924 C.1            1 S1                 0.0000
     10 ****        -4.0249   5.4510   2.9080 N.1            1 S1                 0.0000
     11 ****        -0.9831   1.0603   2.1094 C.ar           1 S1                 0.0000
     12 ****        -0.1273   0.9747   3.1573 N.ar           1 S1                 0.0000
     13 ****         1.1868   1.1111   2.9574 C.ar           1 S1                 0.0000
     14 ****         1.8385   1.3312   1.8136 N.ar           1 S1                 0.0000
     15 ****         0.9794   1.4161   0.7573 C.ar           1 S1                 0.0000
     16 ****        -0.4374   1.2995   0.8166 C.ar           1 S1                 0.0000
     17 ****        -0.9798   1.4532  -0.4528 N.2            1 S1                 0.0000
     18 ****         0.0580   1.6471  -1.2195 C.2            1 S1                 0.0000
     19 ****         1.2776   1.6224  -0.5795 N.pl3          1 S1                 0.0000
     20 ****         2.5896   1.8028  -1.1858 C.3            1 S1                 0.0000
     21 ****         3.2175   0.5009  -1.7567 C.3            1 S1                 0.0000
     22 ****         3.4176  -0.5770  -0.6650 C.3            1 S1                 0.0000
     23 ****         4.3205  -0.1285   0.3239 O.3            1 S1                 0.0000
     24 ****         2.4235  -0.0597  -2.9663 C.3            1 S1                 0.0000
     25 ****         3.0576  -1.2593  -3.6515 C.3            1 S1                 0.0000
     26 ****         2.3769  -1.2656  -5.0176 C.3            1 S1                 0.0000
     27 ****         2.0239   0.0868  -5.2870 O.3            1 S1                 0.0000
     28 ****         2.3247   0.8984  -4.1582 C.3            1 S1                 0.0000
     29 ****        -1.2910  -4.2374   1.9520 H              1 S1                 0.0000
     30 ****        -2.8655  -5.0061   1.7682 H              1 S1                 0.0000
     31 ****        -2.4880  -4.1207   3.2393 H              1 S1                 0.0000
     32 ****        -3.9719  -2.7862   1.7769 H              1 S1                 0.0000
     33 ****        -1.7476  -2.9158  -0.3223 H              1 S1                 0.0000
     34 ****        -3.2694  -2.0426  -0.4833 H              1 S1                 0.0000
     35 ****        -3.2719  -3.7938  -0.4019 H              1 S1                 0.0000
     36 ****        -2.2129  -1.6748   3.2053 H              1 S1                 0.0000
     37 ****        -1.1713  -1.5947   1.8091 H              1 S1                 0.0000
     38 ****        -2.8856  -0.1270   0.6521 H              1 S1                 0.0000
     39 ****        -3.9487  -0.3111   2.0215 H              1 S1                 0.0000
     40 ****        -3.0562   2.4501   1.1709 H              1 S1                 0.0000
     41 ****        -4.0993   1.9478   2.4775 H              1 S1                 0.0000
     42 ****        -2.5217   2.9925   4.1468 H              1 S1                 0.0000
     43 ****        -1.5220   3.5746   2.8232 H              1 S1                 0.0000
     44 ****         1.8048   1.0303   3.8395 H              1 S1                 0.0000
     45 ****        -0.0428   1.8081  -2.2823 H              1 S1                 0.0000
     46 ****         2.5036   2.5608  -1.9643 H              1 S1                 0.0000
     47 ****         3.2523   2.2368  -0.4363 H              1 S1                 0.0000
     48 ****         4.2090   0.7675  -2.1262 H              1 S1                 0.0000
     49 ****         2.4715  -0.8550  -0.2004 H              1 S1                 0.0000
     50 ****         3.8398  -1.4887  -1.0858 H              1 S1                 0.0000
     51 ****         4.3933  -0.7948   0.9899 H              1 S1                 0.0000
     52 ****         1.4178  -0.3434  -2.6532 H              1 S1                 0.0000
     53 ****         4.1309  -1.1049  -3.7723 H              1 S1                 0.0000
     54 ****         2.9068  -2.1956  -3.1137 H              1 S1                 0.0000
     55 ****         3.0219  -1.6710  -5.7974 H              1 S1                 0.0000
     56 ****         1.4644  -1.8621  -4.9884 H              1 S1                 0.0000
     57 ****         1.5692   1.6718  -4.0251 H              1 S1                 0.0000
     58 ****         3.2813   1.3923  -4.3354 H              1 S1                 0.0000
     59 ****        -2.3620   0.6944   3.3499 LP             1 S1                 0.0000
     60 ****        -4.5907   6.2723   2.8351 LP             1 S1                 0.0000
     61 ****        -0.4790   0.8097   4.0788 LP             1 S1                 0.0000
     62 ****         2.8317   1.4224   1.7402 LP             1 S1                 0.0000
     63 ****        -1.9435   1.4224  -0.7179 LP             1 S1                 0.0000
     64 ****         3.9805   0.7192   0.7311 LP             1 S1                 0.0000
     65 ****         5.2169   0.0357  -0.0878 LP             1 S1                 0.0000
     66 ****         1.0450   0.1414  -5.4834 LP             1 S1                 0.0000
     67 ****         2.5413   0.4136  -6.0779 LP             1 S1                 0.0000
@<TRIPOS>BOND
    1    1    2 1     
    2    1   29 1     
    3    1   30 1     
    4    1   31 1     
    5    2    3 1     
    6    2    4 1     
    7    2   32 1     
    8    3   33 1     
    9    3   34 1     
   10    3   35 1     
   11    4    5 1     
   12    4   36 1     
   13    4   37 1     
   14    5    6 1     
   15    5   38 1     
   16    5   39 1     
   17    6    7 1     
   18    6   11 1     
   19    7    8 1     
   20    7   40 1     
   21    7   41 1     
   22    8    9 1     
   23    8   42 1     
   24    8   43 1     
   25    9   10 3     
   26   11   16 ar    
   27   11   12 ar    
   28   12   13 ar    
   29   13   14 ar    
   30   13   44 1     
   31   14   15 ar    
   32   15   19 1     
   33   15   16 ar    
   34   16   17 1     
   35   17   18 2     
   36   18   19 1     
   37   18   45 1     
   38   19   20 1     
   39   20   21 1     
   40   20   46 1     
   41   20   47 1     
   42   21   22 1     
   43   21   24 1     
   44   21   48 1     
   45   22   23 1     
   46   22   49 1     
   47   22   50 1     
   48   23   51 1     
   49   24   28 1     
   50   24   25 1     
   51   24   52 1     
   52   25   26 1     
   53   25   53 1     
   54   25   54 1     
   55   26   27 1     
   56   26   55 1     
   57   26   56 1     
   58   27   28 1     
   59   28   57 1     
   60   28   58 1     
   61    6   59 1     
   62   10   60 1     
   63   12   61 1     
   64   14   62 1     
   65   17   63 1     
   66   23   64 1     
   67   23   65 1     
   68   27   66 1     
   69   27   67 1     
@<TRIPOS>SUBSTRUCTURE
      1 S1             1
@<TRIPOS>SET
LONE_PAIRS      STATIC     ATOMS    <user>   **** ""
9 59 60 61 62 63 64 65 66 67
DONOR_HYDROGENS      STATIC     ATOMS    <user>   **** ""
1 51
ATOM$BLUE        STATIC     ATOMS    COLORGROUP SYSTEM
9 59 60 61 62 63 64 65 66 67
ATOM$RED        STATIC     ATOMS    COLORGROUP SYSTEM
1 51
