AV-unprocessed.smi:3116|AV-procd|sdf|11866|dock9
  -GOLD-   2272017253D 1   1.00000     0.00000
 Structure written by MMmdl.
 34 34  0  0  0  0  0  0  0  0  2 V2000
  146.9725  140.3083  154.0159 C   0  0  0  0  0  0  0  0  0  0  0  0
  147.2172  138.8920  153.4670 C   0  0  2  0  0  0  0  0  0  0  0  0
  148.6667  138.5904  153.4155 N   0  3  0  0  0  0  0  0  0  0  0  0
  149.3296  138.3546  154.7206 C   0  0  2  0  0  0  0  0  0  0  0  0
  149.5716  139.7162  155.3931 C   0  0  0  0  0  0  0  0  0  0  0  0
  150.6404  137.5429  154.5262 C   0  0  1  0  0  0  0  0  0  0  0  0
  151.8542  138.1647  155.2449 C   0  0  0  0  0  0  0  0  0  0  0  0
  150.4774  136.1528  154.9376 N   0  0  0  0  0  0  0  0  0  0  0  0
  149.5154  135.2506  154.5311 C   0  0  0  0  0  0  0  0  0  0  0  0
  149.7421  134.0817  155.1993 C   0  0  0  0  0  0  0  0  0  0  0  0
  150.8821  134.3658  156.0012 C   0  0  0  0  0  0  0  0  0  0  0  0
  151.3160  135.6063  155.8474 N   0  0  0  0  0  0  0  0  0  0  0  0
  146.5913  138.7408  152.0756 C   0  0  0  0  0  0  0  0  0  0  0  0
  145.3131  138.3572  152.0222 N   0  0  0  0  0  0  0  0  0  0  0  0
  147.2460  138.9733  151.0608 O   0  0  0  0  0  0  0  0  0  0  0  0
  145.9071  140.5375  154.0594 H   0  0  0  0  0  0  0  0  0  0  0  0
  147.4506  141.0665  153.3940 H   0  0  0  0  0  0  0  0  0  0  0  0
  147.3651  140.4162  155.0271 H   0  0  0  0  0  0  0  0  0  0  0  0
  146.7304  138.1691  154.1217 H   0  0  0  0  0  0  0  0  0  0  0  0
  148.7907  137.7583  152.8568 H   0  0  0  0  0  0  0  0  0  0  0  0
  148.6588  137.7891  155.3694 H   0  0  0  0  0  0  0  0  0  0  0  0
  149.9559  139.6050  156.4066 H   0  0  0  0  0  0  0  0  0  0  0  0
  148.6436  140.2841  155.4682 H   0  0  0  0  0  0  0  0  0  0  0  0
  150.2835  140.3186  154.8276 H   0  0  0  0  0  0  0  0  0  0  0  0
  150.8717  137.5279  153.4598 H   0  0  0  0  0  0  0  0  0  0  0  0
  152.1229  139.1315  154.8199 H   0  0  0  0  0  0  0  0  0  0  0  0
  152.7323  137.5243  155.1528 H   0  0  0  0  0  0  0  0  0  0  0  0
  151.6611  138.3099  156.3082 H   0  0  0  0  0  0  0  0  0  0  0  0
  148.7553  135.5117  153.8094 H   0  0  0  0  0  0  0  0  0  0  0  0
  149.1806  133.1621  155.1248 H   0  0  0  0  0  0  0  0  0  0  0  0
  151.4012  133.7134  156.6879 H   0  0  0  0  0  0  0  0  0  0  0  0
  144.8540  138.2386  151.1304 H   0  0  0  0  0  0  0  0  0  0  0  0
  144.8077  138.1819  152.8791 H   0  0  0  0  0  0  0  0  0  0  0  0
  149.1272  139.3552  152.9433 H   0  0  0  0  0  0  0  0  0  0  0  0
  1  2  1  0  0  0  0
  1 16  1  0  0  0  0
  1 17  1  0  0  0  0
  1 18  1  0  0  0  0
  2  3  1  0  0  0  0
  2 13  1  0  0  0  0
  2 19  1  0  0  0  0
  3  4  1  0  0  0  0
  3 20  1  0  0  0  0
  3 34  1  0  0  0  0
  4  5  1  0  0  0  0
  4  6  1  0  0  0  0
  4 21  1  0  0  0  0
  5 22  1  0  0  0  0
  5 23  1  0  0  0  0
  5 24  1  0  0  0  0
  6  7  1  0  0  0  0
  6  8  1  0  0  0  0
  6 25  1  0  0  0  0
  7 26  1  0  0  0  0
  7 27  1  0  0  0  0
  7 28  1  0  0  0  0
  8 12  1  0  0  0  0
  8  9  1  0  0  0  0
  9 10  2  0  0  0  0
  9 29  1  0  0  0  0
 10 11  1  0  0  0  0
 10 30  1  0  0  0  0
 11 12  2  0  0  0  0
 11 31  1  0  0  0  0
 13 14  1  0  0  0  0
 13 15  2  0  0  0  0
 14 32  1  0  0  0  0
 14 33  1  0  0  0  0
M  CHG  1   3   1
M  END
> <s_m_source_file>
AV-unprocessed.smi

> <i_m_source_file_index>
3116

> <i_lp_mmshare_version>
43012

> <i_f3d_flags>
0

> <s_epik_input>
W05IMl1DKD1PKVtDQEhdKFtDSDNdKVtOSF1bQ0BIXShbQ0gzXSlbQ0BIXShbQ0gzXSluMVtjSF1bY0hdW2NIXW4x

> <s_epik_cmdline>
J2VwaWtfcHl0aG9uJywgJy1waCcsICc3LjAnLCAnLXRuJywgJzgnLCAnLW1hJywgJzIwMCcsICctbWV0YWxfYmluZGluZycsICctaW1hZScsICc8aW5maWxlLm1hZT4nLCAnLW9tYWUnLCAnPG91dGZpbGUubWFlPic=

> <r_lp_tautomer_probability>
1

> <r_epik_Ionization_Penalty>
0.15658

> <r_epik_Ionization_Penalty_Charging>
0.156568

> <r_epik_Ionization_Penalty_Neutral>
1.19778e-05

> <r_epik_State_Penalty>
0.145866

> <r_epik_Charging_Adjusted_Penalty>
0.302434

> <i_epik_Tot_Q>
1

> <i_epik_Tot_abs_Q>
1

> <r_epik_Metal_State_Penalty>
0.146064

> <b_epik_Metal_Only>
0

> <s_lp_Force_Field>
OPLS_2005

> <r_lp_Energy>
9.52806

> <b_lp_Chiralities_Consistent>
1

> <s_lp_Variant>
AV-unprocessed.smi:3116-5

> <Gold.Version>
5.8.1

> <Gold.Id.Protein>
6NUR|6NUR_protein|mol2

> <Gold.PLP.Fitness>
46.0497

> <Gold.PLP.PLP>
-30.6122

> <Gold.PLP.part.hbond>
-6.0000

> <Gold.PLP.part.metal>
0.0000

> <Gold.PLP.part.buried>
-3.7829

> <Gold.PLP.part.nonpolar>
-23.8030

> <Gold.PLP.part.repulsive>
1.3349

> <Gold.PLP.ligand.clash>
0.0000

> <Gold.PLP.ligand.torsion>
2.4080

> <Gold.PLP.Chemscore.Hbond>
5.8640

> <Gold.PLP.Chemscore.CHOScore>
0.8417

> <Gold.PLP.Chemscore.Metal>
0.0000

> <Gold.Chemscore.Hbonds>
donor molecule, donor type, donor heavy atom, donor atom, acceptor molecule, acceptor atom, score
      L1  H     3    20       P1  7948  2.00
      L1  H     3    34       P1  7957  0.85
      L1  H    14    32       P1 10171  1.00
      P1  H  7954  7966       L1    15  0.78
      P1  H 10752 10764       L1    12  0.80
      L1  C     9    29       P1  7948  0.98

> <Gold.PLP.Chemscore.Internal.Correction>
0.1362

> <Gold.Rescore>
     Score         DG    S(hbond)    S(metal)    S(lipo)     H(rot)  DE(clash)    DE(int)     intcor
     13.25     -16.19       3.22        0.00      53.21       2.45       0.90       2.04       ----

> <Gold.Chemscore.Fitness>
13.2537

> <Gold.Chemscore.DG>
-16.1943

> <Gold.Chemscore.ZeroCoef>
-5.4800

> <Gold.Chemscore.Hbond>
3.2190

> <Gold.Chemscore.Metal>
0.0000

> <Gold.Chemscore.Lipo>
53.2147

> <Gold.Chemscore.Internal_Hbond>
0.0000

> <Gold.Chemscore.DEClash>
0.8991

> <Gold.Chemscore.DEInternal>
2.0415

> <Gold.Chemscore.Rot>
2.4465

> <Gold.Chemscore.Internal.Correction>
   9.000000E+99

> <Gold.Chemscore.Hbonds>
donor molecule, donor type, donor heavy atom, donor atom, acceptor molecule, acceptor atom, score
      L1  H     3    20       P1  7948  1.00
      L1  H     3    34       P1  7957  0.82
      L1  H    14    32       P1 10171  0.99
      P1  H  7954  7966       L1    15  0.78
      P1  H 10752 10764       L1    12  0.07

> <Gold.Chemscore.Hbond.Weighted>
-10.7513

> <Gold.Chemscore.Metal.Weighted>
-0.0000

> <Gold.Chemscore.Lipo.Weighted>
-6.2261

> <Gold.Chemscore.Internal_Hbond.Weighted>
0.0000

> <Gold.Chemscore.DEClash.Weighted>
0.8991

> <Gold.Chemscore.DEInternal.Weighted>
2.0415

> <Gold.Chemscore.Rot.Weighted>
6.2631

> <Gold.Chemscore.Internal.Correction.Weighted>
   9.000000E+99

> <Gold.Protein.RotatedTorsions>
[ 6907 6896 6895 6894 ] final -131.22 input  -60.11 | X-H torsion
[ 7974 7965 7964 7962 ] final  -92.99 input  175.53 | X-H torsion
[ 8008 7997 7996 7995 ] final   83.16 input   59.86 | X-H torsion
[ 10167 10162 10161 10158 ] final  -49.53 input  -65.29 | X-H torsion
[ 10718 10713 10712 10709 ] final -163.64 input   66.30 | X-H torsion
[ 10763 10752 10751 10750 ] final  -57.75 input  -60.55 | X-H torsion
[ 11005 11000 10999 10996 ] final  156.39 input  -57.11 | X-H torsion

> <Gold.Protein.ActiveResidues>
 VAL166  LYS551  ARG553  GLY616  TRP617  ASP618  TYR619  PRO620  LYS621  CYS622 
 ASP623  PHE694  ASN695  SER759  ASP760  ASP761  ALA762  ILE779  LEU786  VAL792 
 PHE793  MET794  SER795  GLU796  ALA797  LYS798  CYS799  TRP800  GLU811  SER814 

> <Gold.Protein.RotatedAtoms>
  150.9485  133.6575  159.2776 H   0  0  0  0  0  0  0  0  0  0  0  0  # atno 6907 bound_to 6896
  151.3939  135.0959  159.9544 H   0  0  0  0  0  0  0  0  0  0  0  0  # atno 6908 bound_to 6896
  152.5100  133.8994  159.7488 H   0  0  0  0  0  0  0  0  0  0  0  0  # atno 6909 bound_to 6896
  145.3925  140.9529  143.2332 H   0  0  0  0  0  0  0  0  0  0  0  0  # atno 7974 bound_to 7965
  155.9202  140.3422  155.6167 H   0  0  0  0  0  0  0  0  0  0  0  0  # atno 8008 bound_to 7997
  155.7282  140.0792  157.2319 H   0  0  0  0  0  0  0  0  0  0  0  0  # atno 8009 bound_to 7997
  154.4068  140.1593  156.2466 H   0  0  0  0  0  0  0  0  0  0  0  0  # atno 8010 bound_to 7997
  140.6680  143.2694  151.4229 H   0  0  0  0  0  0  0  0  0  0  0  0  # atno 10167 bound_to 10162
  156.6276  130.8916  151.2971 H   0  0  0  0  0  0  0  0  0  0  0  0  # atno 10718 bound_to 10713
  154.2274  135.6367  153.5164 H   0  0  0  0  0  0  0  0  0  0  0  0  # atno 10763 bound_to 10752
  152.9956  135.5511  154.6050 H   0  0  0  0  0  0  0  0  0  0  0  0  # atno 10764 bound_to 10752
  154.5524  135.2902  155.0970 H   0  0  0  0  0  0  0  0  0  0  0  0  # atno 10765 bound_to 10752
  140.1670  134.8569  157.2644 H   0  0  0  0  0  0  0  0  0  0  0  0  # atno 11005 bound_to 11000
  144.8430  139.5441  143.6891 LP  0  0  0  0  0  0  0  0  0  0  0  0  # atno 17320 bound_to 7965
  146.2791  139.6829  142.9242 LP  0  0  0  0  0  0  0  0  0  0  0  0  # atno 17321 bound_to 7965
  139.5937  144.1443  152.2119 LP  0  0  0  0  0  0  0  0  0  0  0  0  # atno 17342 bound_to 10162
  140.0806  144.5704  150.7125 LP  0  0  0  0  0  0  0  0  0  0  0  0  # atno 17343 bound_to 10162
  157.7209  130.9558  150.1437 LP  0  0  0  0  0  0  0  0  0  0  0  0  # atno 17370 bound_to 10713
  156.2261  130.3678  149.8499 LP  0  0  0  0  0  0  0  0  0  0  0  0  # atno 17371 bound_to 10713
  140.2422  134.3782  155.7476 LP  0  0  0  0  0  0  0  0  0  0  0  0  # atno 17394 bound_to 11000
  141.2214  133.7271  156.8806 LP  0  0  0  0  0  0  0  0  0  0  0  0  # atno 17395 bound_to 11000

$$$$
