AV-unprocessed.smi:2398|AV-procd|sdf|9497|dock3
  -GOLD-   2272013123D 1   1.00000     0.00000
 Structure written by MMmdl.
 34 35  0  0  0  0  0  0  0  0  1 V2000
  151.0525  140.7037  156.4470 O   0  0  0  0  0  0  0  0  0  0  0  0
  150.4302  141.7638  156.3951 C   0  0  0  0  0  0  0  0  0  0  0  0
  150.5737  142.8009  157.2385 N   0  0  0  0  0  0  0  0  0  0  0  0
  151.4385  142.9494  158.3590 C   0  0  0  0  0  0  0  0  0  0  0  0
  152.3143  141.9465  158.8438 C   0  0  0  0  0  0  0  0  0  0  0  0
  153.1208  142.2368  159.9627 C   0  0  0  0  0  0  0  0  0  0  0  0
  153.1097  143.4258  160.6009 N   0  0  0  0  0  0  0  0  0  0  0  0
  152.2800  144.3816  160.1330 C   0  0  0  0  0  0  0  0  0  0  0  0
  151.4322  144.1949  159.0228 C   0  0  0  0  0  0  0  0  0  0  0  0
  150.6247  145.1997  158.6046 F   0  0  0  0  0  0  0  0  0  0  0  0
  149.4987  142.0255  155.4663 N   0  0  0  0  0  0  0  0  0  0  0  0
  149.0961  141.1178  154.3960 C   0  0  1  0  0  0  0  0  0  0  0  0
  148.9834  139.6839  154.9476 C   0  0  0  0  0  0  0  0  0  0  0  0
  148.5049  138.7020  153.8659 C   0  0  0  0  0  0  0  0  0  0  0  0
  147.1705  139.1608  153.2531 C   0  0  2  0  0  0  0  0  0  0  0  0
  146.7978  138.2764  152.2176 O   0  0  0  0  0  0  0  0  0  0  0  0
  147.2793  140.5897  152.6943 C   0  0  0  0  0  0  0  0  0  0  0  0
  147.7596  141.5725  153.7742 C   0  0  0  0  0  0  0  0  0  0  0  0
  149.8640  141.1194  153.6198 H   0  0  0  0  0  0  0  0  0  0  0  0
  146.3924  139.1295  154.0171 H   0  0  0  0  0  0  0  0  0  0  0  0
  149.9618  143.5865  157.0721 H   0  0  0  0  0  0  0  0  0  0  0  0
  152.3949  140.9721  158.3896 H   0  0  0  0  0  0  0  0  0  0  0  0
  153.7973  141.4915  160.3541 H   0  0  0  0  0  0  0  0  0  0  0  0
  152.2922  145.3249  160.6587 H   0  0  0  0  0  0  0  0  0  0  0  0
  149.0339  142.9212  155.4992 H   0  0  0  0  0  0  0  0  0  0  0  0
  149.9477  139.3564  155.3382 H   0  0  0  0  0  0  0  0  0  0  0  0
  148.2865  139.6628  155.7870 H   0  0  0  0  0  0  0  0  0  0  0  0
  149.2648  138.6255  153.0868 H   0  0  0  0  0  0  0  0  0  0  0  0
  148.3983  137.7046  154.2942 H   0  0  0  0  0  0  0  0  0  0  0  0
  147.4889  137.6424  152.1008 H   0  0  0  0  0  0  0  0  0  0  0  0
  147.9763  140.6085  151.8551 H   0  0  0  0  0  0  0  0  0  0  0  0
  146.3144  140.9146  152.3034 H   0  0  0  0  0  0  0  0  0  0  0  0
  146.9989  141.6541  154.5520 H   0  0  0  0  0  0  0  0  0  0  0  0
  147.8646  142.5675  153.3399 H   0  0  0  0  0  0  0  0  0  0  0  0
  1  2  2  0  0  0  0
  2  3  1  0  0  0  0
  2 11  1  0  0  0  0
  3  4  1  0  0  0  0
  3 21  1  0  0  0  0
  4  9  1  0  0  0  0
  4  5  2  0  0  0  0
  5  6  1  0  0  0  0
  5 22  1  0  0  0  0
  6  7  2  0  0  0  0
  6 23  1  0  0  0  0
  7  8  1  0  0  0  0
  8  9  2  0  0  0  0
  8 24  1  0  0  0  0
  9 10  1  0  0  0  0
 11 12  1  0  0  0  0
 11 25  1  0  0  0  0
 12 19  1  0  0  0  0
 12 18  1  0  0  0  0
 12 13  1  0  0  0  0
 13 14  1  0  0  0  0
 13 26  1  0  0  0  0
 13 27  1  0  0  0  0
 14 15  1  0  0  0  0
 14 28  1  0  0  0  0
 14 29  1  0  0  0  0
 15 20  1  0  0  0  0
 15 16  1  0  0  0  0
 15 17  1  0  0  0  0
 16 30  1  0  0  0  0
 17 18  1  0  0  0  0
 17 31  1  0  0  0  0
 17 32  1  0  0  0  0
 18 33  1  0  0  0  0
 18 34  1  0  0  0  0
M  END
> <s_m_source_file>
AV-unprocessed.smi

> <i_m_source_file_index>
2398

> <i_lp_mmshare_version>
43012

> <i_f3d_flags>
0

> <s_epik_input>
W0NIMl0xW0NIMl1bQ0BASF0oW09IXSlbQ0gyXVtDSDJdW0NAQEhdMVtOSF1DKD1PKVtOSF1jMltjSF1bY0hdbltjSF1jMkY=

> <s_epik_cmdline>
J2VwaWtfcHl0aG9uJywgJy1waCcsICc3LjAnLCAnLXRuJywgJzgnLCAnLW1hJywgJzIwMCcsICctbWV0YWxfYmluZGluZycsICctaW1hZScsICc8aW5maWxlLm1hZT4nLCAnLW9tYWUnLCAnPG91dGZpbGUubWFlPic=

> <r_epik_Ionization_Penalty>
0.00343298

> <r_epik_Ionization_Penalty_Charging>
0

> <r_epik_Ionization_Penalty_Neutral>
0.00343298

> <r_epik_State_Penalty>
0.00240232

> <r_epik_Charging_Adjusted_Penalty>
0.00240232

> <i_epik_Tot_Q>
0

> <i_epik_Tot_abs_Q>
0

> <r_epik_Metal_State_Penalty>
-0

> <b_epik_Metal_Only>
0

> <s_lp_Force_Field>
OPLS_2005

> <r_lp_Energy>
13.0545

> <b_lp_Chiralities_Consistent>
1

> <s_lp_Variant>
AV-unprocessed.smi:2398-1

> <Gold.Version>
5.8.1

> <Gold.Id.Protein>
6NUR|6NUR_protein|mol2

> <Gold.PLP.Fitness>
43.0928

> <Gold.PLP.PLP>
-35.0973

> <Gold.PLP.part.hbond>
-3.0000

> <Gold.PLP.part.metal>
0.0000

> <Gold.PLP.part.buried>
-0.7452

> <Gold.PLP.part.nonpolar>
-31.2707

> <Gold.PLP.part.repulsive>
0.2118

> <Gold.PLP.ligand.clash>
0.0000

> <Gold.PLP.ligand.torsion>
0.2279

> <Gold.PLP.Chemscore.Hbond>
2.8160

> <Gold.PLP.Chemscore.CHOScore>
0.0000

> <Gold.PLP.Chemscore.Metal>
0.0000

> <Gold.Chemscore.Hbonds>
donor molecule, donor type, donor heavy atom, donor atom, acceptor molecule, acceptor atom, score
      L1  H     3    21       P1  8028  0.81
      L1  H    11    25       P1  8028  1.00
      L1  H    16    30       P1  7948  1.00

> <Gold.PLP.Chemscore.Internal.Correction>
0.0033

> <Gold.Rescore>
     Score         DG    S(hbond)    S(metal)    S(lipo)     H(rot)  DE(clash)    DE(int)     intcor
     18.26     -22.25       2.84        0.00      94.40       1.47       1.21       2.78       ----

> <Gold.Chemscore.Fitness>
18.2617

> <Gold.Chemscore.DG>
-22.2499

> <Gold.Chemscore.ZeroCoef>
-5.4800

> <Gold.Chemscore.Hbond>
2.8371

> <Gold.Chemscore.Metal>
0.0000

> <Gold.Chemscore.Lipo>
94.4023

> <Gold.Chemscore.Internal_Hbond>
0.0000

> <Gold.Chemscore.DEClash>
1.2131

> <Gold.Chemscore.DEInternal>
2.7752

> <Gold.Chemscore.Rot>
1.4653

> <Gold.Chemscore.Internal.Correction>
   9.000000E+99

> <Gold.Chemscore.Hbonds>
donor molecule, donor type, donor heavy atom, donor atom, acceptor molecule, acceptor atom, score
      L1  H     3    21       P1  8028  0.75
      L1  H    11    25       P1  8028  0.99
      L1  H    16    30       P1  7948  0.93

> <Gold.Chemscore.Hbond.Weighted>
-9.4760

> <Gold.Chemscore.Metal.Weighted>
-0.0000

> <Gold.Chemscore.Lipo.Weighted>
-11.0451

> <Gold.Chemscore.Internal_Hbond.Weighted>
0.0000

> <Gold.Chemscore.DEClash.Weighted>
1.2131

> <Gold.Chemscore.DEInternal.Weighted>
2.7752

> <Gold.Chemscore.Rot.Weighted>
3.7511

> <Gold.Chemscore.Internal.Correction.Weighted>
   9.000000E+99

> <Gold.Protein.RotatedTorsions>
[ 6907 6896 6895 6894 ] final -118.67 input  -60.11 | X-H torsion
[ 7974 7965 7964 7962 ] final -119.75 input  175.53 | X-H torsion
[ 8008 7997 7996 7995 ] final  145.81 input   59.86 | X-H torsion
[ 10167 10162 10161 10158 ] final -111.19 input  -65.29 | X-H torsion
[ 10718 10713 10712 10709 ] final  -80.39 input   66.30 | X-H torsion
[ 10763 10752 10751 10750 ] final  -40.95 input  -60.55 | X-H torsion
[ 11005 11000 10999 10996 ] final -133.10 input  -57.11 | X-H torsion

> <Gold.Protein.ActiveResidues>
 VAL166  LYS551  ARG553  GLY616  TRP617  ASP618  TYR619  PRO620  LYS621  CYS622 
 ASP623  PHE694  ASN695  SER759  ASP760  ASP761  ALA762  ILE779  LEU786  VAL792 
 PHE793  MET794  SER795  GLU796  ALA797  LYS798  CYS799  TRP800  GLU811  SER814 

> <Gold.Protein.RotatedAtoms>
  150.8239  133.8205  159.3126 H   0  0  0  0  0  0  0  0  0  0  0  0  # atno 6907 bound_to 6896
  151.5954  135.1049  160.0058 H   0  0  0  0  0  0  0  0  0  0  0  0  # atno 6908 bound_to 6896
  152.4326  133.7263  159.6619 H   0  0  0  0  0  0  0  0  0  0  0  0  # atno 6909 bound_to 6896
  145.0590  140.8276  143.4164 H   0  0  0  0  0  0  0  0  0  0  0  0  # atno 7974 bound_to 7965
  156.2873  140.2199  156.5275 H   0  0  0  0  0  0  0  0  0  0  0  0  # atno 8008 bound_to 7997
  154.7477  140.0483  157.0888 H   0  0  0  0  0  0  0  0  0  0  0  0  # atno 8009 bound_to 7997
  155.0150  140.3117  155.4818 H   0  0  0  0  0  0  0  0  0  0  0  0  # atno 8010 bound_to 7997
  140.1363  143.4317  152.1593 H   0  0  0  0  0  0  0  0  0  0  0  0  # atno 10167 bound_to 10162
  156.0071  130.4573  150.3794 H   0  0  0  0  0  0  0  0  0  0  0  0  # atno 10718 bound_to 10713
  153.9544  135.6747  153.4744 H   0  0  0  0  0  0  0  0  0  0  0  0  # atno 10763 bound_to 10752
  153.0868  135.4894  154.8610 H   0  0  0  0  0  0  0  0  0  0  0  0  # atno 10764 bound_to 10752
  154.7307  135.3137  154.8855 H   0  0  0  0  0  0  0  0  0  0  0  0  # atno 10765 bound_to 10752
  140.9111  134.1566  157.4388 H   0  0  0  0  0  0  0  0  0  0  0  0  # atno 11005 bound_to 11000
  145.1432  139.2559  143.5479 LP  0  0  0  0  0  0  0  0  0  0  0  0  # atno 17320 bound_to 7965
  146.3523  140.1115  142.8603 LP  0  0  0  0  0  0  0  0  0  0  0  0  # atno 17321 bound_to 7965
  139.5494  144.7325  151.4481 LP  0  0  0  0  0  0  0  0  0  0  0  0  # atno 17342 bound_to 10162
  140.6787  143.8131  150.7092 LP  0  0  0  0  0  0  0  0  0  0  0  0  # atno 17343 bound_to 10162
  157.1874  131.0407  151.2717 LP  0  0  0  0  0  0  0  0  0  0  0  0  # atno 17370 bound_to 10713
  157.4091  130.7375  149.6825 LP  0  0  0  0  0  0  0  0  0  0  0  0  # atno 17371 bound_to 10713
  139.8758  134.9936  156.5653 LP  0  0  0  0  0  0  0  0  0  0  0  0  # atno 17394 bound_to 11000
  140.8108  133.8430  155.8809 LP  0  0  0  0  0  0  0  0  0  0  0  0  # atno 17395 bound_to 11000

$$$$
