AV-unprocessed.smi:2969|AV-procd|sdf|11329|dock5
  -GOLD-   2272016233D 1   1.00000     0.00000
 Structure written by MMmdl.
 40 40  0  0  0  0  0  0  0  0  1 V2000
  145.8229  131.9750  149.2133 C   0  0  0  0  0  0  0  0  0  0  0  0
  146.1404  132.8476  150.4345 C   0  0  0  0  0  0  0  0  0  0  0  0
  146.5279  132.0580  151.7013 C   0  0  0  0  0  0  0  0  0  0  0  0
  146.8020  132.8932  152.8573 N   0  0  0  0  0  0  0  0  0  0  0  0
  148.0410  132.9155  153.5046 C   0  0  0  0  0  0  0  0  0  0  0  0
  149.0410  132.0863  153.0170 N   0  0  0  0  0  0  0  0  0  0  0  0
  148.2677  133.7008  154.6003 C   0  0  0  0  0  0  0  0  0  0  0  0
  149.5291  133.7519  155.2228 N   0  0  0  0  0  0  0  0  0  0  0  0
  150.5511  134.5974  154.5818 C   0  0  0  0  0  0  0  0  0  0  0  0
  150.7722  135.9167  155.3394 C   0  0  0  0  0  0  0  0  0  0  0  0
  151.7425  136.6903  154.6540 O   0  0  0  0  0  0  0  0  0  0  0  0
  151.5686  138.0819  154.8503 C   0  0  0  0  0  0  0  0  0  0  0  0
  149.8248  133.0408  156.3452 C   0  0  0  0  0  0  0  0  0  0  0  0
  150.8961  133.1875  156.9375 O   0  0  0  0  0  0  0  0  0  0  0  0
  148.8397  131.9821  156.8865 C   0  0  0  0  0  0  0  0  0  0  0  0
  148.5736  131.0682  155.9524 F   0  0  0  0  0  0  0  0  0  0  0  0
  149.3831  131.3616  157.9347 F   0  0  0  0  0  0  0  0  0  0  0  0
  147.7108  132.5662  157.2844 F   0  0  0  0  0  0  0  0  0  0  0  0
  147.2142  134.5905  155.1089 C   0  0  0  0  0  0  0  0  0  0  0  0
  147.3253  135.3695  156.0548 O   0  0  0  0  0  0  0  0  0  0  0  0
  146.0027  134.5144  154.4277 N   0  0  0  0  0  0  0  0  0  0  0  0
  145.7391  133.7004  153.3324 C   0  0  0  0  0  0  0  0  0  0  0  0
  144.6138  133.7141  152.8325 O   0  0  0  0  0  0  0  0  0  0  0  0
  145.2500  135.1006  154.7580 H   0  0  0  0  0  0  0  0  0  0  0  0
  145.4916  132.5889  148.3757 H   0  0  0  0  0  0  0  0  0  0  0  0
  145.0301  131.2602  149.4358 H   0  0  0  0  0  0  0  0  0  0  0  0
  146.6991  131.4165  148.8836 H   0  0  0  0  0  0  0  0  0  0  0  0
  146.9346  133.5482  150.1759 H   0  0  0  0  0  0  0  0  0  0  0  0
  145.2666  133.4583  150.6622 H   0  0  0  0  0  0  0  0  0  0  0  0
  145.7214  131.3891  152.0020 H   0  0  0  0  0  0  0  0  0  0  0  0
  147.3794  131.4003  151.5229 H   0  0  0  0  0  0  0  0  0  0  0  0
  148.8922  131.4818  152.2217 H   0  0  0  0  0  0  0  0  0  0  0  0
  149.9680  132.0797  153.4177 H   0  0  0  0  0  0  0  0  0  0  0  0
  151.4942  134.0526  154.5126 H   0  0  0  0  0  0  0  0  0  0  0  0
  150.2756  134.8218  153.5505 H   0  0  0  0  0  0  0  0  0  0  0  0
  149.8363  136.4681  155.4410 H   0  0  0  0  0  0  0  0  0  0  0  0
  151.1332  135.7032  156.3464 H   0  0  0  0  0  0  0  0  0  0  0  0
  152.3408  138.6268  154.3076 H   0  0  0  0  0  0  0  0  0  0  0  0
  151.6477  138.3448  155.9057 H   0  0  0  0  0  0  0  0  0  0  0  0
  150.5988  138.4134  154.4771 H   0  0  0  0  0  0  0  0  0  0  0  0
  1  2  1  0  0  0  0
  1 25  1  0  0  0  0
  1 26  1  0  0  0  0
  1 27  1  0  0  0  0
  2  3  1  0  0  0  0
  2 28  1  0  0  0  0
  2 29  1  0  0  0  0
  3  4  1  0  0  0  0
  3 30  1  0  0  0  0
  3 31  1  0  0  0  0
  4 22  1  0  0  0  0
  4  5  1  0  0  0  0
  5  6  1  0  0  0  0
  5  7  2  0  0  0  0
  6 32  1  0  0  0  0
  6 33  1  0  0  0  0
  7  8  1  0  0  0  0
  7 19  1  0  0  0  0
  8  9  1  0  0  0  0
  8 13  1  0  0  0  0
  9 10  1  0  0  0  0
  9 34  1  0  0  0  0
  9 35  1  0  0  0  0
 10 11  1  0  0  0  0
 10 36  1  0  0  0  0
 10 37  1  0  0  0  0
 11 12  1  0  0  0  0
 12 38  1  0  0  0  0
 12 39  1  0  0  0  0
 12 40  1  0  0  0  0
 13 14  2  0  0  0  0
 13 15  1  0  0  0  0
 15 16  1  0  0  0  0
 15 17  1  0  0  0  0
 15 18  1  0  0  0  0
 19 20  2  0  0  0  0
 19 21  1  0  0  0  0
 21 24  1  0  0  0  0
 21 22  1  0  0  0  0
 22 23  2  0  0  0  0
M  END
> <s_m_source_file>
AV-unprocessed.smi

> <i_m_source_file_index>
2969

> <i_lp_mmshare_version>
43012

> <i_f3d_flags>
0

> <s_epik_input>
W0NIM11bQ0gyXVtDSDJdbjFjKFtOSDJdKWMoYyg9TylbbkhdYzE9TylOKEMoPU8pQyhGKShGKUYpW0NIMl1bQ0gyXU9bQ0gzXQ==

> <s_epik_cmdline>
J2VwaWtfcHl0aG9uJywgJy1waCcsICc3LjAnLCAnLXRuJywgJzgnLCAnLW1hJywgJzIwMCcsICctbWV0YWxfYmluZGluZycsICctaW1hZScsICc8aW5maWxlLm1hZT4nLCAnLW9tYWUnLCAnPG91dGZpbGUubWFlPic=

> <r_lp_tautomer_probability>
1

> <r_epik_Ionization_Penalty>
0.000513649

> <r_epik_Ionization_Penalty_Charging>
0.000443136

> <r_epik_Ionization_Penalty_Neutral>
7.05129e-05

> <r_epik_State_Penalty>
-0

> <r_epik_Charging_Adjusted_Penalty>
0.000443136

> <i_epik_Tot_Q>
0

> <i_epik_Tot_abs_Q>
0

> <r_epik_Metal_State_Penalty>
0.330936

> <b_epik_Metal_Only>
0

> <s_epik_Chemistry_Notes>
This compound has an imine and may undergo hydrolysis.

> <s_lp_Force_Field>
OPLS_2005

> <r_lp_Energy>
31.7287

> <b_lp_Chiralities_Consistent>
1

> <s_lp_Variant>
AV-unprocessed.smi:2969-1

> <Gold.Version>
5.8.1

> <Gold.Id.Protein>
6NUR|6NUR_protein|mol2

> <Gold.PLP.Fitness>
33.1230

> <Gold.PLP.PLP>
-27.1362

> <Gold.PLP.part.hbond>
-2.6869

> <Gold.PLP.part.metal>
0.0000

> <Gold.PLP.part.buried>
-3.7086

> <Gold.PLP.part.nonpolar>
-21.6340

> <Gold.PLP.part.repulsive>
0.2737

> <Gold.PLP.ligand.clash>
1.9224

> <Gold.PLP.ligand.torsion>
1.9185

> <Gold.PLP.Chemscore.Hbond>
2.2256

> <Gold.PLP.Chemscore.CHOScore>
0.0000

> <Gold.PLP.Chemscore.Metal>
0.0000

> <Gold.Chemscore.Hbonds>
donor molecule, donor type, donor heavy atom, donor atom, acceptor molecule, acceptor atom, score
      L1  H     6    32       P1 10747  1.00
      P1  H  6896  6907       L1    14  0.29
      P1  H 10752 10764       L1    11  1.00

> <Gold.PLP.Chemscore.Internal.Correction>
5.0693

> <Gold.Rescore>
     Score         DG    S(hbond)    S(metal)    S(lipo)     H(rot)  DE(clash)    DE(int)     intcor
      6.93     -13.17       2.20        0.00      52.46       2.27       0.02       6.22       ----

> <Gold.Chemscore.Fitness>
6.9297

> <Gold.Chemscore.DG>
-13.1742

> <Gold.Chemscore.ZeroCoef>
-5.4800

> <Gold.Chemscore.Hbond>
2.2026

> <Gold.Chemscore.Metal>
0.0000

> <Gold.Chemscore.Lipo>
52.4608

> <Gold.Chemscore.Internal_Hbond>
0.0000

> <Gold.Chemscore.DEClash>
0.0240

> <Gold.Chemscore.DEInternal>
6.2206

> <Gold.Chemscore.Rot>
2.2658

> <Gold.Chemscore.Internal.Correction>
   9.000000E+99

> <Gold.Chemscore.Hbonds>
donor molecule, donor type, donor heavy atom, donor atom, acceptor molecule, acceptor atom, score
      L1  H     6    32       P1 10747  0.77
      P1  H  6896  6907       L1    14  0.28
      P1  H 10752 10764       L1    11  0.39

> <Gold.Chemscore.Hbond.Weighted>
-7.3568

> <Gold.Chemscore.Metal.Weighted>
-0.0000

> <Gold.Chemscore.Lipo.Weighted>
-6.1379

> <Gold.Chemscore.Internal_Hbond.Weighted>
0.0000

> <Gold.Chemscore.DEClash.Weighted>
0.0240

> <Gold.Chemscore.DEInternal.Weighted>
6.2206

> <Gold.Chemscore.Rot.Weighted>
5.8005

> <Gold.Chemscore.Internal.Correction.Weighted>
   9.000000E+99

> <Gold.Protein.RotatedTorsions>
[ 6907 6896 6895 6894 ] final -138.12 input  -60.11 | X-H torsion
[ 7974 7965 7964 7962 ] final  154.95 input  175.53 | X-H torsion
[ 8008 7997 7996 7995 ] final   99.51 input   59.86 | X-H torsion
[ 10167 10162 10161 10158 ] final -142.18 input  -65.29 | X-H torsion
[ 10718 10713 10712 10709 ] final -106.01 input   66.30 | X-H torsion
[ 10763 10752 10751 10750 ] final  -71.40 input  -60.55 | X-H torsion
[ 11005 11000 10999 10996 ] final   43.05 input  -57.11 | X-H torsion

> <Gold.Protein.ActiveResidues>
 VAL166  LYS551  ARG553  GLY616  TRP617  ASP618  TYR619  PRO620  LYS621  CYS622 
 ASP623  PHE694  ASN695  SER759  ASP760  ASP761  ALA762  ILE779  LEU786  VAL792 
 PHE793  MET794  SER795  GLU796  ALA797  LYS798  CYS799  TRP800  GLU811  SER814 

> <Gold.Protein.RotatedAtoms>
  151.0311  133.5790  159.2660 H   0  0  0  0  0  0  0  0  0  0  0  0  # atno 6907 bound_to 6896
  151.2871  135.0730  159.9200 H   0  0  0  0  0  0  0  0  0  0  0  0  # atno 6908 bound_to 6896
  152.5345  134.0015  159.7951 H   0  0  0  0  0  0  0  0  0  0  0  0  # atno 6909 bound_to 6896
  144.8056  139.7002  143.6163 H   0  0  0  0  0  0  0  0  0  0  0  0  # atno 7974 bound_to 7965
  156.1112  140.3227  155.8075 H   0  0  0  0  0  0  0  0  0  0  0  0  # atno 8008 bound_to 7997
  155.4670  140.0543  157.3001 H   0  0  0  0  0  0  0  0  0  0  0  0  # atno 8009 bound_to 7997
  154.4761  140.2033  155.9889 H   0  0  0  0  0  0  0  0  0  0  0  0  # atno 8010 bound_to 7997
  139.8113  143.7699  152.2663 H   0  0  0  0  0  0  0  0  0  0  0  0  # atno 10167 bound_to 10162
  156.0371  130.5591  150.7620 H   0  0  0  0  0  0  0  0  0  0  0  0  # atno 10718 bound_to 10713
  154.4313  135.5963  153.6070 H   0  0  0  0  0  0  0  0  0  0  0  0  # atno 10763 bound_to 10752
  152.9799  135.5976  154.3836 H   0  0  0  0  0  0  0  0  0  0  0  0  # atno 10764 bound_to 10752
  154.3674  135.2841  155.2264 H   0  0  0  0  0  0  0  0  0  0  0  0  # atno 10765 bound_to 10752
  140.1681  134.4256  155.8274 H   0  0  0  0  0  0  0  0  0  0  0  0  # atno 11005 bound_to 11000
  146.2346  139.5880  142.9532 LP  0  0  0  0  0  0  0  0  0  0  0  0  # atno 17320 bound_to 7965
  145.5447  141.0418  143.2311 LP  0  0  0  0  0  0  0  0  0  0  0  0  # atno 17321 bound_to 7965
  139.7848  144.7431  151.0037 LP  0  0  0  0  0  0  0  0  0  0  0  0  # atno 17342 bound_to 10162
  140.7817  143.4503  151.0422 LP  0  0  0  0  0  0  0  0  0  0  0  0  # atno 17343 bound_to 10162
  157.5136  131.0927  151.0167 LP  0  0  0  0  0  0  0  0  0  0  0  0  # atno 17370 bound_to 10713
  157.0515  130.5789  149.5371 LP  0  0  0  0  0  0  0  0  0  0  0  0  # atno 17371 bound_to 10713
  141.2215  133.6943  156.7714 LP  0  0  0  0  0  0  0  0  0  0  0  0  # atno 17394 bound_to 11000
  140.2410  134.8614  157.3573 LP  0  0  0  0  0  0  0  0  0  0  0  0  # atno 17395 bound_to 11000

$$$$
