AV-unprocessed.smi:72|AV-procd|sdf|724|dock4
  -GOLD-   2262017 53D 1   1.00000     0.00000
 Structure written by MMmdl.
 28 29  0  0  0  0  0  0  0  0  2 V2000
  153.6605  137.3666  156.1484 N   0  0  0  0  0  0  0  0  0  0  0  0
  152.7113  138.0359  155.6589 C   0  0  0  0  0  0  0  0  0  0  0  0
  151.8762  137.4649  154.6255 N   0  0  0  0  0  0  0  0  0  0  0  0
  150.8917  138.1818  154.1781 C   0  0  0  0  0  0  0  0  0  0  0  0
  150.6077  139.5150  154.6997 N   0  0  0  0  0  0  0  0  0  0  0  0
  149.4565  140.3697  154.1882 C   0  0  1  0  0  0  0  0  0  0  0  0
  148.7973  139.7109  153.1440 O   0  0  0  0  0  0  0  0  0  0  0  0
  147.6355  139.0544  153.6431 C   0  0  2  0  0  0  0  0  0  0  0  0
  146.6687  138.6904  152.5031 C   0  0  0  0  0  0  0  0  0  0  0  0
  147.3568  137.9730  151.5010 O   0  0  0  0  0  0  0  0  0  0  0  0
  147.1129  140.0702  154.6630 C   0  0  2  0  0  0  0  0  0  0  0  0
  146.3708  141.0901  154.0136 O   0  0  0  0  0  0  0  0  0  0  0  0
  148.4027  140.5925  155.2960 C   0  0  2  0  0  0  0  0  0  0  0  0
  148.2956  141.9426  155.7078 O   0  0  0  0  0  0  0  0  0  0  0  0
  151.4776  140.0661  155.6795 C   0  0  0  0  0  0  0  0  0  0  0  0
  151.2581  141.2127  156.0712 O   0  0  0  0  0  0  0  0  0  0  0  0
  152.5116  139.3095  156.1418 N   0  5  0  0  0  0  0  0  0  0  0  0
  149.9207  141.2819  153.8091 H   0  0  0  0  0  0  0  0  0  0  0  0
  147.9294  138.1529  154.1842 H   0  0  0  0  0  0  0  0  0  0  0  0
  146.4655  139.6015  155.4049 H   0  0  0  0  0  0  0  0  0  0  0  0
  148.6506  139.9744  156.1606 H   0  0  0  0  0  0  0  0  0  0  0  0
  154.1643  137.8793  156.8573 H   0  0  0  0  0  0  0  0  0  0  0  0
  150.2275  137.8266  153.3905 H   0  0  0  0  0  0  0  0  0  0  0  0
  145.8717  138.0473  152.8772 H   0  0  0  0  0  0  0  0  0  0  0  0
  146.2001  139.5779  152.0769 H   0  0  0  0  0  0  0  0  0  0  0  0
  147.8190  137.2581  151.9118 H   0  0  0  0  0  0  0  0  0  0  0  0
  145.5751  140.7056  153.6778 H   0  0  0  0  0  0  0  0  0  0  0  0
  148.6557  142.4880  155.0241 H   0  0  0  0  0  0  0  0  0  0  0  0
  1  2  2  0  0  0  0
  1 22  1  0  0  0  0
  2 17  1  0  0  0  0
  2  3  1  0  0  0  0
  3  4  2  0  0  0  0
  4  5  1  0  0  0  0
  4 23  1  0  0  0  0
  5  6  1  0  0  0  0
  5 15  1  0  0  0  0
  6 18  1  0  0  0  0
  6 13  1  0  0  0  0
  6  7  1  0  0  0  0
  7  8  1  0  0  0  0
  8 19  1  0  0  0  0
  8  9  1  0  0  0  0
  8 11  1  0  0  0  0
  9 10  1  0  0  0  0
  9 24  1  0  0  0  0
  9 25  1  0  0  0  0
 10 26  1  0  0  0  0
 11 20  1  0  0  0  0
 11 12  1  0  0  0  0
 11 13  1  0  0  0  0
 12 27  1  0  0  0  0
 13 21  1  0  0  0  0
 13 14  1  0  0  0  0
 14 28  1  0  0  0  0
 15 16  2  0  0  0  0
 15 17  1  0  0  0  0
M  CHG  1  17  -1
M  END
> <s_m_source_file>
AV-unprocessed.smi

> <i_m_source_file_index>
72

> <i_lp_mmshare_version>
43012

> <i_f3d_flags>
0

> <s_epik_input>
W05IMl1jMW5bY0hdbihjKD1PKW4xKVtDQEBIXTJPW0NASF0oW0NIMl1bT0hdKVtDQEBIXShbT0hdKVtDQEhdMltPSF0=

> <s_epik_cmdline>
J2VwaWtfcHl0aG9uJywgJy1waCcsICc3LjAnLCAnLXRuJywgJzgnLCAnLW1hJywgJzIwMCcsICctbWV0YWxfYmluZGluZycsICctaW1hZScsICc8aW5maWxlLm1hZT4nLCAnLW9tYWUnLCAnPG91dGZpbGUubWFlPic=

> <r_lp_tautomer_probability>
7.17554e-07

> <r_epik_Ionization_Penalty>
12.8705

> <r_epik_Ionization_Penalty_Charging>
5.64144

> <r_epik_Ionization_Penalty_Neutral>
7.22905

> <r_epik_State_Penalty>
3.30104

> <r_epik_Charging_Adjusted_Penalty>
8.94249

> <i_epik_Tot_Q>
-1

> <i_epik_Tot_abs_Q>
1

> <r_epik_Metal_State_Penalty>
0.529074

> <b_epik_Metal_Only>
1

> <s_epik_Chemistry_Notes>
This compound contains an acetal/aminal-like group ( X-CH(R)-Y where X, Y are N, S, or O) that may be acid/base labile, releasing an aldehyde.

> <s_lp_Force_Field>
OPLS_2005

> <r_lp_Energy>
35.695

> <b_lp_Chiralities_Consistent>
1

> <s_lp_Variant>
AV-unprocessed.smi:72-62

> <Gold.Version>
5.8.1

> <Gold.Id.Protein>
6NUR|6NUR_protein|mol2

> <Gold.PLP.Fitness>
41.2177

> <Gold.PLP.PLP>
-23.1272

> <Gold.PLP.part.hbond>
-7.1763

> <Gold.PLP.part.metal>
0.0000

> <Gold.PLP.part.buried>
-2.8689

> <Gold.PLP.part.nonpolar>
-19.3763

> <Gold.PLP.part.repulsive>
6.2073

> <Gold.PLP.ligand.clash>
0.0000

> <Gold.PLP.ligand.torsion>
0.1175

> <Gold.PLP.Chemscore.Hbond>
5.0262

> <Gold.PLP.Chemscore.CHOScore>
1.0749

> <Gold.PLP.Chemscore.Metal>
0.0000

> <Gold.Chemscore.Hbonds>
donor molecule, donor type, donor heavy atom, donor atom, acceptor molecule, acceptor atom, score
      L1  H    10    26       P1  7948  0.89
      L1  H    12    27       P1 10175  0.46
      L1  H    14    28       P1  8028  0.08
      P1  H  7954  7966       L1    10  0.85
      P1  H  7997  8009       L1    17  2.00
      P1  H 10752 10763       L1     3  0.63
      P1  H 10752 10764       L1     1  0.15
      L1  C     4    23       P1  7948  1.00
      L1  C     4    23       P1  7949  0.08

> <Gold.PLP.Chemscore.Internal.Correction>
0.0219

> <Gold.Rescore>
     Score         DG    S(hbond)    S(metal)    S(lipo)     H(rot)  DE(clash)    DE(int)     intcor
      4.80      -7.74       2.98        0.00      22.67       4.04       2.63       0.31       ----

> <Gold.Chemscore.Fitness>
4.8020

> <Gold.Chemscore.DG>
-7.7410

> <Gold.Chemscore.ZeroCoef>
-5.4800

> <Gold.Chemscore.Hbond>
2.9796

> <Gold.Chemscore.Metal>
0.0000

> <Gold.Chemscore.Lipo>
22.6670

> <Gold.Chemscore.Internal_Hbond>
0.0000

> <Gold.Chemscore.DEClash>
2.6267

> <Gold.Chemscore.DEInternal>
0.3122

> <Gold.Chemscore.Rot>
4.0403

> <Gold.Chemscore.Internal.Correction>
   9.000000E+99

> <Gold.Chemscore.Hbonds>
donor molecule, donor type, donor heavy atom, donor atom, acceptor molecule, acceptor atom, score
      L1  H    10    26       P1  7948  0.82
      L1  H    12    27       P1 10175  0.42
      L1  H    14    28       P1  8028  0.08
      P1  H  7954  7966       L1    10  0.15
      P1  H  7997  8009       L1    17  0.52
      P1  H 10752 10763       L1     3  0.16
      P1  H 10752 10764       L1     1  0.14

> <Gold.Chemscore.Hbond.Weighted>
-9.9520

> <Gold.Chemscore.Metal.Weighted>
-0.0000

> <Gold.Chemscore.Lipo.Weighted>
-2.6520

> <Gold.Chemscore.Internal_Hbond.Weighted>
0.0000

> <Gold.Chemscore.DEClash.Weighted>
2.6267

> <Gold.Chemscore.DEInternal.Weighted>
0.3122

> <Gold.Chemscore.Rot.Weighted>
10.3431

> <Gold.Chemscore.Internal.Correction.Weighted>
   9.000000E+99

> <Gold.Protein.RotatedTorsions>
[ 6907 6896 6895 6894 ] final  -11.41 input  -60.11 | X-H torsion
[ 7974 7965 7964 7962 ] final   79.73 input  175.53 | X-H torsion
[ 8008 7997 7996 7995 ] final -164.17 input   59.86 | X-H torsion
[ 10167 10162 10161 10158 ] final  138.74 input  -65.29 | X-H torsion
[ 10718 10713 10712 10709 ] final -100.30 input   66.30 | X-H torsion
[ 10763 10752 10751 10750 ] final   33.88 input  -60.55 | X-H torsion
[ 11005 11000 10999 10996 ] final   81.68 input  -57.11 | X-H torsion

> <Gold.Protein.ActiveResidues>
 VAL166  LYS551  ARG553  GLY616  TRP617  ASP618  TYR619  PRO620  LYS621  CYS622 
 ASP623  PHE694  ASN695  SER759  ASP760  ASP761  ALA762  ILE779  LEU786  VAL792 
 PHE793  MET794  SER795  GLU796  ALA797  LYS798  CYS799  TRP800  GLU811  SER814 

> <Gold.Protein.RotatedAtoms>
  151.3866  135.0949  159.9512 H   0  0  0  0  0  0  0  0  0  0  0  0  # atno 6907 bound_to 6896
  152.5092  133.9020  159.7456 H   0  0  0  0  0  0  0  0  0  0  0  0  # atno 6908 bound_to 6896
  150.9465  133.6542  159.2809 H   0  0  0  0  0  0  0  0  0  0  0  0  # atno 6909 bound_to 6896
  145.6605  139.2470  143.1925 H   0  0  0  0  0  0  0  0  0  0  0  0  # atno 7974 bound_to 7965
  155.8317  140.0935  157.1788 H   0  0  0  0  0  0  0  0  0  0  0  0  # atno 8008 bound_to 7997
  154.3980  140.1417  156.3683 H   0  0  0  0  0  0  0  0  0  0  0  0  # atno 8009 bound_to 7997
  155.8158  140.3448  155.5487 H   0  0  0  0  0  0  0  0  0  0  0  0  # atno 8010 bound_to 7997
  139.5101  144.6335  151.5756 H   0  0  0  0  0  0  0  0  0  0  0  0  # atno 10167 bound_to 10162
  156.0159  130.5321  150.6797 H   0  0  0  0  0  0  0  0  0  0  0  0  # atno 10718 bound_to 10713
  153.0191  135.6375  154.1580 H   0  0  0  0  0  0  0  0  0  0  0  0  # atno 10763 bound_to 10752
  154.1317  135.2840  155.3185 H   0  0  0  0  0  0  0  0  0  0  0  0  # atno 10764 bound_to 10752
  154.6190  135.5531  153.7616 H   0  0  0  0  0  0  0  0  0  0  0  0  # atno 10765 bound_to 10752
  139.9090  134.8015  156.2073 H   0  0  0  0  0  0  0  0  0  0  0  0  # atno 11005 bound_to 11000
  146.1129  140.7405  142.9494 LP  0  0  0  0  0  0  0  0  0  0  0  0  # atno 17320 bound_to 7965
  144.7091  140.3968  143.7095 LP  0  0  0  0  0  0  0  0  0  0  0  0  # atno 17321 bound_to 7965
  140.6076  143.9495  150.6430 LP  0  0  0  0  0  0  0  0  0  0  0  0  # atno 17342 bound_to 10162
  140.2727  143.3445  152.1223 LP  0  0  0  0  0  0  0  0  0  0  0  0  # atno 17343 bound_to 10162
  157.4502  131.0871  151.0854 LP  0  0  0  0  0  0  0  0  0  0  0  0  # atno 17370 bound_to 10713
  157.1372  130.6127  149.5545 LP  0  0  0  0  0  0  0  0  0  0  0  0  # atno 17371 bound_to 10713
  141.0487  133.6900  156.1732 LP  0  0  0  0  0  0  0  0  0  0  0  0  # atno 17394 bound_to 11000
  140.6844  134.4733  157.5589 LP  0  0  0  0  0  0  0  0  0  0  0  0  # atno 17395 bound_to 11000

$$$$
