#       Name:                AV-unprocessed.smi:1398
#       Creating user name   scv26
#       Creation time:       Fri Mar 27 05:30:31 2020


#       File generated by GOLD software.
#

@<TRIPOS>MOLECULE
AV-unprocessed.smi:1398
    48    49     1
SMALL
NO_CHARGES


@<TRIPOS>ATOM
      1 ****        -4.0698  -3.8782   1.9816 C.3            1 S1                 0.0000
      2 ****        -3.4171  -2.6158   1.9022 O.3            1 S1                 0.0000
      3 ****        -4.1663  -1.5061   1.5604 C.ar           1 S1                 0.0000
      4 ****        -5.4922  -1.6702   1.3239 N.ar           1 S1                 0.0000
      5 ****        -6.2249  -0.5869   0.9937 C.ar           1 S1                 0.0000
      6 ****        -5.6831   0.7073   0.8890 C.ar           1 S1                 0.0000
      7 ****        -4.3082   0.8800   1.1328 C.ar           1 S1                 0.0000
      8 ****        -3.5230  -0.2501   1.4651 C.ar           1 S1                 0.0000
      9 ****        -2.1317  -0.1812   1.7491 N.am           1 S1                 0.0000
     10 ****        -1.2350   0.7161   1.3066 C.2            1 S1                 0.0000
     11 ****        -1.4829   1.6596   0.5557 O.2            1 S1                 0.0000
     12 ****        -0.0076   0.4407   1.7690 N.am           1 S1                 0.0000
     13 ****         1.1995   1.1911   1.4427 C.3            1 S1                 0.0000
     14 ****         1.7560   0.7850   0.0629 C.3            1 S1                 0.0000
     15 ****         3.1093   1.4320  -0.2750 C.2            1 S1                 0.0000
     16 ****         3.5905   2.2790   0.4790 O.2            1 S1                 0.0000
     17 ****         3.7371   1.0391  -1.4028 N.am           1 S1                 0.0000
     18 ****         3.2308   0.0616  -2.3662 C.3            1 S1                 0.0000
     19 ****         4.1765   0.1337  -3.5658 C.3            1 S1                 0.0000
     20 ****         5.4816   0.6570  -2.9824 C.3            1 S1                 0.0000
     21 ****         5.0412   1.5494  -1.8217 C.3            1 S1                 0.0000
     22 ****        -3.3433  -4.6422   2.2579 H              1 S1                 0.0000
     23 ****        -4.5023  -4.1655   1.0222 H              1 S1                 0.0000
     24 ****        -4.8522  -3.8759   2.7417 H              1 S1                 0.0000
     25 ****        -7.2762  -0.7562   0.8141 H              1 S1                 0.0000
     26 ****        -6.3091   1.5491   0.6329 H              1 S1                 0.0000
     27 ****        -3.8873   1.8720   1.0756 H              1 S1                 0.0000
     28 ****        -1.7621  -0.9537   2.2840 H              1 S1                 0.0000
     29 ****         0.1031  -0.3555   2.3798 H              1 S1                 0.0000
     30 ****         0.9953   2.2628   1.4791 H              1 S1                 0.0000
     31 ****         1.9344   0.9863   2.2223 H              1 S1                 0.0000
     32 ****         1.8723  -0.2990   0.0317 H              1 S1                 0.0000
     33 ****         1.0393   1.0515  -0.7146 H              1 S1                 0.0000
     34 ****         3.2615  -0.9321  -1.9173 H              1 S1                 0.0000
     35 ****         2.2033   0.2701  -2.6670 H              1 S1                 0.0000
     36 ****         4.2931  -0.8258  -4.0706 H              1 S1                 0.0000
     37 ****         3.7902   0.8489  -4.2933 H              1 S1                 0.0000
     38 ****         6.0698  -0.1778  -2.5988 H              1 S1                 0.0000
     39 ****         6.0910   1.1861  -3.7155 H              1 S1                 0.0000
     40 ****         4.9279   2.5827  -2.1533 H              1 S1                 0.0000
     41 ****         5.7703   1.5313  -1.0099 H              1 S1                 0.0000
     42 ****        -2.6897  -2.7019   1.2214 LP             1 S1                 0.0000
     43 ****        -3.0142  -2.4349   2.7994 LP             1 S1                 0.0000
     44 ****        -5.9163  -2.5732   1.3928 LP             1 S1                 0.0000
     45 ****        -2.4158   1.8044   0.2258 LP             1 S1                 0.0000
     46 ****        -0.7514   2.2812   0.2756 LP             1 S1                 0.0000
     47 ****         3.1011   2.5449   1.3095 LP             1 S1                 0.0000
     48 ****         4.4706   2.7007   0.2605 LP             1 S1                 0.0000
@<TRIPOS>BOND
    1    1    2 1     
    2    1   22 1     
    3    1   23 1     
    4    1   24 1     
    5    2    3 1     
    6    3    8 ar    
    7    3    4 ar    
    8    4    5 ar    
    9    5    6 ar    
   10    5   25 1     
   11    6    7 ar    
   12    6   26 1     
   13    7    8 ar    
   14    7   27 1     
   15    8    9 1     
   16    9   10 am    
   17    9   28 1     
   18   10   11 2     
   19   10   12 am    
   20   12   13 1     
   21   12   29 1     
   22   13   14 1     
   23   13   30 1     
   24   13   31 1     
   25   14   15 1     
   26   14   32 1     
   27   14   33 1     
   28   15   16 2     
   29   15   17 am    
   30   17   21 1     
   31   17   18 1     
   32   18   19 1     
   33   18   34 1     
   34   18   35 1     
   35   19   20 1     
   36   19   36 1     
   37   19   37 1     
   38   20   21 1     
   39   20   38 1     
   40   20   39 1     
   41   21   40 1     
   42   21   41 1     
   43    2   42 1     
   44    2   43 1     
   45    4   44 1     
   46   11   45 1     
   47   11   46 1     
   48   16   47 1     
   49   16   48 1     
@<TRIPOS>SUBSTRUCTURE
      1 S1             1
@<TRIPOS>SET
LONE_PAIRS      STATIC     ATOMS    <user>   **** ""
7 42 43 44 45 46 47 48
DONOR_HYDROGENS      STATIC     ATOMS    <user>   **** ""
2 28 29
ATOM$BLUE        STATIC     ATOMS    COLORGROUP SYSTEM
7 42 43 44 45 46 47 48
ATOM$RED        STATIC     ATOMS    COLORGROUP SYSTEM
2 28 29
