#       Name:                AV-unprocessed.smi:1558
#       Creating user name   scv26
#       Creation time:       Fri Mar 27 06:46:27 2020


#       File generated by GOLD software.
#

@<TRIPOS>MOLECULE
AV-unprocessed.smi:1558
    43    44     1
SMALL
NO_CHARGES


@<TRIPOS>ATOM
      1 ****        -5.0357  -0.9171  -1.2743 N.am           1 S1                 0.0000
      2 ****        -5.4495   0.0521  -0.4534 C.2            1 S1                 0.0000
      3 ****        -6.0662   1.0358  -0.8563 O.2            1 S1                 0.0000
      4 ****        -5.1246  -0.1053   1.0332 C.3            1 S1                 0.0000
      5 ****        -3.8542   0.5169   1.3614 N.pl3          1 S1                 0.0000
      6 ****        -2.5818   0.0243   1.1449 C.2            1 S1                 0.0000
      7 ****        -1.7285   0.9773   1.6245 C.2            1 S1                 0.0000
      8 ****        -0.3109   0.9830   1.6517 N.am           1 S1                 0.0000
      9 ****         0.5170   0.0457   1.1623 C.2            1 S1                 0.0000
     10 ****         0.1595  -0.9901   0.6006 O.2            1 S1                 0.0000
     11 ****         1.8002   0.3799   1.3588 N.am           1 S1                 0.0000
     12 ****         2.9482  -0.4046   0.9181 C.3            1 S1                 0.0000
     13 ****         3.4263   0.0347  -0.4753 C.3            1 S1                 0.0000
     14 ****         4.6967  -0.6736  -0.9391 C.3            1 S1                 0.0000
     15 ****         4.6126  -0.4935  -2.4378 C.3            1 S1                 0.0000
     16 ****         3.1140  -0.6371  -2.6951 C.3            1 S1                 0.0000
     17 ****         2.4637  -0.2859  -1.4758 O.3            1 S1                 0.0000
     18 ****        -2.5530   2.0195   2.1223 C.2            1 S1                 0.0000
     19 ****        -3.8361   1.7345   1.9597 N.2            1 S1                 0.0000
     20 ****        -5.2275  -0.8503  -2.2634 H              1 S1                 0.0000
     21 ****        -4.5315  -1.7106  -0.9064 H              1 S1                 0.0000
     22 ****        -5.9174   0.3436   1.6340 H              1 S1                 0.0000
     23 ****        -5.0782  -1.1611   1.3033 H              1 S1                 0.0000
     24 ****        -2.4106  -0.9348   0.6791 H              1 S1                 0.0000
     25 ****         0.1178   1.7897   2.0811 H              1 S1                 0.0000
     26 ****         1.9988   1.2495   1.8312 H              1 S1                 0.0000
     27 ****         3.7484  -0.2519   1.6425 H              1 S1                 0.0000
     28 ****         2.7218  -1.4721   0.9306 H              1 S1                 0.0000
     29 ****         3.5917   1.1132  -0.4962 H              1 S1                 0.0000
     30 ****         5.6032  -0.2491  -0.5070 H              1 S1                 0.0000
     31 ****         4.6605  -1.7348  -0.6877 H              1 S1                 0.0000
     32 ****         4.9458   0.5086  -2.7108 H              1 S1                 0.0000
     33 ****         5.2120  -1.2156  -2.9927 H              1 S1                 0.0000
     34 ****         2.7783  -0.0056  -3.5178 H              1 S1                 0.0000
     35 ****         2.8612  -1.6701  -2.9362 H              1 S1                 0.0000
     36 ****        -2.2706   2.9535   2.5852 H              1 S1                 0.0000
     37 ****        -6.2747   1.1311  -1.8297 LP             1 S1                 0.0000
     38 ****        -6.3596   1.7410  -0.2107 LP             1 S1                 0.0000
     39 ****        -0.8143  -1.1834   0.4809 LP             1 S1                 0.0000
     40 ****         0.8429  -1.6379   0.2642 LP             1 S1                 0.0000
     41 ****         1.8747   0.5069  -1.6327 LP             1 S1                 0.0000
     42 ****         1.9086  -1.0571  -1.1642 LP             1 S1                 0.0000
     43 ****        -4.6216   2.2954   2.2213 LP             1 S1                 0.0000
@<TRIPOS>BOND
    1    1    2 am    
    2    1   20 1     
    3    1   21 1     
    4    2    3 2     
    5    2    4 1     
    6    4    5 1     
    7    4   22 1     
    8    4   23 1     
    9    5   19 1     
   10    5    6 1     
   11    6    7 2     
   12    6   24 1     
   13    7    8 1     
   14    7   18 1     
   15    8    9 am    
   16    8   25 1     
   17    9   10 2     
   18    9   11 am    
   19   11   12 1     
   20   11   26 1     
   21   12   13 1     
   22   12   27 1     
   23   12   28 1     
   24   13   17 1     
   25   13   14 1     
   26   13   29 1     
   27   14   15 1     
   28   14   30 1     
   29   14   31 1     
   30   15   16 1     
   31   15   32 1     
   32   15   33 1     
   33   16   17 1     
   34   16   34 1     
   35   16   35 1     
   36   18   19 2     
   37   18   36 1     
   38    3   37 1     
   39    3   38 1     
   40   10   39 1     
   41   10   40 1     
   42   17   41 1     
   43   17   42 1     
   44   19   43 1     
@<TRIPOS>SUBSTRUCTURE
      1 S1             1
@<TRIPOS>SET
LONE_PAIRS      STATIC     ATOMS    <user>   **** ""
7 37 38 39 40 41 42 43
DONOR_HYDROGENS      STATIC     ATOMS    <user>   **** ""
4 20 21 25 26
ATOM$BLUE        STATIC     ATOMS    COLORGROUP SYSTEM
7 37 38 39 40 41 42 43
ATOM$RED        STATIC     ATOMS    COLORGROUP SYSTEM
4 20 21 25 26
