#       Name:                AV-unprocessed.smi:2106
#       Creating user name   scv26
#       Creation time:       Fri Mar 27 11:33:37 2020


#       File generated by GOLD software.
#

@<TRIPOS>MOLECULE
AV-unprocessed.smi:2106
    53    54     1
SMALL
NO_CHARGES


@<TRIPOS>ATOM
      1 ****        -3.2772  -1.9387  -1.8535 C.3            1 S1                 0.0000
      2 ****        -2.6238  -0.5921  -1.9654 C.2            1 S1                 0.0000
      3 ****        -1.6243  -0.1770  -2.8884 C.2            1 S1                 0.0000
      4 ****        -1.3783   1.1261  -2.5587 C.2            1 S1                 0.0000
      5 ****        -0.4282   2.1051  -3.1664 C.3            1 S1                 0.0000
      6 ****        -2.2032   1.4328  -1.4899 N.pl3          1 S1                 0.0000
      7 ****        -2.3229   2.6765  -0.7418 C.3            1 S1                 0.0000
      8 ****        -1.4694   2.6363   0.5273 C.2            1 S1                 0.0000
      9 ****        -2.0014   2.4789   1.6254 O.2            1 S1                 0.0000
     10 ****        -0.1427   2.7490   0.3611 N.am           1 S1                 0.0000
     11 ****         0.8487   2.6202   1.4241 C.3            1 S1                 0.0000
     12 ****         1.0491   1.1599   1.8760 C.3            1 S1                 0.0000
     13 ****         1.3265   0.2580   0.7246 N.4            1 S1                 1.0000
     14 ****         2.6423  -0.4216   0.7838 C.3            1 S1                 0.0000
     15 ****         2.6086  -1.6206   1.7540 C.3            1 S1                 0.0000
     16 ****         3.9290  -2.3982   1.7538 C.3            1 S1                 0.0000
     17 ****         1.5703  -2.5098   1.3550 O.3            1 S1                 0.0000
     18 ****         0.2807  -1.9087   1.4057 C.3            1 S1                 0.0000
     19 ****        -0.7613  -2.9715   1.0407 C.3            1 S1                 0.0000
     20 ****         0.2436  -0.7124   0.4341 C.3            1 S1                 0.0000
     21 ****        -2.9663   0.3764  -1.1320 N.2            1 S1                 0.0000
     22 ****        -3.7508  -2.2206  -2.7940 H              1 S1                 0.0000
     23 ****        -4.0448  -1.9537  -1.0791 H              1 S1                 0.0000
     24 ****        -2.5441  -2.7070  -1.6082 H              1 S1                 0.0000
     25 ****        -1.1584  -0.7511  -3.6756 H              1 S1                 0.0000
     26 ****         0.1373   1.6448  -3.9766 H              1 S1                 0.0000
     27 ****         0.2858   2.4697  -2.4286 H              1 S1                 0.0000
     28 ****        -0.9625   2.9620  -3.5767 H              1 S1                 0.0000
     29 ****        -2.0218   3.5144  -1.3714 H              1 S1                 0.0000
     30 ****        -3.3706   2.8361  -0.4816 H              1 S1                 0.0000
     31 ****         0.2053   2.8938  -0.5758 H              1 S1                 0.0000
     32 ****         1.7917   3.0162   1.0458 H              1 S1                 0.0000
     33 ****         0.5708   3.2462   2.2737 H              1 S1                 0.0000
     34 ****         1.8642   1.1245   2.5997 H              1 S1                 0.0000
     35 ****         0.1654   0.8234   2.4197 H              1 S1                 0.0000
     36 ****         2.8881  -0.7718  -0.2197 H              1 S1                 0.0000
     37 ****         3.4223   0.2888   1.0607 H              1 S1                 0.0000
     38 ****         2.4140  -1.2752   2.7708 H              1 S1                 0.0000
     39 ****         4.7590  -1.7628   2.0634 H              1 S1                 0.0000
     40 ****         4.1580  -2.7890   0.7619 H              1 S1                 0.0000
     41 ****         3.8835  -3.2428   2.4417 H              1 S1                 0.0000
     42 ****         0.0838  -1.5717   2.4245 H              1 S1                 0.0000
     43 ****        -1.7698  -2.5576   1.0694 H              1 S1                 0.0000
     44 ****        -0.7256  -3.8088   1.7380 H              1 S1                 0.0000
     45 ****        -0.5899  -3.3650   0.0385 H              1 S1                 0.0000
     46 ****        -0.7267  -0.2193   0.4734 H              1 S1                 0.0000
     47 ****         0.3689  -1.0665  -0.5901 H              1 S1                 0.0000
     48 ****         1.3691   0.8726  -0.0756 H              1 S1                 0.0000
     49 ****        -2.9941   2.3769   1.6901 LP             1 S1                 0.0000
     50 ****        -1.4412   2.4530   2.4534 LP             1 S1                 0.0000
     51 ****         1.5773  -3.3031   1.9638 LP             1 S1                 0.0000
     52 ****         1.7474  -2.8077   0.4171 LP             1 S1                 0.0000
     53 ****        -3.6430   0.3357  -0.3968 LP             1 S1                 0.0000
@<TRIPOS>BOND
    1    1    2 1     
    2    1   22 1     
    3    1   23 1     
    4    1   24 1     
    5    2   21 2     
    6    2    3 1     
    7    3    4 2     
    8    3   25 1     
    9    4    5 1     
   10    4    6 1     
   11    5   26 1     
   12    5   27 1     
   13    5   28 1     
   14    6    7 1     
   15    6   21 1     
   16    7    8 1     
   17    7   29 1     
   18    7   30 1     
   19    8    9 2     
   20    8   10 am    
   21   10   11 1     
   22   10   31 1     
   23   11   12 1     
   24   11   32 1     
   25   11   33 1     
   26   12   13 1     
   27   12   34 1     
   28   12   35 1     
   29   13   20 1     
   30   13   14 1     
   31   13   48 1     
   32   14   15 1     
   33   14   36 1     
   34   14   37 1     
   35   15   16 1     
   36   15   17 1     
   37   15   38 1     
   38   16   39 1     
   39   16   40 1     
   40   16   41 1     
   41   17   18 1     
   42   18   19 1     
   43   18   20 1     
   44   18   42 1     
   45   19   43 1     
   46   19   44 1     
   47   19   45 1     
   48   20   46 1     
   49   20   47 1     
   50    9   49 1     
   51    9   50 1     
   52   17   51 1     
   53   17   52 1     
   54   21   53 1     
@<TRIPOS>SUBSTRUCTURE
      1 S1             1
@<TRIPOS>SET
LONE_PAIRS      STATIC     ATOMS    <user>   **** ""
5 49 50 51 52 53
DONOR_HYDROGENS      STATIC     ATOMS    <user>   **** ""
2 31 48
ATOM$BLUE        STATIC     ATOMS    COLORGROUP SYSTEM
5 49 50 51 52 53
ATOM$RED        STATIC     ATOMS    COLORGROUP SYSTEM
2 31 48
