AV-unprocessed.smi:3030|AV-procd|sdf|11533|dock8
  -GOLD-   2272016483D 1   1.00000     0.00000
 Structure written by MMmdl.
 52 53  0  0  0  0  0  0  0  0  1 V2000
  149.8337  145.1997  159.8355 C   0  0  0  0  0  0  0  0  0  0  0  0
  151.3348  145.0114  159.5893 C   0  0  0  0  0  0  0  0  0  0  0  0
  151.6313  143.6905  159.0546 N   0  0  0  0  0  0  0  0  0  0  0  0
  151.2567  143.3319  157.7636 C   0  0  0  0  0  0  0  0  0  0  0  0
  151.5338  142.1398  157.2009 C   0  0  0  0  0  0  0  0  0  0  0  0
  152.2862  141.1316  157.9747 C   0  0  0  0  0  0  0  0  0  0  0  0
  152.5462  140.0275  157.4964 O   0  0  0  0  0  0  0  0  0  0  0  0
  152.7050  141.5233  159.3463 C   0  0  0  0  0  0  0  0  0  0  0  0
  153.4136  140.5606  160.0821 N   0  0  0  0  0  0  0  0  0  0  0  0
  153.8235  140.6072  161.3623 C   0  0  0  0  0  0  0  0  0  0  0  0
  153.6887  141.5630  162.1258 O   0  0  0  0  0  0  0  0  0  0  0  0
  154.4211  139.4581  161.7096 N   0  0  0  0  0  0  0  0  0  0  0  0
  155.0115  139.1475  163.0114 C   0  0  2  0  0  0  0  0  0  0  0  0
  156.0564  140.2388  163.3287 C   0  0  0  0  0  0  0  0  0  0  0  0
  156.8284  139.9822  164.6358 C   0  0  1  0  0  0  0  0  0  0  0  0
  155.9756  140.2378  165.8913 C   0  0  0  0  0  0  0  0  0  0  0  0
  157.4542  138.5769  164.6150 C   0  0  0  0  0  0  0  0  0  0  0  0
  156.4147  137.4807  164.3335 C   0  0  0  0  0  0  0  0  0  0  0  0
  155.6481  137.7274  163.0121 C   0  0  1  0  0  0  0  0  0  0  0  0
  154.6491  136.5818  162.6661 C   0  0  0  0  0  0  0  0  0  0  0  0
  154.2673  136.5090  161.1758 C   0  0  0  0  0  0  0  0  0  0  0  0
  153.3866  136.6180  163.5447 C   0  0  0  0  0  0  0  0  0  0  0  0
  152.3535  142.7557  159.7937 C   0  0  0  0  0  0  0  0  0  0  0  0
  149.6282  146.1926  160.2355 H   0  0  0  0  0  0  0  0  0  0  0  0
  149.4570  144.4681  160.5509 H   0  0  0  0  0  0  0  0  0  0  0  0
  149.2661  145.0891  158.9110 H   0  0  0  0  0  0  0  0  0  0  0  0
  151.6951  145.7733  158.8973 H   0  0  0  0  0  0  0  0  0  0  0  0
  151.8845  145.1593  160.5195 H   0  0  0  0  0  0  0  0  0  0  0  0
  150.7071  144.0946  157.2309 H   0  0  0  0  0  0  0  0  0  0  0  0
  151.2188  141.9036  156.1950 H   0  0  0  0  0  0  0  0  0  0  0  0
  153.6610  139.7326  159.5600 H   0  0  0  0  0  0  0  0  0  0  0  0
  154.4818  138.7337  161.0088 H   0  0  0  0  0  0  0  0  0  0  0  0
  154.2459  139.1916  163.7863 H   0  0  0  0  0  0  0  0  0  0  0  0
  156.7740  140.2938  162.5084 H   0  0  0  0  0  0  0  0  0  0  0  0
  155.5748  141.2170  163.3697 H   0  0  0  0  0  0  0  0  0  0  0  0
  157.6480  140.7010  164.6737 H   0  0  0  0  0  0  0  0  0  0  0  0
  155.1185  139.5676  165.9514 H   0  0  0  0  0  0  0  0  0  0  0  0
  155.5945  141.2592  165.9024 H   0  0  0  0  0  0  0  0  0  0  0  0
  156.5658  140.0997  166.7975 H   0  0  0  0  0  0  0  0  0  0  0  0
  158.2246  138.5398  163.8436 H   0  0  0  0  0  0  0  0  0  0  0  0
  157.9623  138.3761  165.5587 H   0  0  0  0  0  0  0  0  0  0  0  0
  156.9291  136.5210  164.3012 H   0  0  0  0  0  0  0  0  0  0  0  0
  155.7185  137.4234  165.1698 H   0  0  0  0  0  0  0  0  0  0  0  0
  156.3963  137.7302  162.2173 H   0  0  0  0  0  0  0  0  0  0  0  0
  155.1346  135.6371  162.9090 H   0  0  0  0  0  0  0  0  0  0  0  0
  153.7031  137.3856  160.8589 H   0  0  0  0  0  0  0  0  0  0  0  0
  153.6443  135.6361  160.9802 H   0  0  0  0  0  0  0  0  0  0  0  0
  155.1433  136.4244  160.5342 H   0  0  0  0  0  0  0  0  0  0  0  0
  152.7563  137.4776  163.3173 H   0  0  0  0  0  0  0  0  0  0  0  0
  153.6418  136.6591  164.6037 H   0  0  0  0  0  0  0  0  0  0  0  0
  152.7810  135.7245  163.3901 H   0  0  0  0  0  0  0  0  0  0  0  0
  152.5898  143.1076  160.7857 H   0  0  0  0  0  0  0  0  0  0  0  0
  1  2  1  0  0  0  0
  1 24  1  0  0  0  0
  1 25  1  0  0  0  0
  1 26  1  0  0  0  0
  2  3  1  0  0  0  0
  2 27  1  0  0  0  0
  2 28  1  0  0  0  0
  3 23  1  0  0  0  0
  3  4  1  0  0  0  0
  4  5  2  0  0  0  0
  4 29  1  0  0  0  0
  5  6  1  0  0  0  0
  5 30  1  0  0  0  0
  6  7  2  0  0  0  0
  6  8  1  0  0  0  0
  8  9  1  0  0  0  0
  8 23  2  0  0  0  0
  9 10  1  0  0  0  0
  9 31  1  0  0  0  0
 10 11  2  0  0  0  0
 10 12  1  0  0  0  0
 12 13  1  0  0  0  0
 12 32  1  0  0  0  0
 13 19  1  0  0  0  0
 13 14  1  0  0  0  0
 13 33  1  0  0  0  0
 14 15  1  0  0  0  0
 14 34  1  0  0  0  0
 14 35  1  0  0  0  0
 15 16  1  0  0  0  0
 15 17  1  0  0  0  0
 15 36  1  0  0  0  0
 16 37  1  0  0  0  0
 16 38  1  0  0  0  0
 16 39  1  0  0  0  0
 17 18  1  0  0  0  0
 17 40  1  0  0  0  0
 17 41  1  0  0  0  0
 18 19  1  0  0  0  0
 18 42  1  0  0  0  0
 18 43  1  0  0  0  0
 19 20  1  0  0  0  0
 19 44  1  0  0  0  0
 20 21  1  0  0  0  0
 20 22  1  0  0  0  0
 20 45  1  0  0  0  0
 21 46  1  0  0  0  0
 21 47  1  0  0  0  0
 21 48  1  0  0  0  0
 22 49  1  0  0  0  0
 22 50  1  0  0  0  0
 22 51  1  0  0  0  0
 23 52  1  0  0  0  0
M  END
> <s_m_source_file>
AV-unprocessed.smi

> <i_m_source_file_index>
3030

> <i_lp_mmshare_version>
43012

> <i_f3d_flags>
0

> <s_epik_input>
W0NIM11bQ0gyXW4xW2NIXVtjSF1jKD1PKWMoW2NIXTEpW05IXUMoPU8pW05IXVtDQEBIXTJbQ0gyXVtDQEBIXShbQ0gzXSlbQ0gyXVtDSDJdW0NASF0yW0NIXShbQ0gzXSlbQ0gzXQ==

> <s_epik_cmdline>
J2VwaWtfcHl0aG9uJywgJy1waCcsICc3LjAnLCAnLXRuJywgJzgnLCAnLW1hJywgJzIwMCcsICctbWV0YWxfYmluZGluZycsICctaW1hZScsICc8aW5maWxlLm1hZT4nLCAnLW9tYWUnLCAnPG91dGZpbGUubWFlPic=

> <r_lp_tautomer_probability>
1

> <r_epik_Ionization_Penalty>
0.00147933

> <r_epik_Ionization_Penalty_Charging>
0.00145753

> <r_epik_Ionization_Penalty_Neutral>
2.17987e-05

> <r_epik_State_Penalty>
0.00097457

> <r_epik_Charging_Adjusted_Penalty>
0.0024321

> <i_epik_Tot_Q>
0

> <i_epik_Tot_abs_Q>
0

> <r_epik_Metal_State_Penalty>
-0

> <b_epik_Metal_Only>
0

> <s_lp_Force_Field>
OPLS_2005

> <r_lp_Energy>
11.9489

> <b_lp_Chiralities_Consistent>
1

> <s_lp_Variant>
AV-unprocessed.smi:3030-1

> <Gold.Version>
5.8.1

> <Gold.Id.Protein>
6NUR|6NUR_protein|mol2

> <Gold.PLP.Fitness>
44.7215

> <Gold.PLP.PLP>
-39.4634

> <Gold.PLP.part.hbond>
-1.5892

> <Gold.PLP.part.metal>
0.0000

> <Gold.PLP.part.buried>
-2.9558

> <Gold.PLP.part.nonpolar>
-33.3479

> <Gold.PLP.part.repulsive>
0.0840

> <Gold.PLP.ligand.clash>
0.0000

> <Gold.PLP.ligand.torsion>
0.3045

> <Gold.PLP.Chemscore.Hbond>
0.9913

> <Gold.PLP.Chemscore.CHOScore>
0.9426

> <Gold.PLP.Chemscore.Metal>
0.0000

> <Gold.Chemscore.Hbonds>
donor molecule, donor type, donor heavy atom, donor atom, acceptor molecule, acceptor atom, score
      P1  H  7997  8008       L1     7  0.98
      L1  C     4    29       P1  8028  1.00

> <Gold.PLP.Chemscore.Internal.Correction>
0.0656

> <Gold.Rescore>
     Score         DG    S(hbond)    S(metal)    S(lipo)     H(rot)  DE(clash)    DE(int)     intcor
     14.59     -17.43       0.92        0.00     103.55       1.27       0.03       2.81       ----

> <Gold.Chemscore.Fitness>
14.5884

> <Gold.Chemscore.DG>
-17.4253

> <Gold.Chemscore.ZeroCoef>
-5.4800

> <Gold.Chemscore.Hbond>
0.9213

> <Gold.Chemscore.Metal>
0.0000

> <Gold.Chemscore.Lipo>
103.5521

> <Gold.Chemscore.Internal_Hbond>
0.0000

> <Gold.Chemscore.DEClash>
0.0303

> <Gold.Chemscore.DEInternal>
2.8066

> <Gold.Chemscore.Rot>
1.2685

> <Gold.Chemscore.Internal.Correction>
   9.000000E+99

> <Gold.Chemscore.Hbonds>
donor molecule, donor type, donor heavy atom, donor atom, acceptor molecule, acceptor atom, score
      P1  H  7997  8008       L1     7  0.52

> <Gold.Chemscore.Hbond.Weighted>
-3.0771

> <Gold.Chemscore.Metal.Weighted>
-0.0000

> <Gold.Chemscore.Lipo.Weighted>
-12.1156

> <Gold.Chemscore.Internal_Hbond.Weighted>
0.0000

> <Gold.Chemscore.DEClash.Weighted>
0.0303

> <Gold.Chemscore.DEInternal.Weighted>
2.8066

> <Gold.Chemscore.Rot.Weighted>
3.2474

> <Gold.Chemscore.Internal.Correction.Weighted>
   9.000000E+99

> <Gold.Protein.RotatedTorsions>
[ 6907 6896 6895 6894 ] final   -3.40 input  -60.11 | X-H torsion
[ 7974 7965 7964 7962 ] final  -28.43 input  175.53 | X-H torsion
[ 8008 7997 7996 7995 ] final  -78.37 input   59.86 | X-H torsion
[ 10167 10162 10161 10158 ] final -146.37 input  -65.29 | X-H torsion
[ 10718 10713 10712 10709 ] final -142.76 input   66.30 | X-H torsion
[ 10763 10752 10751 10750 ] final   86.34 input  -60.55 | X-H torsion
[ 11005 11000 10999 10996 ] final   60.55 input  -57.11 | X-H torsion

> <Gold.Protein.ActiveResidues>
 VAL166  LYS551  ARG553  GLY616  TRP617  ASP618  TYR619  PRO620  LYS621  CYS622 
 ASP623  PHE694  ASN695  SER759  ASP760  ASP761  ALA762  ILE779  LEU786  VAL792 
 PHE793  MET794  SER795  GLU796  ALA797  LYS798  CYS799  TRP800  GLU811  SER814 

> <Gold.Protein.RotatedAtoms>
  151.5144  135.1066  159.9861 H   0  0  0  0  0  0  0  0  0  0  0  0  # atno 6907 bound_to 6896
  152.4648  133.7894  159.6904 H   0  0  0  0  0  0  0  0  0  0  0  0  # atno 6908 bound_to 6896
  150.8626  133.7557  159.3013 H   0  0  0  0  0  0  0  0  0  0  0  0  # atno 6909 bound_to 6896
  146.1288  140.5282  142.8702 H   0  0  0  0  0  0  0  0  0  0  0  0  # atno 7974 bound_to 7965
  154.5683  140.0695  156.8925 H   0  0  0  0  0  0  0  0  0  0  0  0  # atno 8008 bound_to 7997
  155.2682  140.3363  155.4249 H   0  0  0  0  0  0  0  0  0  0  0  0  # atno 8009 bound_to 7997
  156.2098  140.1754  156.7706 H   0  0  0  0  0  0  0  0  0  0  0  0  # atno 8010 bound_to 7997
  139.7719  143.8225  152.2626 H   0  0  0  0  0  0  0  0  0  0  0  0  # atno 10167 bound_to 10162
  156.3498  130.7682  151.1833 H   0  0  0  0  0  0  0  0  0  0  0  0  # atno 10718 bound_to 10713
  153.1561  135.4584  154.9706 H   0  0  0  0  0  0  0  0  0  0  0  0  # atno 10763 bound_to 10752
  154.7862  135.3205  154.7883 H   0  0  0  0  0  0  0  0  0  0  0  0  # atno 10764 bound_to 10752
  153.8380  135.6932  153.4861 H   0  0  0  0  0  0  0  0  0  0  0  0  # atno 10765 bound_to 10752
  140.0224  134.6133  155.9621 H   0  0  0  0  0  0  0  0  0  0  0  0  # atno 11005 bound_to 11000
  144.7670  140.5552  143.6696 LP  0  0  0  0  0  0  0  0  0  0  0  0  # atno 17320 bound_to 7965
  145.5306  139.1475  143.3502 LP  0  0  0  0  0  0  0  0  0  0  0  0  # atno 17321 bound_to 7965
  139.8262  144.7274  150.9509 LP  0  0  0  0  0  0  0  0  0  0  0  0  # atno 17342 bound_to 10162
  140.7814  143.4113  151.0989 LP  0  0  0  0  0  0  0  0  0  0  0  0  # atno 17343 bound_to 10162
  157.7459  131.0430  150.4725 LP  0  0  0  0  0  0  0  0  0  0  0  0  # atno 17370 bound_to 10713
  156.4919  130.4097  149.6402 LP  0  0  0  0  0  0  0  0  0  0  0  0  # atno 17371 bound_to 10713
  141.1782  133.6543  156.4913 LP  0  0  0  0  0  0  0  0  0  0  0  0  # atno 17394 bound_to 11000
  140.4364  134.7055  157.4969 LP  0  0  0  0  0  0  0  0  0  0  0  0  # atno 17395 bound_to 11000

$$$$
