#       Name:                AV-unprocessed.smi:2294
#       Creating user name   scv26
#       Creation time:       Fri Mar 27 12:43:37 2020


#       File generated by GOLD software.
#

@<TRIPOS>MOLECULE
AV-unprocessed.smi:2294
    39    40     1
SMALL
NO_CHARGES


@<TRIPOS>ATOM
      1 ****        -4.9809   0.8798   0.8508 C.3            1 S1                 0.0000
      2 ****        -3.5230   0.4613   0.7804 C.2            1 S1                 0.0000
      3 ****        -2.5944   1.5060   0.7871 N.2            1 S1                 0.0000
      4 ****        -1.3297   1.2442   0.7302 C.2            1 S1                 0.0000
      5 ****        -0.8502  -0.0750   0.6635 N.am           1 S1                 0.0000
      6 ****         0.6129  -0.2355   0.6002 C.3            1 S1                 0.0000
      7 ****         1.1595  -0.0853  -0.8372 C.3            1 S1                 0.0000
      8 ****         0.9051  -1.2785  -1.5530 O.3            1 S1                 0.0000
      9 ****         2.6459   0.2494  -0.8169 C.ar           1 S1                 0.0000
     10 ****         3.6087  -0.7698  -0.6370 C.ar           1 S1                 0.0000
     11 ****         4.9813  -0.4565  -0.6084 C.ar           1 S1                 0.0000
     12 ****         5.4022   0.8786  -0.7549 C.ar           1 S1                 0.0000
     13 ****         4.4490   1.9002  -0.9258 C.ar           1 S1                 0.0000
     14 ****         3.0753   1.5893  -0.9544 C.ar           1 S1                 0.0000
     15 ****         2.1721   2.5873  -1.1093 F              1 S1                 0.0000
     16 ****        -1.6878  -1.1520   0.6486 C.2            1 S1                 0.0000
     17 ****        -1.2599  -2.3059   0.5865 O.2            1 S1                 0.0000
     18 ****        -3.1248  -0.8384   0.7130 C.2            1 S1                 0.0000
     19 ****        -4.0913  -2.0166   0.7003 C.3            1 S1                 0.0000
     20 ****        -5.5188   0.5409  -0.0349 H              1 S1                 0.0000
     21 ****        -5.0804   1.9643   0.9082 H              1 S1                 0.0000
     22 ****        -5.4587   0.4547   1.7337 H              1 S1                 0.0000
     23 ****        -0.5638   2.0221   0.7258 H              1 S1                 0.0000
     24 ****         1.0669   0.5291   1.2345 H              1 S1                 0.0000
     25 ****         0.9450  -1.1770   1.0420 H              1 S1                 0.0000
     26 ****         0.6329   0.7159  -1.3568 H              1 S1                 0.0000
     27 ****         1.1666  -1.1507  -2.4521 H              1 S1                 0.0000
     28 ****         3.2986  -1.7976  -0.5168 H              1 S1                 0.0000
     29 ****         5.7110  -1.2411  -0.4722 H              1 S1                 0.0000
     30 ****         6.4550   1.1191  -0.7326 H              1 S1                 0.0000
     31 ****         4.7715   2.9253  -1.0332 H              1 S1                 0.0000
     32 ****        -3.8973  -2.6713   1.5503 H              1 S1                 0.0000
     33 ****        -3.9624  -2.5996  -0.2123 H              1 S1                 0.0000
     34 ****        -5.1364  -1.7160   0.7512 H              1 S1                 0.0000
     35 ****        -2.9078   2.4543   0.8359 LP             1 S1                 0.0000
     36 ****        -0.0705  -1.4943  -1.5129 LP             1 S1                 0.0000
     37 ****         1.4294  -2.0302  -1.1528 LP             1 S1                 0.0000
     38 ****        -0.2747  -2.4723   0.5454 LP             1 S1                 0.0000
     39 ****        -1.8978  -3.0759   0.5773 LP             1 S1                 0.0000
@<TRIPOS>BOND
    1    1    2 1     
    2    1   20 1     
    3    1   21 1     
    4    1   22 1     
    5    2   18 2     
    6    2    3 1     
    7    3    4 2     
    8    4    5 1     
    9    4   23 1     
   10    5    6 1     
   11    5   16 am    
   12    6    7 1     
   13    6   24 1     
   14    6   25 1     
   15    7    8 1     
   16    7    9 1     
   17    7   26 1     
   18    8   27 1     
   19    9   14 ar    
   20    9   10 ar    
   21   10   11 ar    
   22   10   28 1     
   23   11   12 ar    
   24   11   29 1     
   25   12   13 ar    
   26   12   30 1     
   27   13   14 ar    
   28   13   31 1     
   29   14   15 1     
   30   16   17 2     
   31   16   18 1     
   32   18   19 1     
   33   19   32 1     
   34   19   33 1     
   35   19   34 1     
   36    3   35 1     
   37    8   36 1     
   38    8   37 1     
   39   17   38 1     
   40   17   39 1     
@<TRIPOS>SUBSTRUCTURE
      1 S1             1
@<TRIPOS>SET
LONE_PAIRS      STATIC     ATOMS    <user>   **** ""
5 35 36 37 38 39
DONOR_HYDROGENS      STATIC     ATOMS    <user>   **** ""
1 27
ATOM$BLUE        STATIC     ATOMS    COLORGROUP SYSTEM
5 35 36 37 38 39
ATOM$RED        STATIC     ATOMS    COLORGROUP SYSTEM
1 27
