AV-unprocessed.smi:2725|AV-procd|sdf|10517|dock10
  -GOLD-   2272014563D 1   1.00000     0.00000
 Structure written by MMmdl.
 45 46  0  0  0  0  0  0  0  0  2 V2000
  149.9007  141.6506  155.4021 O   0  0  0  0  0  0  0  0  0  0  0  0
  150.7459  141.0110  156.0291 C   0  0  0  0  0  0  0  0  0  0  0  0
  151.3858  141.5874  157.2958 C   0  0  0  0  0  0  0  0  0  0  0  0
  151.2742  143.1213  157.3906 C   0  0  0  0  0  0  0  0  0  0  0  0
  152.0509  143.7101  158.5816 C   0  0  0  0  0  0  0  0  0  0  0  0
  151.8495  142.9638  159.9048 C   0  0  0  0  0  0  0  0  0  0  0  0
  152.2185  143.9701  161.0023 C   0  0  0  0  0  0  0  0  0  0  0  0
  152.1618  145.3610  160.3527 C   0  0  0  0  0  0  0  0  0  0  0  0
  151.6423  145.1430  158.9288 C   0  0  0  0  0  0  0  0  0  0  0  0
  151.1623  139.7890  155.6622 N   0  0  0  0  0  0  0  0  0  0  0  0
  150.6726  139.0405  154.5062 C   0  0  2  0  0  0  0  0  0  0  0  0
  149.1439  138.8798  154.6385 C   0  0  0  0  0  0  0  0  0  0  0  0
  148.5749  138.6020  153.3768 O   0  0  0  0  0  0  0  0  0  0  0  0
  151.4162  137.6867  154.4303 C   0  0  0  0  0  0  0  0  0  0  0  0
  150.7428  136.5790  155.2212 C   0  0  0  0  0  0  0  0  0  0  0  0
  151.1287  136.2695  156.5435 C   0  0  0  0  0  0  0  0  0  0  0  0
  150.4753  135.2225  157.2261 C   0  0  0  0  0  0  0  0  0  0  0  0
  149.4511  134.5063  156.5723 C   0  0  0  0  0  0  0  0  0  0  0  0
  149.1058  134.8563  155.2512 C   0  0  0  0  0  0  0  0  0  0  0  0
  149.7553  135.8662  154.6312 N   0  3  0  0  0  0  0  0  0  0  0  0
  150.9106  141.1217  158.1596 H   0  0  0  0  0  0  0  0  0  0  0  0
  152.4374  141.2979  157.3226 H   0  0  0  0  0  0  0  0  0  0  0  0
  151.6561  143.5663  156.4705 H   0  0  0  0  0  0  0  0  0  0  0  0
  150.2255  143.4146  157.4583 H   0  0  0  0  0  0  0  0  0  0  0  0
  153.1163  143.7135  158.3454 H   0  0  0  0  0  0  0  0  0  0  0  0
  150.8025  142.6784  160.0150 H   0  0  0  0  0  0  0  0  0  0  0  0
  152.4457  142.0526  159.9642 H   0  0  0  0  0  0  0  0  0  0  0  0
  151.5351  143.8926  161.8484 H   0  0  0  0  0  0  0  0  0  0  0  0
  153.2239  143.7756  161.3775 H   0  0  0  0  0  0  0  0  0  0  0  0
  151.5305  146.0521  160.9120 H   0  0  0  0  0  0  0  0  0  0  0  0
  153.1643  145.7890  160.3188 H   0  0  0  0  0  0  0  0  0  0  0  0
  152.0392  145.8749  158.2246 H   0  0  0  0  0  0  0  0  0  0  0  0
  150.5549  145.2328  158.9213 H   0  0  0  0  0  0  0  0  0  0  0  0
  151.8528  139.3331  156.2410 H   0  0  0  0  0  0  0  0  0  0  0  0
  150.8946  139.6003  153.5950 H   0  0  0  0  0  0  0  0  0  0  0  0
  148.8899  138.0399  155.2832 H   0  0  0  0  0  0  0  0  0  0  0  0
  148.6806  139.7652  155.0757 H   0  0  0  0  0  0  0  0  0  0  0  0
  148.9610  137.8085  153.0379 H   0  0  0  0  0  0  0  0  0  0  0  0
  151.4805  137.3499  153.3946 H   0  0  0  0  0  0  0  0  0  0  0  0
  152.4462  137.8048  154.7703 H   0  0  0  0  0  0  0  0  0  0  0  0
  151.9182  136.8256  157.0285 H   0  0  0  0  0  0  0  0  0  0  0  0
  150.7571  134.9709  158.2382 H   0  0  0  0  0  0  0  0  0  0  0  0
  148.9385  133.7004  157.0771 H   0  0  0  0  0  0  0  0  0  0  0  0
  148.3361  134.3630  154.6757 H   0  0  0  0  0  0  0  0  0  0  0  0
  149.4885  136.1019  153.6752 H   0  0  0  0  0  0  0  0  0  0  0  0
  1  2  2  0  0  0  0
  2  3  1  0  0  0  0
  2 10  1  0  0  0  0
  3  4  1  0  0  0  0
  3 21  1  0  0  0  0
  3 22  1  0  0  0  0
  4  5  1  0  0  0  0
  4 23  1  0  0  0  0
  4 24  1  0  0  0  0
  5  9  1  0  0  0  0
  5  6  1  0  0  0  0
  5 25  1  0  0  0  0
  6  7  1  0  0  0  0
  6 26  1  0  0  0  0
  6 27  1  0  0  0  0
  7  8  1  0  0  0  0
  7 28  1  0  0  0  0
  7 29  1  0  0  0  0
  8  9  1  0  0  0  0
  8 30  1  0  0  0  0
  8 31  1  0  0  0  0
  9 32  1  0  0  0  0
  9 33  1  0  0  0  0
 10 11  1  0  0  0  0
 10 34  1  0  0  0  0
 11 12  1  0  0  0  0
 11 14  1  0  0  0  0
 11 35  1  0  0  0  0
 12 13  1  0  0  0  0
 12 36  1  0  0  0  0
 12 37  1  0  0  0  0
 13 38  1  0  0  0  0
 14 15  1  0  0  0  0
 14 39  1  0  0  0  0
 14 40  1  0  0  0  0
 15 20  1  0  0  0  0
 15 16  2  0  0  0  0
 16 17  1  0  0  0  0
 16 41  1  0  0  0  0
 17 18  2  0  0  0  0
 17 42  1  0  0  0  0
 18 19  1  0  0  0  0
 18 43  1  0  0  0  0
 19 20  2  0  0  0  0
 19 44  1  0  0  0  0
 20 45  1  0  0  0  0
M  CHG  1  20   1
M  END
> <s_m_source_file>
AV-unprocessed.smi

> <i_m_source_file_index>
2725

> <i_lp_mmshare_version>
43012

> <i_f3d_flags>
0

> <s_epik_input>
W0NIMl0xW0NIMl1bQ0gyXVtDSDJdW0NIXTFbQ0gyXVtDSDJdQyg9TylbTkhdW0NASF0oW0NIMl1bT0hdKVtDSDJdYzJbY0hdW2NIXVtjSF1bY0hdbjI=

> <s_epik_cmdline>
J2VwaWtfcHl0aG9uJywgJy1waCcsICc3LjAnLCAnLXRuJywgJzgnLCAnLW1hJywgJzIwMCcsICctbWV0YWxfYmluZGluZycsICctaW1hZScsICc8aW5maWxlLm1hZT4nLCAnLW9tYWUnLCAnPG91dGZpbGUubWFlPic=

> <r_epik_Ionization_Penalty>
1.87189

> <r_epik_Ionization_Penalty_Charging>
1.87189

> <r_epik_Ionization_Penalty_Neutral>
6.79411e-08

> <r_epik_State_Penalty>
1.99097

> <r_epik_Charging_Adjusted_Penalty>
3.86287

> <i_epik_Tot_Q>
1

> <i_epik_Tot_abs_Q>
1

> <r_epik_Metal_State_Penalty>
2.01578

> <b_epik_Metal_Only>
0

> <s_lp_Force_Field>
OPLS_2005

> <r_lp_Energy>
30.4182

> <b_lp_Chiralities_Consistent>
1

> <s_lp_Variant>
AV-unprocessed.smi:2725-3

> <Gold.Version>
5.8.1

> <Gold.Id.Protein>
6NUR|6NUR_protein|mol2

> <Gold.PLP.Fitness>
50.1400

> <Gold.PLP.PLP>
-43.5969

> <Gold.PLP.part.hbond>
-3.7890

> <Gold.PLP.part.metal>
0.0000

> <Gold.PLP.part.buried>
-4.2513

> <Gold.PLP.part.nonpolar>
-36.8228

> <Gold.PLP.part.repulsive>
0.3166

> <Gold.PLP.ligand.clash>
0.0000

> <Gold.PLP.ligand.torsion>
1.3050

> <Gold.PLP.Chemscore.Hbond>
3.0000

> <Gold.PLP.Chemscore.CHOScore>
0.0000

> <Gold.PLP.Chemscore.Metal>
0.0000

> <Gold.Chemscore.Hbonds>
donor molecule, donor type, donor heavy atom, donor atom, acceptor molecule, acceptor atom, score
      L1  H    13    38       P1  7948  1.00
      L1  H    20    45       P1  7948  2.00

> <Gold.PLP.Chemscore.Internal.Correction>
0.1531

> <Gold.Rescore>
     Score         DG    S(hbond)    S(metal)    S(lipo)     H(rot)  DE(clash)    DE(int)     intcor
     16.51     -19.04       1.89        0.00     118.23       2.58       0.09       2.44       ----

> <Gold.Chemscore.Fitness>
16.5083

> <Gold.Chemscore.DG>
-19.0433

> <Gold.Chemscore.ZeroCoef>
-5.4800

> <Gold.Chemscore.Hbond>
1.8947

> <Gold.Chemscore.Metal>
0.0000

> <Gold.Chemscore.Lipo>
118.2279

> <Gold.Chemscore.Internal_Hbond>
0.0000

> <Gold.Chemscore.DEClash>
0.0931

> <Gold.Chemscore.DEInternal>
2.4419

> <Gold.Chemscore.Rot>
2.5773

> <Gold.Chemscore.Internal.Correction>
   9.000000E+99

> <Gold.Chemscore.Hbonds>
donor molecule, donor type, donor heavy atom, donor atom, acceptor molecule, acceptor atom, score
      L1  H    13    38       P1  7948  0.96
      L1  H    20    45       P1  7948  0.55

> <Gold.Chemscore.Hbond.Weighted>
-6.3284

> <Gold.Chemscore.Metal.Weighted>
-0.0000

> <Gold.Chemscore.Lipo.Weighted>
-13.8327

> <Gold.Chemscore.Internal_Hbond.Weighted>
0.0000

> <Gold.Chemscore.DEClash.Weighted>
0.0931

> <Gold.Chemscore.DEInternal.Weighted>
2.4419

> <Gold.Chemscore.Rot.Weighted>
6.5978

> <Gold.Chemscore.Internal.Correction.Weighted>
   9.000000E+99

> <Gold.Protein.RotatedTorsions>
[ 6907 6896 6895 6894 ] final  124.43 input  -60.11 | X-H torsion
[ 7974 7965 7964 7962 ] final  145.35 input  175.53 | X-H torsion
[ 8008 7997 7996 7995 ] final -115.77 input   59.86 | X-H torsion
[ 10167 10162 10161 10158 ] final  -96.82 input  -65.29 | X-H torsion
[ 10718 10713 10712 10709 ] final   94.69 input   66.30 | X-H torsion
[ 10763 10752 10751 10750 ] final   27.54 input  -60.55 | X-H torsion
[ 11005 11000 10999 10996 ] final  -24.47 input  -57.11 | X-H torsion

> <Gold.Protein.ActiveResidues>
 VAL166  LYS551  ARG553  GLY616  TRP617  ASP618  TYR619  PRO620  LYS621  CYS622 
 ASP623  PHE694  ASN695  SER759  ASP760  ASP761  ALA762  ILE779  LEU786  VAL792 
 PHE793  MET794  SER795  GLU796  ALA797  LYS798  CYS799  TRP800  GLU811  SER814 

> <Gold.Protein.RotatedAtoms>
  152.4079  133.6917  159.6371 H   0  0  0  0  0  0  0  0  0  0  0  0  # atno 6907 bound_to 6896
  150.7962  133.8676  159.3258 H   0  0  0  0  0  0  0  0  0  0  0  0  # atno 6908 bound_to 6896
  151.6426  135.1012  160.0196 H   0  0  0  0  0  0  0  0  0  0  0  0  # atno 6909 bound_to 6896
  144.8759  139.5773  143.5865 H   0  0  0  0  0  0  0  0  0  0  0  0  # atno 7974 bound_to 7965
  155.0573  140.0393  157.2564 H   0  0  0  0  0  0  0  0  0  0  0  0  # atno 8008 bound_to 7997
  154.7088  140.2688  155.6624 H   0  0  0  0  0  0  0  0  0  0  0  0  # atno 8009 bound_to 7997
  156.2783  140.2726  156.1723 H   0  0  0  0  0  0  0  0  0  0  0  0  # atno 8010 bound_to 7997
  140.2898  143.3228  152.0357 H   0  0  0  0  0  0  0  0  0  0  0  0  # atno 10167 bound_to 10162
  157.6946  131.0521  150.4225 H   0  0  0  0  0  0  0  0  0  0  0  0  # atno 10718 bound_to 10713
  153.0549  135.6534  154.0601 H   0  0  0  0  0  0  0  0  0  0  0  0  # atno 10763 bound_to 10752
  154.0281  135.2914  155.3373 H   0  0  0  0  0  0  0  0  0  0  0  0  # atno 10764 bound_to 10752
  154.6859  135.5302  153.8393 H   0  0  0  0  0  0  0  0  0  0  0  0  # atno 10765 bound_to 10752
  140.8848  133.7629  156.0347 H   0  0  0  0  0  0  0  0  0  0  0  0  # atno 11005 bound_to 11000
  146.2962  139.7287  142.9124 LP  0  0  0  0  0  0  0  0  0  0  0  0  # atno 17320 bound_to 7965
  145.4043  141.0389  143.3053 LP  0  0  0  0  0  0  0  0  0  0  0  0  # atno 17321 bound_to 7965
  139.4941  144.6533  151.6629 LP  0  0  0  0  0  0  0  0  0  0  0  0  # atno 17342 bound_to 10162
  140.5741  144.0058  150.6232 LP  0  0  0  0  0  0  0  0  0  0  0  0  # atno 17343 bound_to 10162
  156.4599  130.4029  149.6583 LP  0  0  0  0  0  0  0  0  0  0  0  0  # atno 17370 bound_to 10713
  156.3701  130.7526  151.2508 LP  0  0  0  0  0  0  0  0  0  0  0  0  # atno 17371 bound_to 10713
  140.8418  134.3058  157.5310 LP  0  0  0  0  0  0  0  0  0  0  0  0  # atno 17394 bound_to 11000
  139.8723  134.9420  156.3812 LP  0  0  0  0  0  0  0  0  0  0  0  0  # atno 17395 bound_to 11000

$$$$
