AV-unprocessed.smi:652|AV-procd|sdf|3199|dock6
  -GOLD-   22720 0133D 1   1.00000     0.00000
 Structure written by MMmdl.
 49 50  0  0  0  0  0  0  0  0  3 V2000
  141.9792  138.9336  155.3156 C   0  0  0  0  0  0  0  0  0  0  0  0
  142.5592  140.2333  155.8895 C   0  0  0  0  0  0  0  0  0  0  0  0
  141.5369  141.3800  155.8376 C   0  0  0  0  0  0  0  0  0  0  0  0
  143.7680  140.5919  155.1527 N   0  0  0  0  0  0  0  0  0  0  0  0
  144.9959  140.7097  155.6820 C   0  0  0  0  0  0  0  0  0  0  0  0
  145.2380  140.5180  156.8738 O   0  0  0  0  0  0  0  0  0  0  0  0
  146.1142  141.1050  154.7112 C   0  0  0  0  0  0  0  0  0  0  0  0
  147.2409  140.0540  154.6275 C   0  0  0  0  0  0  0  0  0  0  0  0
  148.4227  140.5466  153.8702 N   0  3  2  0  0  0  0  0  0  0  0  0
  149.2762  139.4586  153.3323 C   0  0  0  0  0  0  0  0  0  0  0  0
  150.1505  138.8392  154.4375 C   0  0  0  0  0  0  0  0  0  0  0  0
  150.9495  139.8533  155.0353 O   0  0  0  0  0  0  0  0  0  0  0  0
  150.1699  140.8790  155.6427 C   0  0  1  0  0  0  0  0  0  0  0  0
  151.1167  141.8631  156.3521 C   0  0  0  0  0  0  0  0  0  0  0  0
  150.4107  142.9926  156.9416 N   0  0  0  0  0  0  0  0  0  0  0  0
  150.9668  143.6936  158.0200 C   0  0  0  0  0  0  0  0  0  0  0  0
  152.2143  143.3833  158.6098 C   0  0  0  0  0  0  0  0  0  0  0  0
  152.6565  144.1714  159.6862 C   0  0  0  0  0  0  0  0  0  0  0  0
  151.8242  145.2229  160.1091 C   0  0  0  0  0  0  0  0  0  0  0  0
  150.6343  145.5029  159.5321 N   0  0  0  0  0  0  0  0  0  0  0  0
  150.2390  144.7311  158.5046 N   0  3  0  0  0  0  0  0  0  0  0  0
  149.2548  141.5473  154.5881 C   0  0  0  0  0  0  0  0  0  0  0  0
  141.0903  138.6254  155.8668 H   0  0  0  0  0  0  0  0  0  0  0  0
  142.7018  138.1189  155.3764 H   0  0  0  0  0  0  0  0  0  0  0  0
  141.6962  139.0520  154.2688 H   0  0  0  0  0  0  0  0  0  0  0  0
  142.8211  140.0474  156.9329 H   0  0  0  0  0  0  0  0  0  0  0  0
  140.6319  141.1218  156.3882 H   0  0  0  0  0  0  0  0  0  0  0  0
  141.2472  141.6074  154.8112 H   0  0  0  0  0  0  0  0  0  0  0  0
  141.9390  142.2916  156.2808 H   0  0  0  0  0  0  0  0  0  0  0  0
  143.6592  140.7637  154.1635 H   0  0  0  0  0  0  0  0  0  0  0  0
  145.6704  141.2526  153.7257 H   0  0  0  0  0  0  0  0  0  0  0  0
  146.5139  142.0700  155.0229 H   0  0  0  0  0  0  0  0  0  0  0  0
  147.5307  139.7195  155.6238 H   0  0  0  0  0  0  0  0  0  0  0  0
  146.8493  139.1744  154.1139 H   0  0  0  0  0  0  0  0  0  0  0  0
  148.6684  138.6952  152.8449 H   0  0  0  0  0  0  0  0  0  0  0  0
  149.9189  139.8763  152.5562 H   0  0  0  0  0  0  0  0  0  0  0  0
  149.5418  138.3410  155.1935 H   0  0  0  0  0  0  0  0  0  0  0  0
  150.8082  138.0811  154.0123 H   0  0  0  0  0  0  0  0  0  0  0  0
  149.5514  140.4225  156.4166 H   0  0  0  0  0  0  0  0  0  0  0  0
  151.6668  141.3394  157.1349 H   0  0  0  0  0  0  0  0  0  0  0  0
  151.8521  142.2363  155.6381 H   0  0  0  0  0  0  0  0  0  0  0  0
  149.6350  143.3952  156.4352 H   0  0  0  0  0  0  0  0  0  0  0  0
  152.8260  142.5658  158.2582 H   0  0  0  0  0  0  0  0  0  0  0  0
  153.6012  143.9771  160.1725 H   0  0  0  0  0  0  0  0  0  0  0  0
  152.1187  145.8570  160.9326 H   0  0  0  0  0  0  0  0  0  0  0  0
  149.8643  142.0580  153.8418 H   0  0  0  0  0  0  0  0  0  0  0  0
  148.6366  142.3170  155.0481 H   0  0  0  0  0  0  0  0  0  0  0  0
  148.0373  141.0156  153.0625 H   0  0  0  0  0  0  0  0  0  0  0  0
  149.3423  144.9383  158.0639 H   0  0  0  0  0  0  0  0  0  0  0  0
  1  2  1  0  0  0  0
  1 23  1  0  0  0  0
  1 24  1  0  0  0  0
  1 25  1  0  0  0  0
  2  3  1  0  0  0  0
  2  4  1  0  0  0  0
  2 26  1  0  0  0  0
  3 27  1  0  0  0  0
  3 28  1  0  0  0  0
  3 29  1  0  0  0  0
  4  5  1  0  0  0  0
  4 30  1  0  0  0  0
  5  6  2  0  0  0  0
  5  7  1  0  0  0  0
  7  8  1  0  0  0  0
  7 31  1  0  0  0  0
  7 32  1  0  0  0  0
  8  9  1  0  0  0  0
  8 33  1  0  0  0  0
  8 34  1  0  0  0  0
  9 22  1  0  0  0  0
  9 10  1  0  0  0  0
  9 48  1  0  0  0  0
 10 11  1  0  0  0  0
 10 35  1  0  0  0  0
 10 36  1  0  0  0  0
 11 12  1  0  0  0  0
 11 37  1  0  0  0  0
 11 38  1  0  0  0  0
 12 13  1  0  0  0  0
 13 14  1  0  0  0  0
 13 22  1  0  0  0  0
 13 39  1  0  0  0  0
 14 15  1  0  0  0  0
 14 40  1  0  0  0  0
 14 41  1  0  0  0  0
 15 16  1  0  0  0  0
 15 42  1  0  0  0  0
 16 21  1  0  0  0  0
 16 17  2  0  0  0  0
 17 18  1  0  0  0  0
 17 43  1  0  0  0  0
 18 19  2  0  0  0  0
 18 44  1  0  0  0  0
 19 20  1  0  0  0  0
 19 45  1  0  0  0  0
 20 21  2  0  0  0  0
 21 49  1  0  0  0  0
 22 46  1  0  0  0  0
 22 47  1  0  0  0  0
M  CHG  1   9   1
M  CHG  1  21   1
M  END
> <s_m_source_file>
AV-unprocessed.smi

> <i_m_source_file_index>
652

> <i_lp_mmshare_version>
43012

> <i_f3d_flags>
0

> <s_epik_input>
W0NIM11bQ0hdKFtDSDNdKVtOSF1DKD1PKVtDSDJdW0NIMl1OMVtDSDJdW0NIMl1PW0NASF0oW0NIMl0xKVtDSDJdW05IXWMyW2NIXVtjSF1bY0hdbm4y

> <s_epik_cmdline>
J2VwaWtfcHl0aG9uJywgJy1waCcsICc3LjAnLCAnLXRuJywgJzgnLCAnLW1hJywgJzIwMCcsICctbWV0YWxfYmluZGluZycsICctaW1hZScsICc8aW5maWxlLm1hZT4nLCAnLW9tYWUnLCAnPG91dGZpbGUubWFlPic=

> <r_lp_tautomer_probability>
0.966961

> <r_epik_Ionization_Penalty>
2.79885

> <r_epik_Ionization_Penalty_Charging>
2.79884

> <r_epik_Ionization_Penalty_Neutral>
3.2567e-06

> <r_epik_State_Penalty>
2.43203

> <r_epik_Charging_Adjusted_Penalty>
5.23087

> <i_epik_Tot_Q>
2

> <i_epik_Tot_abs_Q>
2

> <r_epik_Metal_State_Penalty>
2.43963

> <b_epik_Metal_Only>
0

> <s_lp_Force_Field>
OPLS_2005

> <r_lp_Energy>
35.8493

> <b_lp_Chiralities_Consistent>
1

> <s_lp_Variant>
AV-unprocessed.smi:652-8

> <Gold.Version>
5.8.1

> <Gold.Id.Protein>
6NUR|6NUR_protein|mol2

> <Gold.PLP.Fitness>
51.4335

> <Gold.PLP.PLP>
-34.1051

> <Gold.PLP.part.hbond>
-7.0483

> <Gold.PLP.part.metal>
0.0000

> <Gold.PLP.part.buried>
1.2930

> <Gold.PLP.part.nonpolar>
-29.2741

> <Gold.PLP.part.repulsive>
0.6029

> <Gold.PLP.ligand.clash>
0.0000

> <Gold.PLP.ligand.torsion>
0.3687

> <Gold.PLP.Chemscore.Hbond>
5.9920

> <Gold.PLP.Chemscore.CHOScore>
0.0000

> <Gold.PLP.Chemscore.Metal>
0.0000

> <Gold.Chemscore.Hbonds>
donor molecule, donor type, donor heavy atom, donor atom, acceptor molecule, acceptor atom, score
      L1  H     4    30       P1 10175  1.00
      L1  H    15    42       P1  8028  2.00
      L1  H    21    49       P1  8029  1.90
      P1  H  7989  7998       L1    12  0.95

> <Gold.PLP.Chemscore.Internal.Correction>
0.0898

> <Gold.Rescore>
     Score         DG    S(hbond)    S(metal)    S(lipo)     H(rot)  DE(clash)    DE(int)     intcor
     16.23     -18.41       2.63        0.00      86.38       2.33       1.74       0.44       ----

> <Gold.Chemscore.Fitness>
16.2310

> <Gold.Chemscore.DG>
-18.4105

> <Gold.Chemscore.ZeroCoef>
-5.4800

> <Gold.Chemscore.Hbond>
2.6334

> <Gold.Chemscore.Metal>
0.0000

> <Gold.Chemscore.Lipo>
86.3795

> <Gold.Chemscore.Internal_Hbond>
0.0000

> <Gold.Chemscore.DEClash>
1.7399

> <Gold.Chemscore.DEInternal>
0.4395

> <Gold.Chemscore.Rot>
2.3326

> <Gold.Chemscore.Internal.Correction>
   9.000000E+99

> <Gold.Chemscore.Hbonds>
donor molecule, donor type, donor heavy atom, donor atom, acceptor molecule, acceptor atom, score
      L1  H     4    30       P1 10175  0.94
      L1  H    15    42       P1  8028  0.94
      L1  H    21    49       P1  8029  0.21
      P1  H  7989  7998       L1    12  0.09

> <Gold.Chemscore.Hbond.Weighted>
-8.7954

> <Gold.Chemscore.Metal.Weighted>
-0.0000

> <Gold.Chemscore.Lipo.Weighted>
-10.1064

> <Gold.Chemscore.Internal_Hbond.Weighted>
0.0000

> <Gold.Chemscore.DEClash.Weighted>
1.7399

> <Gold.Chemscore.DEInternal.Weighted>
0.4395

> <Gold.Chemscore.Rot.Weighted>
5.9714

> <Gold.Chemscore.Internal.Correction.Weighted>
   9.000000E+99

> <Gold.Protein.RotatedTorsions>
[ 6907 6896 6895 6894 ] final   42.56 input  -60.11 | X-H torsion
[ 7974 7965 7964 7962 ] final  145.01 input  175.53 | X-H torsion
[ 8008 7997 7996 7995 ] final  -13.76 input   59.86 | X-H torsion
[ 10167 10162 10161 10158 ] final  145.00 input  -65.29 | X-H torsion
[ 10718 10713 10712 10709 ] final  -54.45 input   66.30 | X-H torsion
[ 10763 10752 10751 10750 ] final -159.88 input  -60.55 | X-H torsion
[ 11005 11000 10999 10996 ] final -154.43 input  -57.11 | X-H torsion

> <Gold.Protein.ActiveResidues>
 VAL166  LYS551  ARG553  GLY616  TRP617  ASP618  TYR619  PRO620  LYS621  CYS622 
 ASP623  PHE694  ASN695  SER759  ASP760  ASP761  ALA762  ILE779  LEU786  VAL792 
 PHE793  MET794  SER795  GLU796  ALA797  LYS798  CYS799  TRP800  GLU811  SER814 

> <Gold.Protein.RotatedAtoms>
  152.2094  134.8515  160.0498 H   0  0  0  0  0  0  0  0  0  0  0  0  # atno 6907 bound_to 6896
  151.9340  133.3614  159.3949 H   0  0  0  0  0  0  0  0  0  0  0  0  # atno 6908 bound_to 6896
  150.6973  134.4433  159.5346 H   0  0  0  0  0  0  0  0  0  0  0  0  # atno 6909 bound_to 6896
  144.8788  139.5731  143.5852 H   0  0  0  0  0  0  0  0  0  0  0  0  # atno 7974 bound_to 7965
  154.5266  140.2241  155.8880 H   0  0  0  0  0  0  0  0  0  0  0  0  # atno 8008 bound_to 7997
  156.1719  140.3120  155.8954 H   0  0  0  0  0  0  0  0  0  0  0  0  # atno 8009 bound_to 7997
  155.3540  140.0457  157.3037 H   0  0  0  0  0  0  0  0  0  0  0  0  # atno 8010 bound_to 7997
  139.4935  144.5933  151.6636 H   0  0  0  0  0  0  0  0  0  0  0  0  # atno 10167 bound_to 10162
  156.1450  130.4153  150.0039 H   0  0  0  0  0  0  0  0  0  0  0  0  # atno 10718 bound_to 10713
  154.7437  135.3075  154.8682 H   0  0  0  0  0  0  0  0  0  0  0  0  # atno 10763 bound_to 10752
  153.9489  135.6766  153.4748 H   0  0  0  0  0  0  0  0  0  0  0  0  # atno 10764 bound_to 10752
  153.1035  135.4900  154.8835 H   0  0  0  0  0  0  0  0  0  0  0  0  # atno 10765 bound_to 10752
  140.6974  134.3975  157.5213 H   0  0  0  0  0  0  0  0  0  0  0  0  # atno 11005 bound_to 11000
  146.2981  139.7339  142.9112 LP  0  0  0  0  0  0  0  0  0  0  0  0  # atno 17320 bound_to 7965
  145.3993  141.0383  143.3080 LP  0  0  0  0  0  0  0  0  0  0  0  0  # atno 17321 bound_to 7965
  140.5564  144.0340  150.6150 LP  0  0  0  0  0  0  0  0  0  0  0  0  # atno 17342 bound_to 10162
  140.3412  143.3019  152.0587 LP  0  0  0  0  0  0  0  0  0  0  0  0  # atno 17343 bound_to 10162
  156.7914  130.9257  151.3646 LP  0  0  0  0  0  0  0  0  0  0  0  0  # atno 17370 bound_to 10713
  157.6609  130.8965  149.9827 LP  0  0  0  0  0  0  0  0  0  0  0  0  # atno 17371 bound_to 10713
  139.8906  134.8800  156.2360 LP  0  0  0  0  0  0  0  0  0  0  0  0  # atno 17394 bound_to 11000
  141.0192  133.7051  156.1239 LP  0  0  0  0  0  0  0  0  0  0  0  0  # atno 17395 bound_to 11000

$$$$
