AV-unprocessed.smi:2105|AV-procd|sdf|8591|dock8
  -GOLD-   2272011323D 1   1.00000     0.00000
 Structure written by MMmdl.
 42 43  0  0  0  0  0  0  0  0  1 V2000
  143.7680  132.6405  149.2324 C   0  0  0  0  0  0  0  0  0  0  0  0
  143.9756  133.6035  150.3959 C   0  0  0  0  0  0  0  0  0  0  0  0
  143.5976  133.2953  151.5260 O   0  0  0  0  0  0  0  0  0  0  0  0
  144.5789  134.7661  150.1046 N   0  0  0  0  0  0  0  0  0  0  0  0
  144.8818  135.8147  151.0722 C   0  0  0  0  0  0  0  0  0  0  0  0
  145.5241  135.2492  152.3552 C   0  0  0  0  0  0  0  0  0  0  0  0
  146.6365  136.0734  152.8148 N   0  0  0  0  0  0  0  0  0  0  0  0
  146.5521  137.3603  153.1780 C   0  0  0  0  0  0  0  0  0  0  0  0
  145.4936  137.9870  153.2252 O   0  0  0  0  0  0  0  0  0  0  0  0
  147.7675  137.8635  153.4473 N   0  0  0  0  0  0  0  0  0  0  0  0
  148.1150  139.2044  153.7743 C   0  0  0  0  0  0  0  0  0  0  0  0
  147.1991  140.2797  153.6785 C   0  0  0  0  0  0  0  0  0  0  0  0
  147.6192  141.5713  154.0451 C   0  0  0  0  0  0  0  0  0  0  0  0
  148.9378  141.7409  154.5042 C   0  0  0  0  0  0  0  0  0  0  0  0
  149.8176  140.7247  154.6157 N   0  0  0  0  0  0  0  0  0  0  0  0
  149.4198  139.4796  154.2577 C   0  0  0  0  0  0  0  0  0  0  0  0
  150.3489  138.4336  154.4013 N   0  0  0  0  0  0  0  0  0  0  0  0
  151.7487  138.8090  154.5649 C   0  0  0  0  0  0  0  0  0  0  0  0
  152.3860  137.6635  155.3468 C   0  0  0  0  0  0  0  0  0  0  0  0
  151.2511  137.2209  156.2635 C   0  0  0  0  0  0  0  0  0  0  0  0
  149.9968  137.4432  155.4129 C   0  0  0  0  0  0  0  0  0  0  0  0
  143.2324  133.1312  148.4195 H   0  0  0  0  0  0  0  0  0  0  0  0
  143.1882  131.7723  149.5472 H   0  0  0  0  0  0  0  0  0  0  0  0
  144.7286  132.2906  148.8539 H   0  0  0  0  0  0  0  0  0  0  0  0
  144.8567  134.9320  149.1482 H   0  0  0  0  0  0  0  0  0  0  0  0
  145.4819  136.6078  150.6227 H   0  0  0  0  0  0  0  0  0  0  0  0
  143.9287  136.2748  151.3338 H   0  0  0  0  0  0  0  0  0  0  0  0
  144.7752  135.2034  153.1475 H   0  0  0  0  0  0  0  0  0  0  0  0
  145.8665  134.2245  152.2055 H   0  0  0  0  0  0  0  0  0  0  0  0
  147.5509  135.6456  152.8021 H   0  0  0  0  0  0  0  0  0  0  0  0
  148.5488  137.2470  153.2773 H   0  0  0  0  0  0  0  0  0  0  0  0
  146.1825  140.1345  153.3471 H   0  0  0  0  0  0  0  0  0  0  0  0
  146.9435  142.4114  153.9814 H   0  0  0  0  0  0  0  0  0  0  0  0
  149.2937  142.7174  154.7979 H   0  0  0  0  0  0  0  0  0  0  0  0
  152.2292  138.9453  153.5958 H   0  0  0  0  0  0  0  0  0  0  0  0
  151.8502  139.7410  155.1219 H   0  0  0  0  0  0  0  0  0  0  0  0
  152.6542  136.8521  154.6683 H   0  0  0  0  0  0  0  0  0  0  0  0
  153.2824  137.9657  155.8883 H   0  0  0  0  0  0  0  0  0  0  0  0
  151.3547  136.1905  156.6052 H   0  0  0  0  0  0  0  0  0  0  0  0
  151.2181  137.8665  157.1423 H   0  0  0  0  0  0  0  0  0  0  0  0
  149.1489  137.7489  156.0278 H   0  0  0  0  0  0  0  0  0  0  0  0
  149.7178  136.5217  154.9010 H   0  0  0  0  0  0  0  0  0  0  0  0
  1  2  1  0  0  0  0
  1 22  1  0  0  0  0
  1 23  1  0  0  0  0
  1 24  1  0  0  0  0
  2  3  2  0  0  0  0
  2  4  1  0  0  0  0
  4  5  1  0  0  0  0
  4 25  1  0  0  0  0
  5  6  1  0  0  0  0
  5 26  1  0  0  0  0
  5 27  1  0  0  0  0
  6  7  1  0  0  0  0
  6 28  1  0  0  0  0
  6 29  1  0  0  0  0
  7  8  1  0  0  0  0
  7 30  1  0  0  0  0
  8  9  2  0  0  0  0
  8 10  1  0  0  0  0
 10 11  1  0  0  0  0
 10 31  1  0  0  0  0
 11 16  1  0  0  0  0
 11 12  2  0  0  0  0
 12 13  1  0  0  0  0
 12 32  1  0  0  0  0
 13 14  2  0  0  0  0
 13 33  1  0  0  0  0
 14 15  1  0  0  0  0
 14 34  1  0  0  0  0
 15 16  2  0  0  0  0
 16 17  1  0  0  0  0
 17 21  1  0  0  0  0
 17 18  1  0  0  0  0
 18 19  1  0  0  0  0
 18 35  1  0  0  0  0
 18 36  1  0  0  0  0
 19 20  1  0  0  0  0
 19 37  1  0  0  0  0
 19 38  1  0  0  0  0
 20 21  1  0  0  0  0
 20 39  1  0  0  0  0
 20 40  1  0  0  0  0
 21 41  1  0  0  0  0
 21 42  1  0  0  0  0
M  END
> <s_m_source_file>
AV-unprocessed.smi

> <i_m_source_file_index>
2105

> <i_lp_mmshare_version>
43012

> <i_f3d_flags>
0

> <s_epik_input>
W0NIM11DKD1PKVtOSF1bQ0gyXVtDSDJdW05IXUMoPU8pW05IXWMxW2NIXVtjSF1bY0hdbmMxTjJbQ0gyXVtDSDJdW0NIMl1bQ0gyXTI=

> <s_epik_cmdline>
J2VwaWtfcHl0aG9uJywgJy1waCcsICc3LjAnLCAnLXRuJywgJzgnLCAnLW1hJywgJzIwMCcsICctbWV0YWxfYmluZGluZycsICctaW1hZScsICc8aW5maWxlLm1hZT4nLCAnLW9tYWUnLCAnPG91dGZpbGUubWFlPic=

> <r_lp_tautomer_probability>
1

> <r_epik_Ionization_Penalty>
0.0963551

> <r_epik_Ionization_Penalty_Charging>
0

> <r_epik_Ionization_Penalty_Neutral>
0.0963551

> <r_epik_State_Penalty>
0.0859578

> <r_epik_Charging_Adjusted_Penalty>
0.0859578

> <i_epik_Tot_Q>
0

> <i_epik_Tot_abs_Q>
0

> <r_epik_Metal_State_Penalty>
0.0739032

> <b_epik_Metal_Only>
0

> <s_lp_Force_Field>
OPLS_2005

> <r_lp_Energy>
32.5144

> <b_lp_Chiralities_Consistent>
1

> <s_lp_Variant>
AV-unprocessed.smi:2105-1

> <Gold.Version>
5.8.1

> <Gold.Id.Protein>
6NUR|6NUR_protein|mol2

> <Gold.PLP.Fitness>
41.6888

> <Gold.PLP.PLP>
-32.3195

> <Gold.PLP.part.hbond>
-3.6916

> <Gold.PLP.part.metal>
0.0000

> <Gold.PLP.part.buried>
-0.8198

> <Gold.PLP.part.nonpolar>
-28.9981

> <Gold.PLP.part.repulsive>
0.7892

> <Gold.PLP.ligand.clash>
0.0000

> <Gold.PLP.ligand.torsion>
0.6519

> <Gold.PLP.Chemscore.Hbond>
2.5183

> <Gold.PLP.Chemscore.CHOScore>
1.0000

> <Gold.PLP.Chemscore.Metal>
0.0000

> <Gold.Chemscore.Hbonds>
donor molecule, donor type, donor heavy atom, donor atom, acceptor molecule, acceptor atom, score
      L1  H     4    25       P1  7921  1.00
      L1  H     7    30       P1  7948  0.51
      L1  H    10    31       P1  7948  0.62
      P1  H  7989  7998       L1    15  0.57
      L1  C    14    34       P1  8028  1.00

> <Gold.PLP.Chemscore.Internal.Correction>
0.1181

> <Gold.Rescore>
     Score         DG    S(hbond)    S(metal)    S(lipo)     H(rot)  DE(clash)    DE(int)     intcor
     10.88     -16.27       2.18        0.00      72.36       1.94       1.07       4.32       ----

> <Gold.Chemscore.Fitness>
10.8801

> <Gold.Chemscore.DG>
-16.2651

> <Gold.Chemscore.ZeroCoef>
-5.4800

> <Gold.Chemscore.Hbond>
2.1842

> <Gold.Chemscore.Metal>
0.0000

> <Gold.Chemscore.Lipo>
72.3572

> <Gold.Chemscore.Internal_Hbond>
0.0000

> <Gold.Chemscore.DEClash>
1.0665

> <Gold.Chemscore.DEInternal>
4.3184

> <Gold.Chemscore.Rot>
1.9437

> <Gold.Chemscore.Internal.Correction>
   9.000000E+99

> <Gold.Chemscore.Hbonds>
donor molecule, donor type, donor heavy atom, donor atom, acceptor molecule, acceptor atom, score
      L1  H     4    25       P1  7921  0.94
      L1  H     7    30       P1  7948  0.52
      L1  H    10    31       P1  7948  0.62
      P1  H  7989  7998       L1    15  0.13

> <Gold.Chemscore.Hbond.Weighted>
-7.2951

> <Gold.Chemscore.Metal.Weighted>
-0.0000

> <Gold.Chemscore.Lipo.Weighted>
-8.4658

> <Gold.Chemscore.Internal_Hbond.Weighted>
0.0000

> <Gold.Chemscore.DEClash.Weighted>
1.0665

> <Gold.Chemscore.DEInternal.Weighted>
4.3184

> <Gold.Chemscore.Rot.Weighted>
4.9759

> <Gold.Chemscore.Internal.Correction.Weighted>
   9.000000E+99

> <Gold.Protein.RotatedTorsions>
[ 6907 6896 6895 6894 ] final   57.52 input  -60.11 | X-H torsion
[ 7974 7965 7964 7962 ] final -151.29 input  175.53 | X-H torsion
[ 8008 7997 7996 7995 ] final  -44.91 input   59.86 | X-H torsion
[ 10167 10162 10161 10158 ] final  171.04 input  -65.29 | X-H torsion
[ 10718 10713 10712 10709 ] final  -26.63 input   66.30 | X-H torsion
[ 10763 10752 10751 10750 ] final  110.70 input  -60.55 | X-H torsion
[ 11005 11000 10999 10996 ] final -174.57 input  -57.11 | X-H torsion

> <Gold.Protein.ActiveResidues>
 VAL166  LYS551  ARG553  GLY616  TRP617  ASP618  TYR619  PRO620  LYS621  CYS622 
 ASP623  PHE694  ASN695  SER759  ASP760  ASP761  ALA762  ILE779  LEU786  VAL792 
 PHE793  MET794  SER795  GLU796  ALA797  LYS798  CYS799  TRP800  GLU811  SER814 

> <Gold.Protein.RotatedAtoms>
  152.3738  134.6693  160.0166 H   0  0  0  0  0  0  0  0  0  0  0  0  # atno 6907 bound_to 6896
  151.6978  133.3305  159.3267 H   0  0  0  0  0  0  0  0  0  0  0  0  # atno 6908 bound_to 6896
  150.7694  134.6578  159.6367 H   0  0  0  0  0  0  0  0  0  0  0  0  # atno 6909 bound_to 6896
  144.7858  140.4817  143.5807 H   0  0  0  0  0  0  0  0  0  0  0  0  # atno 7974 bound_to 7965
  154.3999  140.1410  156.3760 H   0  0  0  0  0  0  0  0  0  0  0  0  # atno 8008 bound_to 7997
  155.8048  140.3475  155.5403 H   0  0  0  0  0  0  0  0  0  0  0  0  # atno 8009 bound_to 7997
  155.8447  140.0932  157.1703 H   0  0  0  0  0  0  0  0  0  0  0  0  # atno 8010 bound_to 7997
  139.5035  144.3530  151.9903 H   0  0  0  0  0  0  0  0  0  0  0  0  # atno 10167 bound_to 10162
  156.4487  130.4479  149.7004 H   0  0  0  0  0  0  0  0  0  0  0  0  # atno 10718 bound_to 10713
  153.4527  135.3740  155.2293 H   0  0  0  0  0  0  0  0  0  0  0  0  # atno 10763 bound_to 10752
  154.8756  135.3889  154.4019 H   0  0  0  0  0  0  0  0  0  0  0  0  # atno 10764 bound_to 10752
  153.4581  135.7086  153.6131 H   0  0  0  0  0  0  0  0  0  0  0  0  # atno 10765 bound_to 10752
  140.4731  134.6147  157.4890 H   0  0  0  0  0  0  0  0  0  0  0  0  # atno 11005 bound_to 11000
  145.5925  139.1497  143.3174 LP  0  0  0  0  0  0  0  0  0  0  0  0  # atno 17320 bound_to 7965
  146.2089  140.6050  142.9068 LP  0  0  0  0  0  0  0  0  0  0  0  0  # atno 17321 bound_to 7965
  140.2967  144.3693  150.6072 LP  0  0  0  0  0  0  0  0  0  0  0  0  # atno 17342 bound_to 10162
  140.5905  143.2168  151.7262 LP  0  0  0  0  0  0  0  0  0  0  0  0  # atno 17343 bound_to 10162
  156.3839  130.7593  151.2588 LP  0  0  0  0  0  0  0  0  0  0  0  0  # atno 17370 bound_to 10713
  157.7503  131.0287  150.4063 LP  0  0  0  0  0  0  0  0  0  0  0  0  # atno 17371 bound_to 10713
  139.9873  134.7041  155.9752 LP  0  0  0  0  0  0  0  0  0  0  0  0  # atno 17394 bound_to 11000
  141.1567  133.6542  156.4186 LP  0  0  0  0  0  0  0  0  0  0  0  0  # atno 17395 bound_to 11000

$$$$
