AV-unprocessed.smi:1549|AV-procd|sdf|6222|dock4
  -GOLD-   22720 6393D 1   1.00000     0.00000
 Structure written by MMmdl.
 41 42  0  0  0  0  0  0  0  0  1 V2000
  150.4470  138.8957  154.2359 C   0  0  0  0  0  0  0  0  0  0  0  0
  151.1271  137.6759  154.8622 C   0  0  0  0  0  0  0  0  0  0  0  0
  150.3059  136.5327  154.6442 O   0  0  0  0  0  0  0  0  0  0  0  0
  150.6153  135.3576  155.3025 C   0  0  0  0  0  0  0  0  0  0  0  0
  151.5473  135.3950  156.2881 N   0  0  0  0  0  0  0  0  0  0  0  0
  151.8533  134.2473  156.9273 C   0  0  0  0  0  0  0  0  0  0  0  0
  151.2575  133.0109  156.6180 C   0  0  0  0  0  0  0  0  0  0  0  0
  150.2899  132.9698  155.5973 C   0  0  0  0  0  0  0  0  0  0  0  0
  149.9479  134.1689  154.9261 C   0  0  0  0  0  0  0  0  0  0  0  0
  149.0053  134.2346  153.8631 N   0  0  0  0  0  0  0  0  0  0  0  0
  147.9463  133.4405  153.6320 C   0  0  0  0  0  0  0  0  0  0  0  0
  147.5722  132.5254  154.3652 O   0  0  0  0  0  0  0  0  0  0  0  0
  147.3233  133.7885  152.4968 N   0  0  0  0  0  0  0  0  0  0  0  0
  146.1278  133.1549  151.9461 C   0  0  2  0  0  0  0  0  0  0  0  0
  146.4897  132.3993  150.6530 C   0  0  0  0  0  0  0  0  0  0  0  0
  145.2438  131.7917  149.9881 C   0  0  0  0  0  0  0  0  0  0  0  0
  144.1803  132.8695  149.7177 C   0  0  1  0  0  0  0  0  0  0  0  0
  143.0278  132.2692  149.1653 O   0  0  0  0  0  0  0  0  0  0  0  0
  143.8048  133.6114  151.0118 C   0  0  0  0  0  0  0  0  0  0  0  0
  145.0474  134.2214  151.6806 C   0  0  0  0  0  0  0  0  0  0  0  0
  151.0500  139.7929  154.3768 H   0  0  0  0  0  0  0  0  0  0  0  0
  149.4707  139.0742  154.6872 H   0  0  0  0  0  0  0  0  0  0  0  0
  150.3008  138.7554  153.1646 H   0  0  0  0  0  0  0  0  0  0  0  0
  152.1084  137.5302  154.4078 H   0  0  0  0  0  0  0  0  0  0  0  0
  151.2698  137.8459  155.9304 H   0  0  0  0  0  0  0  0  0  0  0  0
  152.6005  134.3154  157.7041 H   0  0  0  0  0  0  0  0  0  0  0  0
  151.5407  132.1132  157.1476 H   0  0  0  0  0  0  0  0  0  0  0  0
  149.8442  132.0216  155.3403 H   0  0  0  0  0  0  0  0  0  0  0  0
  149.1269  135.0104  153.2284 H   0  0  0  0  0  0  0  0  0  0  0  0
  147.7065  134.5591  151.9690 H   0  0  0  0  0  0  0  0  0  0  0  0
  145.7231  132.4297  152.6545 H   0  0  0  0  0  0  0  0  0  0  0  0
  146.9775  133.0770  149.9511 H   0  0  0  0  0  0  0  0  0  0  0  0
  147.2101  131.6101  150.8716 H   0  0  0  0  0  0  0  0  0  0  0  0
  145.5261  131.3004  149.0563 H   0  0  0  0  0  0  0  0  0  0  0  0
  144.8309  131.0162  150.6351 H   0  0  0  0  0  0  0  0  0  0  0  0
  144.5670  133.5841  148.9901 H   0  0  0  0  0  0  0  0  0  0  0  0
  142.3524  132.9259  149.0908 H   0  0  0  0  0  0  0  0  0  0  0  0
  143.0790  134.3965  150.7972 H   0  0  0  0  0  0  0  0  0  0  0  0
  143.3215  132.9238  151.7076 H   0  0  0  0  0  0  0  0  0  0  0  0
  144.7610  134.7036  152.6160 H   0  0  0  0  0  0  0  0  0  0  0  0
  145.4514  135.0064  151.0397 H   0  0  0  0  0  0  0  0  0  0  0  0
  1  2  1  0  0  0  0
  1 21  1  0  0  0  0
  1 22  1  0  0  0  0
  1 23  1  0  0  0  0
  2  3  1  0  0  0  0
  2 24  1  0  0  0  0
  2 25  1  0  0  0  0
  3  4  1  0  0  0  0
  4  9  1  0  0  0  0
  4  5  2  0  0  0  0
  5  6  1  0  0  0  0
  6  7  2  0  0  0  0
  6 26  1  0  0  0  0
  7  8  1  0  0  0  0
  7 27  1  0  0  0  0
  8  9  2  0  0  0  0
  8 28  1  0  0  0  0
  9 10  1  0  0  0  0
 10 11  1  0  0  0  0
 10 29  1  0  0  0  0
 11 12  2  0  0  0  0
 11 13  1  0  0  0  0
 13 14  1  0  0  0  0
 13 30  1  0  0  0  0
 14 20  1  0  0  0  0
 14 15  1  0  0  0  0
 14 31  1  0  0  0  0
 15 16  1  0  0  0  0
 15 32  1  0  0  0  0
 15 33  1  0  0  0  0
 16 17  1  0  0  0  0
 16 34  1  0  0  0  0
 16 35  1  0  0  0  0
 17 18  1  0  0  0  0
 17 19  1  0  0  0  0
 17 36  1  0  0  0  0
 18 37  1  0  0  0  0
 19 20  1  0  0  0  0
 19 38  1  0  0  0  0
 19 39  1  0  0  0  0
 20 40  1  0  0  0  0
 20 41  1  0  0  0  0
M  END
> <s_m_source_file>
AV-unprocessed.smi

> <i_m_source_file_index>
1549

> <i_lp_mmshare_version>
43012

> <i_f3d_flags>
0

> <s_epik_input>
W0NIM11bQ0gyXU9jMW5bY0hdW2NIXVtjSF1jMVtOSF1DKD1PKVtOSF1bQ0BASF0yW0NIMl1bQ0gyXVtDQEBIXShbT0hdKVtDSDJdW0NIMl0y

> <s_epik_cmdline>
J2VwaWtfcHl0aG9uJywgJy1waCcsICc3LjAnLCAnLXRuJywgJzgnLCAnLW1hJywgJzIwMCcsICctbWV0YWxfYmluZGluZycsICctaW1hZScsICc8aW5maWxlLm1hZT4nLCAnLW9tYWUnLCAnPG91dGZpbGUubWFlPic=

> <r_lp_tautomer_probability>
1

> <r_epik_Ionization_Penalty>
0.000120387

> <r_epik_Ionization_Penalty_Charging>
0

> <r_epik_Ionization_Penalty_Neutral>
0.000120387

> <r_epik_State_Penalty>
-0

> <r_epik_Charging_Adjusted_Penalty>
0

> <i_epik_Tot_Q>
0

> <i_epik_Tot_abs_Q>
0

> <r_epik_Metal_State_Penalty>
-0

> <b_epik_Metal_Only>
0

> <s_lp_Force_Field>
OPLS_2005

> <r_lp_Energy>
10.7929

> <b_lp_Chiralities_Consistent>
1

> <s_lp_Variant>
AV-unprocessed.smi:1549-1

> <Gold.Version>
5.8.1

> <Gold.Id.Protein>
6NUR|6NUR_protein|mol2

> <Gold.PLP.Fitness>
47.1658

> <Gold.PLP.PLP>
-35.4283

> <Gold.PLP.part.hbond>
-5.5701

> <Gold.PLP.part.metal>
0.0000

> <Gold.PLP.part.buried>
-2.0557

> <Gold.PLP.part.nonpolar>
-28.2059

> <Gold.PLP.part.repulsive>
0.6973

> <Gold.PLP.ligand.clash>
0.0000

> <Gold.PLP.ligand.torsion>
0.3396

> <Gold.PLP.Chemscore.Hbond>
4.1350

> <Gold.PLP.Chemscore.CHOScore>
0.0000

> <Gold.PLP.Chemscore.Metal>
0.0000

> <Gold.Chemscore.Hbonds>
donor molecule, donor type, donor heavy atom, donor atom, acceptor molecule, acceptor atom, score
      L1  H    10    29       P1  7948  0.80
      L1  H    13    30       P1  7948  0.99
      L1  H    18    37       P1 10186  0.94
      P1  H 10752 10764       L1     5  0.72
      P1  H 10785 10796       L1    18  0.63

> <Gold.PLP.Chemscore.Internal.Correction>
0.0116

> <Gold.Rescore>
     Score         DG    S(hbond)    S(metal)    S(lipo)     H(rot)  DE(clash)    DE(int)     intcor
     15.50     -16.64       2.01        0.00      80.18       1.93       0.67       0.47       ----

> <Gold.Chemscore.Fitness>
15.5030

> <Gold.Chemscore.DG>
-16.6417

> <Gold.Chemscore.ZeroCoef>
-5.4800

> <Gold.Chemscore.Hbond>
2.0137

> <Gold.Chemscore.Metal>
0.0000

> <Gold.Chemscore.Lipo>
80.1804

> <Gold.Chemscore.Internal_Hbond>
0.0000

> <Gold.Chemscore.DEClash>
0.6724

> <Gold.Chemscore.DEInternal>
0.4663

> <Gold.Chemscore.Rot>
1.9318

> <Gold.Chemscore.Internal.Correction>
   9.000000E+99

> <Gold.Chemscore.Hbonds>
donor molecule, donor type, donor heavy atom, donor atom, acceptor molecule, acceptor atom, score
      L1  H    10    29       P1  7948  0.12
      L1  H    13    30       P1  7948  0.35
      L1  H    18    37       P1 10186  0.90
      P1  H 10752 10764       L1     5  0.02
      P1  H 10785 10796       L1    18  0.59

> <Gold.Chemscore.Hbond.Weighted>
-6.7259

> <Gold.Chemscore.Metal.Weighted>
-0.0000

> <Gold.Chemscore.Lipo.Weighted>
-9.3811

> <Gold.Chemscore.Internal_Hbond.Weighted>
0.0000

> <Gold.Chemscore.DEClash.Weighted>
0.6724

> <Gold.Chemscore.DEInternal.Weighted>
0.4663

> <Gold.Chemscore.Rot.Weighted>
4.9454

> <Gold.Chemscore.Internal.Correction.Weighted>
   9.000000E+99

> <Gold.Protein.RotatedTorsions>
[ 6907 6896 6895 6894 ] final   97.95 input  -60.11 | X-H torsion
[ 7974 7965 7964 7962 ] final -104.11 input  175.53 | X-H torsion
[ 8008 7997 7996 7995 ] final   88.81 input   59.86 | X-H torsion
[ 10167 10162 10161 10158 ] final   48.13 input  -65.29 | X-H torsion
[ 10718 10713 10712 10709 ] final  146.44 input   66.30 | X-H torsion
[ 10763 10752 10751 10750 ] final  -23.61 input  -60.55 | X-H torsion
[ 11005 11000 10999 10996 ] final  -19.02 input  -57.11 | X-H torsion

> <Gold.Protein.ActiveResidues>
 VAL166  LYS551  ARG553  GLY616  TRP617  ASP618  TYR619  PRO620  LYS621  CYS622 
 ASP623  PHE694  ASN695  SER759  ASP760  ASP761  ALA762  ILE779  LEU786  VAL792 
 PHE793  MET794  SER795  GLU796  ALA797  LYS798  CYS799  TRP800  GLU811  SER814 

> <Gold.Protein.RotatedAtoms>
  152.5416  134.0655  159.8170 H   0  0  0  0  0  0  0  0  0  0  0  0  # atno 6907 bound_to 6896
  151.0777  133.5407  159.2630 H   0  0  0  0  0  0  0  0  0  0  0  0  # atno 6908 bound_to 6896
  151.2246  135.0540  159.9017 H   0  0  0  0  0  0  0  0  0  0  0  0  # atno 6909 bound_to 6896
  145.2473  140.9226  143.3116 H   0  0  0  0  0  0  0  0  0  0  0  0  # atno 7974 bound_to 7965
  155.9923  140.3367  155.6765 H   0  0  0  0  0  0  0  0  0  0  0  0  # atno 8008 bound_to 7997
  155.6404  140.0694  157.2638 H   0  0  0  0  0  0  0  0  0  0  0  0  # atno 8009 bound_to 7997
  154.4223  140.1744  156.1554 H   0  0  0  0  0  0  0  0  0  0  0  0  # atno 8010 bound_to 7997
  140.2965  144.2984  150.6228 H   0  0  0  0  0  0  0  0  0  0  0  0  # atno 10167 bound_to 10162
  157.3332  131.0924  151.1145 H   0  0  0  0  0  0  0  0  0  0  0  0  # atno 10718 bound_to 10713
  153.6706  135.6972  153.5148 H   0  0  0  0  0  0  0  0  0  0  0  0  # atno 10763 bound_to 10752
  153.2560  135.4259  155.0846 H   0  0  0  0  0  0  0  0  0  0  0  0  # atno 10764 bound_to 10752
  154.8427  135.3543  154.6250 H   0  0  0  0  0  0  0  0  0  0  0  0  # atno 10765 bound_to 10752
  140.8325  133.7986  155.9774 H   0  0  0  0  0  0  0  0  0  0  0  0  # atno 11005 bound_to 11000
  144.9535  139.4057  143.6391 LP  0  0  0  0  0  0  0  0  0  0  0  0  # atno 17320 bound_to 7965
  146.3312  139.8554  142.8865 LP  0  0  0  0  0  0  0  0  0  0  0  0  # atno 17321 bound_to 7965
  140.5688  143.2183  151.7636 LP  0  0  0  0  0  0  0  0  0  0  0  0  # atno 17342 bound_to 10162
  139.4925  144.4246  151.9939 LP  0  0  0  0  0  0  0  0  0  0  0  0  # atno 17343 bound_to 10162
  157.2385  130.6558  149.5879 LP  0  0  0  0  0  0  0  0  0  0  0  0  # atno 17370 bound_to 10713
  155.9698  130.4576  150.5968 LP  0  0  0  0  0  0  0  0  0  0  0  0  # atno 17371 bound_to 10713
  140.8982  134.2411  157.5056 LP  0  0  0  0  0  0  0  0  0  0  0  0  # atno 17394 bound_to 11000
  139.8704  134.9694  156.4665 LP  0  0  0  0  0  0  0  0  0  0  0  0  # atno 17395 bound_to 11000

$$$$
