AV-unprocessed.smi:114|AV-procd|sdf|1111|dock3
  -GOLD-   2262018223D 1   1.00000     0.00000
 Structure written by MMmdl.
 32 34  0  0  0  0  0  0  0  0  1 V2000
  149.6437  127.1715  153.0976 N   0  0  0  0  0  0  0  0  0  0  0  0
  149.2517  128.4402  153.2801 C   0  0  0  0  0  0  0  0  0  0  0  0
  150.0014  129.2385  154.0754 N   0  0  0  0  0  0  0  0  0  0  0  0
  149.6451  130.5122  154.2852 C   0  0  0  0  0  0  0  0  0  0  0  0
  150.4533  131.2366  155.0940 F   0  0  0  0  0  0  0  0  0  0  0  0
  148.5806  131.1497  153.7855 N   0  0  0  0  0  0  0  0  0  0  0  0
  147.8239  130.3462  152.9834 C   0  0  0  0  0  0  0  0  0  0  0  0
  148.0902  128.9850  152.6806 C   0  0  0  0  0  0  0  0  0  0  0  0
  147.1088  128.4879  151.8339 N   0  0  0  0  0  0  0  0  0  0  0  0
  146.3079  129.5041  151.6511 C   0  0  0  0  0  0  0  0  0  0  0  0
  146.6701  130.6655  152.3017 N   0  0  0  0  0  0  0  0  0  0  0  0
  145.9886  131.9996  152.3085 C   0  0  2  0  0  0  0  0  0  0  0  0
  144.7287  131.8269  151.7310 O   0  0  0  0  0  0  0  0  0  0  0  0
  144.5684  132.6675  150.5889 C   0  0  2  0  0  0  0  0  0  0  0  0
  143.6626  132.0040  149.5369 C   0  0  0  0  0  0  0  0  0  0  0  0
  143.3432  132.9301  148.5212 O   0  0  0  0  0  0  0  0  0  0  0  0
  145.9984  132.9852  150.1287 C   0  0  2  0  0  0  0  0  0  0  0  0
  146.5006  131.9865  149.2557 O   0  0  0  0  0  0  0  0  0  0  0  0
  146.7439  133.0355  151.4548 C   0  0  2  0  0  0  0  0  0  0  0  0
  148.1385  132.8224  151.3201 O   0  0  0  0  0  0  0  0  0  0  0  0
  145.9121  132.2682  153.3627 H   0  0  0  0  0  0  0  0  0  0  0  0
  144.1189  133.6023  150.9299 H   0  0  0  0  0  0  0  0  0  0  0  0
  146.0464  133.9410  149.6059 H   0  0  0  0  0  0  0  0  0  0  0  0
  146.5819  134.0114  151.9142 H   0  0  0  0  0  0  0  0  0  0  0  0
  149.1001  126.5571  152.5085 H   0  0  0  0  0  0  0  0  0  0  0  0
  150.4812  126.8327  153.5486 H   0  0  0  0  0  0  0  0  0  0  0  0
  145.4260  129.4306  151.0317 H   0  0  0  0  0  0  0  0  0  0  0  0
  144.1824  131.1698  149.0645 H   0  0  0  0  0  0  0  0  0  0  0  0
  142.7518  131.6081  149.9871 H   0  0  0  0  0  0  0  0  0  0  0  0
  144.1039  133.0491  147.9732 H   0  0  0  0  0  0  0  0  0  0  0  0
  147.0887  131.4312  149.7450 H   0  0  0  0  0  0  0  0  0  0  0  0
  148.2696  131.9999  150.8733 H   0  0  0  0  0  0  0  0  0  0  0  0
  1  2  1  0  0  0  0
  1 25  1  0  0  0  0
  1 26  1  0  0  0  0
  2  8  1  0  0  0  0
  2  3  2  0  0  0  0
  3  4  1  0  0  0  0
  4  5  1  0  0  0  0
  4  6  2  0  0  0  0
  6  7  1  0  0  0  0
  7 11  1  0  0  0  0
  7  8  2  0  0  0  0
  8  9  1  0  0  0  0
  9 10  2  0  0  0  0
 10 11  1  0  0  0  0
 10 27  1  0  0  0  0
 11 12  1  0  0  0  0
 12 21  1  0  0  0  0
 12 19  1  0  0  0  0
 12 13  1  0  0  0  0
 13 14  1  0  0  0  0
 14 22  1  0  0  0  0
 14 15  1  0  0  0  0
 14 17  1  0  0  0  0
 15 16  1  0  0  0  0
 15 28  1  0  0  0  0
 15 29  1  0  0  0  0
 16 30  1  0  0  0  0
 17 23  1  0  0  0  0
 17 18  1  0  0  0  0
 17 19  1  0  0  0  0
 18 31  1  0  0  0  0
 19 24  1  0  0  0  0
 19 20  1  0  0  0  0
 20 32  1  0  0  0  0
M  END
> <s_m_source_file>
AV-unprocessed.smi

> <i_m_source_file_index>
114

> <i_lp_mmshare_version>
43012

> <i_f3d_flags>
0

> <s_epik_input>
RmMobjEpbmMoW05IMl0pYyhjMTIpbltjSF1uMltDQEBIXTNPW0NASF0oW0NIMl1bT0hdKVtDQEBIXShbT0hdKVtDQEBIXTNbT0hd

> <s_epik_cmdline>
J2VwaWtfcHl0aG9uJywgJy1waCcsICc3LjAnLCAnLXRuJywgJzgnLCAnLW1hJywgJzIwMCcsICctbWV0YWxfYmluZGluZycsICctaW1hZScsICc8aW5maWxlLm1hZT4nLCAnLW9tYWUnLCAnPG91dGZpbGUubWFlPic=

> <r_lp_tautomer_probability>
1

> <r_epik_Ionization_Penalty>
1.13199e-05

> <r_epik_Ionization_Penalty_Charging>
0

> <r_epik_Ionization_Penalty_Neutral>
1.13199e-05

> <r_epik_State_Penalty>
-0

> <r_epik_Charging_Adjusted_Penalty>
0

> <i_epik_Tot_Q>
0

> <i_epik_Tot_abs_Q>
0

> <r_epik_Metal_State_Penalty>
-0

> <b_epik_Metal_Only>
0

> <s_epik_Chemistry_Notes>
This compound contains an acetal/aminal-like group ( X-CH(R)-Y where X, Y are N, S, or O) that may be acid/base labile, releasing an aldehyde.

> <s_lp_Force_Field>
OPLS_2005

> <r_lp_Energy>
42.0109

> <b_lp_Chiralities_Consistent>
1

> <s_lp_Variant>
AV-unprocessed.smi:114-5

> <Gold.Version>
5.8.1

> <Gold.Id.Protein>
6NUR|6NUR_protein|mol2

> <Gold.PLP.Fitness>
42.0082

> <Gold.PLP.PLP>
-33.5930

> <Gold.PLP.part.hbond>
-5.8987

> <Gold.PLP.part.metal>
0.0000

> <Gold.PLP.part.buried>
-3.6468

> <Gold.PLP.part.nonpolar>
-23.5594

> <Gold.PLP.part.repulsive>
0.4220

> <Gold.PLP.ligand.clash>
0.0163

> <Gold.PLP.ligand.torsion>
0.3491

> <Gold.PLP.Chemscore.Hbond>
2.9600

> <Gold.PLP.Chemscore.CHOScore>
0.0000

> <Gold.PLP.Chemscore.Metal>
0.0000

> <Gold.Chemscore.Hbonds>
donor molecule, donor type, donor heavy atom, donor atom, acceptor molecule, acceptor atom, score
      L1  H    18    31       P1 10747  1.00
      L1  H    20    32       P1 10747  0.83

> <Gold.PLP.Chemscore.Internal.Correction>
0.2499

> <Gold.Rescore>
     Score         DG    S(hbond)    S(metal)    S(lipo)     H(rot)  DE(clash)    DE(int)     intcor
      7.95      -9.34       2.99        0.00      35.89       4.03       0.03       1.36       ----

> <Gold.Chemscore.Fitness>
7.9534

> <Gold.Chemscore.DG>
-9.3417

> <Gold.Chemscore.ZeroCoef>
-5.4800

> <Gold.Chemscore.Hbond>
2.9859

> <Gold.Chemscore.Metal>
0.0000

> <Gold.Chemscore.Lipo>
35.8947

> <Gold.Chemscore.Internal_Hbond>
0.0000

> <Gold.Chemscore.DEClash>
0.0251

> <Gold.Chemscore.DEInternal>
1.3632

> <Gold.Chemscore.Rot>
4.0277

> <Gold.Chemscore.Internal.Correction>
   9.000000E+99

> <Gold.Chemscore.Hbonds>
donor molecule, donor type, donor heavy atom, donor atom, acceptor molecule, acceptor atom, score
      L1  H    18    31       P1 10747  0.88
      L1  H    20    32       P1 10747  0.82

> <Gold.Chemscore.Hbond.Weighted>
-9.9730

> <Gold.Chemscore.Metal.Weighted>
-0.0000

> <Gold.Chemscore.Lipo.Weighted>
-4.1997

> <Gold.Chemscore.Internal_Hbond.Weighted>
0.0000

> <Gold.Chemscore.DEClash.Weighted>
0.0251

> <Gold.Chemscore.DEInternal.Weighted>
1.3632

> <Gold.Chemscore.Rot.Weighted>
10.3110

> <Gold.Chemscore.Internal.Correction.Weighted>
   9.000000E+99

> <Gold.Protein.RotatedTorsions>
[ 6907 6896 6895 6894 ] final   67.56 input  -60.11 | X-H torsion
[ 7974 7965 7964 7962 ] final  -43.00 input  175.53 | X-H torsion
[ 8008 7997 7996 7995 ] final  119.14 input   59.86 | X-H torsion
[ 10167 10162 10161 10158 ] final  -81.15 input  -65.29 | X-H torsion
[ 10718 10713 10712 10709 ] final  -30.76 input   66.30 | X-H torsion
[ 10763 10752 10751 10750 ] final   70.05 input  -60.55 | X-H torsion
[ 11005 11000 10999 10996 ] final  138.84 input  -57.11 | X-H torsion

> <Gold.Protein.ActiveResidues>
 VAL166  LYS551  ARG553  GLY616  TRP617  ASP618  TYR619  PRO620  LYS621  CYS622 
 ASP623  PHE694  ASN695  SER759  ASP760  ASP761  ALA762  ILE779  LEU786  VAL792 
 PHE793  MET794  SER795  GLU796  ALA797  LYS798  CYS799  TRP800  GLU811  SER814 

> <Gold.Protein.RotatedAtoms>
  152.4560  134.5290  159.9804 H   0  0  0  0  0  0  0  0  0  0  0  0  # atno 6907 bound_to 6896
  151.5350  133.3436  159.2933 H   0  0  0  0  0  0  0  0  0  0  0  0  # atno 6908 bound_to 6896
  150.8505  134.7859  159.7067 H   0  0  0  0  0  0  0  0  0  0  0  0  # atno 6909 bound_to 6896
  146.0062  140.7018  142.9246 H   0  0  0  0  0  0  0  0  0  0  0  0  # atno 7974 bound_to 7965
  156.2581  140.2859  156.0946 H   0  0  0  0  0  0  0  0  0  0  0  0  # atno 8008 bound_to 7997
  155.1426  140.0396  157.2819 H   0  0  0  0  0  0  0  0  0  0  0  0  # atno 8009 bound_to 7997
  154.6518  140.2546  155.7211 H   0  0  0  0  0  0  0  0  0  0  0  0  # atno 8010 bound_to 7997
  140.4438  143.2505  151.8587 H   0  0  0  0  0  0  0  0  0  0  0  0  # atno 10167 bound_to 10162
  156.3958  130.4381  149.7360 H   0  0  0  0  0  0  0  0  0  0  0  0  # atno 10718 bound_to 10713
  153.0320  135.5188  154.7382 H   0  0  0  0  0  0  0  0  0  0  0  0  # atno 10763 bound_to 10752
  154.6390  135.2910  155.0129 H   0  0  0  0  0  0  0  0  0  0  0  0  # atno 10764 bound_to 10752
  154.1054  135.6630  153.4928 H   0  0  0  0  0  0  0  0  0  0  0  0  # atno 10765 bound_to 10752
  140.0212  134.9395  157.0478 H   0  0  0  0  0  0  0  0  0  0  0  0  # atno 11005 bound_to 11000
  144.6936  140.3318  143.7214 LP  0  0  0  0  0  0  0  0  0  0  0  0  # atno 17320 bound_to 7965
  145.7413  139.1765  143.2374 LP  0  0  0  0  0  0  0  0  0  0  0  0  # atno 17321 bound_to 7965
  139.4791  144.5198  151.8816 LP  0  0  0  0  0  0  0  0  0  0  0  0  # atno 17342 bound_to 10162
  140.4287  144.2145  150.5887 LP  0  0  0  0  0  0  0  0  0  0  0  0  # atno 17343 bound_to 10162
  156.4396  130.7854  151.2875 LP  0  0  0  0  0  0  0  0  0  0  0  0  # atno 17370 bound_to 10713
  157.7501  131.0129  150.3403 LP  0  0  0  0  0  0  0  0  0  0  0  0  # atno 17371 bound_to 10713
  140.4384  134.1707  155.7172 LP  0  0  0  0  0  0  0  0  0  0  0  0  # atno 17394 bound_to 11000
  141.1775  133.8484  157.1372 LP  0  0  0  0  0  0  0  0  0  0  0  0  # atno 17395 bound_to 11000

$$$$
