AV-unprocessed.smi:2524|AV-procd|sdf|9923|dock6
  -GOLD-   2272013563D 1   1.00000     0.00000
 Structure written by MMmdl.
 37 38  0  0  0  0  0  0  0  0  2 V2000
  146.8106  142.7186  154.0449 C   0  0  0  0  0  0  0  0  0  0  0  0
  147.7163  141.7309  153.9853 C   0  0  0  0  0  0  0  0  0  0  0  0
  149.0662  141.7612  154.6705 C   0  0  0  0  0  0  0  0  0  0  0  0
  149.0522  140.9924  155.9970 C   0  0  0  0  0  0  0  0  0  0  0  0
  148.3139  142.0127  157.3394 S   0  0  0  0  0  0  0  0  0  0  0  0
  147.1250  142.6950  156.8059 O   0  0  0  0  0  0  0  0  0  0  0  0
  148.2025  141.1970  158.5577 O   0  0  0  0  0  0  0  0  0  0  0  0
  149.5327  143.2019  157.6197 N   0  0  0  0  0  0  0  0  0  0  0  0
  150.8546  142.7698  158.0820 C   0  0  0  0  0  0  0  0  0  0  0  0
  151.4354  143.7295  159.1142 C   0  0  0  0  0  0  0  0  0  0  0  0
  152.2745  143.0127  160.1350 C   0  0  0  0  0  0  0  0  0  0  0  0
  153.1305  141.9521  159.7592 C   0  0  0  0  0  0  0  0  0  0  0  0
  153.9218  141.3164  160.7374 C   0  0  0  0  0  0  0  0  0  0  0  0
  153.8536  141.7214  162.0238 N   0  3  0  0  0  0  0  0  0  0  0  0
  153.0483  142.7257  162.4310 C   0  0  0  0  0  0  0  0  0  0  0  0
  152.2364  143.3972  161.4945 C   0  0  0  0  0  0  0  0  0  0  0  0
  151.8824  145.1042  158.6600 C   0  0  0  0  0  0  0  0  0  0  0  0
  150.6531  144.9620  159.5199 C   0  0  0  0  0  0  0  0  0  0  0  0
  147.0007  143.6230  154.6041 H   0  0  0  0  0  0  0  0  0  0  0  0
  145.8634  142.6334  153.5327 H   0  0  0  0  0  0  0  0  0  0  0  0
  147.4881  140.8412  153.4164 H   0  0  0  0  0  0  0  0  0  0  0  0
  149.8254  141.3458  154.0068 H   0  0  0  0  0  0  0  0  0  0  0  0
  149.3373  142.8025  154.8472 H   0  0  0  0  0  0  0  0  0  0  0  0
  148.4684  140.0762  155.9069 H   0  0  0  0  0  0  0  0  0  0  0  0
  150.0636  140.7162  156.2958 H   0  0  0  0  0  0  0  0  0  0  0  0
  149.6089  143.8466  156.8330 H   0  0  0  0  0  0  0  0  0  0  0  0
  150.7956  141.7661  158.5053 H   0  0  0  0  0  0  0  0  0  0  0  0
  151.5197  142.7107  157.2200 H   0  0  0  0  0  0  0  0  0  0  0  0
  153.1894  141.6373  158.7275 H   0  0  0  0  0  0  0  0  0  0  0  0
  154.6042  140.5051  160.5304 H   0  0  0  0  0  0  0  0  0  0  0  0
  153.0795  142.9624  163.4844 H   0  0  0  0  0  0  0  0  0  0  0  0
  151.5961  144.2060  161.8156 H   0  0  0  0  0  0  0  0  0  0  0  0
  152.7663  145.5365  159.1250 H   0  0  0  0  0  0  0  0  0  0  0  0
  151.7210  145.3814  157.6200 H   0  0  0  0  0  0  0  0  0  0  0  0
  149.6951  145.1434  159.0364 H   0  0  0  0  0  0  0  0  0  0  0  0
  150.7247  145.2990  160.5521 H   0  0  0  0  0  0  0  0  0  0  0  0
  154.4359  141.2503  162.7167 H   0  0  0  0  0  0  0  0  0  0  0  0
  1  2  2  0  0  0  0
  1 19  1  0  0  0  0
  1 20  1  0  0  0  0
  2  3  1  0  0  0  0
  2 21  1  0  0  0  0
  3  4  1  0  0  0  0
  3 22  1  0  0  0  0
  3 23  1  0  0  0  0
  4  5  1  0  0  0  0
  4 24  1  0  0  0  0
  4 25  1  0  0  0  0
  5  6  2  0  0  0  0
  5  7  2  0  0  0  0
  5  8  1  0  0  0  0
  8  9  1  0  0  0  0
  8 26  1  0  0  0  0
  9 10  1  0  0  0  0
  9 27  1  0  0  0  0
  9 28  1  0  0  0  0
 10 18  1  0  0  0  0
 10 11  1  0  0  0  0
 10 17  1  0  0  0  0
 11 16  1  0  0  0  0
 11 12  2  0  0  0  0
 12 13  1  0  0  0  0
 12 29  1  0  0  0  0
 13 14  2  0  0  0  0
 13 30  1  0  0  0  0
 14 15  1  0  0  0  0
 14 37  1  0  0  0  0
 15 16  2  0  0  0  0
 15 31  1  0  0  0  0
 16 32  1  0  0  0  0
 17 18  1  0  0  0  0
 17 33  1  0  0  0  0
 17 34  1  0  0  0  0
 18 35  1  0  0  0  0
 18 36  1  0  0  0  0
M  CHG  1  14   1
M  END
> <s_m_source_file>
AV-unprocessed.smi

> <i_m_source_file_index>
2524

> <i_lp_mmshare_version>
43012

> <i_f3d_flags>
0

> <s_epik_input>
W0NIMl09W0NIXVtDSDJdW0NIMl1TKD1PKSg9TylbTkhdW0NIMl1DMShbQ0gyXVtDSDJdMSljMltjSF1bY0hdbltjSF1bY0hdMg==

> <s_epik_cmdline>
J2VwaWtfcHl0aG9uJywgJy1waCcsICc3LjAnLCAnLXRuJywgJzgnLCAnLW1hJywgJzIwMCcsICctbWV0YWxfYmluZGluZycsICctaW1hZScsICc8aW5maWxlLm1hZT4nLCAnLW9tYWUnLCAnPG91dGZpbGUubWFlPic=

> <r_epik_Ionization_Penalty>
1.70311

> <r_epik_Ionization_Penalty_Charging>
1.7031

> <r_epik_Ionization_Penalty_Neutral>
1.31612e-05

> <r_epik_State_Penalty>
1.80925

> <r_epik_Charging_Adjusted_Penalty>
3.51235

> <i_epik_Tot_Q>
1

> <i_epik_Tot_abs_Q>
1

> <r_epik_Metal_State_Penalty>
1.86078

> <b_epik_Metal_Only>
0

> <s_lp_Force_Field>
OPLS_2005

> <r_lp_Energy>
15.9515

> <b_lp_Chiralities_Consistent>
1

> <s_lp_Variant>
AV-unprocessed.smi:2524-2

> <Gold.Version>
5.8.1

> <Gold.Id.Protein>
6NUR|6NUR_protein|mol2

> <Gold.PLP.Fitness>
47.7654

> <Gold.PLP.PLP>
-47.0047

> <Gold.PLP.part.hbond>
-3.2645

> <Gold.PLP.part.metal>
0.0000

> <Gold.PLP.part.buried>
-3.0475

> <Gold.PLP.part.nonpolar>
-40.4106

> <Gold.PLP.part.repulsive>
1.2168

> <Gold.PLP.ligand.clash>
0.0000

> <Gold.PLP.ligand.torsion>
1.9060

> <Gold.PLP.Chemscore.Hbond>
1.0000

> <Gold.PLP.Chemscore.CHOScore>
0.0000

> <Gold.PLP.Chemscore.Metal>
0.0000

> <Gold.Chemscore.Hbonds>
donor molecule, donor type, donor heavy atom, donor atom, acceptor molecule, acceptor atom, score
      L1  H     8    26       P1  8028  0.99

> <Gold.PLP.Chemscore.Internal.Correction>
1.5728

> <Gold.Rescore>
     Score         DG    S(hbond)    S(metal)    S(lipo)     H(rot)  DE(clash)    DE(int)     intcor
     16.10     -18.19       0.94        0.00     124.94       1.97       0.23       1.86       ----

> <Gold.Chemscore.Fitness>
16.0986

> <Gold.Chemscore.DG>
-18.1871

> <Gold.Chemscore.ZeroCoef>
-5.4800

> <Gold.Chemscore.Hbond>
0.9412

> <Gold.Chemscore.Metal>
0.0000

> <Gold.Chemscore.Lipo>
124.9410

> <Gold.Chemscore.Internal_Hbond>
0.0000

> <Gold.Chemscore.DEClash>
0.2287

> <Gold.Chemscore.DEInternal>
1.8598

> <Gold.Chemscore.Rot>
1.9744

> <Gold.Chemscore.Internal.Correction>
   9.000000E+99

> <Gold.Chemscore.Hbonds>
donor molecule, donor type, donor heavy atom, donor atom, acceptor molecule, acceptor atom, score
      L1  H     8    26       P1  8028  0.87

> <Gold.Chemscore.Hbond.Weighted>
-3.1435

> <Gold.Chemscore.Metal.Weighted>
-0.0000

> <Gold.Chemscore.Lipo.Weighted>
-14.6181

> <Gold.Chemscore.Internal_Hbond.Weighted>
0.0000

> <Gold.Chemscore.DEClash.Weighted>
0.2287

> <Gold.Chemscore.DEInternal.Weighted>
1.8598

> <Gold.Chemscore.Rot.Weighted>
5.0546

> <Gold.Chemscore.Internal.Correction.Weighted>
   9.000000E+99

> <Gold.Protein.RotatedTorsions>
[ 6907 6896 6895 6894 ] final  116.12 input  -60.11 | X-H torsion
[ 7974 7965 7964 7962 ] final   89.83 input  175.53 | X-H torsion
[ 8008 7997 7996 7995 ] final  -44.83 input   59.86 | X-H torsion
[ 10167 10162 10161 10158 ] final   -4.33 input  -65.29 | X-H torsion
[ 10718 10713 10712 10709 ] final  143.42 input   66.30 | X-H torsion
[ 10763 10752 10751 10750 ] final   67.80 input  -60.55 | X-H torsion
[ 11005 11000 10999 10996 ] final -132.40 input  -57.11 | X-H torsion

> <Gold.Protein.ActiveResidues>
 VAL166  LYS551  ARG553  GLY616  TRP617  ASP618  TYR619  PRO620  LYS621  CYS622 
 ASP623  PHE694  ASN695  SER759  ASP760  ASP761  ALA762  ILE779  LEU786  VAL792 
 PHE793  MET794  SER795  GLU796  ALA797  LYS798  CYS799  TRP800  GLU811  SER814 

> <Gold.Protein.RotatedAtoms>
  152.4698  133.8005  159.6949 H   0  0  0  0  0  0  0  0  0  0  0  0  # atno 6907 bound_to 6896
  150.8681  133.7535  159.2976 H   0  0  0  0  0  0  0  0  0  0  0  0  # atno 6908 bound_to 6896
  151.5078  135.1067  159.9898 H   0  0  0  0  0  0  0  0  0  0  0  0  # atno 6909 bound_to 6896
  145.5272  139.2281  143.2639 H   0  0  0  0  0  0  0  0  0  0  0  0  # atno 7974 bound_to 7965
  154.3998  140.1412  156.3747 H   0  0  0  0  0  0  0  0  0  0  0  0  # atno 8008 bound_to 7997
  155.8059  140.3474  155.5409 H   0  0  0  0  0  0  0  0  0  0  0  0  # atno 8009 bound_to 7997
  155.8436  140.0930  157.1710 H   0  0  0  0  0  0  0  0  0  0  0  0  # atno 8010 bound_to 7997
  140.6923  143.6436  150.8413 H   0  0  0  0  0  0  0  0  0  0  0  0  # atno 10167 bound_to 10162
  157.3692  131.0976  151.0844 H   0  0  0  0  0  0  0  0  0  0  0  0  # atno 10718 bound_to 10713
  153.0204  135.5270  154.7036 H   0  0  0  0  0  0  0  0  0  0  0  0  # atno 10763 bound_to 10752
  154.6138  135.2881  155.0405 H   0  0  0  0  0  0  0  0  0  0  0  0  # atno 10764 bound_to 10752
  154.1417  135.6577  153.4996 H   0  0  0  0  0  0  0  0  0  0  0  0  # atno 10765 bound_to 10752
  140.9174  134.1489  157.4342 H   0  0  0  0  0  0  0  0  0  0  0  0  # atno 11005 bound_to 11000
  146.2068  140.6086  142.9077 LP  0  0  0  0  0  0  0  0  0  0  0  0  # atno 17320 bound_to 7965
  144.7645  140.5498  143.6712 LP  0  0  0  0  0  0  0  0  0  0  0  0  # atno 17321 bound_to 7965
  140.0151  143.5602  152.2823 LP  0  0  0  0  0  0  0  0  0  0  0  0  # atno 17342 bound_to 10162
  139.6339  144.7647  151.2478 LP  0  0  0  0  0  0  0  0  0  0  0  0  # atno 17343 bound_to 10162
  157.1955  130.6371  149.5719 LP  0  0  0  0  0  0  0  0  0  0  0  0  # atno 17370 bound_to 10713
  155.9752  130.4708  150.6443 LP  0  0  0  0  0  0  0  0  0  0  0  0  # atno 17371 bound_to 10713
  139.8768  134.9958  156.5764 LP  0  0  0  0  0  0  0  0  0  0  0  0  # atno 17394 bound_to 11000
  140.8032  133.8488  155.8745 LP  0  0  0  0  0  0  0  0  0  0  0  0  # atno 17395 bound_to 11000

$$$$
