AV-unprocessed.smi:713|AV-procd|sdf|3481|dock10
  -GOLD-   22720 0473D 1   1.00000     0.00000
 Structure written by MMmdl.
 41 42  0  0  0  0  0  0  0  0  1 V2000
  153.6063  141.0787  160.7987 C   0  0  0  0  0  0  0  0  0  0  0  0
  153.2341  141.8427  159.5114 C   0  0  1  0  0  0  0  0  0  0  0  0
  152.3966  141.0024  158.5301 C   0  0  0  0  0  0  0  0  0  0  0  0
  152.1934  139.8052  158.7367 O   0  0  0  0  0  0  0  0  0  0  0  0
  151.9281  141.6453  157.4480 N   0  0  0  0  0  0  0  0  0  0  0  0
  151.1140  141.0492  156.3946 C   0  0  1  0  0  0  0  0  0  0  0  0
  151.9353  139.9689  155.6686 C   0  0  0  0  0  0  0  0  0  0  0  0
  151.1112  139.2590  154.5835 C   0  0  0  0  0  0  0  0  0  0  0  0
  149.7991  138.6879  155.1509 C   0  0  0  0  0  0  0  0  0  0  0  0
  148.9606  139.7221  155.9367 C   0  0  2  0  0  0  0  0  0  0  0  0
  148.0703  140.9414  154.8487 S   0  0  0  0  0  0  0  0  0  0  0  0
  147.1386  139.8440  153.7015 C   0  0  0  0  0  0  0  0  0  0  0  0
  147.0971  141.6666  155.6792 O   0  0  0  0  0  0  0  0  0  0  0  0
  149.0389  141.7023  154.0461 O   0  0  0  0  0  0  0  0  0  0  0  0
  149.8257  140.4433  156.9895 C   0  0  0  0  0  0  0  0  0  0  0  0
  152.5754  143.1117  159.8055 N   0  0  0  0  0  0  0  0  0  0  0  0
  152.2336  143.6235  161.0410 C   0  0  0  0  0  0  0  0  0  0  0  0
  151.6744  144.8520  160.8364 C   0  0  0  0  0  0  0  0  0  0  0  0
  151.7227  145.0141  159.4241 C   0  0  0  0  0  0  0  0  0  0  0  0
  152.2672  143.9762  158.8109 N   0  0  0  0  0  0  0  0  0  0  0  0
  154.1684  140.1720  160.5715 H   0  0  0  0  0  0  0  0  0  0  0  0
  152.7238  140.7868  161.3694 H   0  0  0  0  0  0  0  0  0  0  0  0
  154.2306  141.6937  161.4476 H   0  0  0  0  0  0  0  0  0  0  0  0
  154.1667  142.0788  158.9966 H   0  0  0  0  0  0  0  0  0  0  0  0
  152.1403  142.6279  157.3557 H   0  0  0  0  0  0  0  0  0  0  0  0
  150.8550  141.8250  155.6729 H   0  0  0  0  0  0  0  0  0  0  0  0
  152.8245  140.4138  155.2199 H   0  0  0  0  0  0  0  0  0  0  0  0
  152.2903  139.2300  156.3887 H   0  0  0  0  0  0  0  0  0  0  0  0
  150.9093  139.9467  153.7645 H   0  0  0  0  0  0  0  0  0  0  0  0
  151.7007  138.4513  154.1491 H   0  0  0  0  0  0  0  0  0  0  0  0
  149.2121  138.2386  154.3512 H   0  0  0  0  0  0  0  0  0  0  0  0
  150.0493  137.8683  155.8255 H   0  0  0  0  0  0  0  0  0  0  0  0
  148.1723  139.1869  156.4668 H   0  0  0  0  0  0  0  0  0  0  0  0
  146.4785  140.4514  153.0825 H   0  0  0  0  0  0  0  0  0  0  0  0
  146.5416  139.1358  154.2752 H   0  0  0  0  0  0  0  0  0  0  0  0
  147.8301  139.3040  153.0562 H   0  0  0  0  0  0  0  0  0  0  0  0
  150.0958  139.7287  157.7682 H   0  0  0  0  0  0  0  0  0  0  0  0
  149.2379  141.2168  157.4853 H   0  0  0  0  0  0  0  0  0  0  0  0
  152.4164  143.0770  161.9545 H   0  0  0  0  0  0  0  0  0  0  0  0
  151.2919  145.5328  161.5823 H   0  0  0  0  0  0  0  0  0  0  0  0
  151.3850  145.8509  158.8307 H   0  0  0  0  0  0  0  0  0  0  0  0
  1  2  1  0  0  0  0
  1 21  1  0  0  0  0
  1 22  1  0  0  0  0
  1 23  1  0  0  0  0
  2  3  1  0  0  0  0
  2 16  1  0  0  0  0
  2 24  1  0  0  0  0
  3  4  2  0  0  0  0
  3  5  1  0  0  0  0
  5  6  1  0  0  0  0
  5 25  1  0  0  0  0
  6 15  1  0  0  0  0
  6  7  1  0  0  0  0
  6 26  1  0  0  0  0
  7  8  1  0  0  0  0
  7 27  1  0  0  0  0
  7 28  1  0  0  0  0
  8  9  1  0  0  0  0
  8 29  1  0  0  0  0
  8 30  1  0  0  0  0
  9 10  1  0  0  0  0
  9 31  1  0  0  0  0
  9 32  1  0  0  0  0
 10 11  1  0  0  0  0
 10 15  1  0  0  0  0
 10 33  1  0  0  0  0
 11 12  1  0  0  0  0
 11 13  2  0  0  0  0
 11 14  2  0  0  0  0
 12 34  1  0  0  0  0
 12 35  1  0  0  0  0
 12 36  1  0  0  0  0
 15 37  1  0  0  0  0
 15 38  1  0  0  0  0
 16 20  1  0  0  0  0
 16 17  1  0  0  0  0
 17 18  2  0  0  0  0
 17 39  1  0  0  0  0
 18 19  1  0  0  0  0
 18 40  1  0  0  0  0
 19 20  2  0  0  0  0
 19 41  1  0  0  0  0
M  END
> <s_m_source_file>
AV-unprocessed.smi

> <i_m_source_file_index>
713

> <i_lp_mmshare_version>
43012

> <i_f3d_flags>
0

> <s_epik_input>
bjFbY0hdW2NIXVtjSF1uMVtDQEhdKFtDSDNdKUMoPU8pW05IXVtDQEBIXTJbQ0gyXVtDSDJdW0NIMl1bQ0BIXShbQ0gyXTIpUyg9TykoPU8pW0NIM10=

> <s_epik_cmdline>
J2VwaWtfcHl0aG9uJywgJy1waCcsICc3LjAnLCAnLXRuJywgJzgnLCAnLW1hJywgJzIwMCcsICctbWV0YWxfYmluZGluZycsICctaW1hZScsICc8aW5maWxlLm1hZT4nLCAnLW9tYWUnLCAnPG91dGZpbGUubWFlPic=

> <r_lp_tautomer_probability>
1

> <r_epik_Ionization_Penalty>
4.07816e-05

> <r_epik_Ionization_Penalty_Charging>
0

> <r_epik_Ionization_Penalty_Neutral>
4.07816e-05

> <r_epik_State_Penalty>
-0

> <r_epik_Charging_Adjusted_Penalty>
0

> <i_epik_Tot_Q>
0

> <i_epik_Tot_abs_Q>
0

> <r_epik_Metal_State_Penalty>
-0

> <b_epik_Metal_Only>
0

> <s_lp_Force_Field>
OPLS_2005

> <r_lp_Energy>
4.31355

> <b_lp_Chiralities_Consistent>
1

> <s_lp_Variant>
AV-unprocessed.smi:713-8

> <Gold.Version>
5.8.1

> <Gold.Id.Protein>
6NUR|6NUR_protein|mol2

> <Gold.PLP.Fitness>
44.7842

> <Gold.PLP.PLP>
-43.2803

> <Gold.PLP.part.hbond>
-1.9743

> <Gold.PLP.part.metal>
0.0000

> <Gold.PLP.part.buried>
-3.4895

> <Gold.PLP.part.nonpolar>
-37.7091

> <Gold.PLP.part.repulsive>
0.4706

> <Gold.PLP.ligand.clash>
0.0000

> <Gold.PLP.ligand.torsion>
0.3591

> <Gold.PLP.Chemscore.Hbond>
0.6400

> <Gold.PLP.Chemscore.CHOScore>
0.0000

> <Gold.PLP.Chemscore.Metal>
0.0000

> <Gold.Chemscore.Hbonds>
donor molecule, donor type, donor heavy atom, donor atom, acceptor molecule, acceptor atom, score
      P1  H  8011  8017       L1    14  0.58

> <Gold.PLP.Chemscore.Internal.Correction>
0.3020

> <Gold.Rescore>
     Score         DG    S(hbond)    S(metal)    S(lipo)     H(rot)  DE(clash)    DE(int)     intcor
     11.18     -15.95       1.21        0.00      92.80       1.72       2.15       2.62       ----

> <Gold.Chemscore.Fitness>
11.1838

> <Gold.Chemscore.DG>
-15.9534

> <Gold.Chemscore.ZeroCoef>
-5.4800

> <Gold.Chemscore.Hbond>
1.2072

> <Gold.Chemscore.Metal>
0.0000

> <Gold.Chemscore.Lipo>
92.7971

> <Gold.Chemscore.Internal_Hbond>
0.0000

> <Gold.Chemscore.DEClash>
2.1471

> <Gold.Chemscore.DEInternal>
2.6225

> <Gold.Chemscore.Rot>
1.7249

> <Gold.Chemscore.Internal.Correction>
   9.000000E+99

> <Gold.Chemscore.Hbonds>
donor molecule, donor type, donor heavy atom, donor atom, acceptor molecule, acceptor atom, score
      P1  H  8011  8017       L1    14  0.56

> <Gold.Chemscore.Hbond.Weighted>
-4.0319

> <Gold.Chemscore.Metal.Weighted>
-0.0000

> <Gold.Chemscore.Lipo.Weighted>
-10.8573

> <Gold.Chemscore.Internal_Hbond.Weighted>
0.0000

> <Gold.Chemscore.DEClash.Weighted>
2.1471

> <Gold.Chemscore.DEInternal.Weighted>
2.6225

> <Gold.Chemscore.Rot.Weighted>
4.4157

> <Gold.Chemscore.Internal.Correction.Weighted>
   9.000000E+99

> <Gold.Protein.RotatedTorsions>
[ 6907 6896 6895 6894 ] final  -97.01 input  -60.11 | X-H torsion
[ 7974 7965 7964 7962 ] final  127.82 input  175.53 | X-H torsion
[ 8008 7997 7996 7995 ] final  -47.38 input   59.86 | X-H torsion
[ 10167 10162 10161 10158 ] final   37.58 input  -65.29 | X-H torsion
[ 10718 10713 10712 10709 ] final   32.87 input   66.30 | X-H torsion
[ 10763 10752 10751 10750 ] final -111.22 input  -60.55 | X-H torsion
[ 11005 11000 10999 10996 ] final   84.22 input  -57.11 | X-H torsion

> <Gold.Protein.ActiveResidues>
 VAL166  LYS551  ARG553  GLY616  TRP617  ASP618  TYR619  PRO620  LYS621  CYS622 
 ASP623  PHE694  ASN695  SER759  ASP760  ASP761  ALA762  ILE779  LEU786  VAL792 
 PHE793  MET794  SER795  GLU796  ALA797  LYS798  CYS799  TRP800  GLU811  SER814 

> <Gold.Protein.RotatedAtoms>
  150.7004  134.1415  159.4106 H   0  0  0  0  0  0  0  0  0  0  0  0  # atno 6907 bound_to 6896
  151.9399  135.0216  160.0544 H   0  0  0  0  0  0  0  0  0  0  0  0  # atno 6908 bound_to 6896
  152.2103  133.4871  159.5143 H   0  0  0  0  0  0  0  0  0  0  0  0  # atno 6909 bound_to 6896
  145.0464  139.3920  143.5076 H   0  0  0  0  0  0  0  0  0  0  0  0  # atno 7974 bound_to 7965
  154.4016  140.1348  156.4165 H   0  0  0  0  0  0  0  0  0  0  0  0  # atno 8008 bound_to 7997
  155.7683  140.3484  155.5213 H   0  0  0  0  0  0  0  0  0  0  0  0  # atno 8009 bound_to 7997
  155.8792  140.0984  157.1487 H   0  0  0  0  0  0  0  0  0  0  0  0  # atno 8010 bound_to 7997
  140.4019  144.1712  150.6134 H   0  0  0  0  0  0  0  0  0  0  0  0  # atno 10167 bound_to 10162
  157.2907  130.7301  149.6609 H   0  0  0  0  0  0  0  0  0  0  0  0  # atno 10718 bound_to 10713
  154.8289  135.4535  154.1006 H   0  0  0  0  0  0  0  0  0  0  0  0  # atno 10763 bound_to 10752
  153.2296  135.6904  153.7911 H   0  0  0  0  0  0  0  0  0  0  0  0  # atno 10764 bound_to 10752
  153.7298  135.3328  155.3260 H   0  0  0  0  0  0  0  0  0  0  0  0  # atno 10765 bound_to 10752
  139.9007  134.8201  156.2415 H   0  0  0  0  0  0  0  0  0  0  0  0  # atno 11005 bound_to 11000
  146.3514  140.0091  142.8669 LP  0  0  0  0  0  0  0  0  0  0  0  0  # atno 17320 bound_to 7965
  145.1583  140.9659  143.4392 LP  0  0  0  0  0  0  0  0  0  0  0  0  # atno 17321 bound_to 7965
  140.4730  143.2406  151.9062 LP  0  0  0  0  0  0  0  0  0  0  0  0  # atno 17342 bound_to 10162
  139.4784  144.5349  151.8612 LP  0  0  0  0  0  0  0  0  0  0  0  0  # atno 17343 bound_to 10162
  155.9667  130.4309  150.4899 LP  0  0  0  0  0  0  0  0  0  0  0  0  # atno 17370 bound_to 10713
  157.2861  131.0617  151.2165 LP  0  0  0  0  0  0  0  0  0  0  0  0  # atno 17371 bound_to 10713
  141.0282  133.7003  156.1384 LP  0  0  0  0  0  0  0  0  0  0  0  0  # atno 17394 bound_to 11000
  140.7135  134.4435  157.5580 LP  0  0  0  0  0  0  0  0  0  0  0  0  # atno 17395 bound_to 11000

$$$$
