#       Name:                AV-unprocessed.smi:3331
#       Creating user name   scv26
#       Creation time:       Fri Mar 27 19:20:35 2020


#       File generated by GOLD software.
#

@<TRIPOS>MOLECULE
AV-unprocessed.smi:3331
    50    51     1
SMALL
NO_CHARGES


@<TRIPOS>ATOM
      1 ****        -3.5730  -0.6656  -2.3569 C.3            1 S1                 0.0000
      2 ****        -2.5341  -0.7542  -1.2307 C.3            1 S1                 0.0000
      3 ****        -2.8078  -1.9560  -0.2978 C.3            1 S1                 0.0000
      4 ****        -1.8550  -1.9904   0.9195 C.3            1 S1                 0.0000
      5 ****        -2.2291  -3.1128   1.8971 C.3            1 S1                 0.0000
      6 ****        -1.8259  -0.6132   1.6162 C.3            1 S1                 0.0000
      7 ****        -1.4413   0.3986   0.6243 N.am           1 S1                 0.0000
      8 ****        -0.2127   0.9744   0.6144 C.2            1 S1                 0.0000
      9 ****         0.5959   0.7938   1.5276 O.2            1 S1                 0.0000
     10 ****         0.2174   1.8713  -0.5713 C.3            1 S1                 0.0000
     11 ****        -0.1867   3.3292  -0.3003 C.3            1 S1                 0.0000
     12 ****         1.6649   1.8056  -0.8366 N.3            1 S1                 0.0000
     13 ****         2.0892   0.5312  -1.4101 C.3            1 S1                 0.0000
     14 ****         3.6150   0.3885  -1.2976 C.3            1 S1                 0.0000
     15 ****         4.0359   0.1865   0.0774 N.pl3          1 S1                 0.0000
     16 ****         4.5226   1.1165   0.9720 C.2            1 S1                 0.0000
     17 ****         4.7600   0.4636   2.1475 C.2            1 S1                 0.0000
     18 ****         4.3824  -0.8800   1.8697 C.2            1 S1                 0.0000
     19 ****         3.9510  -1.0432   0.6295 N.2            1 S1                 0.0000
     20 ****        -2.4786   0.5459  -0.4037 C.3            1 S1                 0.0000
     21 ****        -4.5769  -0.5112  -1.9600 H              1 S1                 0.0000
     22 ****        -3.5864  -1.5799  -2.9509 H              1 S1                 0.0000
     23 ****        -3.3503   0.1620  -3.0308 H              1 S1                 0.0000
     24 ****        -1.5575  -0.9012  -1.6950 H              1 S1                 0.0000
     25 ****        -3.8376  -1.9019   0.0588 H              1 S1                 0.0000
     26 ****        -2.7275  -2.8876  -0.8591 H              1 S1                 0.0000
     27 ****        -0.8489  -2.1987   0.5515 H              1 S1                 0.0000
     28 ****        -3.2295  -2.9664   2.3057 H              1 S1                 0.0000
     29 ****        -1.5306  -3.1534   2.7335 H              1 S1                 0.0000
     30 ****        -2.2092  -4.0852   1.4039 H              1 S1                 0.0000
     31 ****        -2.8082  -0.3715   2.0249 H              1 S1                 0.0000
     32 ****        -1.1514  -0.6413   2.4732 H              1 S1                 0.0000
     33 ****        -0.2743   1.5449  -1.4868 H              1 S1                 0.0000
     34 ****        -1.2574   3.4212  -0.1150 H              1 S1                 0.0000
     35 ****         0.0504   3.9650  -1.1539 H              1 S1                 0.0000
     36 ****         0.3351   3.7337   0.5682 H              1 S1                 0.0000
     37 ****         1.9768   2.5634  -1.4265 H              1 S1                 0.0000
     38 ****         1.6117  -0.3190  -0.9219 H              1 S1                 0.0000
     39 ****         1.7857   0.5027  -2.4570 H              1 S1                 0.0000
     40 ****         3.9521  -0.4646  -1.8880 H              1 S1                 0.0000
     41 ****         4.1213   1.2668  -1.7004 H              1 S1                 0.0000
     42 ****         4.6514   2.1544   0.7020 H              1 S1                 0.0000
     43 ****         5.1416   0.8825   3.0667 H              1 S1                 0.0000
     44 ****         4.4086  -1.7360   2.5278 H              1 S1                 0.0000
     45 ****        -2.3387   1.4146  -1.0440 H              1 S1                 0.0000
     46 ****        -3.4406   0.7161   0.0824 H              1 S1                 0.0000
     47 ****         0.3531   0.2099   2.3023 LP             1 S1                 0.0000
     48 ****         1.4945   1.2313   1.4936 LP             1 S1                 0.0000
     49 ****         2.0967   1.8929   0.0612 LP             1 S1                 0.0000
     50 ****         3.6334  -1.8875   0.1979 LP             1 S1                 0.0000
@<TRIPOS>BOND
    1    1    2 1     
    2    1   21 1     
    3    1   22 1     
    4    1   23 1     
    5    2   20 1     
    6    2    3 1     
    7    2   24 1     
    8    3    4 1     
    9    3   25 1     
   10    3   26 1     
   11    4    5 1     
   12    4    6 1     
   13    4   27 1     
   14    5   28 1     
   15    5   29 1     
   16    5   30 1     
   17    6    7 1     
   18    6   31 1     
   19    6   32 1     
   20    7    8 am    
   21    7   20 1     
   22    8    9 2     
   23    8   10 1     
   24   10   11 1     
   25   10   12 1     
   26   10   33 1     
   27   11   34 1     
   28   11   35 1     
   29   11   36 1     
   30   12   13 1     
   31   12   37 1     
   32   13   14 1     
   33   13   38 1     
   34   13   39 1     
   35   14   15 1     
   36   14   40 1     
   37   14   41 1     
   38   15   19 1     
   39   15   16 1     
   40   16   17 2     
   41   16   42 1     
   42   17   18 1     
   43   17   43 1     
   44   18   19 2     
   45   18   44 1     
   46   20   45 1     
   47   20   46 1     
   48    9   47 1     
   49    9   48 1     
   50   12   49 1     
   51   19   50 1     
@<TRIPOS>SUBSTRUCTURE
      1 S1             1
@<TRIPOS>SET
LONE_PAIRS      STATIC     ATOMS    <user>   **** ""
4 47 48 49 50
DONOR_HYDROGENS      STATIC     ATOMS    <user>   **** ""
1 37
ATOM$BLUE        STATIC     ATOMS    COLORGROUP SYSTEM
4 47 48 49 50
ATOM$RED        STATIC     ATOMS    COLORGROUP SYSTEM
1 37
