AV-unprocessed.smi:1255|AV-procd|sdf|5282|dock2
  -GOLD-   22720 4403D 1   1.00000     0.00000
 Structure written by MMmdl.
 40 41  0  0  0  0  0  0  0  0  1 V2000
  150.0657  133.5665  156.1336 C   0  0  0  0  0  0  0  0  0  0  0  0
  150.3518  134.8278  155.3014 C   0  0  1  0  0  0  0  0  0  0  0  0
  149.1956  135.0746  154.4406 N   0  0  0  0  0  0  0  0  0  0  0  0
  147.9184  135.0753  154.8501 C   0  0  0  0  0  0  0  0  0  0  0  0
  147.0650  135.2977  153.8505 N   0  0  0  0  0  0  0  0  0  0  0  0
  147.5585  134.8907  156.0111 O   0  0  0  0  0  0  0  0  0  0  0  0
  150.5653  136.0017  156.2718 C   0  0  0  0  0  0  0  0  0  0  0  0
  150.5429  135.8065  157.4879 O   0  0  0  0  0  0  0  0  0  0  0  0
  150.7676  137.2002  155.6941 N   0  0  0  0  0  0  0  0  0  0  0  0
  150.9959  138.4586  156.3143 C   0  0  0  0  0  0  0  0  0  0  0  0
  151.1493  139.6777  155.6147 C   0  0  0  0  0  0  0  0  0  0  0  0
  151.3517  140.8637  156.3464 C   0  0  0  0  0  0  0  0  0  0  0  0
  151.3911  140.8095  157.7598 C   0  0  0  0  0  0  0  0  0  0  0  0
  151.5951  141.9870  158.5129 N   0  0  0  0  0  0  0  0  0  0  0  0
  152.7399  142.0318  159.4211 C   0  0  0  0  0  0  0  0  0  0  0  0
  152.6328  143.2452  160.3598 C   0  0  0  0  0  0  0  0  0  0  0  0
  152.4991  144.4349  159.5899 O   0  0  0  0  0  0  0  0  0  0  0  0
  151.3184  144.4196  158.7945 C   0  0  0  0  0  0  0  0  0  0  0  0
  151.3697  143.2441  157.8028 C   0  0  0  0  0  0  0  0  0  0  0  0
  151.2225  139.6412  158.4267 N   0  0  0  0  0  0  0  0  0  0  0  0
  151.0296  138.5067  157.7219 C   0  0  0  0  0  0  0  0  0  0  0  0
  150.9003  133.3309  156.7954 H   0  0  0  0  0  0  0  0  0  0  0  0
  149.9114  132.7015  155.4879 H   0  0  0  0  0  0  0  0  0  0  0  0
  149.1730  133.6791  156.7511 H   0  0  0  0  0  0  0  0  0  0  0  0
  151.2437  134.6694  154.6916 H   0  0  0  0  0  0  0  0  0  0  0  0
  149.3837  135.2304  153.4613 H   0  0  0  0  0  0  0  0  0  0  0  0
  146.0717  135.3299  154.0268 H   0  0  0  0  0  0  0  0  0  0  0  0
  147.4207  135.4404  152.9163 H   0  0  0  0  0  0  0  0  0  0  0  0
  150.6820  137.2230  154.6882 H   0  0  0  0  0  0  0  0  0  0  0  0
  151.0985  139.7327  154.5386 H   0  0  0  0  0  0  0  0  0  0  0  0
  151.4539  141.7984  155.8160 H   0  0  0  0  0  0  0  0  0  0  0  0
  152.7872  141.1192  160.0165 H   0  0  0  0  0  0  0  0  0  0  0  0
  153.6604  142.0907  158.8386 H   0  0  0  0  0  0  0  0  0  0  0  0
  151.7840  143.1396  161.0376 H   0  0  0  0  0  0  0  0  0  0  0  0
  153.5266  143.3210  160.9791 H   0  0  0  0  0  0  0  0  0  0  0  0
  150.4371  144.3497  159.4340 H   0  0  0  0  0  0  0  0  0  0  0  0
  151.2440  145.3630  158.2536 H   0  0  0  0  0  0  0  0  0  0  0  0
  152.1802  143.3940  157.0885 H   0  0  0  0  0  0  0  0  0  0  0  0
  150.4434  143.2262  157.2307 H   0  0  0  0  0  0  0  0  0  0  0  0
  150.9012  137.6061  158.3045 H   0  0  0  0  0  0  0  0  0  0  0  0
  1  2  1  0  0  0  0
  1 22  1  0  0  0  0
  1 23  1  0  0  0  0
  1 24  1  0  0  0  0
  2  3  1  0  0  0  0
  2  7  1  0  0  0  0
  2 25  1  0  0  0  0
  3  4  1  0  0  0  0
  3 26  1  0  0  0  0
  4  5  1  0  0  0  0
  4  6  2  0  0  0  0
  5 27  1  0  0  0  0
  5 28  1  0  0  0  0
  7  8  2  0  0  0  0
  7  9  1  0  0  0  0
  9 10  1  0  0  0  0
  9 29  1  0  0  0  0
 10 21  1  0  0  0  0
 10 11  2  0  0  0  0
 11 12  1  0  0  0  0
 11 30  1  0  0  0  0
 12 13  2  0  0  0  0
 12 31  1  0  0  0  0
 13 14  1  0  0  0  0
 13 20  1  0  0  0  0
 14 19  1  0  0  0  0
 14 15  1  0  0  0  0
 15 16  1  0  0  0  0
 15 32  1  0  0  0  0
 15 33  1  0  0  0  0
 16 17  1  0  0  0  0
 16 34  1  0  0  0  0
 16 35  1  0  0  0  0
 17 18  1  0  0  0  0
 18 19  1  0  0  0  0
 18 36  1  0  0  0  0
 18 37  1  0  0  0  0
 19 38  1  0  0  0  0
 19 39  1  0  0  0  0
 20 21  2  0  0  0  0
 21 40  1  0  0  0  0
M  END
> <s_m_source_file>
AV-unprocessed.smi

> <i_m_source_file_index>
1255

> <i_lp_mmshare_version>
43012

> <i_f3d_flags>
0

> <s_epik_input>
W05IMl1DKD1PKVtOSF1bQ0BASF0oW0NIM10pQyg9TylbTkhdYzFbY0hdW2NIXWMobltjSF0xKU4yW0NIMl1bQ0gyXU9bQ0gyXVtDSDJdMg==

> <s_epik_cmdline>
J2VwaWtfcHl0aG9uJywgJy1waCcsICc3LjAnLCAnLXRuJywgJzgnLCAnLW1hJywgJzIwMCcsICctbWV0YWxfYmluZGluZycsICctaW1hZScsICc8aW5maWxlLm1hZT4nLCAnLW9tYWUnLCAnPG91dGZpbGUubWFlPic=

> <r_lp_tautomer_probability>
1

> <r_epik_Ionization_Penalty>
0.00069351

> <r_epik_Ionization_Penalty_Charging>
0

> <r_epik_Ionization_Penalty_Neutral>
0.00069351

> <r_epik_State_Penalty>
0.000408291

> <r_epik_Charging_Adjusted_Penalty>
0.000408291

> <i_epik_Tot_Q>
0

> <i_epik_Tot_abs_Q>
0

> <r_epik_Metal_State_Penalty>
-0

> <b_epik_Metal_Only>
0

> <s_lp_Force_Field>
OPLS_2005

> <r_lp_Energy>
18.2011

> <b_lp_Chiralities_Consistent>
1

> <s_lp_Variant>
AV-unprocessed.smi:1255-2

> <Gold.Version>
5.8.1

> <Gold.Id.Protein>
6NUR|6NUR_protein|mol2

> <Gold.PLP.Fitness>
36.7290

> <Gold.PLP.PLP>
-31.8410

> <Gold.PLP.part.hbond>
-2.7423

> <Gold.PLP.part.metal>
0.0000

> <Gold.PLP.part.buried>
-6.2131

> <Gold.PLP.part.nonpolar>
-24.3777

> <Gold.PLP.part.repulsive>
0.1195

> <Gold.PLP.ligand.clash>
0.0000

> <Gold.PLP.ligand.torsion>
0.3591

> <Gold.PLP.Chemscore.Hbond>
1.7496

> <Gold.PLP.Chemscore.CHOScore>
0.0000

> <Gold.PLP.Chemscore.Metal>
0.0000

> <Gold.Chemscore.Hbonds>
donor molecule, donor type, donor heavy atom, donor atom, acceptor molecule, acceptor atom, score
      L1  H     3    26       P1  7948  0.78
      L1  H     5    28       P1  7948  0.90
      P1  H  6896  6909       L1     8  0.07

> <Gold.PLP.Chemscore.Internal.Correction>
0.3575

> <Gold.Rescore>
     Score         DG    S(hbond)    S(metal)    S(lipo)     H(rot)  DE(clash)    DE(int)     intcor
     11.63     -14.85       1.72        0.00      72.86       1.91       0.10       3.13       ----

> <Gold.Chemscore.Fitness>
11.6269

> <Gold.Chemscore.DG>
-14.8547

> <Gold.Chemscore.ZeroCoef>
-5.4800

> <Gold.Chemscore.Hbond>
1.7161

> <Gold.Chemscore.Metal>
0.0000

> <Gold.Chemscore.Lipo>
72.8564

> <Gold.Chemscore.Internal_Hbond>
0.0000

> <Gold.Chemscore.DEClash>
0.0998

> <Gold.Chemscore.DEInternal>
3.1281

> <Gold.Chemscore.Rot>
1.9067

> <Gold.Chemscore.Internal.Correction>
   9.000000E+99

> <Gold.Chemscore.Hbonds>
donor molecule, donor type, donor heavy atom, donor atom, acceptor molecule, acceptor atom, score
      L1  H     3    26       P1  7948  0.11
      L1  H     5    28       P1  7948  0.82
      P1  H  6896  6909       L1     8  0.09

> <Gold.Chemscore.Hbond.Weighted>
-5.7316

> <Gold.Chemscore.Metal.Weighted>
-0.0000

> <Gold.Chemscore.Lipo.Weighted>
-8.5242

> <Gold.Chemscore.Internal_Hbond.Weighted>
0.0000

> <Gold.Chemscore.DEClash.Weighted>
0.0998

> <Gold.Chemscore.DEInternal.Weighted>
3.1281

> <Gold.Chemscore.Rot.Weighted>
4.8811

> <Gold.Chemscore.Internal.Correction.Weighted>
   9.000000E+99

> <Gold.Protein.RotatedTorsions>
[ 6907 6896 6895 6894 ] final   54.46 input  -60.11 | X-H torsion
[ 7974 7965 7964 7962 ] final  -66.10 input  175.53 | X-H torsion
[ 8008 7997 7996 7995 ] final  -86.59 input   59.86 | X-H torsion
[ 10167 10162 10161 10158 ] final   16.86 input  -65.29 | X-H torsion
[ 10718 10713 10712 10709 ] final  172.42 input   66.30 | X-H torsion
[ 10763 10752 10751 10750 ] final   30.98 input  -60.55 | X-H torsion
[ 11005 11000 10999 10996 ] final  -49.67 input  -57.11 | X-H torsion

> <Gold.Protein.ActiveResidues>
 VAL166  LYS551  ARG553  GLY616  TRP617  ASP618  TYR619  PRO620  LYS621  CYS622 
 ASP623  PHE694  ASN695  SER759  ASP760  ASP761  ALA762  ILE779  LEU786  VAL792 
 PHE793  MET794  SER795  GLU796  ALA797  LYS798  CYS799  TRP800  GLU811  SER814 

> <Gold.Protein.RotatedAtoms>
  152.3441  134.7095  160.0255 H   0  0  0  0  0  0  0  0  0  0  0  0  # atno 6907 bound_to 6896
  151.7471  133.3320  159.3389 H   0  0  0  0  0  0  0  0  0  0  0  0  # atno 6908 bound_to 6896
  150.7498  134.6159  159.6155 H   0  0  0  0  0  0  0  0  0  0  0  0  # atno 6909 bound_to 6896
  145.7460  140.8931  143.0505 H   0  0  0  0  0  0  0  0  0  0  0  0  # atno 7974 bound_to 7965
  154.6536  140.0576  156.9983 H   0  0  0  0  0  0  0  0  0  0  0  0  # atno 8008 bound_to 7997
  155.1334  140.3258  155.4450 H   0  0  0  0  0  0  0  0  0  0  0  0  # atno 8009 bound_to 7997
  156.2587  140.1977  156.6452 H   0  0  0  0  0  0  0  0  0  0  0  0  # atno 8010 bound_to 7997
  140.5767  143.9058  150.6756 H   0  0  0  0  0  0  0  0  0  0  0  0  # atno 10167 bound_to 10162
  156.9792  131.0114  151.2886 H   0  0  0  0  0  0  0  0  0  0  0  0  # atno 10718 bound_to 10713
  153.0341  135.6450  154.1128 H   0  0  0  0  0  0  0  0  0  0  0  0  # atno 10763 bound_to 10752
  154.0846  135.2871  155.3285 H   0  0  0  0  0  0  0  0  0  0  0  0  # atno 10764 bound_to 10752
  154.6507  135.5427  153.7962 H   0  0  0  0  0  0  0  0  0  0  0  0  # atno 10765 bound_to 10752
  141.0772  133.6662  156.3619 H   0  0  0  0  0  0  0  0  0  0  0  0  # atno 11005 bound_to 11000
  144.6860  139.9526  143.7478 LP  0  0  0  0  0  0  0  0  0  0  0  0  # atno 17320 bound_to 7965
  146.0402  139.3415  143.0702 LP  0  0  0  0  0  0  0  0  0  0  0  0  # atno 17321 bound_to 7965
  140.2547  143.3567  152.1375 LP  0  0  0  0  0  0  0  0  0  0  0  0  # atno 17342 bound_to 10162
  139.5147  144.6951  151.5652 LP  0  0  0  0  0  0  0  0  0  0  0  0  # atno 17343 bound_to 10162
  157.5538  130.8200  149.8178 LP  0  0  0  0  0  0  0  0  0  0  0  0  # atno 17370 bound_to 10713
  156.0251  130.3782  150.1846 LP  0  0  0  0  0  0  0  0  0  0  0  0  # atno 17371 bound_to 10713
  140.5547  134.5993  157.5417 LP  0  0  0  0  0  0  0  0  0  0  0  0  # atno 17394 bound_to 11000
  139.9585  134.7493  156.0289 LP  0  0  0  0  0  0  0  0  0  0  0  0  # atno 17395 bound_to 11000

$$$$
