#       Name:                AV-unprocessed.smi:3275
#       Creating user name   scv26
#       Creation time:       Fri Mar 27 18:44:48 2020


#       File generated by GOLD software.
#

@<TRIPOS>MOLECULE
AV-unprocessed.smi:3275
    40    41     1
SMALL
NO_CHARGES


@<TRIPOS>ATOM
      1 ****        -2.9275   4.2452  -1.2220 O.3            1 S1                 0.0000
      2 ****        -1.5325   4.0506  -1.1362 C.3            1 S1                 0.0000
      3 ****        -1.2180   2.5523  -1.0800 C.3            1 S1                 0.0000
      4 ****         0.1931   2.3950  -0.9927 O.3            1 S1                 0.0000
      5 ****         0.7047   1.0634  -0.9399 C.3            1 S1                 0.0000
      6 ****         0.4581   0.2627  -2.2352 C.3            1 S1                 0.0000
      7 ****         1.1155  -1.1230  -2.1228 C.3            1 S1                 0.0000
      8 ****         0.6360  -1.8611  -0.8598 C.3            1 S1                 0.0000
      9 ****         0.8486  -1.0449   0.3324 N.3            1 S1                 0.0000
     10 ****         0.6237  -1.7496   1.5247 C.ar           1 S1                 0.0000
     11 ****        -0.6836  -2.0715   1.9553 C.ar           1 S1                 0.0000
     12 ****        -0.8429  -2.7840   3.1603 C.ar           1 S1                 0.0000
     13 ****         0.1922  -3.1801   3.9304 N.ar           1 S1                 0.0000
     14 ****         1.4397  -2.8742   3.5147 C.ar           1 S1                 0.0000
     15 ****         1.7112  -2.1665   2.3260 C.ar           1 S1                 0.0000
     16 ****         3.3468  -1.8244   1.8819 Cl             1 S1                 0.0000
     17 ****         0.2216   0.2738   0.2946 C.3            1 S1                 0.0000
     18 ****        -3.0993   5.1736  -1.2610 H              1 S1                 0.0000
     19 ****        -1.0534   4.5108  -2.0009 H              1 S1                 0.0000
     20 ****        -1.1563   4.5550  -0.2456 H              1 S1                 0.0000
     21 ****        -1.7125   2.1118  -0.2143 H              1 S1                 0.0000
     22 ****        -1.6100   2.0663  -1.9732 H              1 S1                 0.0000
     23 ****         1.7840   1.1884  -0.8401 H              1 S1                 0.0000
     24 ****        -0.6090   0.1293  -2.4113 H              1 S1                 0.0000
     25 ****         0.8574   0.8004  -3.0955 H              1 S1                 0.0000
     26 ****         0.8936  -1.7165  -3.0099 H              1 S1                 0.0000
     27 ****         2.1999  -1.0108  -2.0887 H              1 S1                 0.0000
     28 ****        -0.4245  -2.1010  -0.9503 H              1 S1                 0.0000
     29 ****         1.1706  -2.8066  -0.7592 H              1 S1                 0.0000
     30 ****        -1.5497  -1.7849   1.3771 H              1 S1                 0.0000
     31 ****        -1.8294  -3.0441   3.5141 H              1 S1                 0.0000
     32 ****         2.2472  -3.2042   4.1515 H              1 S1                 0.0000
     33 ****         0.4642   0.8223   1.2057 H              1 S1                 0.0000
     34 ****        -0.8605   0.1479   0.2684 H              1 S1                 0.0000
     35 ****        -3.3728   3.8533  -0.4168 LP             1 S1                 0.0000
     36 ****        -3.2797   3.8021  -2.0464 LP             1 S1                 0.0000
     37 ****         0.4965   2.8657  -0.1642 LP             1 S1                 0.0000
     38 ****         0.5943   2.8387  -1.7940 LP             1 S1                 0.0000
     39 ****         1.8262  -0.8344   0.3225 LP             1 S1                 0.0000
     40 ****         0.0402  -3.6836   4.7810 LP             1 S1                 0.0000
@<TRIPOS>BOND
    1    1    2 1     
    2    1   18 1     
    3    2    3 1     
    4    2   19 1     
    5    2   20 1     
    6    3    4 1     
    7    3   21 1     
    8    3   22 1     
    9    4    5 1     
   10    5   17 1     
   11    5    6 1     
   12    5   23 1     
   13    6    7 1     
   14    6   24 1     
   15    6   25 1     
   16    7    8 1     
   17    7   26 1     
   18    7   27 1     
   19    8    9 1     
   20    8   28 1     
   21    8   29 1     
   22    9   10 1     
   23    9   17 1     
   24   10   15 ar    
   25   10   11 ar    
   26   11   12 ar    
   27   11   30 1     
   28   12   13 ar    
   29   12   31 1     
   30   13   14 ar    
   31   14   15 ar    
   32   14   32 1     
   33   15   16 1     
   34   17   33 1     
   35   17   34 1     
   36    1   35 1     
   37    1   36 1     
   38    4   37 1     
   39    4   38 1     
   40    9   39 1     
   41   13   40 1     
@<TRIPOS>SUBSTRUCTURE
      1 S1             1
@<TRIPOS>SET
LONE_PAIRS      STATIC     ATOMS    <user>   **** ""
6 35 36 37 38 39 40
DONOR_HYDROGENS      STATIC     ATOMS    <user>   **** ""
1 18
ATOM$BLUE        STATIC     ATOMS    COLORGROUP SYSTEM
6 35 36 37 38 39 40
ATOM$RED        STATIC     ATOMS    COLORGROUP SYSTEM
1 18
