AV-unprocessed.smi:1027|AV-procd|sdf|4470|dock8
  -GOLD-   22720 2443D 1   1.00000     0.00000
 Structure written by MMmdl.
 35 36  0  0  0  0  0  0  0  0  1 V2000
  147.8878  132.8004  152.9088 C   0  0  0  0  0  0  0  0  0  0  0  0
  149.1686  132.4625  153.6972 C   0  0  0  0  0  0  0  0  0  0  0  0
  149.1189  130.9906  154.1455 C   0  0  0  0  0  0  0  0  0  0  0  0
  149.4035  133.4334  154.8850 C   0  0  1  0  0  0  0  0  0  0  0  0
  150.6452  133.0783  155.7252 C   0  0  0  0  0  0  0  0  0  0  0  0
  149.5410  134.8057  154.3974 N   0  0  0  0  0  0  0  0  0  0  0  0
  149.9523  135.8545  155.1255 C   0  0  0  0  0  0  0  0  0  0  0  0
  150.2863  135.7724  156.3077 O   0  0  0  0  0  0  0  0  0  0  0  0
  149.9481  136.9838  154.3955 N   0  0  0  0  0  0  0  0  0  0  0  0
  150.3092  138.2953  154.8026 C   0  0  0  0  0  0  0  0  0  0  0  0
  151.4196  138.9234  154.3926 N   0  0  0  0  0  0  0  0  0  0  0  0
  151.5283  140.1938  154.9400 N   0  0  0  0  0  0  0  0  0  0  0  0
  150.5021  140.4888  155.7467 C   0  0  0  0  0  0  0  0  0  0  0  0
  150.3969  141.7992  156.4529 C   0  0  0  0  0  0  0  0  0  0  0  0
  151.5513  142.3296  157.2716 C   0  0  0  0  0  0  0  0  0  0  0  0
  150.2876  141.8816  157.9599 C   0  0  0  0  0  0  0  0  0  0  0  0
  149.2977  139.2139  155.9039 S   0  0  0  0  0  0  0  0  0  0  0  0
  147.0081  132.7681  153.5522 H   0  0  0  0  0  0  0  0  0  0  0  0
  147.7286  132.0913  152.0959 H   0  0  0  0  0  0  0  0  0  0  0  0
  147.9348  133.7918  152.4583 H   0  0  0  0  0  0  0  0  0  0  0  0
  150.0076  132.5634  153.0072 H   0  0  0  0  0  0  0  0  0  0  0  0
  148.3395  130.8295  154.8909 H   0  0  0  0  0  0  0  0  0  0  0  0
  150.0658  130.6634  154.5735 H   0  0  0  0  0  0  0  0  0  0  0  0
  148.9108  130.3309  153.3026 H   0  0  0  0  0  0  0  0  0  0  0  0
  148.5276  133.3800  155.5346 H   0  0  0  0  0  0  0  0  0  0  0  0
  150.5394  132.1107  156.2144 H   0  0  0  0  0  0  0  0  0  0  0  0
  150.8097  133.8121  156.5150 H   0  0  0  0  0  0  0  0  0  0  0  0
  151.5450  133.0475  155.1102 H   0  0  0  0  0  0  0  0  0  0  0  0
  149.2906  134.9682  153.4331 H   0  0  0  0  0  0  0  0  0  0  0  0
  149.6514  136.8956  153.4350 H   0  0  0  0  0  0  0  0  0  0  0  0
  149.8219  142.5091  155.8613 H   0  0  0  0  0  0  0  0  0  0  0  0
  152.4305  141.6965  157.3761 H   0  0  0  0  0  0  0  0  0  0  0  0
  151.7487  143.3986  157.2265 H   0  0  0  0  0  0  0  0  0  0  0  0
  149.6414  142.6526  158.3747 H   0  0  0  0  0  0  0  0  0  0  0  0
  150.3360  140.9575  158.5321 H   0  0  0  0  0  0  0  0  0  0  0  0
  1  2  1  0  0  0  0
  1 18  1  0  0  0  0
  1 19  1  0  0  0  0
  1 20  1  0  0  0  0
  2  3  1  0  0  0  0
  2  4  1  0  0  0  0
  2 21  1  0  0  0  0
  3 22  1  0  0  0  0
  3 23  1  0  0  0  0
  3 24  1  0  0  0  0
  4  5  1  0  0  0  0
  4  6  1  0  0  0  0
  4 25  1  0  0  0  0
  5 26  1  0  0  0  0
  5 27  1  0  0  0  0
  5 28  1  0  0  0  0
  6  7  1  0  0  0  0
  6 29  1  0  0  0  0
  7  8  2  0  0  0  0
  7  9  1  0  0  0  0
  9 10  1  0  0  0  0
  9 30  1  0  0  0  0
 10 17  1  0  0  0  0
 10 11  2  0  0  0  0
 11 12  1  0  0  0  0
 12 13  2  0  0  0  0
 13 14  1  0  0  0  0
 13 17  1  0  0  0  0
 14 16  1  0  0  0  0
 14 15  1  0  0  0  0
 14 31  1  0  0  0  0
 15 16  1  0  0  0  0
 15 32  1  0  0  0  0
 15 33  1  0  0  0  0
 16 34  1  0  0  0  0
 16 35  1  0  0  0  0
M  END
> <s_m_source_file>
AV-unprocessed.smi

> <i_m_source_file_index>
1027

> <i_lp_mmshare_version>
43012

> <i_f3d_flags>
0

> <s_epik_input>
W0NIM11bQ0hdKFtDSDNdKVtDQEhdKFtDSDNdKVtOSF1DKD1PKVtOSF1jMW5uYyhzMSlbQ0hdMltDSDJdW0NIMl0y

> <s_epik_cmdline>
J2VwaWtfcHl0aG9uJywgJy1waCcsICc3LjAnLCAnLXRuJywgJzgnLCAnLW1hJywgJzIwMCcsICctbWV0YWxfYmluZGluZycsICctaW1hZScsICc8aW5maWxlLm1hZT4nLCAnLW9tYWUnLCAnPG91dGZpbGUubWFlPic=

> <r_lp_tautomer_probability>
1

> <r_epik_Ionization_Penalty>
0.000943246

> <r_epik_Ionization_Penalty_Charging>
0

> <r_epik_Ionization_Penalty_Neutral>
0.000943246

> <r_epik_State_Penalty>
-0

> <r_epik_Charging_Adjusted_Penalty>
0

> <i_epik_Tot_Q>
0

> <i_epik_Tot_abs_Q>
0

> <r_epik_Metal_State_Penalty>
0.281646

> <b_epik_Metal_Only>
0

> <s_lp_Force_Field>
OPLS_2005

> <r_lp_Energy>
3.72906

> <b_lp_Chiralities_Consistent>
1

> <s_lp_Variant>
AV-unprocessed.smi:1027-2

> <Gold.Version>
5.8.1

> <Gold.Id.Protein>
6NUR|6NUR_protein|mol2

> <Gold.PLP.Fitness>
34.2509

> <Gold.PLP.PLP>
-28.7383

> <Gold.PLP.part.hbond>
-3.9090

> <Gold.PLP.part.metal>
0.0000

> <Gold.PLP.part.buried>
-4.5128

> <Gold.PLP.part.nonpolar>
-21.1091

> <Gold.PLP.part.repulsive>
0.2839

> <Gold.PLP.ligand.clash>
0.0000

> <Gold.PLP.ligand.torsion>
0.9188

> <Gold.PLP.Chemscore.Hbond>
2.4000

> <Gold.PLP.Chemscore.CHOScore>
0.0000

> <Gold.PLP.Chemscore.Metal>
0.0000

> <Gold.Chemscore.Hbonds>
donor molecule, donor type, donor heavy atom, donor atom, acceptor molecule, acceptor atom, score
      L1  H     6    29       P1  7948  0.70
      L1  H     9    30       P1  7948  1.00
      P1  H  7989  7998       L1    12  0.60

> <Gold.PLP.Chemscore.Internal.Correction>
0.1502

> <Gold.Rescore>
     Score         DG    S(hbond)    S(metal)    S(lipo)     H(rot)  DE(clash)    DE(int)     intcor
     11.86     -13.93       1.70        0.00      54.11       1.39       0.06       2.02       ----

> <Gold.Chemscore.Fitness>
11.8551

> <Gold.Chemscore.DG>
-13.9341

> <Gold.Chemscore.ZeroCoef>
-5.4800

> <Gold.Chemscore.Hbond>
1.7003

> <Gold.Chemscore.Metal>
0.0000

> <Gold.Chemscore.Lipo>
54.1113

> <Gold.Chemscore.Internal_Hbond>
0.0000

> <Gold.Chemscore.DEClash>
0.0600

> <Gold.Chemscore.DEInternal>
2.0190

> <Gold.Chemscore.Rot>
1.3890

> <Gold.Chemscore.Internal.Correction>
   9.000000E+99

> <Gold.Chemscore.Hbonds>
donor molecule, donor type, donor heavy atom, donor atom, acceptor molecule, acceptor atom, score
      L1  H     6    29       P1  7948  0.07
      L1  H     9    30       P1  7948  0.65
      P1  H  7989  7998       L1    12  0.04

> <Gold.Chemscore.Hbond.Weighted>
-5.6789

> <Gold.Chemscore.Metal.Weighted>
-0.0000

> <Gold.Chemscore.Lipo.Weighted>
-6.3310

> <Gold.Chemscore.Internal_Hbond.Weighted>
0.0000

> <Gold.Chemscore.DEClash.Weighted>
0.0600

> <Gold.Chemscore.DEInternal.Weighted>
2.0190

> <Gold.Chemscore.Rot.Weighted>
3.5559

> <Gold.Chemscore.Internal.Correction.Weighted>
   9.000000E+99

> <Gold.Protein.RotatedTorsions>
[ 6907 6896 6895 6894 ] final  -85.19 input  -60.11 | X-H torsion
[ 7974 7965 7964 7962 ] final   79.54 input  175.53 | X-H torsion
[ 8008 7997 7996 7995 ] final  -55.51 input   59.86 | X-H torsion
[ 10167 10162 10161 10158 ] final  152.10 input  -65.29 | X-H torsion
[ 10718 10713 10712 10709 ] final -120.65 input   66.30 | X-H torsion
[ 10763 10752 10751 10750 ] final   32.33 input  -60.55 | X-H torsion
[ 11005 11000 10999 10996 ] final  170.21 input  -57.11 | X-H torsion

> <Gold.Protein.ActiveResidues>
 VAL166  LYS551  ARG553  GLY616  TRP617  ASP618  TYR619  PRO620  LYS621  CYS622 
 ASP623  PHE694  ASN695  SER759  ASP760  ASP761  ALA762  ILE779  LEU786  VAL792 
 PHE793  MET794  SER795  GLU796  ALA797  LYS798  CYS799  TRP800  GLU811  SER814 

> <Gold.Protein.RotatedAtoms>
  150.6871  134.3242  159.4799 H   0  0  0  0  0  0  0  0  0  0  0  0  # atno 6907 bound_to 6896
  152.1114  134.9269  160.0575 H   0  0  0  0  0  0  0  0  0  0  0  0  # atno 6908 bound_to 6896
  152.0510  133.3984  159.4414 H   0  0  0  0  0  0  0  0  0  0  0  0  # atno 6909 bound_to 6896
  145.6629  139.2476  143.1912 H   0  0  0  0  0  0  0  0  0  0  0  0  # atno 7974 bound_to 7965
  154.4197  140.1151  156.5489 H   0  0  0  0  0  0  0  0  0  0  0  0  # atno 8008 bound_to 7997
  155.6431  140.3496  155.4702 H   0  0  0  0  0  0  0  0  0  0  0  0  # atno 8009 bound_to 7997
  155.9854  140.1169  157.0677 H   0  0  0  0  0  0  0  0  0  0  0  0  # atno 8010 bound_to 7997
  139.4835  144.5386  151.7603 H   0  0  0  0  0  0  0  0  0  0  0  0  # atno 10167 bound_to 10162
  156.1275  130.6370  150.9566 H   0  0  0  0  0  0  0  0  0  0  0  0  # atno 10718 bound_to 10713
  153.0268  135.6416  154.1339 H   0  0  0  0  0  0  0  0  0  0  0  0  # atno 10763 bound_to 10752
  154.1066  135.2856  155.3241 H   0  0  0  0  0  0  0  0  0  0  0  0  # atno 10764 bound_to 10752
  154.6361  135.5476  153.7798 H   0  0  0  0  0  0  0  0  0  0  0  0  # atno 10765 bound_to 10752
  140.3060  134.7556  157.3954 H   0  0  0  0  0  0  0  0  0  0  0  0  # atno 11005 bound_to 11000
  146.1110  140.7428  142.9503 LP  0  0  0  0  0  0  0  0  0  0  0  0  # atno 17320 bound_to 7965
  144.7083  140.3939  143.7101 LP  0  0  0  0  0  0  0  0  0  0  0  0  # atno 17321 bound_to 7965
  140.4922  144.1293  150.5952 LP  0  0  0  0  0  0  0  0  0  0  0  0  # atno 17342 bound_to 10162
  140.4158  143.2635  151.9777 LP  0  0  0  0  0  0  0  0  0  0  0  0  # atno 17343 bound_to 10162
  157.6455  131.0904  150.8162 LP  0  0  0  0  0  0  0  0  0  0  0  0  # atno 17370 bound_to 10713
  156.8250  130.4997  149.5338 LP  0  0  0  0  0  0  0  0  0  0  0  0  # atno 17371 bound_to 10713
  140.1067  134.5400  155.8303 LP  0  0  0  0  0  0  0  0  0  0  0  0  # atno 17394 bound_to 11000
  141.2118  133.6711  156.6612 LP  0  0  0  0  0  0  0  0  0  0  0  0  # atno 17395 bound_to 11000

$$$$
