AV-unprocessed.smi:2855|AV-procd|sdf|10987|dock6
  -GOLD-   2272015443D 1   1.00000     0.00000
 Structure written by MMmdl.
 46 47  0  0  0  0  0  0  0  0  2 V2000
  151.7490  144.8326  160.3961 C   0  0  0  0  0  0  0  0  0  0  0  0
  152.7691  144.1103  159.4979 C   0  0  2  0  0  0  0  0  0  0  0  0
  152.5475  144.3932  158.0005 C   0  0  0  0  0  0  0  0  0  0  0  0
  151.3160  143.6635  157.4383 C   0  0  0  0  0  0  0  0  0  0  0  0
  151.3861  142.1372  157.6818 C   0  0  2  0  0  0  0  0  0  0  0  0
  150.2000  141.3535  157.0422 C   0  0  0  0  0  0  0  0  0  0  0  0
  150.1586  141.4933  155.5109 C   0  0  0  0  0  0  0  0  0  0  0  0
  148.8257  141.6784  157.6561 C   0  0  0  0  0  0  0  0  0  0  0  0
  151.5842  141.8516  159.1958 C   0  0  1  0  0  0  0  0  0  0  0  0
  151.7397  140.4185  159.4353 N   0  0  0  0  0  0  0  0  0  0  0  0
  152.8805  139.7228  159.3159 C   0  0  0  0  0  0  0  0  0  0  0  0
  153.9373  140.2101  158.9131 O   0  0  0  0  0  0  0  0  0  0  0  0
  152.8095  138.2395  159.6972 C   0  0  0  0  0  0  0  0  0  0  0  0
  152.3198  137.4060  158.5884 N   0  0  0  0  0  0  0  0  0  0  0  0
  150.9417  137.4261  158.3110 C   0  0  0  0  0  0  0  0  0  0  0  0
  150.4080  136.6996  157.3105 C   0  0  0  0  0  0  0  0  0  0  0  0
  151.2997  135.8761  156.5034 C   0  0  0  0  0  0  0  0  0  0  0  0
  150.8292  135.2029  155.5886 O   0  0  0  0  0  0  0  0  0  0  0  0
  152.6301  135.8942  156.8087 N   0  5  0  0  0  0  0  0  0  0  0  0
  153.1592  136.6389  157.8285 C   0  0  0  0  0  0  0  0  0  0  0  0
  154.3637  136.6412  158.0865 O   0  0  0  0  0  0  0  0  0  0  0  0
  152.8164  142.5920  159.7548 C   0  0  0  0  0  0  0  0  0  0  0  0
  150.7277  144.5021  160.2088 H   0  0  0  0  0  0  0  0  0  0  0  0
  151.7806  145.9102  160.2335 H   0  0  0  0  0  0  0  0  0  0  0  0
  151.9635  144.6552  161.4502 H   0  0  0  0  0  0  0  0  0  0  0  0
  153.7471  144.5140  159.7630 H   0  0  0  0  0  0  0  0  0  0  0  0
  152.4551  145.4663  157.8299 H   0  0  0  0  0  0  0  0  0  0  0  0
  153.4297  144.0750  157.4434 H   0  0  0  0  0  0  0  0  0  0  0  0
  150.4137  144.0769  157.8885 H   0  0  0  0  0  0  0  0  0  0  0  0
  151.2483  143.8771  156.3723 H   0  0  0  0  0  0  0  0  0  0  0  0
  152.2891  141.7838  157.1807 H   0  0  0  0  0  0  0  0  0  0  0  0
  150.3737  140.2925  157.2227 H   0  0  0  0  0  0  0  0  0  0  0  0
  149.8786  142.4998  155.2007 H   0  0  0  0  0  0  0  0  0  0  0  0
  149.4289  140.8073  155.0797 H   0  0  0  0  0  0  0  0  0  0  0  0
  151.1261  141.2603  155.0658 H   0  0  0  0  0  0  0  0  0  0  0  0
  148.5469  142.7203  157.5007 H   0  0  0  0  0  0  0  0  0  0  0  0
  148.8030  141.4783  158.7269 H   0  0  0  0  0  0  0  0  0  0  0  0
  148.0471  141.0632  157.2042 H   0  0  0  0  0  0  0  0  0  0  0  0
  150.7058  142.2174  159.7278 H   0  0  0  0  0  0  0  0  0  0  0  0
  150.9252  139.9253  159.7710 H   0  0  0  0  0  0  0  0  0  0  0  0
  153.7875  137.8848  160.0283 H   0  0  0  0  0  0  0  0  0  0  0  0
  152.1598  138.1431  160.5679 H   0  0  0  0  0  0  0  0  0  0  0  0
  150.3523  138.0666  158.9505 H   0  0  0  0  0  0  0  0  0  0  0  0
  149.3474  136.7284  157.1086 H   0  0  0  0  0  0  0  0  0  0  0  0
  153.7174  142.1858  159.2921 H   0  0  0  0  0  0  0  0  0  0  0  0
  152.9161  142.4006  160.8241 H   0  0  0  0  0  0  0  0  0  0  0  0
  1  2  1  0  0  0  0
  1 23  1  0  0  0  0
  1 24  1  0  0  0  0
  1 25  1  0  0  0  0
  2 22  1  0  0  0  0
  2  3  1  0  0  0  0
  2 26  1  0  0  0  0
  3  4  1  0  0  0  0
  3 27  1  0  0  0  0
  3 28  1  0  0  0  0
  4  5  1  0  0  0  0
  4 29  1  0  0  0  0
  4 30  1  0  0  0  0
  5  6  1  0  0  0  0
  5  9  1  0  0  0  0
  5 31  1  0  0  0  0
  6  7  1  0  0  0  0
  6  8  1  0  0  0  0
  6 32  1  0  0  0  0
  7 33  1  0  0  0  0
  7 34  1  0  0  0  0
  7 35  1  0  0  0  0
  8 36  1  0  0  0  0
  8 37  1  0  0  0  0
  8 38  1  0  0  0  0
  9 10  1  0  0  0  0
  9 22  1  0  0  0  0
  9 39  1  0  0  0  0
 10 11  1  0  0  0  0
 10 40  1  0  0  0  0
 11 12  2  0  0  0  0
 11 13  1  0  0  0  0
 13 14  1  0  0  0  0
 13 41  1  0  0  0  0
 13 42  1  0  0  0  0
 14 20  1  0  0  0  0
 14 15  1  0  0  0  0
 15 16  2  0  0  0  0
 15 43  1  0  0  0  0
 16 17  1  0  0  0  0
 16 44  1  0  0  0  0
 17 18  2  0  0  0  0
 17 19  1  0  0  0  0
 19 20  1  0  0  0  0
 20 21  2  0  0  0  0
 22 45  1  0  0  0  0
 22 46  1  0  0  0  0
M  CHG  1  19  -1
M  END
> <s_m_source_file>
AV-unprocessed.smi

> <i_m_source_file_index>
2855

> <i_lp_mmshare_version>
43012

> <i_f3d_flags>
0

> <s_epik_input>
W0NIM11bQ0BASF0xW0NIMl1bQ0gyXVtDQEBIXShbQ0hdKFtDSDNdKVtDSDNdKVtDQEhdKFtDSDJdMSlbTkhdQyg9TylbQ0gyXW4yW2NIXVtjSF1jKD1PKVtuSF1jMj1P

> <s_epik_cmdline>
J2VwaWtfcHl0aG9uJywgJy1waCcsICc3LjAnLCAnLXRuJywgJzgnLCAnLW1hJywgJzIwMCcsICctbWV0YWxfYmluZGluZycsICctaW1hZScsICc8aW5maWxlLm1hZT4nLCAnLW9tYWUnLCAnPG91dGZpbGUubWFlPic=

> <r_lp_tautomer_probability>
0.999537

> <r_epik_Ionization_Penalty>
3.12102

> <r_epik_Ionization_Penalty_Charging>
2.9581e-08

> <r_epik_Ionization_Penalty_Neutral>
3.12102

> <r_epik_State_Penalty>
3.12011

> <r_epik_Charging_Adjusted_Penalty>
3.12011

> <i_epik_Tot_Q>
-1

> <i_epik_Tot_abs_Q>
1

> <r_epik_Metal_State_Penalty>
0.463583

> <b_epik_Metal_Only>
1

> <s_lp_Force_Field>
OPLS_2005

> <r_lp_Energy>
25.3875

> <b_lp_Chiralities_Consistent>
1

> <s_lp_Variant>
AV-unprocessed.smi:2855-11

> <Gold.Version>
5.8.1

> <Gold.Id.Protein>
6NUR|6NUR_protein|mol2

> <Gold.PLP.Fitness>
46.1564

> <Gold.PLP.PLP>
-39.0947

> <Gold.PLP.part.hbond>
-2.3125

> <Gold.PLP.part.metal>
0.0000

> <Gold.PLP.part.buried>
-3.7962

> <Gold.PLP.part.nonpolar>
-32.4412

> <Gold.PLP.part.repulsive>
0.2685

> <Gold.PLP.ligand.clash>
0.0000

> <Gold.PLP.ligand.torsion>
0.8970

> <Gold.PLP.Chemscore.Hbond>
2.9280

> <Gold.PLP.Chemscore.CHOScore>
0.0000

> <Gold.PLP.Chemscore.Metal>
0.0000

> <Gold.Chemscore.Hbonds>
donor molecule, donor type, donor heavy atom, donor atom, acceptor molecule, acceptor atom, score
      P1  H  7997  8008       L1    12  0.93
      P1  H 10752 10765       L1    19  2.00

> <Gold.PLP.Chemscore.Internal.Correction>
0.0716

> <Gold.Rescore>
     Score         DG    S(hbond)    S(metal)    S(lipo)     H(rot)  DE(clash)    DE(int)     intcor
     16.92     -19.05       1.79        0.00     104.39       1.81       0.02       2.12       ----

> <Gold.Chemscore.Fitness>
16.9163

> <Gold.Chemscore.DG>
-19.0505

> <Gold.Chemscore.ZeroCoef>
-5.4800

> <Gold.Chemscore.Hbond>
1.7934

> <Gold.Chemscore.Metal>
0.0000

> <Gold.Chemscore.Lipo>
104.3917

> <Gold.Chemscore.Internal_Hbond>
0.0000

> <Gold.Chemscore.DEClash>
0.0153

> <Gold.Chemscore.DEInternal>
2.1189

> <Gold.Chemscore.Rot>
1.8100

> <Gold.Chemscore.Internal.Correction>
   9.000000E+99

> <Gold.Chemscore.Hbonds>
donor molecule, donor type, donor heavy atom, donor atom, acceptor molecule, acceptor atom, score
      P1  H  7997  8008       L1    12  0.89
      P1  H 10752 10765       L1    19  0.73

> <Gold.Chemscore.Hbond.Weighted>
-5.9901

> <Gold.Chemscore.Metal.Weighted>
-0.0000

> <Gold.Chemscore.Lipo.Weighted>
-12.2138

> <Gold.Chemscore.Internal_Hbond.Weighted>
0.0000

> <Gold.Chemscore.DEClash.Weighted>
0.0153

> <Gold.Chemscore.DEInternal.Weighted>
2.1189

> <Gold.Chemscore.Rot.Weighted>
4.6335

> <Gold.Chemscore.Internal.Correction.Weighted>
   9.000000E+99

> <Gold.Protein.RotatedTorsions>
[ 6907 6896 6895 6894 ] final   68.53 input  -60.11 | X-H torsion
[ 7974 7965 7964 7962 ] final -152.80 input  175.53 | X-H torsion
[ 8008 7997 7996 7995 ] final -106.19 input   59.86 | X-H torsion
[ 10167 10162 10161 10158 ] final   63.84 input  -65.29 | X-H torsion
[ 10718 10713 10712 10709 ] final  -44.54 input   66.30 | X-H torsion
[ 10763 10752 10751 10750 ] final -115.69 input  -60.55 | X-H torsion
[ 11005 11000 10999 10996 ] final  164.56 input  -57.11 | X-H torsion

> <Gold.Protein.ActiveResidues>
 VAL166  LYS551  ARG553  GLY616  TRP617  ASP618  TYR619  PRO620  LYS621  CYS622 
 ASP623  PHE694  ASN695  SER759  ASP760  ASP761  ALA762  ILE779  LEU786  VAL792 
 PHE793  MET794  SER795  GLU796  ALA797  LYS798  CYS799  TRP800  GLU811  SER814 

> <Gold.Protein.RotatedAtoms>
  152.4626  134.5149  159.9764 H   0  0  0  0  0  0  0  0  0  0  0  0  # atno 6907 bound_to 6896
  151.5194  133.3463  159.2906 H   0  0  0  0  0  0  0  0  0  0  0  0  # atno 6908 bound_to 6896
  150.8596  134.7973  159.7134 H   0  0  0  0  0  0  0  0  0  0  0  0  # atno 6909 bound_to 6896
  144.7775  140.4613  143.5863 H   0  0  0  0  0  0  0  0  0  0  0  0  # atno 7974 bound_to 7965
  154.9109  140.0410  157.1946 H   0  0  0  0  0  0  0  0  0  0  0  0  # atno 8008 bound_to 7997
  154.8349  140.2905  155.5676 H   0  0  0  0  0  0  0  0  0  0  0  0  # atno 8009 bound_to 7997
  156.2989  140.2494  156.3281 H   0  0  0  0  0  0  0  0  0  0  0  0  # atno 8010 bound_to 7997
  140.1287  144.4664  150.6877 H   0  0  0  0  0  0  0  0  0  0  0  0  # atno 10167 bound_to 10162
  156.2375  130.4177  149.8800 H   0  0  0  0  0  0  0  0  0  0  0  0  # atno 10718 bound_to 10713
  154.8491  135.4372  154.1703 H   0  0  0  0  0  0  0  0  0  0  0  0  # atno 10763 bound_to 10752
  153.2818  135.6954  153.7384 H   0  0  0  0  0  0  0  0  0  0  0  0  # atno 10764 bound_to 10752
  153.6585  135.3439  155.3095 H   0  0  0  0  0  0  0  0  0  0  0  0  # atno 10765 bound_to 10752
  140.2472  134.8005  157.3467 H   0  0  0  0  0  0  0  0  0  0  0  0  # atno 11005 bound_to 11000
  145.6145  139.1517  143.3057 LP  0  0  0  0  0  0  0  0  0  0  0  0  # atno 17320 bound_to 7965
  146.1963  140.6259  142.9122 LP  0  0  0  0  0  0  0  0  0  0  0  0  # atno 17321 bound_to 7965
  140.6830  143.2336  151.5335 LP  0  0  0  0  0  0  0  0  0  0  0  0  # atno 17342 bound_to 10162
  139.5531  144.2345  152.1565 LP  0  0  0  0  0  0  0  0  0  0  0  0  # atno 17343 bound_to 10162
  156.6393  130.8698  151.3511 LP  0  0  0  0  0  0  0  0  0  0  0  0  # atno 17370 bound_to 10713
  157.7161  130.9498  150.1260 LP  0  0  0  0  0  0  0  0  0  0  0  0  # atno 17371 bound_to 10713
  140.1594  134.4747  155.7905 LP  0  0  0  0  0  0  0  0  0  0  0  0  # atno 17394 bound_to 11000
  141.2205  133.6895  156.7518 LP  0  0  0  0  0  0  0  0  0  0  0  0  # atno 17395 bound_to 11000

$$$$
