#       Name:                AV-unprocessed.smi:2760
#       Creating user name   scv26
#       Creation time:       Fri Mar 27 15:07:59 2020


#       File generated by GOLD software.
#

@<TRIPOS>MOLECULE
AV-unprocessed.smi:2760
    37    38     1
SMALL
NO_CHARGES


@<TRIPOS>ATOM
      1 ****        -3.1390  -1.8182  -1.8061 O.2            1 S1                 0.0000
      2 ****        -2.7819  -0.9307  -1.0341 C.2            1 S1                 0.0000
      3 ****        -3.7862  -0.0661  -0.4154 C.2            1 S1                 0.0000
      4 ****        -3.3826   0.9126   0.4331 C.2            1 S1                 0.0000
      5 ****        -4.3625   1.8214   1.0974 C.3            1 S1                 0.0000
      6 ****        -4.1635   3.3205   1.0984 C.3            1 S1                 0.0000
      7 ****        -4.0556   2.5484   2.3905 C.3            1 S1                 0.0000
      8 ****        -2.0141   1.0854   0.7164 N.2            1 S1                 0.0000
      9 ****        -1.1522   0.3159   0.1658 C.2            1 S1                 0.0000
     10 ****         0.5807   0.5915   0.5809 S.3            1 S1                 0.0000
     11 ****         1.4805  -0.6629  -0.3777 C.3            1 S1                 0.0000
     12 ****         2.9852  -0.5968  -0.1025 C.3            1 S1                 0.0000
     13 ****         3.6435  -1.5850  -0.8770 O.3            1 S1                 0.0000
     14 ****         5.0451  -1.6079  -0.6576 C.3            1 S1                 0.0000
     15 ****         5.6890  -2.6798  -1.5451 C.3            1 S1                 0.0000
     16 ****         7.0018  -2.7060  -1.3186 F              1 S1                 0.0000
     17 ****         5.1831  -3.8800  -1.2622 F              1 S1                 0.0000
     18 ****         5.4831  -2.3987  -2.8314 F              1 S1                 0.0000
     19 ****        -1.4768  -0.6980  -0.7126 N.pl3          1 S1                -1.0000
     20 ****        -4.8336  -0.2102  -0.6369 H              1 S1                 0.0000
     21 ****        -5.3882   1.4745   0.9841 H              1 S1                 0.0000
     22 ****        -3.2431   3.7128   0.6701 H              1 S1                 0.0000
     23 ****        -5.0447   3.9421   0.9555 H              1 S1                 0.0000
     24 ****        -4.8667   2.6567   3.1072 H              1 S1                 0.0000
     25 ****        -3.0648   2.4393   2.8270 H              1 S1                 0.0000
     26 ****         1.2872  -0.5063  -1.4396 H              1 S1                 0.0000
     27 ****         1.1015  -1.6520  -0.1186 H              1 S1                 0.0000
     28 ****         3.3695   0.3924  -0.3560 H              1 S1                 0.0000
     29 ****         3.1762  -0.7640   0.9587 H              1 S1                 0.0000
     30 ****         5.4753  -0.6312  -0.8849 H              1 S1                 0.0000
     31 ****         5.2537  -1.8206   0.3919 H              1 S1                 0.0000
     32 ****        -2.4581  -2.4132  -2.2332 LP             1 S1                 0.0000
     33 ****        -4.1103  -1.9451  -2.0070 LP             1 S1                 0.0000
     34 ****        -1.7174   1.8051   1.3441 LP             1 S1                 0.0000
     35 ****         3.4741  -1.3985  -1.8448 LP             1 S1                 0.0000
     36 ****         3.2677  -2.4807  -0.6394 LP             1 S1                 0.0000
     37 ****        -0.7550  -1.2622  -1.1135 LP             1 S1                 0.0000
@<TRIPOS>BOND
    1    1    2 2     
    2    2   19 1     
    3    2    3 1     
    4    3   20 1     
    5    3    4 2     
    6    4    5 1     
    7    4    8 1     
    8    5    7 1     
    9    5    6 1     
   10    5   21 1     
   11    6    7 1     
   12    6   22 1     
   13    6   23 1     
   14    7   24 1     
   15    7   25 1     
   16    8    9 2     
   17    9   10 1     
   18    9   19 1     
   19   10   11 1     
   20   11   12 1     
   21   11   26 1     
   22   11   27 1     
   23   12   13 1     
   24   12   28 1     
   25   12   29 1     
   26   13   14 1     
   27   14   15 1     
   28   14   30 1     
   29   14   31 1     
   30   15   16 1     
   31   15   17 1     
   32   15   18 1     
   33    1   32 1     
   34    1   33 1     
   35    8   34 1     
   36   13   35 1     
   37   13   36 1     
   38   19   37 1     
@<TRIPOS>SUBSTRUCTURE
      1 S1             1
@<TRIPOS>SET
LONE_PAIRS      STATIC     ATOMS    <user>   **** ""
6 32 33 34 35 36 37
ATOM$BLUE        STATIC     ATOMS    COLORGROUP SYSTEM
6 32 33 34 35 36 37
