AV-unprocessed.smi:1559|AV-procd|sdf|6274|dock9
  -GOLD-   22720 6463D 1   1.00000     0.00000
 Structure written by MMmdl.
 51 52  0  0  0  0  0  0  0  0  2 V2000
  147.1822  133.3480  153.4511 C   0  0  0  0  0  0  0  0  0  0  0  0
  146.7357  134.1086  152.2551 N   0  3  0  0  0  0  0  0  0  0  0  0
  146.7131  133.2283  151.0582 C   0  0  0  0  0  0  0  0  0  0  0  0
  145.5085  134.9623  152.4453 C   0  0  0  0  0  0  0  0  0  0  0  0
  145.1929  135.7970  151.1820 C   0  0  0  0  0  0  0  0  0  0  0  0
  144.2717  134.0790  152.7442 C   0  0  0  0  0  0  0  0  0  0  0  0
  145.7008  135.9400  153.6426 C   0  0  0  0  0  0  0  0  0  0  0  0
  147.0227  136.5668  153.6878 N   0  0  0  0  0  0  0  0  0  0  0  0
  147.4564  137.4036  154.6412 C   0  0  0  0  0  0  0  0  0  0  0  0
  146.7797  137.7315  155.6151 O   0  0  0  0  0  0  0  0  0  0  0  0
  148.7018  137.8348  154.3791 N   0  0  0  0  0  0  0  0  0  0  0  0
  149.5142  138.7063  155.1533 C   0  0  0  0  0  0  0  0  0  0  0  0
  150.8149  139.1212  154.7849 C   0  0  0  0  0  0  0  0  0  0  0  0
  151.5146  140.0031  155.6303 C   0  0  0  0  0  0  0  0  0  0  0  0
  150.8982  140.4600  156.8192 C   0  0  0  0  0  0  0  0  0  0  0  0
  151.5836  141.3431  157.6816 N   0  0  0  0  0  0  0  0  0  0  0  0
  151.9769  140.8477  158.9995 C   0  0  0  0  0  0  0  0  0  0  0  0
  152.9543  141.8272  159.6707 C   0  0  0  0  0  0  0  0  0  0  0  0
  152.3715  143.1250  159.7235 O   0  0  0  0  0  0  0  0  0  0  0  0
  152.0983  143.6350  158.4228 C   0  0  0  0  0  0  0  0  0  0  0  0
  151.0929  142.7190  157.7034 C   0  0  0  0  0  0  0  0  0  0  0  0
  149.6473  140.0666  157.1634 N   0  0  0  0  0  0  0  0  0  0  0  0
  148.9798  139.2222  156.3503 C   0  0  0  0  0  0  0  0  0  0  0  0
  146.4138  132.6577  153.7995 H   0  0  0  0  0  0  0  0  0  0  0  0
  147.4602  134.0054  154.2738 H   0  0  0  0  0  0  0  0  0  0  0  0
  148.0716  132.7608  153.2196 H   0  0  0  0  0  0  0  0  0  0  0  0
  145.9892  132.4206  151.1687 H   0  0  0  0  0  0  0  0  0  0  0  0
  147.6919  132.7710  150.9102 H   0  0  0  0  0  0  0  0  0  0  0  0
  146.4850  133.7735  150.1439 H   0  0  0  0  0  0  0  0  0  0  0  0
  144.2801  136.3784  151.3189 H   0  0  0  0  0  0  0  0  0  0  0  0
  145.0412  135.1708  150.3032 H   0  0  0  0  0  0  0  0  0  0  0  0
  145.9840  136.5094  150.9487 H   0  0  0  0  0  0  0  0  0  0  0  0
  143.4158  134.6842  153.0455 H   0  0  0  0  0  0  0  0  0  0  0  0
  144.4647  133.3672  153.5473 H   0  0  0  0  0  0  0  0  0  0  0  0
  143.9509  133.5110  151.8707 H   0  0  0  0  0  0  0  0  0  0  0  0
  144.9700  136.7473  153.5952 H   0  0  0  0  0  0  0  0  0  0  0  0
  145.4867  135.4348  154.5865 H   0  0  0  0  0  0  0  0  0  0  0  0
  147.6437  136.3718  152.9162 H   0  0  0  0  0  0  0  0  0  0  0  0
  149.0954  137.5522  153.4933 H   0  0  0  0  0  0  0  0  0  0  0  0
  151.2856  138.7920  153.8715 H   0  0  0  0  0  0  0  0  0  0  0  0
  152.5157  140.3069  155.3634 H   0  0  0  0  0  0  0  0  0  0  0  0
  151.0876  140.7250  159.6191 H   0  0  0  0  0  0  0  0  0  0  0  0
  152.4509  139.8693  158.9103 H   0  0  0  0  0  0  0  0  0  0  0  0
  153.1794  141.4967  160.6846 H   0  0  0  0  0  0  0  0  0  0  0  0
  153.9014  141.8635  159.1301 H   0  0  0  0  0  0  0  0  0  0  0  0
  151.6891  144.6410  158.5157 H   0  0  0  0  0  0  0  0  0  0  0  0
  153.0242  143.7199  157.8516 H   0  0  0  0  0  0  0  0  0  0  0  0
  150.9194  143.1035  156.6996 H   0  0  0  0  0  0  0  0  0  0  0  0
  150.1332  142.7408  158.2211 H   0  0  0  0  0  0  0  0  0  0  0  0
  147.9861  138.9454  156.6717 H   0  0  0  0  0  0  0  0  0  0  0  0
  147.4792  134.7698  152.0804 H   0  0  0  0  0  0  0  0  0  0  0  0
  1  2  1  0  0  0  0
  1 24  1  0  0  0  0
  1 25  1  0  0  0  0
  1 26  1  0  0  0  0
  2  3  1  0  0  0  0
  2  4  1  0  0  0  0
  2 51  1  0  0  0  0
  3 27  1  0  0  0  0
  3 28  1  0  0  0  0
  3 29  1  0  0  0  0
  4  5  1  0  0  0  0
  4  6  1  0  0  0  0
  4  7  1  0  0  0  0
  5 30  1  0  0  0  0
  5 31  1  0  0  0  0
  5 32  1  0  0  0  0
  6 33  1  0  0  0  0
  6 34  1  0  0  0  0
  6 35  1  0  0  0  0
  7  8  1  0  0  0  0
  7 36  1  0  0  0  0
  7 37  1  0  0  0  0
  8  9  1  0  0  0  0
  8 38  1  0  0  0  0
  9 10  2  0  0  0  0
  9 11  1  0  0  0  0
 11 12  1  0  0  0  0
 11 39  1  0  0  0  0
 12 23  1  0  0  0  0
 12 13  2  0  0  0  0
 13 14  1  0  0  0  0
 13 40  1  0  0  0  0
 14 15  2  0  0  0  0
 14 41  1  0  0  0  0
 15 16  1  0  0  0  0
 15 22  1  0  0  0  0
 16 21  1  0  0  0  0
 16 17  1  0  0  0  0
 17 18  1  0  0  0  0
 17 42  1  0  0  0  0
 17 43  1  0  0  0  0
 18 19  1  0  0  0  0
 18 44  1  0  0  0  0
 18 45  1  0  0  0  0
 19 20  1  0  0  0  0
 20 21  1  0  0  0  0
 20 46  1  0  0  0  0
 20 47  1  0  0  0  0
 21 48  1  0  0  0  0
 21 49  1  0  0  0  0
 22 23  2  0  0  0  0
 23 50  1  0  0  0  0
M  CHG  1   2   1
M  END
> <s_m_source_file>
AV-unprocessed.smi

> <i_m_source_file_index>
1559

> <i_lp_mmshare_version>
43012

> <i_f3d_flags>
0

> <s_epik_input>
W0NIM11OKFtDSDNdKUMoW0NIM10pKFtDSDNdKVtDSDJdW05IXUMoPU8pW05IXWMxW2NIXVtjSF1jKG5bY0hdMSlOMltDSDJdW0NIMl1PW0NIMl1bQ0gyXTI=

> <s_epik_cmdline>
J2VwaWtfcHl0aG9uJywgJy1waCcsICc3LjAnLCAnLXRuJywgJzgnLCAnLW1hJywgJzIwMCcsICctbWV0YWxfYmluZGluZycsICctaW1hZScsICc8aW5maWxlLm1hZT4nLCAnLW9tYWUnLCAnPG91dGZpbGUubWFlPic=

> <r_lp_tautomer_probability>
1

> <r_epik_Ionization_Penalty>
0.00606683

> <r_epik_Ionization_Penalty_Charging>
0.00433655

> <r_epik_Ionization_Penalty_Neutral>
0.00173028

> <r_epik_State_Penalty>
-0

> <r_epik_Charging_Adjusted_Penalty>
0.00433655

> <i_epik_Tot_Q>
1

> <i_epik_Tot_abs_Q>
1

> <r_epik_Metal_State_Penalty>
-0

> <b_epik_Metal_Only>
0

> <s_lp_Force_Field>
OPLS_2005

> <r_lp_Energy>
39.7319

> <b_lp_Chiralities_Consistent>
1

> <s_lp_Variant>
AV-unprocessed.smi:1559-1

> <Gold.Version>
5.8.1

> <Gold.Id.Protein>
6NUR|6NUR_protein|mol2

> <Gold.PLP.Fitness>
47.9808

> <Gold.PLP.PLP>
-37.0345

> <Gold.PLP.part.hbond>
-2.9323

> <Gold.PLP.part.metal>
0.0000

> <Gold.PLP.part.buried>
-4.5617

> <Gold.PLP.part.nonpolar>
-30.3030

> <Gold.PLP.part.repulsive>
0.0976

> <Gold.PLP.ligand.clash>
0.0000

> <Gold.PLP.ligand.torsion>
0.4581

> <Gold.PLP.Chemscore.Hbond>
3.8012

> <Gold.PLP.Chemscore.CHOScore>
0.0000

> <Gold.PLP.Chemscore.Metal>
0.0000

> <Gold.Chemscore.Hbonds>
donor molecule, donor type, donor heavy atom, donor atom, acceptor molecule, acceptor atom, score
      L1  H     2    51       P1  7948  1.92
      L1  H     8    38       P1  7948  1.00
      L1  H    11    39       P1  7948  0.81

> <Gold.PLP.Chemscore.Internal.Correction>
0.4591

> <Gold.Rescore>
     Score         DG    S(hbond)    S(metal)    S(lipo)     H(rot)  DE(clash)    DE(int)     intcor
     18.48     -20.49       2.67        0.00      88.05       1.64       0.09       1.92       ----

> <Gold.Chemscore.Fitness>
18.4844

> <Gold.Chemscore.DG>
-20.4854

> <Gold.Chemscore.ZeroCoef>
-5.4800

> <Gold.Chemscore.Hbond>
2.6664

> <Gold.Chemscore.Metal>
0.0000

> <Gold.Chemscore.Lipo>
88.0490

> <Gold.Chemscore.Internal_Hbond>
0.0000

> <Gold.Chemscore.DEClash>
0.0858

> <Gold.Chemscore.DEInternal>
1.9151

> <Gold.Chemscore.Rot>
1.6414

> <Gold.Chemscore.Internal.Correction>
   9.000000E+99

> <Gold.Chemscore.Hbonds>
donor molecule, donor type, donor heavy atom, donor atom, acceptor molecule, acceptor atom, score
      L1  H     2    51       P1  7948  0.75
      L1  H     8    38       P1  7948  1.00
      L1  H    11    39       P1  7948  0.76

> <Gold.Chemscore.Hbond.Weighted>
-8.9057

> <Gold.Chemscore.Metal.Weighted>
-0.0000

> <Gold.Chemscore.Lipo.Weighted>
-10.3017

> <Gold.Chemscore.Internal_Hbond.Weighted>
0.0000

> <Gold.Chemscore.DEClash.Weighted>
0.0858

> <Gold.Chemscore.DEInternal.Weighted>
1.9151

> <Gold.Chemscore.Rot.Weighted>
4.2021

> <Gold.Chemscore.Internal.Correction.Weighted>
   9.000000E+99

> <Gold.Protein.RotatedTorsions>
[ 6907 6896 6895 6894 ] final  110.29 input  -60.11 | X-H torsion
[ 7974 7965 7964 7962 ] final  137.88 input  175.53 | X-H torsion
[ 8008 7997 7996 7995 ] final  112.60 input   59.86 | X-H torsion
[ 10167 10162 10161 10158 ] final -177.29 input  -65.29 | X-H torsion
[ 10718 10713 10712 10709 ] final   10.89 input   66.30 | X-H torsion
[ 10763 10752 10751 10750 ] final -118.57 input  -60.55 | X-H torsion
[ 11005 11000 10999 10996 ] final  130.82 input  -57.11 | X-H torsion

> <Gold.Protein.ActiveResidues>
 VAL166  LYS551  ARG553  GLY616  TRP617  ASP618  TYR619  PRO620  LYS621  CYS622 
 ASP623  PHE694  ASN695  SER759  ASP760  ASP761  ALA762  ILE779  LEU786  VAL792 
 PHE793  MET794  SER795  GLU796  ALA797  LYS798  CYS799  TRP800  GLU811  SER814 

> <Gold.Protein.RotatedAtoms>
  152.5027  133.8822  159.7351 H   0  0  0  0  0  0  0  0  0  0  0  0  # atno 6907 bound_to 6896
  150.9282  133.6790  159.2823 H   0  0  0  0  0  0  0  0  0  0  0  0  # atno 6908 bound_to 6896
  151.4144  135.0994  159.9647 H   0  0  0  0  0  0  0  0  0  0  0  0  # atno 6909 bound_to 6896
  144.9425  139.4914  143.5565 H   0  0  0  0  0  0  0  0  0  0  0  0  # atno 7974 bound_to 7965
  156.2203  140.2996  155.9936 H   0  0  0  0  0  0  0  0  0  0  0  0  # atno 8008 bound_to 7997
  155.2499  140.0425  157.3002 H   0  0  0  0  0  0  0  0  0  0  0  0  # atno 8009 bound_to 7997
  154.5830  140.2380  155.8035 H   0  0  0  0  0  0  0  0  0  0  0  0  # atno 8010 bound_to 7997
  139.5487  144.2166  152.1037 H   0  0  0  0  0  0  0  0  0  0  0  0  # atno 10167 bound_to 10162
  156.9875  130.6029  149.5682 H   0  0  0  0  0  0  0  0  0  0  0  0  # atno 10718 bound_to 10713
  154.8591  135.4269  154.2160 H   0  0  0  0  0  0  0  0  0  0  0  0  # atno 10763 bound_to 10752
  153.3175  135.6980  153.7066 H   0  0  0  0  0  0  0  0  0  0  0  0  # atno 10764 bound_to 10752
  153.6134  135.3515  155.2960 H   0  0  0  0  0  0  0  0  0  0  0  0  # atno 10765 bound_to 10752
  139.9694  134.9582  156.9349 H   0  0  0  0  0  0  0  0  0  0  0  0  # atno 11005 bound_to 11000
  146.3291  139.8454  142.8883 LP  0  0  0  0  0  0  0  0  0  0  0  0  # atno 17320 bound_to 7965
  145.2969  141.0183  143.3631 LP  0  0  0  0  0  0  0  0  0  0  0  0  # atno 17321 bound_to 7965
  140.1657  144.4983  150.6607 LP  0  0  0  0  0  0  0  0  0  0  0  0  # atno 17342 bound_to 10162
  140.6743  143.2299  151.5546 LP  0  0  0  0  0  0  0  0  0  0  0  0  # atno 17343 bound_to 10162
  156.0220  130.5314  150.8302 LP  0  0  0  0  0  0  0  0  0  0  0  0  # atno 17370 bound_to 10713
  157.5482  131.0943  150.9733 LP  0  0  0  0  0  0  0  0  0  0  0  0  # atno 17371 bound_to 10713
  140.5326  134.0798  155.7320 LP  0  0  0  0  0  0  0  0  0  0  0  0  # atno 17394 bound_to 11000
  141.1374  133.9198  157.2404 LP  0  0  0  0  0  0  0  0  0  0  0  0  # atno 17395 bound_to 11000

$$$$
