#       Name:                AV-unprocessed.smi:3303
#       Creating user name   scv26
#       Creation time:       Fri Mar 27 19:02:50 2020


#       File generated by GOLD software.
#

@<TRIPOS>MOLECULE
AV-unprocessed.smi:3303
    46    47     1
SMALL
NO_CHARGES


@<TRIPOS>ATOM
      1 ****        -0.5528  -0.7667   2.4473 C.3            1 S1                 0.0000
      2 ****        -0.9795  -1.4769   1.1508 C.3            1 S1                 0.0000
      3 ****        -2.5089  -1.6834   1.1439 C.3            1 S1                 0.0000
      4 ****        -2.9702  -2.3402  -0.1048 N.4            1 S1                 1.0000
      5 ****        -4.3933  -2.7450  -0.0501 C.3            1 S1                 0.0000
      6 ****        -2.5954  -1.5925  -1.3379 C.3            1 S1                 0.0000
      7 ****        -3.3596  -0.2627  -1.5167 C.3            1 S1                 0.0000
      8 ****        -1.0685  -1.3992  -1.3827 C.3            1 S1                 0.0000
      9 ****        -0.5257  -0.7118  -0.1149 C.3            1 S1                 0.0000
     10 ****         0.9301  -0.7212  -0.2055 N.3            1 S1                 0.0000
     11 ****         1.4705   0.6276  -0.1362 C.3            1 S1                 0.0000
     12 ****         3.0006   0.5789  -0.2434 C.3            1 S1                 0.0000
     13 ****         3.6205   1.9616  -0.1814 C.ar           1 S1                 0.0000
     14 ****         4.2180   2.4321   1.0075 C.ar           1 S1                 0.0000
     15 ****         4.7754   3.7255   1.0114 C.ar           1 S1                 0.0000
     16 ****         4.7123   4.4948  -0.1664 C.ar           1 S1                 0.0000
     17 ****         4.0924   3.9341  -1.3009 C.ar           1 S1                 0.0000
     18 ****         3.5557   2.6948  -1.3158 N.ar           1 S1                 0.0000
     19 ****        -0.9624   0.2426   2.4994 H              1 S1                 0.0000
     20 ****         0.5320  -0.6899   2.5243 H              1 S1                 0.0000
     21 ****        -0.8996  -1.3119   3.3255 H              1 S1                 0.0000
     22 ****        -0.5143  -2.4643   1.1420 H              1 S1                 0.0000
     23 ****        -2.7888  -2.3076   1.9940 H              1 S1                 0.0000
     24 ****        -3.0265  -0.7329   1.2781 H              1 S1                 0.0000
     25 ****        -5.0483  -1.8883   0.1110 H              1 S1                 0.0000
     26 ****        -4.5550  -3.4474   0.7680 H              1 S1                 0.0000
     27 ****        -4.6923  -3.2404  -0.9744 H              1 S1                 0.0000
     28 ****        -2.8592  -2.2265  -2.1858 H              1 S1                 0.0000
     29 ****        -3.0514   0.2348  -2.4364 H              1 S1                 0.0000
     30 ****        -3.1803   0.4345  -0.6988 H              1 S1                 0.0000
     31 ****        -4.4352  -0.4200  -1.5905 H              1 S1                 0.0000
     32 ****        -0.5979  -2.3777  -1.4951 H              1 S1                 0.0000
     33 ****        -0.7905  -0.8280  -2.2697 H              1 S1                 0.0000
     34 ****        -0.9066   0.3104  -0.0741 H              1 S1                 0.0000
     35 ****         1.2160  -1.1492  -1.0748 H              1 S1                 0.0000
     36 ****         1.0579   1.2277  -0.9486 H              1 S1                 0.0000
     37 ****         1.1752   1.0965   0.8033 H              1 S1                 0.0000
     38 ****         3.4131  -0.0354   0.5586 H              1 S1                 0.0000
     39 ****         3.2975   0.1033  -1.1795 H              1 S1                 0.0000
     40 ****         4.2494   1.8189   1.8961 H              1 S1                 0.0000
     41 ****         5.2421   4.1205   1.9018 H              1 S1                 0.0000
     42 ****         5.1284   5.4908  -0.1997 H              1 S1                 0.0000
     43 ****         4.0256   4.4956  -2.2209 H              1 S1                 0.0000
     44 ****        -2.4519  -3.2059  -0.1561 H              1 S1                 0.0000
     45 ****         1.2842  -1.2467   0.5681 LP             1 S1                 0.0000
     46 ****         3.1235   2.3305  -2.1407 LP             1 S1                 0.0000
@<TRIPOS>BOND
    1    1    2 1     
    2    1   19 1     
    3    1   20 1     
    4    1   21 1     
    5    2    9 1     
    6    2    3 1     
    7    2   22 1     
    8    3    4 1     
    9    3   23 1     
   10    3   24 1     
   11    4    5 1     
   12    4    6 1     
   13    4   44 1     
   14    5   25 1     
   15    5   26 1     
   16    5   27 1     
   17    6    7 1     
   18    6    8 1     
   19    6   28 1     
   20    7   29 1     
   21    7   30 1     
   22    7   31 1     
   23    8    9 1     
   24    8   32 1     
   25    8   33 1     
   26    9   10 1     
   27    9   34 1     
   28   10   11 1     
   29   10   35 1     
   30   11   12 1     
   31   11   36 1     
   32   11   37 1     
   33   12   13 1     
   34   12   38 1     
   35   12   39 1     
   36   13   18 ar    
   37   13   14 ar    
   38   14   15 ar    
   39   14   40 1     
   40   15   16 ar    
   41   15   41 1     
   42   16   17 ar    
   43   16   42 1     
   44   17   18 ar    
   45   17   43 1     
   46   10   45 1     
   47   18   46 1     
@<TRIPOS>SUBSTRUCTURE
      1 S1             1
@<TRIPOS>SET
LONE_PAIRS      STATIC     ATOMS    <user>   **** ""
2 45 46
DONOR_HYDROGENS      STATIC     ATOMS    <user>   **** ""
2 44 35
ATOM$BLUE        STATIC     ATOMS    COLORGROUP SYSTEM
2 45 46
ATOM$RED        STATIC     ATOMS    COLORGROUP SYSTEM
2 44 35
