AV-unprocessed.smi:2667|AV-procd|sdf|10334|dock10
  -GOLD-   2272014353D 1   1.00000     0.00000
 Structure written by MMmdl.
 44 46  0  0  0  0  0  0  0  0  1 V2000
  142.7136  145.6677  154.2366 C   0  0  0  0  0  0  0  0  0  0  0  0
  143.0102  144.1816  153.9797 C   0  0  0  0  0  0  0  0  0  0  0  0
  143.4666  143.4113  155.2285 C   0  0  0  0  0  0  0  0  0  0  0  0
  142.7188  143.3301  156.2042 O   0  0  0  0  0  0  0  0  0  0  0  0
  144.8211  142.7871  155.1928 C   0  0  0  0  0  0  0  0  0  0  0  0
  145.5097  142.5599  153.9783 C   0  0  0  0  0  0  0  0  0  0  0  0
  146.7849  141.9635  153.9810 C   0  0  0  0  0  0  0  0  0  0  0  0
  147.4039  141.5806  155.1870 C   0  0  0  0  0  0  0  0  0  0  0  0
  148.6499  140.9988  155.0959 O   0  0  0  0  0  0  0  0  0  0  0  0
  149.3726  140.7576  156.2968 C   0  0  0  0  0  0  0  0  0  0  0  0
  150.8657  141.0552  156.0790 C   0  0  2  0  0  0  0  0  0  0  0  0
  151.3824  140.1335  155.1361 O   0  0  0  0  0  0  0  0  0  0  0  0
  151.6863  141.1634  157.3922 C   0  0  0  0  0  0  0  0  0  0  0  0
  151.4538  142.3831  158.1484 N   0  0  0  0  0  0  0  0  0  0  0  0
  150.6933  143.4326  157.7807 C   0  0  0  0  0  0  0  0  0  0  0  0
  150.6245  144.4604  158.6216 N   0  0  0  0  0  0  0  0  0  0  0  0
  151.4302  144.0253  159.6601 C   0  0  0  0  0  0  0  0  0  0  0  0
  151.7794  144.6564  160.8756 C   0  0  0  0  0  0  0  0  0  0  0  0
  152.6283  144.0101  161.7983 C   0  0  0  0  0  0  0  0  0  0  0  0
  153.1368  142.7241  161.5225 C   0  0  0  0  0  0  0  0  0  0  0  0
  152.8012  142.0754  160.3191 C   0  0  0  0  0  0  0  0  0  0  0  0
  151.9596  142.7257  159.3979 C   0  0  0  0  0  0  0  0  0  0  0  0
  146.7182  141.8106  156.4046 C   0  0  0  0  0  0  0  0  0  0  0  0
  145.4420  142.4064  156.4039 C   0  0  0  0  0  0  0  0  0  0  0  0
  142.3977  146.1597  153.3167 H   0  0  0  0  0  0  0  0  0  0  0  0
  143.5965  146.1928  154.6031 H   0  0  0  0  0  0  0  0  0  0  0  0
  141.9150  145.7944  154.9681 H   0  0  0  0  0  0  0  0  0  0  0  0
  142.1156  143.7011  153.5828 H   0  0  0  0  0  0  0  0  0  0  0  0
  143.7847  144.0972  153.2171 H   0  0  0  0  0  0  0  0  0  0  0  0
  145.0793  142.8344  153.0270 H   0  0  0  0  0  0  0  0  0  0  0  0
  147.2937  141.7991  153.0425 H   0  0  0  0  0  0  0  0  0  0  0  0
  148.9806  141.3642  157.1151 H   0  0  0  0  0  0  0  0  0  0  0  0
  149.2626  139.7090  156.5776 H   0  0  0  0  0  0  0  0  0  0  0  0
  150.9256  142.0238  155.5812 H   0  0  0  0  0  0  0  0  0  0  0  0
  150.7292  139.4703  154.9746 H   0  0  0  0  0  0  0  0  0  0  0  0
  151.4460  140.3195  158.0402 H   0  0  0  0  0  0  0  0  0  0  0  0
  152.7556  141.0801  157.1949 H   0  0  0  0  0  0  0  0  0  0  0  0
  150.1654  143.4447  156.8383 H   0  0  0  0  0  0  0  0  0  0  0  0
  151.3937  145.6402  161.0982 H   0  0  0  0  0  0  0  0  0  0  0  0
  152.8893  144.5028  162.7232 H   0  0  0  0  0  0  0  0  0  0  0  0
  153.7845  142.2355  162.2355 H   0  0  0  0  0  0  0  0  0  0  0  0
  153.1847  141.0893  160.1073 H   0  0  0  0  0  0  0  0  0  0  0  0
  147.1485  141.5375  157.3560 H   0  0  0  0  0  0  0  0  0  0  0  0
  144.9450  142.5665  157.3501 H   0  0  0  0  0  0  0  0  0  0  0  0
  1  2  1  0  0  0  0
  1 25  1  0  0  0  0
  1 26  1  0  0  0  0
  1 27  1  0  0  0  0
  2  3  1  0  0  0  0
  2 28  1  0  0  0  0
  2 29  1  0  0  0  0
  3  4  2  0  0  0  0
  3  5  1  0  0  0  0
  5 24  1  0  0  0  0
  5  6  2  0  0  0  0
  6  7  1  0  0  0  0
  6 30  1  0  0  0  0
  7  8  2  0  0  0  0
  7 31  1  0  0  0  0
  8  9  1  0  0  0  0
  8 23  1  0  0  0  0
  9 10  1  0  0  0  0
 10 11  1  0  0  0  0
 10 32  1  0  0  0  0
 10 33  1  0  0  0  0
 11 12  1  0  0  0  0
 11 13  1  0  0  0  0
 11 34  1  0  0  0  0
 12 35  1  0  0  0  0
 13 14  1  0  0  0  0
 13 36  1  0  0  0  0
 13 37  1  0  0  0  0
 14 22  1  0  0  0  0
 14 15  1  0  0  0  0
 15 16  2  0  0  0  0
 15 38  1  0  0  0  0
 16 17  1  0  0  0  0
 17 22  2  0  0  0  0
 17 18  1  0  0  0  0
 18 19  2  0  0  0  0
 18 39  1  0  0  0  0
 19 20  1  0  0  0  0
 19 40  1  0  0  0  0
 20 21  2  0  0  0  0
 20 41  1  0  0  0  0
 21 22  1  0  0  0  0
 21 42  1  0  0  0  0
 23 24  2  0  0  0  0
 23 43  1  0  0  0  0
 24 44  1  0  0  0  0
M  END
> <s_m_source_file>
AV-unprocessed.smi

> <i_m_source_file_index>
2667

> <i_lp_mmshare_version>
43012

> <i_f3d_flags>
0

> <s_epik_input>
W0NIM11bQ0gyXUMoPU8pYzFbY0hdW2NIXWMoW2NIXVtjSF0xKU9bQ0gyXVtDQEhdKFtPSF0pW0NIMl1uKFtjSF1uMiljKGMyMylbY0hdW2NIXVtjSF1bY0hdMw==

> <s_epik_cmdline>
J2VwaWtfcHl0aG9uJywgJy1waCcsICc3LjAnLCAnLXRuJywgJzgnLCAnLW1hJywgJzIwMCcsICctbWV0YWxfYmluZGluZycsICctaW1hZScsICc8aW5maWxlLm1hZT4nLCAnLW9tYWUnLCAnPG91dGZpbGUubWFlPic=

> <r_lp_tautomer_probability>
0.9999

> <r_epik_Ionization_Penalty>
0.0583018

> <r_epik_Ionization_Penalty_Charging>
0

> <r_epik_Ionization_Penalty_Neutral>
0.0583018

> <r_epik_State_Penalty>
0.0504087

> <r_epik_Charging_Adjusted_Penalty>
0.0504087

> <i_epik_Tot_Q>
0

> <i_epik_Tot_abs_Q>
0

> <r_epik_Metal_State_Penalty>
5.26129e-05

> <b_epik_Metal_Only>
0

> <s_lp_Force_Field>
OPLS_2005

> <r_lp_Energy>
26.5089

> <b_lp_Chiralities_Consistent>
1

> <s_lp_Variant>
AV-unprocessed.smi:2667-1

> <Gold.Version>
5.8.1

> <Gold.Id.Protein>
6NUR|6NUR_protein|mol2

> <Gold.PLP.Fitness>
56.6319

> <Gold.PLP.PLP>
-51.8592

> <Gold.PLP.part.hbond>
-1.0000

> <Gold.PLP.part.metal>
0.0000

> <Gold.PLP.part.buried>
-6.7370

> <Gold.PLP.part.nonpolar>
-44.5908

> <Gold.PLP.part.repulsive>
0.2611

> <Gold.PLP.ligand.clash>
0.0000

> <Gold.PLP.ligand.torsion>
0.6959

> <Gold.PLP.Chemscore.Hbond>
1.0000

> <Gold.PLP.Chemscore.CHOScore>
1.0000

> <Gold.PLP.Chemscore.Metal>
0.0000

> <Gold.Chemscore.Hbonds>
donor molecule, donor type, donor heavy atom, donor atom, acceptor molecule, acceptor atom, score
      P1  H  7989  7998       L1    12  1.00
      L1  C    15    38       P1  8028  1.00

> <Gold.PLP.Chemscore.Internal.Correction>
0.1644

> <Gold.Rescore>
     Score         DG    S(hbond)    S(metal)    S(lipo)     H(rot)  DE(clash)    DE(int)     intcor
     15.61     -16.04       0.91        0.00     118.77       2.49       0.05       0.38       ----

> <Gold.Chemscore.Fitness>
15.6090

> <Gold.Chemscore.DG>
-16.0369

> <Gold.Chemscore.ZeroCoef>
-5.4800

> <Gold.Chemscore.Hbond>
0.9113

> <Gold.Chemscore.Metal>
0.0000

> <Gold.Chemscore.Lipo>
118.7691

> <Gold.Chemscore.Internal_Hbond>
0.0000

> <Gold.Chemscore.DEClash>
0.0489

> <Gold.Chemscore.DEInternal>
0.3789

> <Gold.Chemscore.Rot>
2.4932

> <Gold.Chemscore.Internal.Correction>
   9.000000E+99

> <Gold.Chemscore.Hbonds>
donor molecule, donor type, donor heavy atom, donor atom, acceptor molecule, acceptor atom, score
      P1  H  7989  7998       L1    12  0.37

> <Gold.Chemscore.Hbond.Weighted>
-3.0436

> <Gold.Chemscore.Metal.Weighted>
-0.0000

> <Gold.Chemscore.Lipo.Weighted>
-13.8960

> <Gold.Chemscore.Internal_Hbond.Weighted>
0.0000

> <Gold.Chemscore.DEClash.Weighted>
0.0489

> <Gold.Chemscore.DEInternal.Weighted>
0.3789

> <Gold.Chemscore.Rot.Weighted>
6.3826

> <Gold.Chemscore.Internal.Correction.Weighted>
   9.000000E+99

> <Gold.Protein.RotatedTorsions>
[ 6907 6896 6895 6894 ] final  120.34 input  -60.11 | X-H torsion
[ 7974 7965 7964 7962 ] final   57.26 input  175.53 | X-H torsion
[ 8008 7997 7996 7995 ] final -173.53 input   59.86 | X-H torsion
[ 10167 10162 10161 10158 ] final  179.56 input  -65.29 | X-H torsion
[ 10718 10713 10712 10709 ] final  152.18 input   66.30 | X-H torsion
[ 10763 10752 10751 10750 ] final  126.75 input  -60.55 | X-H torsion
[ 11005 11000 10999 10996 ] final   68.68 input  -57.11 | X-H torsion

> <Gold.Protein.ActiveResidues>
 VAL166  LYS551  ARG553  GLY616  TRP617  ASP618  TYR619  PRO620  LYS621  CYS622 
 ASP623  PHE694  ASN695  SER759  ASP760  ASP761  ALA762  ILE779  LEU786  VAL792 
 PHE793  MET794  SER795  GLU796  ALA797  LYS798  CYS799  TRP800  GLU811  SER814 

> <Gold.Protein.RotatedAtoms>
  152.4405  133.7440  159.6656 H   0  0  0  0  0  0  0  0  0  0  0  0  # atno 6907 bound_to 6896
  150.8296  133.8104  159.3110 H   0  0  0  0  0  0  0  0  0  0  0  0  # atno 6908 bound_to 6896
  151.5762  135.1063  160.0058 H   0  0  0  0  0  0  0  0  0  0  0  0  # atno 6909 bound_to 6896
  145.9309  139.3807  143.0421 H   0  0  0  0  0  0  0  0  0  0  0  0  # atno 7974 bound_to 7965
  155.9586  140.1140  157.0915 H   0  0  0  0  0  0  0  0  0  0  0  0  # atno 8008 bound_to 7997
  154.4126  140.1186  156.5215 H   0  0  0  0  0  0  0  0  0  0  0  0  # atno 8009 bound_to 7997
  155.6750  140.3473  155.4835 H   0  0  0  0  0  0  0  0  0  0  0  0  # atno 8010 bound_to 7997
  139.5342  144.2546  152.0757 H   0  0  0  0  0  0  0  0  0  0  0  0  # atno 10167 bound_to 10162
  157.2611  131.0798  151.1665 H   0  0  0  0  0  0  0  0  0  0  0  0  # atno 10718 bound_to 10713
  153.6983  135.3287  155.3219 H   0  0  0  0  0  0  0  0  0  0  0  0  # atno 10763 bound_to 10752
  154.8420  135.4448  154.1437 H   0  0  0  0  0  0  0  0  0  0  0  0  # atno 10764 bound_to 10752
  153.2497  135.6980  153.7771 H   0  0  0  0  0  0  0  0  0  0  0  0  # atno 10765 bound_to 10752
  139.9697  134.6921  156.0472 H   0  0  0  0  0  0  0  0  0  0  0  0  # atno 11005 bound_to 11000
  145.8427  140.9572  143.0791 LP  0  0  0  0  0  0  0  0  0  0  0  0  # atno 17320 bound_to 7965
  144.6765  140.0305  143.7482 LP  0  0  0  0  0  0  0  0  0  0  0  0  # atno 17321 bound_to 7965
  140.2014  144.4654  150.6429 LP  0  0  0  0  0  0  0  0  0  0  0  0  # atno 17342 bound_to 10162
  140.6538  143.2232  151.6015 LP  0  0  0  0  0  0  0  0  0  0  0  0  # atno 17343 bound_to 10162
  157.3174  130.6920  149.6250 LP  0  0  0  0  0  0  0  0  0  0  0  0  # atno 17370 bound_to 10713
  155.9664  130.4345  150.5053 LP  0  0  0  0  0  0  0  0  0  0  0  0  # atno 17371 bound_to 10713
  141.1377  133.6571  156.3639 LP  0  0  0  0  0  0  0  0  0  0  0  0  # atno 17394 bound_to 11000
  140.5320  134.6203  157.5353 LP  0  0  0  0  0  0  0  0  0  0  0  0  # atno 17395 bound_to 11000

$$$$
