AV-unprocessed.smi:2093|AV-procd|sdf|8546|dock9
  -GOLD-   2272011273D 1   1.00000     0.00000
 Structure written by MMmdl.
 31 32  0  0  0  0  0  0  0  0  1 V2000
  148.3407  141.7405  154.0685 C   0  0  0  0  0  0  0  0  0  0  0  0
  148.6444  141.3257  155.5157 C   0  0  2  0  0  0  0  0  0  0  0  0
  148.0744  142.3173  156.4268 N   0  0  0  0  0  0  0  0  0  0  0  0
  147.3923  142.0552  157.5516 C   0  0  0  0  0  0  0  0  0  0  0  0
  147.1523  140.9174  157.9563 O   0  0  0  0  0  0  0  0  0  0  0  0
  147.0188  143.1919  158.1653 N   0  0  0  0  0  0  0  0  0  0  0  0
  146.2939  143.3397  159.3770 C   0  0  0  0  0  0  0  0  0  0  0  0
  146.5959  142.7121  160.5197 N   0  0  0  0  0  0  0  0  0  0  0  0
  145.7142  143.0469  161.5506 C   0  0  0  0  0  0  0  0  0  0  0  0
  144.7399  143.9371  161.1727 C   0  0  0  0  0  0  0  0  0  0  0  0
  144.8906  144.3914  159.4961 S   0  0  0  0  0  0  0  0  0  0  0  0
  150.1580  141.1857  155.7705 C   0  0  1  0  0  0  0  0  0  0  0  0
  150.5234  140.5413  157.1101 C   0  0  0  0  0  0  0  0  0  0  0  0
  151.8966  139.9831  156.8168 C   0  0  0  0  0  0  0  0  0  0  0  0
  151.7255  139.4859  155.3854 C   0  0  0  0  0  0  0  0  0  0  0  0
  150.7581  140.3445  154.7867 O   0  0  0  0  0  0  0  0  0  0  0  0
  148.7224  141.0053  153.3596 H   0  0  0  0  0  0  0  0  0  0  0  0
  148.7945  142.7021  153.8261 H   0  0  0  0  0  0  0  0  0  0  0  0
  147.2664  141.8266  153.9022 H   0  0  0  0  0  0  0  0  0  0  0  0
  148.1843  140.3507  155.6852 H   0  0  0  0  0  0  0  0  0  0  0  0
  148.2200  143.2854  156.1808 H   0  0  0  0  0  0  0  0  0  0  0  0
  147.2888  144.0537  157.7149 H   0  0  0  0  0  0  0  0  0  0  0  0
  145.8544  142.6039  162.5256 H   0  0  0  0  0  0  0  0  0  0  0  0
  143.9460  144.3511  161.7765 H   0  0  0  0  0  0  0  0  0  0  0  0
  150.6412  142.1622  155.7068 H   0  0  0  0  0  0  0  0  0  0  0  0
  150.5179  141.2486  157.9398 H   0  0  0  0  0  0  0  0  0  0  0  0
  149.8341  139.7294  157.3484 H   0  0  0  0  0  0  0  0  0  0  0  0
  152.6406  140.7801  156.8533 H   0  0  0  0  0  0  0  0  0  0  0  0
  152.2002  139.1973  157.5087 H   0  0  0  0  0  0  0  0  0  0  0  0
  152.6626  139.4901  154.8284 H   0  0  0  0  0  0  0  0  0  0  0  0
  151.3325  138.4685  155.3809 H   0  0  0  0  0  0  0  0  0  0  0  0
  1  2  1  0  0  0  0
  1 17  1  0  0  0  0
  1 18  1  0  0  0  0
  1 19  1  0  0  0  0
  2  3  1  0  0  0  0
  2 12  1  0  0  0  0
  2 20  1  0  0  0  0
  3  4  1  0  0  0  0
  3 21  1  0  0  0  0
  4  5  2  0  0  0  0
  4  6  1  0  0  0  0
  6  7  1  0  0  0  0
  6 22  1  0  0  0  0
  7 11  1  0  0  0  0
  7  8  2  0  0  0  0
  8  9  1  0  0  0  0
  9 10  2  0  0  0  0
  9 23  1  0  0  0  0
 10 11  1  0  0  0  0
 10 24  1  0  0  0  0
 12 16  1  0  0  0  0
 12 13  1  0  0  0  0
 12 25  1  0  0  0  0
 13 14  1  0  0  0  0
 13 26  1  0  0  0  0
 13 27  1  0  0  0  0
 14 15  1  0  0  0  0
 14 28  1  0  0  0  0
 14 29  1  0  0  0  0
 15 16  1  0  0  0  0
 15 30  1  0  0  0  0
 15 31  1  0  0  0  0
M  END
> <s_m_source_file>
AV-unprocessed.smi

> <i_m_source_file_index>
2093

> <i_lp_mmshare_version>
43012

> <i_f3d_flags>
0

> <s_epik_input>
TzFbQ0gyXVtDSDJdW0NIMl1bQ0BIXTFbQ0BIXShbQ0gzXSlbTkhdQyg9TylbTkhdYzJuW2NIXVtjSF1zMg==

> <s_epik_cmdline>
J2VwaWtfcHl0aG9uJywgJy1waCcsICc3LjAnLCAnLXRuJywgJzgnLCAnLW1hJywgJzIwMCcsICctbWV0YWxfYmluZGluZycsICctaW1hZScsICc8aW5maWxlLm1hZT4nLCAnLW9tYWUnLCAnPG91dGZpbGUubWFlPic=

> <r_lp_tautomer_probability>
0.999

> <r_epik_Ionization_Penalty>
0.000334433

> <r_epik_Ionization_Penalty_Charging>
0

> <r_epik_Ionization_Penalty_Neutral>
0.000334433

> <r_epik_State_Penalty>
0.000177984

> <r_epik_Charging_Adjusted_Penalty>
0.000177984

> <i_epik_Tot_Q>
0

> <i_epik_Tot_abs_Q>
0

> <r_epik_Metal_State_Penalty>
0.00767616

> <b_epik_Metal_Only>
0

> <s_lp_Force_Field>
OPLS_2005

> <r_lp_Energy>
15.9736

> <b_lp_Chiralities_Consistent>
1

> <s_lp_Variant>
AV-unprocessed.smi:2093-3

> <Gold.Version>
5.8.1

> <Gold.Id.Protein>
6NUR|6NUR_protein|mol2

> <Gold.PLP.Fitness>
40.8589

> <Gold.PLP.PLP>
-28.7739

> <Gold.PLP.part.hbond>
-5.9906

> <Gold.PLP.part.metal>
0.0000

> <Gold.PLP.part.buried>
-4.5254

> <Gold.PLP.part.nonpolar>
-20.0375

> <Gold.PLP.part.repulsive>
0.1689

> <Gold.PLP.ligand.clash>
0.0000

> <Gold.PLP.ligand.torsion>
0.7476

> <Gold.PLP.Chemscore.Hbond>
4.5240

> <Gold.PLP.Chemscore.CHOScore>
0.0000

> <Gold.PLP.Chemscore.Metal>
0.0000

> <Gold.Chemscore.Hbonds>
donor molecule, donor type, donor heavy atom, donor atom, acceptor molecule, acceptor atom, score
      L1  H     3    21       P1  8028  1.00
      L1  H     6    22       P1  8029  0.55
      P1  H  6933  6944       L1     8  0.61
      P1  H  6934  6946       L1     8  1.00
      P1  H  7989  7998       L1    16  1.00

> <Gold.PLP.Chemscore.Internal.Correction>
0.0082

> <Gold.Rescore>
     Score         DG    S(hbond)    S(metal)    S(lipo)     H(rot)  DE(clash)    DE(int)     intcor
     18.75     -19.78       3.42        0.00      52.94       1.29       0.27       0.76       ----

> <Gold.Chemscore.Fitness>
18.7515

> <Gold.Chemscore.DG>
-19.7801

> <Gold.Chemscore.ZeroCoef>
-5.4800

> <Gold.Chemscore.Hbond>
3.4187

> <Gold.Chemscore.Metal>
0.0000

> <Gold.Chemscore.Lipo>
52.9373

> <Gold.Chemscore.Internal_Hbond>
0.0000

> <Gold.Chemscore.DEClash>
0.2673

> <Gold.Chemscore.DEInternal>
0.7613

> <Gold.Chemscore.Rot>
1.2938

> <Gold.Chemscore.Internal.Correction>
   9.000000E+99

> <Gold.Chemscore.Hbonds>
donor molecule, donor type, donor heavy atom, donor atom, acceptor molecule, acceptor atom, score
      L1  H     3    21       P1  8028  0.55
      L1  H     6    22       P1  8029  0.03
      P1  H  6933  6944       L1     8  0.33
      P1  H  6934  6946       L1     8  0.48
      P1  H  7989  7998       L1    16  0.25

> <Gold.Chemscore.Hbond.Weighted>
-11.4186

> <Gold.Chemscore.Metal.Weighted>
-0.0000

> <Gold.Chemscore.Lipo.Weighted>
-6.1937

> <Gold.Chemscore.Internal_Hbond.Weighted>
0.0000

> <Gold.Chemscore.DEClash.Weighted>
0.2673

> <Gold.Chemscore.DEInternal.Weighted>
0.7613

> <Gold.Chemscore.Rot.Weighted>
3.3122

> <Gold.Chemscore.Internal.Correction.Weighted>
   9.000000E+99

> <Gold.Protein.RotatedTorsions>
[ 6907 6896 6895 6894 ] final  -32.90 input  -60.11 | X-H torsion
[ 7974 7965 7964 7962 ] final  -85.13 input  175.53 | X-H torsion
[ 8008 7997 7996 7995 ] final   83.04 input   59.86 | X-H torsion
[ 10167 10162 10161 10158 ] final   71.34 input  -65.29 | X-H torsion
[ 10718 10713 10712 10709 ] final -154.87 input   66.30 | X-H torsion
[ 10763 10752 10751 10750 ] final   41.58 input  -60.55 | X-H torsion
[ 11005 11000 10999 10996 ] final  -71.12 input  -57.11 | X-H torsion

> <Gold.Protein.ActiveResidues>
 VAL166  LYS551  ARG553  GLY616  TRP617  ASP618  TYR619  PRO620  LYS621  CYS622 
 ASP623  PHE694  ASN695  SER759  ASP760  ASP761  ALA762  ILE779  LEU786  VAL792 
 PHE793  MET794  SER795  GLU796  ALA797  LYS798  CYS799  TRP800  GLU811  SER814 

> <Gold.Protein.RotatedAtoms>
  151.0727  134.9808  159.8316 H   0  0  0  0  0  0  0  0  0  0  0  0  # atno 6907 bound_to 6896
  152.5410  134.2279  159.8823 H   0  0  0  0  0  0  0  0  0  0  0  0  # atno 6908 bound_to 6896
  151.2305  133.4409  159.2637 H   0  0  0  0  0  0  0  0  0  0  0  0  # atno 6909 bound_to 6896
  145.4973  140.9549  143.1779 H   0  0  0  0  0  0  0  0  0  0  0  0  # atno 7974 bound_to 7965
  155.9186  140.3423  155.6155 H   0  0  0  0  0  0  0  0  0  0  0  0  # atno 8008 bound_to 7997
  155.7301  140.0794  157.2311 H   0  0  0  0  0  0  0  0  0  0  0  0  # atno 8009 bound_to 7997
  154.4066  140.1589  156.2486 H   0  0  0  0  0  0  0  0  0  0  0  0  # atno 8010 bound_to 7997
  140.0472  144.5342  150.7390 H   0  0  0  0  0  0  0  0  0  0  0  0  # atno 10167 bound_to 10162
  156.5052  130.8409  151.2625 H   0  0  0  0  0  0  0  0  0  0  0  0  # atno 10718 bound_to 10713
  152.9904  135.6157  154.2811 H   0  0  0  0  0  0  0  0  0  0  0  0  # atno 10763 bound_to 10752
  154.2540  135.2784  155.2807 H   0  0  0  0  0  0  0  0  0  0  0  0  # atno 10764 bound_to 10752
  154.5263  135.5800  153.6779 H   0  0  0  0  0  0  0  0  0  0  0  0  # atno 10765 bound_to 10752
  141.1586  133.6808  156.6857 H   0  0  0  0  0  0  0  0  0  0  0  0  # atno 11005 bound_to 11000
  144.7800  139.6547  143.7158 LP  0  0  0  0  0  0  0  0  0  0  0  0  # atno 17320 bound_to 7965
  146.2247  139.5701  142.9595 LP  0  0  0  0  0  0  0  0  0  0  0  0  # atno 17321 bound_to 7965
  140.7233  143.2611  151.4204 LP  0  0  0  0  0  0  0  0  0  0  0  0  # atno 17342 bound_to 10162
  139.5976  144.1364  152.2162 LP  0  0  0  0  0  0  0  0  0  0  0  0  # atno 17343 bound_to 10162
  157.7458  130.9968  150.2794 LP  0  0  0  0  0  0  0  0  0  0  0  0  # atno 17370 bound_to 10713
  156.3294  130.3798  149.7504 LP  0  0  0  0  0  0  0  0  0  0  0  0  # atno 17371 bound_to 10713
  140.3068  134.8119  157.4143 LP  0  0  0  0  0  0  0  0  0  0  0  0  # atno 17394 bound_to 11000
  140.1213  134.5216  155.8181 LP  0  0  0  0  0  0  0  0  0  0  0  0  # atno 17395 bound_to 11000

$$$$
