AV-unprocessed.smi:1144|AV-procd|sdf|4876|dock8
  -GOLD-   22720 3453D 1   1.00000     0.00000
 Structure written by MMmdl.
 35 36  0  0  0  0  0  0  0  0  2 V2000
  146.6400  142.0009  154.0262 C   0  0  0  0  0  0  0  0  0  0  0  0
  147.7077  141.0795  154.4695 N   0  3  1  0  0  0  0  0  0  0  0  0
  148.1758  140.1853  153.3865 C   0  0  0  0  0  0  0  0  0  0  0  0
  149.2589  139.2311  153.9151 C   0  0  0  0  0  0  0  0  0  0  0  0
  150.3239  139.9878  154.4777 O   0  0  0  0  0  0  0  0  0  0  0  0
  149.9049  140.7765  155.5881 C   0  0  1  0  0  0  0  0  0  0  0  0
  151.1379  141.4852  156.1647 C   0  0  0  0  0  0  0  0  0  0  0  0
  151.9313  140.5938  156.9973 N   0  0  0  0  0  0  0  0  0  0  0  0
  152.5167  140.9672  158.1919 C   0  0  0  0  0  0  0  0  0  0  0  0
  152.0388  142.0469  158.8208 N   0  0  0  0  0  0  0  0  0  0  0  0
  152.6326  142.3917  159.9837 C   0  0  0  0  0  0  0  0  0  0  0  0
  153.7063  141.6514  160.5169 C   0  0  0  0  0  0  0  0  0  0  0  0
  154.1271  140.5297  159.7677 C   0  0  0  0  0  0  0  0  0  0  0  0
  155.2737  139.6381  160.2204 C   0  0  0  0  0  0  0  0  0  0  0  0
  155.4735  138.6286  159.3721 F   0  0  0  0  0  0  0  0  0  0  0  0
  156.3958  140.3537  160.2984 F   0  0  0  0  0  0  0  0  0  0  0  0
  155.0015  139.1316  161.4232 F   0  0  0  0  0  0  0  0  0  0  0  0
  153.5238  140.1944  158.6030 N   0  0  0  0  0  0  0  0  0  0  0  0
  148.8470  141.7854  155.0995 C   0  0  0  0  0  0  0  0  0  0  0  0
  147.0016  142.6753  153.2486 H   0  0  0  0  0  0  0  0  0  0  0  0
  146.2809  142.6028  154.8616 H   0  0  0  0  0  0  0  0  0  0  0  0
  145.7913  141.4433  153.6287 H   0  0  0  0  0  0  0  0  0  0  0  0
  147.3364  139.6130  152.9895 H   0  0  0  0  0  0  0  0  0  0  0  0
  148.5751  140.7825  152.5649 H   0  0  0  0  0  0  0  0  0  0  0  0
  148.8485  138.5468  154.6593 H   0  0  0  0  0  0  0  0  0  0  0  0
  149.6504  138.6197  153.1020 H   0  0  0  0  0  0  0  0  0  0  0  0
  149.4673  140.1337  156.3547 H   0  0  0  0  0  0  0  0  0  0  0  0
  151.7549  141.8842  155.3585 H   0  0  0  0  0  0  0  0  0  0  0  0
  150.8242  142.3313  156.7772 H   0  0  0  0  0  0  0  0  0  0  0  0
  152.1028  139.6533  156.6723 H   0  0  0  0  0  0  0  0  0  0  0  0
  152.2490  143.2641  160.4917 H   0  0  0  0  0  0  0  0  0  0  0  0
  154.1747  141.9345  161.4478 H   0  0  0  0  0  0  0  0  0  0  0  0
  149.2894  142.4777  154.3809 H   0  0  0  0  0  0  0  0  0  0  0  0
  148.4869  142.3820  155.9388 H   0  0  0  0  0  0  0  0  0  0  0  0
  147.3032  140.4873  155.1810 H   0  0  0  0  0  0  0  0  0  0  0  0
  1  2  1  0  0  0  0
  1 20  1  0  0  0  0
  1 21  1  0  0  0  0
  1 22  1  0  0  0  0
  2 19  1  0  0  0  0
  2  3  1  0  0  0  0
  2 35  1  0  0  0  0
  3  4  1  0  0  0  0
  3 23  1  0  0  0  0
  3 24  1  0  0  0  0
  4  5  1  0  0  0  0
  4 25  1  0  0  0  0
  4 26  1  0  0  0  0
  5  6  1  0  0  0  0
  6  7  1  0  0  0  0
  6 19  1  0  0  0  0
  6 27  1  0  0  0  0
  7  8  1  0  0  0  0
  7 28  1  0  0  0  0
  7 29  1  0  0  0  0
  8  9  1  0  0  0  0
  8 30  1  0  0  0  0
  9 18  1  0  0  0  0
  9 10  2  0  0  0  0
 10 11  1  0  0  0  0
 11 12  2  0  0  0  0
 11 31  1  0  0  0  0
 12 13  1  0  0  0  0
 12 32  1  0  0  0  0
 13 14  1  0  0  0  0
 13 18  2  0  0  0  0
 14 15  1  0  0  0  0
 14 16  1  0  0  0  0
 14 17  1  0  0  0  0
 19 33  1  0  0  0  0
 19 34  1  0  0  0  0
M  CHG  1   2   1
M  END
> <s_m_source_file>
AV-unprocessed.smi

> <i_m_source_file_index>
1144

> <i_lp_mmshare_version>
43012

> <i_f3d_flags>
0

> <s_epik_input>
W0NIM11OMVtDSDJdW0NIMl1PW0NASF0oW0NIMl0xKVtDSDJdW05IXWMybltjSF1bY0hdYyhuMilDKEYpKEYpRg==

> <s_epik_cmdline>
J2VwaWtfcHl0aG9uJywgJy1waCcsICc3LjAnLCAnLXRuJywgJzgnLCAnLW1hJywgJzIwMCcsICctbWV0YWxfYmluZGluZycsICctaW1hZScsICc8aW5maWxlLm1hZT4nLCAnLW9tYWUnLCAnPG91dGZpbGUubWFlPic=

> <r_lp_tautomer_probability>
1

> <r_epik_Ionization_Penalty>
0.178506

> <r_epik_Ionization_Penalty_Charging>
0.178504

> <r_epik_Ionization_Penalty_Neutral>
2.47225e-06

> <r_epik_State_Penalty>
0.167974

> <r_epik_Charging_Adjusted_Penalty>
0.346478

> <i_epik_Tot_Q>
1

> <i_epik_Tot_abs_Q>
1

> <r_epik_Metal_State_Penalty>
0.167974

> <b_epik_Metal_Only>
0

> <s_lp_Force_Field>
OPLS_2005

> <r_lp_Energy>
9.30015

> <b_lp_Chiralities_Consistent>
1

> <s_lp_Variant>
AV-unprocessed.smi:1144-1

> <Gold.Version>
5.8.1

> <Gold.Id.Protein>
6NUR|6NUR_protein|mol2

> <Gold.PLP.Fitness>
36.3638

> <Gold.PLP.PLP>
-31.1458

> <Gold.PLP.part.hbond>
-2.0000

> <Gold.PLP.part.metal>
0.0000

> <Gold.PLP.part.buried>
0.8752

> <Gold.PLP.part.nonpolar>
-29.8633

> <Gold.PLP.part.repulsive>
0.2781

> <Gold.PLP.ligand.clash>
0.0000

> <Gold.PLP.ligand.torsion>
0.3941

> <Gold.PLP.Chemscore.Hbond>
2.0000

> <Gold.PLP.Chemscore.CHOScore>
0.0000

> <Gold.PLP.Chemscore.Metal>
0.0000

> <Gold.Chemscore.Hbonds>
donor molecule, donor type, donor heavy atom, donor atom, acceptor molecule, acceptor atom, score
      P1  H  7989  7998       L1     5  1.00
      P1  H  7997  8008       L1    18  0.94

> <Gold.PLP.Chemscore.Internal.Correction>
0.0062

> <Gold.Rescore>
     Score         DG    S(hbond)    S(metal)    S(lipo)     H(rot)  DE(clash)    DE(int)     intcor
     14.70     -15.40       1.54        0.00      70.17       1.34       0.40       0.31       ----

> <Gold.Chemscore.Fitness>
14.6989

> <Gold.Chemscore.DG>
-15.4035

> <Gold.Chemscore.ZeroCoef>
-5.4800

> <Gold.Chemscore.Hbond>
1.5385

> <Gold.Chemscore.Metal>
0.0000

> <Gold.Chemscore.Lipo>
70.1700

> <Gold.Chemscore.Internal_Hbond>
0.0000

> <Gold.Chemscore.DEClash>
0.3962

> <Gold.Chemscore.DEInternal>
0.3083

> <Gold.Chemscore.Rot>
1.3379

> <Gold.Chemscore.Internal.Correction>
   9.000000E+99

> <Gold.Chemscore.Hbonds>
donor molecule, donor type, donor heavy atom, donor atom, acceptor molecule, acceptor atom, score
      P1  H  7989  7998       L1     5  0.78
      P1  H  7997  8008       L1    18  0.47

> <Gold.Chemscore.Hbond.Weighted>
-5.1386

> <Gold.Chemscore.Metal.Weighted>
-0.0000

> <Gold.Chemscore.Lipo.Weighted>
-8.2099

> <Gold.Chemscore.Internal_Hbond.Weighted>
0.0000

> <Gold.Chemscore.DEClash.Weighted>
0.3962

> <Gold.Chemscore.DEInternal.Weighted>
0.3083

> <Gold.Chemscore.Rot.Weighted>
3.4250

> <Gold.Chemscore.Internal.Correction.Weighted>
   9.000000E+99

> <Gold.Protein.RotatedTorsions>
[ 6907 6896 6895 6894 ] final -109.01 input  -60.11 | X-H torsion
[ 7974 7965 7964 7962 ] final -164.12 input  175.53 | X-H torsion
[ 8008 7997 7996 7995 ] final  -95.50 input   59.86 | X-H torsion
[ 10167 10162 10161 10158 ] final  119.75 input  -65.29 | X-H torsion
[ 10718 10713 10712 10709 ] final -133.63 input   66.30 | X-H torsion
[ 10763 10752 10751 10750 ] final   47.66 input  -60.55 | X-H torsion
[ 11005 11000 10999 10996 ] final -136.01 input  -57.11 | X-H torsion

> <Gold.Protein.ActiveResidues>
 VAL166  LYS551  ARG553  GLY616  TRP617  ASP618  TYR619  PRO620  LYS621  CYS622 
 ASP623  PHE694  ASN695  SER759  ASP760  ASP761  ALA762  ILE779  LEU786  VAL792 
 PHE793  MET794  SER795  GLU796  ALA797  LYS798  CYS799  TRP800  GLU811  SER814 

> <Gold.Protein.RotatedAtoms>
  150.7536  133.9593  159.3510 H   0  0  0  0  0  0  0  0  0  0  0  0  # atno 6907 bound_to 6896
  151.7517  135.0829  160.0341 H   0  0  0  0  0  0  0  0  0  0  0  0  # atno 6908 bound_to 6896
  152.3462  133.6087  159.5947 H   0  0  0  0  0  0  0  0  0  0  0  0  # atno 6909 bound_to 6896
  144.7306  140.3007  143.6205 H   0  0  0  0  0  0  0  0  0  0  0  0  # atno 7974 bound_to 7965
  154.7622  140.0479  157.0983 H   0  0  0  0  0  0  0  0  0  0  0  0  # atno 8008 bound_to 7997
  154.9924  140.3114  155.4881 H   0  0  0  0  0  0  0  0  0  0  0  0  # atno 8009 bound_to 7997
  156.2906  140.2216  156.5029 H   0  0  0  0  0  0  0  0  0  0  0  0  # atno 8010 bound_to 7997
  139.6026  144.7061  151.3028 H   0  0  0  0  0  0  0  0  0  0  0  0  # atno 10167 bound_to 10162
  156.2470  130.7130  151.1014 H   0  0  0  0  0  0  0  0  0  0  0  0  # atno 10718 bound_to 10713
  152.9798  135.5969  154.3799 H   0  0  0  0  0  0  0  0  0  0  0  0  # atno 10763 bound_to 10752
  154.3465  135.2767  155.2397 H   0  0  0  0  0  0  0  0  0  0  0  0  # atno 10764 bound_to 10752
  154.4455  135.6002  153.6212 H   0  0  0  0  0  0  0  0  0  0  0  0  # atno 10765 bound_to 10752
  140.8844  134.1890  157.4569 H   0  0  0  0  0  0  0  0  0  0  0  0  # atno 11005 bound_to 11000
  145.7763  139.1875  143.2183 LP  0  0  0  0  0  0  0  0  0  0  0  0  # atno 17320 bound_to 7965
  146.0870  140.7699  142.9614 LP  0  0  0  0  0  0  0  0  0  0  0  0  # atno 17321 bound_to 7965
  140.7261  143.7000  150.7853 LP  0  0  0  0  0  0  0  0  0  0  0  0  # atno 17342 bound_to 10162
  140.0579  143.5184  152.2642 LP  0  0  0  0  0  0  0  0  0  0  0  0  # atno 17343 bound_to 10162
  157.7199  131.0688  150.6178 LP  0  0  0  0  0  0  0  0  0  0  0  0  # atno 17370 bound_to 10713
  156.6256  130.4418  149.5806 LP  0  0  0  0  0  0  0  0  0  0  0  0  # atno 17371 bound_to 10713
  139.8723  134.9831  156.5186 LP  0  0  0  0  0  0  0  0  0  0  0  0  # atno 17394 bound_to 11000
  140.8422  133.8196  155.9086 LP  0  0  0  0  0  0  0  0  0  0  0  0  # atno 17395 bound_to 11000

$$$$
