AV-unprocessed.smi:2759|AV-procd|sdf|10627|dock10
  -GOLD-   2272015 73D 1   1.00000     0.00000
 Structure written by MMmdl.
 43 44  0  0  0  0  0  0  0  0  1 V2000
  147.3073  136.2469  162.5415 C   0  0  0  0  0  0  0  0  0  0  0  0
  147.0048  135.2218  161.4326 C   0  0  0  0  0  0  0  0  0  0  0  0
  147.1057  133.8024  162.0246 C   0  0  0  0  0  0  0  0  0  0  0  0
  147.9178  135.3933  160.1889 C   0  0  1  0  0  0  0  0  0  0  0  0
  147.3805  134.6273  159.1258 O   0  0  0  0  0  0  0  0  0  0  0  0
  148.0410  136.8496  159.6882 C   0  0  0  0  0  0  0  0  0  0  0  0
  149.3364  137.1240  158.9956 C   0  0  0  0  0  0  0  0  0  0  0  0
  149.7984  138.3050  158.5924 N   0  0  0  0  0  0  0  0  0  0  0  0
  150.9726  137.9410  158.0054 C   0  0  0  0  0  0  0  0  0  0  0  0
  151.9121  138.9299  157.3881 C   0  0  0  0  0  0  0  0  0  0  0  0
  152.3148  140.0308  158.3769 C   0  0  0  0  0  0  0  0  0  0  0  0
  153.4049  139.9957  158.9499 O   0  0  0  0  0  0  0  0  0  0  0  0
  151.4149  141.0072  158.5724 N   0  0  0  0  0  0  0  0  0  0  0  0
  151.5970  142.1529  159.4603 C   0  0  0  0  0  0  0  0  0  0  0  0
  150.6147  143.2858  159.1052 C   0  0  0  0  0  0  0  0  0  0  0  0
  151.4515  144.5640  159.0290 C   0  0  0  0  0  0  0  0  0  0  0  0
  152.8326  144.0852  158.5938 C   0  0  0  0  0  0  0  0  0  0  0  0
  153.0107  142.7517  159.3202 C   0  0  0  0  0  0  0  0  0  0  0  0
  151.2336  136.6384  157.9932 N   0  0  0  0  0  0  0  0  0  0  0  0
  150.1307  136.0804  158.6554 O   0  0  0  0  0  0  0  0  0  0  0  0
  148.3567  136.2139  162.8362 H   0  0  0  0  0  0  0  0  0  0  0  0
  146.7091  136.0481  163.4313 H   0  0  0  0  0  0  0  0  0  0  0  0
  147.0741  137.2655  162.2349 H   0  0  0  0  0  0  0  0  0  0  0  0
  145.9702  135.3733  161.1203 H   0  0  0  0  0  0  0  0  0  0  0  0
  148.1272  133.5730  162.3295 H   0  0  0  0  0  0  0  0  0  0  0  0
  146.7924  133.0405  161.3107 H   0  0  0  0  0  0  0  0  0  0  0  0
  146.4671  133.6957  162.9019 H   0  0  0  0  0  0  0  0  0  0  0  0
  148.9103  135.0075  160.4267 H   0  0  0  0  0  0  0  0  0  0  0  0
  146.4396  134.7183  159.1335 H   0  0  0  0  0  0  0  0  0  0  0  0
  147.2152  137.0990  159.0204 H   0  0  0  0  0  0  0  0  0  0  0  0
  147.9826  137.5508  160.5186 H   0  0  0  0  0  0  0  0  0  0  0  0
  152.7983  138.4053  157.0272 H   0  0  0  0  0  0  0  0  0  0  0  0
  151.4399  139.3903  156.5198 H   0  0  0  0  0  0  0  0  0  0  0  0
  150.5439  140.9595  158.0640 H   0  0  0  0  0  0  0  0  0  0  0  0
  151.4337  141.8474  160.4957 H   0  0  0  0  0  0  0  0  0  0  0  0
  150.1524  143.1061  158.1331 H   0  0  0  0  0  0  0  0  0  0  0  0
  149.8072  143.3724  159.8330 H   0  0  0  0  0  0  0  0  0  0  0  0
  151.0284  145.3039  158.3492 H   0  0  0  0  0  0  0  0  0  0  0  0
  151.5177  145.0193  160.0180 H   0  0  0  0  0  0  0  0  0  0  0  0
  152.8420  143.9215  157.5153 H   0  0  0  0  0  0  0  0  0  0  0  0
  153.6204  144.8010  158.8304 H   0  0  0  0  0  0  0  0  0  0  0  0
  153.4211  142.9362  160.3139 H   0  0  0  0  0  0  0  0  0  0  0  0
  153.7127  142.0963  158.8029 H   0  0  0  0  0  0  0  0  0  0  0  0
  1  2  1  0  0  0  0
  1 21  1  0  0  0  0
  1 22  1  0  0  0  0
  1 23  1  0  0  0  0
  2  3  1  0  0  0  0
  2  4  1  0  0  0  0
  2 24  1  0  0  0  0
  3 25  1  0  0  0  0
  3 26  1  0  0  0  0
  3 27  1  0  0  0  0
  4  5  1  0  0  0  0
  4  6  1  0  0  0  0
  4 28  1  0  0  0  0
  5 29  1  0  0  0  0
  6  7  1  0  0  0  0
  6 30  1  0  0  0  0
  6 31  1  0  0  0  0
  7 20  1  0  0  0  0
  7  8  2  0  0  0  0
  8  9  1  0  0  0  0
  9 10  1  0  0  0  0
  9 19  2  0  0  0  0
 10 11  1  0  0  0  0
 10 32  1  0  0  0  0
 10 33  1  0  0  0  0
 11 12  2  0  0  0  0
 11 13  1  0  0  0  0
 13 14  1  0  0  0  0
 13 34  1  0  0  0  0
 14 18  1  0  0  0  0
 14 15  1  0  0  0  0
 14 35  1  0  0  0  0
 15 16  1  0  0  0  0
 15 36  1  0  0  0  0
 15 37  1  0  0  0  0
 16 17  1  0  0  0  0
 16 38  1  0  0  0  0
 16 39  1  0  0  0  0
 17 18  1  0  0  0  0
 17 40  1  0  0  0  0
 17 41  1  0  0  0  0
 18 42  1  0  0  0  0
 18 43  1  0  0  0  0
 19 20  1  0  0  0  0
M  END
> <s_m_source_file>
AV-unprocessed.smi

> <i_m_source_file_index>
2759

> <i_lp_mmshare_version>
43012

> <i_f3d_flags>
0

> <s_epik_input>
W0NIM11bQ0hdKFtDSDNdKVtDQEhdKFtPSF0pW0NIMl1jMW5jKG5vMSlbQ0gyXUMoPU8pW05IXVtDSF0yW0NIMl1bQ0gyXVtDSDJdW0NIMl0y

> <s_epik_cmdline>
J2VwaWtfcHl0aG9uJywgJy1waCcsICc3LjAnLCAnLXRuJywgJzgnLCAnLW1hJywgJzIwMCcsICctbWV0YWxfYmluZGluZycsICctaW1hZScsICc8aW5maWxlLm1hZT4nLCAnLW9tYWUnLCAnPG91dGZpbGUubWFlPic=

> <r_lp_tautomer_probability>
1

> <r_epik_Ionization_Penalty>
1.20032e-07

> <r_epik_Ionization_Penalty_Charging>
0

> <r_epik_Ionization_Penalty_Neutral>
1.20032e-07

> <r_epik_State_Penalty>
-0

> <r_epik_Charging_Adjusted_Penalty>
0

> <i_epik_Tot_Q>
0

> <i_epik_Tot_abs_Q>
0

> <r_epik_Metal_State_Penalty>
-0

> <b_epik_Metal_Only>
0

> <s_lp_Force_Field>
OPLS_2005

> <r_lp_Energy>
21.2868

> <b_lp_Chiralities_Consistent>
1

> <s_lp_Variant>
AV-unprocessed.smi:2759-2

> <Gold.Version>
5.8.1

> <Gold.Id.Protein>
6NUR|6NUR_protein|mol2

> <Gold.PLP.Fitness>
44.0770

> <Gold.PLP.PLP>
-40.2308

> <Gold.PLP.part.hbond>
-2.7001

> <Gold.PLP.part.metal>
0.0000

> <Gold.PLP.part.buried>
-5.4244

> <Gold.PLP.part.nonpolar>
-31.7443

> <Gold.PLP.part.repulsive>
0.1282

> <Gold.PLP.ligand.clash>
0.0000

> <Gold.PLP.ligand.torsion>
1.0902

> <Gold.PLP.Chemscore.Hbond>
1.9920

> <Gold.PLP.Chemscore.CHOScore>
0.0000

> <Gold.PLP.Chemscore.Metal>
0.0000

> <Gold.Chemscore.Hbonds>
donor molecule, donor type, donor heavy atom, donor atom, acceptor molecule, acceptor atom, score
      P1  H  6896  6908       L1    20  1.00
      P1  H  7997  8008       L1    12  0.48

> <Gold.PLP.Chemscore.Internal.Correction>
0.0507

> <Gold.Rescore>
     Score         DG    S(hbond)    S(metal)    S(lipo)     H(rot)  DE(clash)    DE(int)     intcor
     13.54     -15.74       1.70        0.00      97.08       2.65       0.13       2.07       ----

> <Gold.Chemscore.Fitness>
13.5372

> <Gold.Chemscore.DG>
-15.7363

> <Gold.Chemscore.ZeroCoef>
-5.4800

> <Gold.Chemscore.Hbond>
1.7046

> <Gold.Chemscore.Metal>
0.0000

> <Gold.Chemscore.Lipo>
97.0774

> <Gold.Chemscore.Internal_Hbond>
0.0000

> <Gold.Chemscore.DEClash>
0.1281

> <Gold.Chemscore.DEInternal>
2.0710

> <Gold.Chemscore.Rot>
2.6543

> <Gold.Chemscore.Internal.Correction>
   9.000000E+99

> <Gold.Chemscore.Hbonds>
donor molecule, donor type, donor heavy atom, donor atom, acceptor molecule, acceptor atom, score
      P1  H  6896  6908       L1    20  0.53
      P1  H  7997  8008       L1    12  0.11

> <Gold.Chemscore.Hbond.Weighted>
-5.6932

> <Gold.Chemscore.Metal.Weighted>
-0.0000

> <Gold.Chemscore.Lipo.Weighted>
-11.3581

> <Gold.Chemscore.Internal_Hbond.Weighted>
0.0000

> <Gold.Chemscore.DEClash.Weighted>
0.1281

> <Gold.Chemscore.DEInternal.Weighted>
2.0710

> <Gold.Chemscore.Rot.Weighted>
6.7950

> <Gold.Chemscore.Internal.Correction.Weighted>
   9.000000E+99

> <Gold.Protein.RotatedTorsions>
[ 6907 6896 6895 6894 ] final  178.03 input  -60.11 | X-H torsion
[ 7974 7965 7964 7962 ] final -126.24 input  175.53 | X-H torsion
[ 8008 7997 7996 7995 ] final  -96.80 input   59.86 | X-H torsion
[ 10167 10162 10161 10158 ] final -164.82 input  -65.29 | X-H torsion
[ 10718 10713 10712 10709 ] final    5.25 input   66.30 | X-H torsion
[ 10763 10752 10751 10750 ] final  103.36 input  -60.55 | X-H torsion
[ 11005 11000 10999 10996 ] final  136.60 input  -57.11 | X-H torsion

> <Gold.Protein.ActiveResidues>
 VAL166  LYS551  ARG553  GLY616  TRP617  ASP618  TYR619  PRO620  LYS621  CYS622 
 ASP623  PHE694  ASN695  SER759  ASP760  ASP761  ALA762  ILE779  LEU786  VAL792 
 PHE793  MET794  SER795  GLU796  ALA797  LYS798  CYS799  TRP800  GLU811  SER814 

> <Gold.Protein.RotatedAtoms>
  151.6944  133.3311  159.3250 H   0  0  0  0  0  0  0  0  0  0  0  0  # atno 6907 bound_to 6896
  150.7764  134.6671  159.6380 H   0  0  0  0  0  0  0  0  0  0  0  0  # atno 6908 bound_to 6896
  152.3808  134.6596  160.0195 H   0  0  0  0  0  0  0  0  0  0  0  0  # atno 6909 bound_to 6896
  144.9893  140.7716  143.4564 H   0  0  0  0  0  0  0  0  0  0  0  0  # atno 7974 bound_to 7965
  154.7793  140.0468  157.1114 H   0  0  0  0  0  0  0  0  0  0  0  0  # atno 8008 bound_to 7997
  154.9725  140.3091  155.4962 H   0  0  0  0  0  0  0  0  0  0  0  0  # atno 8009 bound_to 7997
  156.2934  140.2250  156.4818 H   0  0  0  0  0  0  0  0  0  0  0  0  # atno 8010 bound_to 7997
  139.6224  144.0598  152.1945 H   0  0  0  0  0  0  0  0  0  0  0  0  # atno 10167 bound_to 10162
  156.9046  130.5734  149.5647 H   0  0  0  0  0  0  0  0  0  0  0  0  # atno 10718 bound_to 10713
  153.3516  135.3979  155.1650 H   0  0  0  0  0  0  0  0  0  0  0  0  # atno 10763 bound_to 10752
  154.8663  135.3658  154.5214 H   0  0  0  0  0  0  0  0  0  0  0  0  # atno 10764 bound_to 10752
  153.5667  135.7080  153.5583 H   0  0  0  0  0  0  0  0  0  0  0  0  # atno 10765 bound_to 10752
  140.0057  134.9460  157.0170 H   0  0  0  0  0  0  0  0  0  0  0  0  # atno 11005 bound_to 11000
  145.2309  139.2115  143.5043 LP  0  0  0  0  0  0  0  0  0  0  0  0  # atno 17320 bound_to 7965
  146.3427  140.2185  142.8591 LP  0  0  0  0  0  0  0  0  0  0  0  0  # atno 17321 bound_to 7965
  140.0243  144.6129  150.7540 LP  0  0  0  0  0  0  0  0  0  0  0  0  # atno 17342 bound_to 10162
  140.7390  143.2786  151.3667 LP  0  0  0  0  0  0  0  0  0  0  0  0  # atno 17343 bound_to 10162
  156.0565  130.5626  150.9103 LP  0  0  0  0  0  0  0  0  0  0  0  0  # atno 17370 bound_to 10713
  157.6005  131.0941  150.8968 LP  0  0  0  0  0  0  0  0  0  0  0  0  # atno 17371 bound_to 10713
  140.4646  134.1449  155.7195 LP  0  0  0  0  0  0  0  0  0  0  0  0  # atno 17394 bound_to 11000
  141.1675  133.8674  157.1671 LP  0  0  0  0  0  0  0  0  0  0  0  0  # atno 17395 bound_to 11000

$$$$
