#       Name:                AV-unprocessed.smi:1639
#       Creating user name   scv26
#       Creation time:       Fri Mar 27 07:23:29 2020


#       File generated by GOLD software.
#

@<TRIPOS>MOLECULE
AV-unprocessed.smi:1639
    42    43     1
SMALL
NO_CHARGES


@<TRIPOS>ATOM
      1 ****        -4.6430   2.1347  -1.6168 C.3            1 S1                 0.0000
      2 ****        -3.1197   2.2698  -1.5650 C.3            1 S1                 0.0000
      3 ****        -2.5412   0.9764  -1.6272 O.3            1 S1                 0.0000
      4 ****        -1.1224   0.9769  -1.5590 C.3            1 S1                 0.0000
      5 ****        -0.5619   0.3598  -2.8512 C.3            1 S1                 0.0000
      6 ****         0.9636   0.2000  -2.7438 C.3            1 S1                 0.0000
      7 ****         1.3473  -0.5972  -1.4844 C.3            1 S1                 0.0000
      8 ****         0.7563   0.0012  -0.2897 N.3            1 S1                 0.0000
      9 ****         1.2134  -0.5793   0.8999 C.ar           1 S1                 0.0000
     10 ****         2.0556   0.1338   1.7735 C.ar           1 S1                 0.0000
     11 ****         2.4573  -0.5260   2.9478 C.ar           1 S1                 0.0000
     12 ****         3.3567   0.1429   3.9657 C.3            1 S1                 0.0000
     13 ****         2.0572  -1.7846   3.2220 N.ar           1 S1                 0.0000
     14 ****         1.2587  -2.4107   2.3501 C.ar           1 S1                 0.0000
     15 ****         0.8563  -3.6930   2.6379 N.pl3          1 S1                 0.0000
     16 ****         0.8323  -1.8465   1.2106 N.pl3          1 S1                 1.0000
     17 ****        -0.6963   0.1463  -0.3369 C.3            1 S1                 0.0000
     18 ****        -5.1229   3.1125  -1.5716 H              1 S1                 0.0000
     19 ****        -5.0117   1.5427  -0.7787 H              1 S1                 0.0000
     20 ****        -4.9622   1.6473  -2.5383 H              1 S1                 0.0000
     21 ****        -2.7688   2.8775  -2.4005 H              1 S1                 0.0000
     22 ****        -2.8233   2.7690  -0.6412 H              1 S1                 0.0000
     23 ****        -0.7245   1.9885  -1.4503 H              1 S1                 0.0000
     24 ****        -1.0196  -0.6153  -3.0231 H              1 S1                 0.0000
     25 ****        -0.8181   0.9818  -3.7093 H              1 S1                 0.0000
     26 ****         1.3517  -0.2965  -3.6337 H              1 S1                 0.0000
     27 ****         1.4315   1.1848  -2.7086 H              1 S1                 0.0000
     28 ****         1.0059  -1.6288  -1.5818 H              1 S1                 0.0000
     29 ****         2.4330  -0.6282  -1.3827 H              1 S1                 0.0000
     30 ****         2.3727   1.1425   1.5509 H              1 S1                 0.0000
     31 ****         3.6190   1.1545   3.6540 H              1 S1                 0.0000
     32 ****         4.2791  -0.4249   4.0897 H              1 S1                 0.0000
     33 ****         2.8569   0.2045   4.9328 H              1 S1                 0.0000
     34 ****         1.1598  -4.1450   3.4884 H              1 S1                 0.0000
     35 ****         0.2577  -4.1995   2.0017 H              1 S1                 0.0000
     36 ****        -1.0488   0.6248   0.5779 H              1 S1                 0.0000
     37 ****        -1.1597  -0.8406  -0.3818 H              1 S1                 0.0000
     38 ****         0.2219  -2.3553   0.5712 H              1 S1                 0.0000
     39 ****        -2.8149   0.5501  -2.4894 LP             1 S1                 0.0000
     40 ****        -2.8931   0.4369  -0.8622 LP             1 S1                 0.0000
     41 ****         1.0981   0.9409  -0.2890 LP             1 S1                 0.0000
     42 ****         2.3520  -2.2412   4.0615 LP             1 S1                 0.0000
@<TRIPOS>BOND
    1    1    2 1     
    2    1   18 1     
    3    1   19 1     
    4    1   20 1     
    5    2    3 1     
    6    2   21 1     
    7    2   22 1     
    8    3    4 1     
    9    4   17 1     
   10    4    5 1     
   11    4   23 1     
   12    5    6 1     
   13    5   24 1     
   14    5   25 1     
   15    6    7 1     
   16    6   26 1     
   17    6   27 1     
   18    7    8 1     
   19    7   28 1     
   20    7   29 1     
   21    8    9 1     
   22    8   17 1     
   23    9   16 ar    
   24    9   10 ar    
   25   10   11 ar    
   26   10   30 1     
   27   11   12 1     
   28   11   13 ar    
   29   12   31 1     
   30   12   32 1     
   31   12   33 1     
   32   13   14 ar    
   33   14   15 1     
   34   14   16 ar    
   35   15   34 1     
   36   15   35 1     
   37   16   38 1     
   38   17   36 1     
   39   17   37 1     
   40    3   39 1     
   41    3   40 1     
   42    8   41 1     
   43   13   42 1     
@<TRIPOS>SUBSTRUCTURE
      1 S1             1
@<TRIPOS>SET
LONE_PAIRS      STATIC     ATOMS    <user>   **** ""
4 39 40 41 42
DONOR_HYDROGENS      STATIC     ATOMS    <user>   **** ""
3 34 35 38
ATOM$BLUE        STATIC     ATOMS    COLORGROUP SYSTEM
4 39 40 41 42
ATOM$RED        STATIC     ATOMS    COLORGROUP SYSTEM
3 34 35 38
