AV-unprocessed.smi:1847|AV-procd|sdf|7515|dock8
  -GOLD-   22720 9223D 1   1.00000     0.00000
 Structure written by MMmdl.
 25 26  0  0  0  0  0  0  0  0  1 V2000
  151.3246  142.0346  158.1341 O   0  0  0  0  0  0  0  0  0  0  0  0
  151.9688  141.0110  157.9002 C   0  0  0  0  0  0  0  0  0  0  0  0
  152.8970  140.4997  158.7322 N   0  0  0  0  0  0  0  0  0  0  0  0
  153.3175  140.9778  160.0027 C   0  0  0  0  0  0  0  0  0  0  0  0
  152.8881  142.2620  160.3968 C   0  0  0  0  0  0  0  0  0  0  0  0
  153.3045  142.7639  161.6460 C   0  0  0  0  0  0  0  0  0  0  0  0
  154.1086  142.0820  162.4884 N   0  0  0  0  0  0  0  0  0  0  0  0
  154.5327  140.8601  162.1020 C   0  0  0  0  0  0  0  0  0  0  0  0
  154.1742  140.2652  160.8758 C   0  0  0  0  0  0  0  0  0  0  0  0
  151.8450  140.2124  156.6862 C   0  0  0  0  0  0  0  0  0  0  0  0
  150.9705  140.5919  155.7257 C   0  0  0  0  0  0  0  0  0  0  0  0
  150.7561  139.8870  154.5678 O   0  0  0  0  0  0  0  0  0  0  0  0
  151.3283  138.5846  154.5516 C   0  0  0  0  0  0  0  0  0  0  0  0
  152.7262  138.6067  155.1869 C   0  0  0  0  0  0  0  0  0  0  0  0
  152.6551  139.1105  156.5166 O   0  0  0  0  0  0  0  0  0  0  0  0
  153.4077  139.7037  158.3778 H   0  0  0  0  0  0  0  0  0  0  0  0
  152.2456  142.8527  159.7603 H   0  0  0  0  0  0  0  0  0  0  0  0
  152.9846  143.7413  161.9757 H   0  0  0  0  0  0  0  0  0  0  0  0
  155.1852  140.3420  162.7891 H   0  0  0  0  0  0  0  0  0  0  0  0
  154.5699  139.2924  160.6281 H   0  0  0  0  0  0  0  0  0  0  0  0
  150.3269  141.4580  155.7857 H   0  0  0  0  0  0  0  0  0  0  0  0
  150.6751  137.8990  155.0930 H   0  0  0  0  0  0  0  0  0  0  0  0
  151.3824  138.2308  153.5218 H   0  0  0  0  0  0  0  0  0  0  0  0
  153.1512  137.6031  155.2081 H   0  0  0  0  0  0  0  0  0  0  0  0
  153.4027  139.2307  154.6011 H   0  0  0  0  0  0  0  0  0  0  0  0
  1  2  2  0  0  0  0
  2  3  1  0  0  0  0
  2 10  1  0  0  0  0
  3  4  1  0  0  0  0
  3 16  1  0  0  0  0
  4  9  1  0  0  0  0
  4  5  2  0  0  0  0
  5  6  1  0  0  0  0
  5 17  1  0  0  0  0
  6  7  2  0  0  0  0
  6 18  1  0  0  0  0
  7  8  1  0  0  0  0
  8  9  2  0  0  0  0
  8 19  1  0  0  0  0
  9 20  1  0  0  0  0
 10 15  1  0  0  0  0
 10 11  2  0  0  0  0
 11 12  1  0  0  0  0
 11 21  1  0  0  0  0
 12 13  1  0  0  0  0
 13 14  1  0  0  0  0
 13 22  1  0  0  0  0
 13 23  1  0  0  0  0
 14 15  1  0  0  0  0
 14 24  1  0  0  0  0
 14 25  1  0  0  0  0
M  END
> <s_m_source_file>
AV-unprocessed.smi

> <i_m_source_file_index>
1847

> <i_lp_mmshare_version>
43012

> <i_f3d_flags>
0

> <s_epik_input>
TzFbQ0gyXVtDSDJdT1tDSF09QzFDKD1PKVtOSF1jMltjSF1bY0hdbltjSF1bY0hdMg==

> <s_epik_cmdline>
J2VwaWtfcHl0aG9uJywgJy1waCcsICc3LjAnLCAnLXRuJywgJzgnLCAnLW1hJywgJzIwMCcsICctbWV0YWxfYmluZGluZycsICctaW1hZScsICc8aW5maWxlLm1hZT4nLCAnLW9tYWUnLCAnPG91dGZpbGUubWFlPic=

> <r_epik_Ionization_Penalty>
0.039624

> <r_epik_Ionization_Penalty_Charging>
0

> <r_epik_Ionization_Penalty_Neutral>
0.039624

> <r_epik_State_Penalty>
0.0332371

> <r_epik_Charging_Adjusted_Penalty>
0.0332371

> <i_epik_Tot_Q>
0

> <i_epik_Tot_abs_Q>
0

> <r_epik_Metal_State_Penalty>
0.0856011

> <b_epik_Metal_Only>
0

> <s_lp_Force_Field>
OPLS_2005

> <r_lp_Energy>
7.75987

> <b_lp_Chiralities_Consistent>
1

> <s_lp_Variant>
AV-unprocessed.smi:1847-1

> <Gold.Version>
5.8.1

> <Gold.Id.Protein>
6NUR|6NUR_protein|mol2

> <Gold.PLP.Fitness>
39.9151

> <Gold.PLP.PLP>
-33.9604

> <Gold.PLP.part.hbond>
-3.0000

> <Gold.PLP.part.metal>
0.0000

> <Gold.PLP.part.buried>
-3.8801

> <Gold.PLP.part.nonpolar>
-26.6652

> <Gold.PLP.part.repulsive>
0.2424

> <Gold.PLP.ligand.clash>
0.0000

> <Gold.PLP.ligand.torsion>
0.0236

> <Gold.PLP.Chemscore.Hbond>
2.0000

> <Gold.PLP.Chemscore.CHOScore>
0.0000

> <Gold.PLP.Chemscore.Metal>
0.0000

> <Gold.Chemscore.Hbonds>
donor molecule, donor type, donor heavy atom, donor atom, acceptor molecule, acceptor atom, score
      P1  H  7989  7998       L1    12  0.95
      P1  H  7997  8009       L1    15  0.72

> <Gold.PLP.Chemscore.Internal.Correction>
0.0020

> <Gold.Rescore>
     Score         DG    S(hbond)    S(metal)    S(lipo)     H(rot)  DE(clash)    DE(int)     intcor
     14.74     -16.43       0.55        0.00      77.89       0.00       0.20       1.49       ----

> <Gold.Chemscore.Fitness>
14.7420

> <Gold.Chemscore.DG>
-16.4294

> <Gold.Chemscore.ZeroCoef>
-5.4800

> <Gold.Chemscore.Hbond>
0.5497

> <Gold.Chemscore.Metal>
0.0000

> <Gold.Chemscore.Lipo>
77.8931

> <Gold.Chemscore.Internal_Hbond>
0.0000

> <Gold.Chemscore.DEClash>
0.2012

> <Gold.Chemscore.DEInternal>
1.4862

> <Gold.Chemscore.Rot>
0.0000

> <Gold.Chemscore.Internal.Correction>
   9.000000E+99

> <Gold.Chemscore.Hbonds>
donor molecule, donor type, donor heavy atom, donor atom, acceptor molecule, acceptor atom, score
      P1  H  7989  7998       L1    12  0.14
      P1  H  7997  8009       L1    15  0.02

> <Gold.Chemscore.Hbond.Weighted>
-1.8359

> <Gold.Chemscore.Metal.Weighted>
-0.0000

> <Gold.Chemscore.Lipo.Weighted>
-9.1135

> <Gold.Chemscore.Internal_Hbond.Weighted>
0.0000

> <Gold.Chemscore.DEClash.Weighted>
0.2012

> <Gold.Chemscore.DEInternal.Weighted>
1.4862

> <Gold.Chemscore.Rot.Weighted>
0.0000

> <Gold.Chemscore.Internal.Correction.Weighted>
   9.000000E+99

> <Gold.Protein.RotatedTorsions>
[ 6907 6896 6895 6894 ] final   53.74 input  -60.11 | X-H torsion
[ 7974 7965 7964 7962 ] final  -29.37 input  175.53 | X-H torsion
[ 8008 7997 7996 7995 ] final -173.59 input   59.86 | X-H torsion
[ 10167 10162 10161 10158 ] final  107.62 input  -65.29 | X-H torsion
[ 10718 10713 10712 10709 ] final  132.54 input   66.30 | X-H torsion
[ 10763 10752 10751 10750 ] final  -50.77 input  -60.55 | X-H torsion
[ 11005 11000 10999 10996 ] final -136.81 input  -57.11 | X-H torsion

> <Gold.Protein.ActiveResidues>
 VAL166  LYS551  ARG553  GLY616  TRP617  ASP618  TYR619  PRO620  LYS621  CYS622 
 ASP623  PHE694  ASN695  SER759  ASP760  ASP761  ALA762  ILE779  LEU786  VAL792 
 PHE793  MET794  SER795  GLU796  ALA797  LYS798  CYS799  TRP800  GLU811  SER814 

> <Gold.Protein.RotatedAtoms>
  152.3368  134.7187  160.0274 H   0  0  0  0  0  0  0  0  0  0  0  0  # atno 6907 bound_to 6896
  151.7585  133.3326  159.3419 H   0  0  0  0  0  0  0  0  0  0  0  0  # atno 6908 bound_to 6896
  150.7455  134.6060  159.6105 H   0  0  0  0  0  0  0  0  0  0  0  0  # atno 6909 bound_to 6896
  146.1221  140.5404  142.8731 H   0  0  0  0  0  0  0  0  0  0  0  0  # atno 7974 bound_to 7965
  155.9594  140.1141  157.0909 H   0  0  0  0  0  0  0  0  0  0  0  0  # atno 8008 bound_to 7997
  154.4128  140.1185  156.5225 H   0  0  0  0  0  0  0  0  0  0  0  0  # atno 8009 bound_to 7997
  155.6740  140.3473  155.4831 H   0  0  0  0  0  0  0  0  0  0  0  0  # atno 8010 bound_to 7997
  139.6912  144.7107  151.1345 H   0  0  0  0  0  0  0  0  0  0  0  0  # atno 10167 bound_to 10162
  157.4861  131.1088  150.9618 H   0  0  0  0  0  0  0  0  0  0  0  0  # atno 10718 bound_to 10713
  154.1157  135.6542  153.4893 H   0  0  0  0  0  0  0  0  0  0  0  0  # atno 10763 bound_to 10752
  153.0242  135.5258  154.7147 H   0  0  0  0  0  0  0  0  0  0  0  0  # atno 10764 bound_to 10752
  154.6340  135.2980  155.0152 H   0  0  0  0  0  0  0  0  0  0  0  0  # atno 10765 bound_to 10752
  140.8770  134.1980  157.4615 H   0  0  0  0  0  0  0  0  0  0  0  0  # atno 11005 bound_to 11000
  144.7607  140.5415  143.6737 LP  0  0  0  0  0  0  0  0  0  0  0  0  # atno 17320 bound_to 7965
  145.5444  139.1475  143.3429 LP  0  0  0  0  0  0  0  0  0  0  0  0  # atno 17321 bound_to 7965
  140.7683  143.5556  150.9155 LP  0  0  0  0  0  0  0  0  0  0  0  0  # atno 17342 bound_to 10162
  139.9234  143.6579  152.3092 LP  0  0  0  0  0  0  0  0  0  0  0  0  # atno 17343 bound_to 10162
  157.0335  130.5721  149.5346 LP  0  0  0  0  0  0  0  0  0  0  0  0  # atno 17370 bound_to 10713
  156.0147  130.5241  150.8099 LP  0  0  0  0  0  0  0  0  0  0  0  0  # atno 17371 bound_to 10713
  139.8716  134.9800  156.5059 LP  0  0  0  0  0  0  0  0  0  0  0  0  # atno 17394 bound_to 11000
  140.8506  133.8135  155.9165 LP  0  0  0  0  0  0  0  0  0  0  0  0  # atno 17395 bound_to 11000

$$$$
