#       Name:                AV-unprocessed.smi:21
#       Creating user name   scv26
#       Creation time:       Thu Mar 26 15:39:38 2020


#       File generated by GOLD software.
#

@<TRIPOS>MOLECULE
AV-unprocessed.smi:21
    71    74     1
SMALL
NO_CHARGES


@<TRIPOS>ATOM
      1 ****        -0.7886  -3.4161  -0.3425 C.3            1 S1                 0.0000
      2 ****        -2.0674  -2.8768  -0.0469 O.3            1 S1                 0.0000
      3 ****        -2.6281  -2.1386  -1.1234 C.3            1 S1                 0.0000
      4 ****        -1.9911  -0.7454  -1.2582 C.3            1 S1                 0.0000
      5 ****        -3.1901   0.2083  -1.3510 C.3            1 S1                 0.0000
      6 ****        -2.8620   1.6657  -0.9523 C.3            1 S1                 0.0000
      7 ****        -1.9330   2.3272  -1.8698 N.pl3          1 S1                 0.0000
      8 ****        -2.4113   2.6391  -3.2132 C.3            1 S1                 0.0000
      9 ****        -0.6029   2.1026  -1.6989 C.ar           1 S1                 0.0000
     10 ****         0.1439   1.7052  -2.7643 N.ar           1 S1                 0.0000
     11 ****         1.4427   1.4294  -2.6181 C.ar           1 S1                 0.0000
     12 ****         2.1869   1.4841  -1.5132 N.ar           1 S1                 0.0000
     13 ****         1.4523   1.9025  -0.4439 C.ar           1 S1                 0.0000
     14 ****         0.0689   2.2411  -0.4492 C.ar           1 S1                 0.0000
     15 ****        -0.3154   2.6546   0.8216 N.2            1 S1                 0.0000
     16 ****         0.7686   2.5458   1.5390 C.2            1 S1                 0.0000
     17 ****         1.8701   2.0712   0.8646 N.pl3          1 S1                 0.0000
     18 ****         3.1934   1.8417   1.4161 C.3            1 S1                 0.0000
     19 ****         3.6605   0.3589   1.3870 C.3            1 S1                 0.0000
     20 ****         5.1419   0.2853   1.8311 C.3            1 S1                 0.0000
     21 ****         5.9843   0.9820   0.9358 O.3            1 S1                 0.0000
     22 ****         2.7628  -0.5859   2.2427 C.3            1 S1                 0.0000
     23 ****         3.2660  -2.0174   2.3618 C.3            1 S1                 0.0000
     24 ****         2.0219  -2.7658   2.8166 C.3            1 S1                 0.0000
     25 ****         0.9587  -2.1498   2.1096 O.3            1 S1                 0.0000
     26 ****         1.3454  -0.8420   1.7004 C.3            1 S1                 0.0000
     27 ****        -4.2000  -0.4260  -0.5192 N.3            1 S1                 0.0000
     28 ****        -5.5462   0.0952  -0.7161 C.3            1 S1                 0.0000
     29 ****        -4.1067  -1.8380  -0.8459 C.3            1 S1                 0.0000
     30 ****        -2.5506  -2.7023  -2.0550 H              1 S1                 0.0000
     31 ****        -3.5435   0.1986  -2.3836 H              1 S1                 0.0000
     32 ****        -0.4192  -3.9723   0.5188 H              1 S1                 0.0000
     33 ****        -0.0647  -2.6331  -0.5709 H              1 S1                 0.0000
     34 ****        -0.8365  -4.1034  -1.1880 H              1 S1                 0.0000
     35 ****        -1.3993  -0.5141  -0.3708 H              1 S1                 0.0000
     36 ****        -1.3343  -0.6789  -2.1253 H              1 S1                 0.0000
     37 ****        -3.7756   2.2594  -0.9490 H              1 S1                 0.0000
     38 ****        -2.5029   1.6893   0.0741 H              1 S1                 0.0000
     39 ****        -1.8144   3.4337  -3.6622 H              1 S1                 0.0000
     40 ****        -3.4468   2.9786  -3.1807 H              1 S1                 0.0000
     41 ****        -2.3630   1.7610  -3.8580 H              1 S1                 0.0000
     42 ****         1.9571   1.1127  -3.5133 H              1 S1                 0.0000
     43 ****         0.7882   2.7921   2.5906 H              1 S1                 0.0000
     44 ****         3.8801   2.4719   0.8506 H              1 S1                 0.0000
     45 ****         3.2129   2.2163   2.4403 H              1 S1                 0.0000
     46 ****         3.6216   0.0024   0.3569 H              1 S1                 0.0000
     47 ****         5.2665   0.6913   2.8355 H              1 S1                 0.0000
     48 ****         5.5027  -0.7419   1.8535 H              1 S1                 0.0000
     49 ****         6.8772   0.8969   1.2340 H              1 S1                 0.0000
     50 ****         2.6791  -0.1786   3.2517 H              1 S1                 0.0000
     51 ****         3.5917  -2.3915   1.3902 H              1 S1                 0.0000
     52 ****         4.0888  -2.1296   3.0682 H              1 S1                 0.0000
     53 ****         2.0726  -3.8355   2.6123 H              1 S1                 0.0000
     54 ****         1.8622  -2.6274   3.8866 H              1 S1                 0.0000
     55 ****         0.6237  -0.1163   2.0721 H              1 S1                 0.0000
     56 ****         1.3266  -0.8120   0.6108 H              1 S1                 0.0000
     57 ****        -6.2639  -0.4618  -0.1128 H              1 S1                 0.0000
     58 ****        -5.8513   0.0200  -1.7607 H              1 S1                 0.0000
     59 ****        -5.6101   1.1411  -0.4169 H              1 S1                 0.0000
     60 ****        -4.6807  -2.0479  -1.7501 H              1 S1                 0.0000
     61 ****        -4.5185  -2.4578  -0.0489 H              1 S1                 0.0000
     62 ****        -1.9811  -2.2699   0.7432 LP             1 S1                 0.0000
     63 ****        -2.6856  -3.6302   0.1774 LP             1 S1                 0.0000
     64 ****        -0.2831   1.6188  -3.6644 LP             1 S1                 0.0000
     65 ****         3.1580   1.2487  -1.4740 LP             1 S1                 0.0000
     66 ****        -1.2185   2.9651   1.1184 LP             1 S1                 0.0000
     67 ****         5.7270   1.9481   0.9138 LP             1 S1                 0.0000
     68 ****         5.8968   0.5928   0.0188 LP             1 S1                 0.0000
     69 ****         0.1567  -2.0882   2.7037 LP             1 S1                 0.0000
     70 ****         0.7349  -2.6973   1.3033 LP             1 S1                 0.0000
     71 ****        -4.0285  -0.2409   0.4484 LP             1 S1                 0.0000
@<TRIPOS>BOND
    1    1    2 1     
    2    1   32 1     
    3    1   33 1     
    4    1   34 1     
    5    2    3 1     
    6    3   30 1     
    7    3   29 1     
    8    3    4 1     
    9    4    5 1     
   10    4   35 1     
   11    4   36 1     
   12    5   31 1     
   13    5    6 1     
   14    5   27 1     
   15    6    7 1     
   16    6   37 1     
   17    6   38 1     
   18    7    8 1     
   19    7    9 1     
   20    8   39 1     
   21    8   40 1     
   22    8   41 1     
   23    9   14 ar    
   24    9   10 ar    
   25   10   11 ar    
   26   11   12 ar    
   27   11   42 1     
   28   12   13 ar    
   29   13   17 1     
   30   13   14 ar    
   31   14   15 1     
   32   15   16 2     
   33   16   17 1     
   34   16   43 1     
   35   17   18 1     
   36   18   19 1     
   37   18   44 1     
   38   18   45 1     
   39   19   20 1     
   40   19   22 1     
   41   19   46 1     
   42   20   21 1     
   43   20   47 1     
   44   20   48 1     
   45   21   49 1     
   46   22   26 1     
   47   22   23 1     
   48   22   50 1     
   49   23   24 1     
   50   23   51 1     
   51   23   52 1     
   52   24   25 1     
   53   24   53 1     
   54   24   54 1     
   55   25   26 1     
   56   26   55 1     
   57   26   56 1     
   58   27   28 1     
   59   27   29 1     
   60   28   57 1     
   61   28   58 1     
   62   28   59 1     
   63   29   60 1     
   64   29   61 1     
   65    2   62 1     
   66    2   63 1     
   67   10   64 1     
   68   12   65 1     
   69   15   66 1     
   70   21   67 1     
   71   21   68 1     
   72   25   69 1     
   73   25   70 1     
   74   27   71 1     
@<TRIPOS>SUBSTRUCTURE
      1 S1             1
@<TRIPOS>SET
LONE_PAIRS      STATIC     ATOMS    <user>   **** ""
10 62 63 64 65 66 67 68 69 70 71
DONOR_HYDROGENS      STATIC     ATOMS    <user>   **** ""
1 49
ATOM$BLUE        STATIC     ATOMS    COLORGROUP SYSTEM
10 62 63 64 65 66 67 68 69 70 71
ATOM$RED        STATIC     ATOMS    COLORGROUP SYSTEM
1 49
