AV-unprocessed.smi:967|AV-procd|sdf|4288|dock6
  -GOLD-   22720 2193D 1   1.00000     0.00000
 Structure written by MMmdl.
 42 43  0  0  0  0  0  0  0  0  1 V2000
  153.9537  134.7616  157.5475 C   0  0  0  0  0  0  0  0  0  0  0  0
  153.1296  133.5630  157.5233 N   0  0  0  0  0  0  0  0  0  0  0  0
  153.8427  132.2955  157.4848 C   0  0  0  0  0  0  0  0  0  0  0  0
  152.0897  133.6310  156.5866 C   0  0  0  0  0  0  0  0  0  0  0  0
  151.4746  132.4615  156.0848 C   0  0  0  0  0  0  0  0  0  0  0  0
  150.4324  132.5922  155.1471 C   0  0  0  0  0  0  0  0  0  0  0  0
  150.0321  133.8890  154.7464 C   0  0  0  0  0  0  0  0  0  0  0  0
  149.0091  134.1509  153.7958 N   0  0  0  0  0  0  0  0  0  0  0  0
  147.8951  133.4403  153.5503 C   0  0  0  0  0  0  0  0  0  0  0  0
  147.5537  132.4242  154.1553 O   0  0  0  0  0  0  0  0  0  0  0  0
  147.1783  133.9954  152.5623 N   0  0  0  0  0  0  0  0  0  0  0  0
  145.9037  133.5025  152.0468 C   0  0  2  0  0  0  0  0  0  0  0  0
  146.0827  132.0750  151.4990 C   0  0  0  0  0  0  0  0  0  0  0  0
  144.7798  131.5401  150.8789 C   0  0  0  0  0  0  0  0  0  0  0  0
  144.2174  132.4835  149.7987 C   0  0  2  0  0  0  0  0  0  0  0  0
  145.0490  132.4616  148.6553 O   0  0  0  0  0  0  0  0  0  0  0  0
  144.0778  133.9252  150.3240 C   0  0  0  0  0  0  0  0  0  0  0  0
  145.3827  134.4490  150.9497 C   0  0  0  0  0  0  0  0  0  0  0  0
  150.7229  134.9883  155.2966 C   0  0  0  0  0  0  0  0  0  0  0  0
  151.7217  134.8706  156.1968 N   0  0  0  0  0  0  0  0  0  0  0  0
  153.3341  135.6590  157.5712 H   0  0  0  0  0  0  0  0  0  0  0  0
  154.5995  134.8103  156.6702 H   0  0  0  0  0  0  0  0  0  0  0  0
  154.5850  134.7655  158.4363 H   0  0  0  0  0  0  0  0  0  0  0  0
  153.1451  131.4569  157.4746 H   0  0  0  0  0  0  0  0  0  0  0  0
  154.4774  132.1947  158.3654 H   0  0  0  0  0  0  0  0  0  0  0  0
  154.4755  132.2298  156.5989 H   0  0  0  0  0  0  0  0  0  0  0  0
  151.7948  131.4815  156.4068 H   0  0  0  0  0  0  0  0  0  0  0  0
  149.9750  131.7010  154.7468 H   0  0  0  0  0  0  0  0  0  0  0  0
  149.1089  135.0126  153.2794 H   0  0  0  0  0  0  0  0  0  0  0  0
  147.5406  134.8344  152.1332 H   0  0  0  0  0  0  0  0  0  0  0  0
  145.1614  133.4648  152.8462 H   0  0  0  0  0  0  0  0  0  0  0  0
  146.8745  132.0627  150.7485 H   0  0  0  0  0  0  0  0  0  0  0  0
  146.4072  131.4075  152.2981 H   0  0  0  0  0  0  0  0  0  0  0  0
  144.9421  130.5441  150.4655 H   0  0  0  0  0  0  0  0  0  0  0  0
  144.0363  131.4226  151.6685 H   0  0  0  0  0  0  0  0  0  0  0  0
  143.2374  132.1227  149.4847 H   0  0  0  0  0  0  0  0  0  0  0  0
  145.2706  133.3518  148.4281 H   0  0  0  0  0  0  0  0  0  0  0  0
  143.7522  134.5901  149.5234 H   0  0  0  0  0  0  0  0  0  0  0  0
  143.2910  133.9522  151.0789 H   0  0  0  0  0  0  0  0  0  0  0  0
  145.2149  135.4436  151.3646 H   0  0  0  0  0  0  0  0  0  0  0  0
  146.1381  134.5647  150.1710 H   0  0  0  0  0  0  0  0  0  0  0  0
  150.4633  135.9972  155.0107 H   0  0  0  0  0  0  0  0  0  0  0  0
  1  2  1  0  0  0  0
  1 21  1  0  0  0  0
  1 22  1  0  0  0  0
  1 23  1  0  0  0  0
  2  3  1  0  0  0  0
  2  4  1  0  0  0  0
  3 24  1  0  0  0  0
  3 25  1  0  0  0  0
  3 26  1  0  0  0  0
  4 20  1  0  0  0  0
  4  5  2  0  0  0  0
  5  6  1  0  0  0  0
  5 27  1  0  0  0  0
  6  7  2  0  0  0  0
  6 28  1  0  0  0  0
  7  8  1  0  0  0  0
  7 19  1  0  0  0  0
  8  9  1  0  0  0  0
  8 29  1  0  0  0  0
  9 10  2  0  0  0  0
  9 11  1  0  0  0  0
 11 12  1  0  0  0  0
 11 30  1  0  0  0  0
 12 18  1  0  0  0  0
 12 13  1  0  0  0  0
 12 31  1  0  0  0  0
 13 14  1  0  0  0  0
 13 32  1  0  0  0  0
 13 33  1  0  0  0  0
 14 15  1  0  0  0  0
 14 34  1  0  0  0  0
 14 35  1  0  0  0  0
 15 16  1  0  0  0  0
 15 17  1  0  0  0  0
 15 36  1  0  0  0  0
 16 37  1  0  0  0  0
 17 18  1  0  0  0  0
 17 38  1  0  0  0  0
 17 39  1  0  0  0  0
 18 40  1  0  0  0  0
 18 41  1  0  0  0  0
 19 20  2  0  0  0  0
 19 42  1  0  0  0  0
M  END
> <s_m_source_file>
AV-unprocessed.smi

> <i_m_source_file_index>
967

> <i_lp_mmshare_version>
43012

> <i_f3d_flags>
0

> <s_epik_input>
W0NIM11OKFtDSDNdKWMxW2NIXVtjSF1jKFtjSF1uMSlbTkhdQyg9TylbTkhdW0NAQEhdMltDSDJdW0NIMl1bQ0BASF0oW09IXSlbQ0gyXVtDSDJdMg==

> <s_epik_cmdline>
J2VwaWtfcHl0aG9uJywgJy1waCcsICc3LjAnLCAnLXRuJywgJzgnLCAnLW1hJywgJzIwMCcsICctbWV0YWxfYmluZGluZycsICctaW1hZScsICc8aW5maWxlLm1hZT4nLCAnLW9tYWUnLCAnPG91dGZpbGUubWFlPic=

> <r_lp_tautomer_probability>
1

> <r_epik_Ionization_Penalty>
0.629464

> <r_epik_Ionization_Penalty_Charging>
0

> <r_epik_Ionization_Penalty_Neutral>
0.629464

> <r_epik_State_Penalty>
0.645019

> <r_epik_Charging_Adjusted_Penalty>
0.645019

> <i_epik_Tot_Q>
0

> <i_epik_Tot_abs_Q>
0

> <r_epik_Metal_State_Penalty>
0.308581

> <b_epik_Metal_Only>
0

> <s_lp_Force_Field>
OPLS_2005

> <r_lp_Energy>
18.5045

> <b_lp_Chiralities_Consistent>
1

> <s_lp_Variant>
AV-unprocessed.smi:967-4

> <Gold.Version>
5.8.1

> <Gold.Id.Protein>
6NUR|6NUR_protein|mol2

> <Gold.PLP.Fitness>
43.1675

> <Gold.PLP.PLP>
-31.4711

> <Gold.PLP.part.hbond>
-6.0000

> <Gold.PLP.part.metal>
0.0000

> <Gold.PLP.part.buried>
-1.8404

> <Gold.PLP.part.nonpolar>
-23.0124

> <Gold.PLP.part.repulsive>
0.0511

> <Gold.PLP.ligand.clash>
0.0000

> <Gold.PLP.ligand.torsion>
0.8512

> <Gold.PLP.Chemscore.Hbond>
4.3980

> <Gold.PLP.Chemscore.CHOScore>
0.0000

> <Gold.PLP.Chemscore.Metal>
0.0000

> <Gold.Chemscore.Hbonds>
donor molecule, donor type, donor heavy atom, donor atom, acceptor molecule, acceptor atom, score
      L1  H     8    29       P1  7948  0.85
      L1  H    11    30       P1  7948  1.00
      L1  H    16    37       P1  7921  1.00
      P1  H  6896  6908       L1     2  0.45
      P1  H 10752 10765       L1    20  0.88

> <Gold.PLP.Chemscore.Internal.Correction>
0.2049

> <Gold.Rescore>
     Score         DG    S(hbond)    S(metal)    S(lipo)     H(rot)  DE(clash)    DE(int)     intcor
     14.90     -16.12       2.04        0.00      69.91       1.71       0.32       0.90       ----

> <Gold.Chemscore.Fitness>
14.8972

> <Gold.Chemscore.DG>
-16.1153

> <Gold.Chemscore.ZeroCoef>
-5.4800

> <Gold.Chemscore.Hbond>
2.0446

> <Gold.Chemscore.Metal>
0.0000

> <Gold.Chemscore.Lipo>
69.9126

> <Gold.Chemscore.Internal_Hbond>
0.0000

> <Gold.Chemscore.DEClash>
0.3156

> <Gold.Chemscore.DEInternal>
0.9025

> <Gold.Chemscore.Rot>
1.7084

> <Gold.Chemscore.Internal.Correction>
   9.000000E+99

> <Gold.Chemscore.Hbonds>
donor molecule, donor type, donor heavy atom, donor atom, acceptor molecule, acceptor atom, score
      L1  H     8    29       P1  7948  0.15
      L1  H    11    30       P1  7948  0.81
      L1  H    16    37       P1  7921  0.30
      P1  H  6896  6908       L1     2  0.03
      P1  H 10752 10765       L1    20  0.09

> <Gold.Chemscore.Hbond.Weighted>
-6.8291

> <Gold.Chemscore.Metal.Weighted>
-0.0000

> <Gold.Chemscore.Lipo.Weighted>
-8.1798

> <Gold.Chemscore.Internal_Hbond.Weighted>
0.0000

> <Gold.Chemscore.DEClash.Weighted>
0.3156

> <Gold.Chemscore.DEInternal.Weighted>
0.9025

> <Gold.Chemscore.Rot.Weighted>
4.3735

> <Gold.Chemscore.Internal.Correction.Weighted>
   9.000000E+99

> <Gold.Protein.RotatedTorsions>
[ 6907 6896 6895 6894 ] final   14.29 input  -60.11 | X-H torsion
[ 7974 7965 7964 7962 ] final   49.18 input  175.53 | X-H torsion
[ 8008 7997 7996 7995 ] final  145.97 input   59.86 | X-H torsion
[ 10167 10162 10161 10158 ] final   38.92 input  -65.29 | X-H torsion
[ 10718 10713 10712 10709 ] final -112.39 input   66.30 | X-H torsion
[ 10763 10752 10751 10750 ] final -140.94 input  -60.55 | X-H torsion
[ 11005 11000 10999 10996 ] final -115.64 input  -57.11 | X-H torsion

> <Gold.Protein.ActiveResidues>
 VAL166  LYS551  ARG553  GLY616  TRP617  ASP618  TYR619  PRO620  LYS621  CYS622 
 ASP623  PHE694  ASN695  SER759  ASP760  ASP761  ALA762  ILE779  LEU786  VAL792 
 PHE793  MET794  SER795  GLU796  ALA797  LYS798  CYS799  TRP800  GLU811  SER814 

> <Gold.Protein.RotatedAtoms>
  151.8000  135.0711  160.0398 H   0  0  0  0  0  0  0  0  0  0  0  0  # atno 6907 bound_to 6896
  152.3096  133.5734  159.5680 H   0  0  0  0  0  0  0  0  0  0  0  0  # atno 6908 bound_to 6896
  150.7313  134.0088  159.3704 H   0  0  0  0  0  0  0  0  0  0  0  0  # atno 6909 bound_to 6896
  146.0133  139.4568  142.9942 H   0  0  0  0  0  0  0  0  0  0  0  0  # atno 7974 bound_to 7965
  156.2868  140.2195  156.5301 H   0  0  0  0  0  0  0  0  0  0  0  0  # atno 8008 bound_to 7997
  154.7456  140.0484  157.0871 H   0  0  0  0  0  0  0  0  0  0  0  0  # atno 8009 bound_to 7997
  155.0175  140.3120  155.4809 H   0  0  0  0  0  0  0  0  0  0  0  0  # atno 8010 bound_to 7997
  140.3889  144.1879  150.6130 H   0  0  0  0  0  0  0  0  0  0  0  0  # atno 10167 bound_to 10162
  156.0703  130.5917  150.8502 H   0  0  0  0  0  0  0  0  0  0  0  0  # atno 10718 bound_to 10713
  154.8562  135.3538  154.5789 H   0  0  0  0  0  0  0  0  0  0  0  0  # atno 10763 bound_to 10752
  153.6400  135.6998  153.5249 H   0  0  0  0  0  0  0  0  0  0  0  0  # atno 10764 bound_to 10752
  153.2979  135.4215  155.1185 H   0  0  0  0  0  0  0  0  0  0  0  0  # atno 10765 bound_to 10752
  141.0474  133.9741  157.2894 H   0  0  0  0  0  0  0  0  0  0  0  0  # atno 11005 bound_to 11000
  145.7307  141.0043  143.1353 LP  0  0  0  0  0  0  0  0  0  0  0  0  # atno 17320 bound_to 7965
  144.6961  139.8981  143.7457 LP  0  0  0  0  0  0  0  0  0  0  0  0  # atno 17321 bound_to 7965
  140.4860  143.2363  151.8887 LP  0  0  0  0  0  0  0  0  0  0  0  0  # atno 17342 bound_to 10162
  139.4790  144.5218  151.8791 LP  0  0  0  0  0  0  0  0  0  0  0  0  # atno 17343 bound_to 10162
  157.5770  131.0946  150.9331 LP  0  0  0  0  0  0  0  0  0  0  0  0  # atno 17370 bound_to 10713
  156.9535  130.5428  149.5283 LP  0  0  0  0  0  0  0  0  0  0  0  0  # atno 17371 bound_to 10713
  139.9323  135.0199  156.8440 LP  0  0  0  0  0  0  0  0  0  0  0  0  # atno 17394 bound_to 11000
  140.6120  134.0073  155.7581 LP  0  0  0  0  0  0  0  0  0  0  0  0  # atno 17395 bound_to 11000

$$$$
