AV-unprocessed.smi:3029|AV-procd|sdf|11526|dock1
  -GOLD-   2272016463D 1   1.00000     0.00000
 Structure written by MMmdl.
 42 43  0  0  0  0  0  0  0  0  4 V2000
  150.4029  139.4375  154.0898 O   0  0  0  0  0  0  0  0  0  0  0  0
  149.3386  140.0215  154.2935 C   0  0  0  0  0  0  0  0  0  0  0  0
  148.0603  139.5147  153.7839 C   0  0  0  0  0  0  0  0  0  0  0  0
  146.8975  140.1496  154.0315 C   0  0  0  0  0  0  0  0  0  0  0  0
  146.8775  141.3665  154.8202 C   0  0  0  0  0  0  0  0  0  0  0  0
  145.6343  142.0479  155.1058 N   0  3  0  0  0  0  0  0  0  0  0  0
  144.6026  141.3893  155.1980 O   0  0  0  0  0  0  0  0  0  0  0  0
  145.6500  143.2664  155.2461 O   0  5  0  0  0  0  0  0  0  0  0  0
  148.0549  141.8351  155.2788 C   0  0  0  0  0  0  0  0  0  0  0  0
  149.2737  141.1821  155.0135 N   0  0  0  0  0  0  0  0  0  0  0  0
  150.4912  141.7914  155.5654 C   0  0  0  0  0  0  0  0  0  0  0  0
  151.1192  140.9070  156.6543 C   0  0  0  0  0  0  0  0  0  0  0  0
  151.9798  141.7095  157.5475 N   0  3  0  0  0  0  0  0  0  0  0  0
  151.6163  141.6776  158.9849 C   0  0  1  0  0  0  0  0  0  0  0  0
  152.0369  140.3447  159.6444 C   0  0  0  0  0  0  0  0  0  0  0  0
  153.5657  140.2085  159.7483 C   0  0  0  0  0  0  0  0  0  0  0  0
  154.1811  141.4017  160.4941 C   0  0  0  0  0  0  0  0  0  0  0  0
  153.7723  142.7381  159.8540 C   0  0  0  0  0  0  0  0  0  0  0  0
  152.2365  142.8745  159.7548 C   0  0  1  0  0  0  0  0  0  0  0  0
  151.7954  144.2572  159.2213 C   0  0  0  0  0  0  0  0  0  0  0  0
  150.4979  144.2728  158.9147 F   0  0  0  0  0  0  0  0  0  0  0  0
  152.0325  145.1957  160.1377 F   0  0  0  0  0  0  0  0  0  0  0  0
  152.4928  144.5600  158.1269 F   0  0  0  0  0  0  0  0  0  0  0  0
  148.0523  138.6097  153.1939 H   0  0  0  0  0  0  0  0  0  0  0  0
  145.9808  139.7385  153.6346 H   0  0  0  0  0  0  0  0  0  0  0  0
  148.1463  142.7299  155.8777 H   0  0  0  0  0  0  0  0  0  0  0  0
  151.2158  141.9794  154.7708 H   0  0  0  0  0  0  0  0  0  0  0  0
  150.2637  142.7761  155.9776 H   0  0  0  0  0  0  0  0  0  0  0  0
  150.3339  140.4303  157.2429 H   0  0  0  0  0  0  0  0  0  0  0  0
  151.7062  140.1120  156.1949 H   0  0  0  0  0  0  0  0  0  0  0  0
  152.9389  141.4083  157.4476 H   0  0  0  0  0  0  0  0  0  0  0  0
  150.5309  141.7639  159.0521 H   0  0  0  0  0  0  0  0  0  0  0  0
  151.6116  140.2962  160.6478 H   0  0  0  0  0  0  0  0  0  0  0  0
  151.6217  139.4905  159.1104 H   0  0  0  0  0  0  0  0  0  0  0  0
  153.8201  139.2810  160.2623 H   0  0  0  0  0  0  0  0  0  0  0  0
  154.0005  140.1343  158.7509 H   0  0  0  0  0  0  0  0  0  0  0  0
  153.8591  141.3841  161.5360 H   0  0  0  0  0  0  0  0  0  0  0  0
  155.2678  141.3125  160.5071 H   0  0  0  0  0  0  0  0  0  0  0  0
  154.1837  143.5569  160.4449 H   0  0  0  0  0  0  0  0  0  0  0  0
  154.2213  142.8231  158.8639 H   0  0  0  0  0  0  0  0  0  0  0  0
  151.8533  142.8140  160.7752 H   0  0  0  0  0  0  0  0  0  0  0  0
  151.9147  142.6696  157.2397 H   0  0  0  0  0  0  0  0  0  0  0  0
  1  2  2  0  0  0  0
  2 10  1  0  0  0  0
  2  3  1  0  0  0  0
  3  4  2  0  0  0  0
  3 24  1  0  0  0  0
  4  5  1  0  0  0  0
  4 25  1  0  0  0  0
  5  6  1  0  0  0  0
  5  9  2  0  0  0  0
  6  7  2  0  0  0  0
  6  8  1  0  0  0  0
  9 10  1  0  0  0  0
  9 26  1  0  0  0  0
 10 11  1  0  0  0  0
 11 12  1  0  0  0  0
 11 27  1  0  0  0  0
 11 28  1  0  0  0  0
 12 13  1  0  0  0  0
 12 29  1  0  0  0  0
 12 30  1  0  0  0  0
 13 14  1  0  0  0  0
 13 31  1  0  0  0  0
 13 42  1  0  0  0  0
 14 19  1  0  0  0  0
 14 15  1  0  0  0  0
 14 32  1  0  0  0  0
 15 16  1  0  0  0  0
 15 33  1  0  0  0  0
 15 34  1  0  0  0  0
 16 17  1  0  0  0  0
 16 35  1  0  0  0  0
 16 36  1  0  0  0  0
 17 18  1  0  0  0  0
 17 37  1  0  0  0  0
 17 38  1  0  0  0  0
 18 19  1  0  0  0  0
 18 39  1  0  0  0  0
 18 40  1  0  0  0  0
 19 20  1  0  0  0  0
 19 41  1  0  0  0  0
 20 21  1  0  0  0  0
 20 22  1  0  0  0  0
 20 23  1  0  0  0  0
M  CHG  1   6   1
M  CHG  1   8  -1
M  CHG  1  13   1
M  END
> <s_m_source_file>
AV-unprocessed.smi

> <i_m_source_file_index>
3029

> <i_lp_mmshare_version>
43012

> <i_f3d_flags>
0

> <s_epik_input>
Tz1jMVtjSF1bY0hdYyhbTitdKD1PKVtPLV0pW2NIXW4xW0NIMl1bQ0gyXVtOSF1bQ0BASF0yW0NIMl1bQ0gyXVtDSDJdW0NIMl1bQ0BIXTJDKEYpKEYpRg==

> <s_epik_cmdline>
J2VwaWtfcHl0aG9uJywgJy1waCcsICc3LjAnLCAnLXRuJywgJzgnLCAnLW1hJywgJzIwMCcsICctbWV0YWxfYmluZGluZycsICctaW1hZScsICc8aW5maWxlLm1hZT4nLCAnLW9tYWUnLCAnPG91dGZpbGUubWFlPic=

> <r_lp_tautomer_probability>
1

> <r_epik_Ionization_Penalty>
0.037386

> <r_epik_Ionization_Penalty_Charging>
0.037386

> <r_epik_Ionization_Penalty_Neutral>
0

> <r_epik_State_Penalty>
0.0312892

> <r_epik_Charging_Adjusted_Penalty>
0.0686752

> <i_epik_Tot_Q>
1

> <i_epik_Tot_abs_Q>
3

> <r_epik_Metal_State_Penalty>
0.0312892

> <b_epik_Metal_Only>
0

> <s_lp_Force_Field>
OPLS_2005

> <r_lp_Energy>
34.3569

> <b_lp_Chiralities_Consistent>
1

> <s_lp_Variant>
AV-unprocessed.smi:3029-2

> <Gold.Version>
5.8.1

> <Gold.Id.Protein>
6NUR|6NUR_protein|mol2

> <Gold.PLP.Fitness>
49.7343

> <Gold.PLP.PLP>
-46.3142

> <Gold.PLP.part.hbond>
-1.0000

> <Gold.PLP.part.metal>
0.0000

> <Gold.PLP.part.buried>
-2.0179

> <Gold.PLP.part.nonpolar>
-43.1711

> <Gold.PLP.part.repulsive>
1.5062

> <Gold.PLP.ligand.clash>
0.0000

> <Gold.PLP.ligand.torsion>
1.4077

> <Gold.PLP.Chemscore.Hbond>
1.0000

> <Gold.PLP.Chemscore.CHOScore>
1.0000

> <Gold.PLP.Chemscore.Metal>
0.0000

> <Gold.Chemscore.Hbonds>
donor molecule, donor type, donor heavy atom, donor atom, acceptor molecule, acceptor atom, score
      P1  H  7989  7998       L1     1  1.00
      L1  C     9    26       P1  8028  1.00

> <Gold.PLP.Chemscore.Internal.Correction>
0.2355

> <Gold.Rescore>
     Score         DG    S(hbond)    S(metal)    S(lipo)     H(rot)  DE(clash)    DE(int)     intcor
     12.27     -15.58       0.94        0.00     101.27       1.90       0.90       2.41       ----

> <Gold.Chemscore.Fitness>
12.2699

> <Gold.Chemscore.DG>
-15.5787

> <Gold.Chemscore.ZeroCoef>
-5.4800

> <Gold.Chemscore.Hbond>
0.9352

> <Gold.Chemscore.Metal>
0.0000

> <Gold.Chemscore.Lipo>
101.2698

> <Gold.Chemscore.Internal_Hbond>
0.0000

> <Gold.Chemscore.DEClash>
0.8990

> <Gold.Chemscore.DEInternal>
2.4098

> <Gold.Chemscore.Rot>
1.9037

> <Gold.Chemscore.Internal.Correction>
   9.000000E+99

> <Gold.Chemscore.Hbonds>
donor molecule, donor type, donor heavy atom, donor atom, acceptor molecule, acceptor atom, score
      P1  H  7989  7998       L1     1  0.44

> <Gold.Chemscore.Hbond.Weighted>
-3.1236

> <Gold.Chemscore.Metal.Weighted>
-0.0000

> <Gold.Chemscore.Lipo.Weighted>
-11.8486

> <Gold.Chemscore.Internal_Hbond.Weighted>
0.0000

> <Gold.Chemscore.DEClash.Weighted>
0.8990

> <Gold.Chemscore.DEInternal.Weighted>
2.4098

> <Gold.Chemscore.Rot.Weighted>
4.8736

> <Gold.Chemscore.Internal.Correction.Weighted>
   9.000000E+99

> <Gold.Protein.RotatedTorsions>
[ 6907 6896 6895 6894 ] final  -68.32 input  -60.11 | X-H torsion
[ 7974 7965 7964 7962 ] final  146.85 input  175.53 | X-H torsion
[ 8008 7997 7996 7995 ] final  -28.40 input   59.86 | X-H torsion
[ 10167 10162 10161 10158 ] final   24.10 input  -65.29 | X-H torsion
[ 10718 10713 10712 10709 ] final   47.88 input   66.30 | X-H torsion
[ 10763 10752 10751 10750 ] final   -4.15 input  -60.55 | X-H torsion
[ 11005 11000 10999 10996 ] final  -71.64 input  -57.11 | X-H torsion

> <Gold.Protein.ActiveResidues>
 VAL166  LYS551  ARG553  GLY616  TRP617  ASP618  TYR619  PRO620  LYS621  CYS622 
 ASP623  PHE694  ASN695  SER759  ASP760  ASP761  ALA762  ILE779  LEU786  VAL792 
 PHE793  MET794  SER795  GLU796  ALA797  LYS798  CYS799  TRP800  GLU811  SER814 

> <Gold.Protein.RotatedAtoms>
  150.7362  134.5755  159.5911 H   0  0  0  0  0  0  0  0  0  0  0  0  # atno 6907 bound_to 6896
  152.3183  134.7409  160.0329 H   0  0  0  0  0  0  0  0  0  0  0  0  # atno 6908 bound_to 6896
  151.7934  133.3326  159.3542 H   0  0  0  0  0  0  0  0  0  0  0  0  # atno 6909 bound_to 6896
  144.8638  139.5955  143.5918 H   0  0  0  0  0  0  0  0  0  0  0  0  # atno 7974 bound_to 7965
  154.4334  140.1846  156.1084 H   0  0  0  0  0  0  0  0  0  0  0  0  # atno 8008 bound_to 7997
  156.0237  140.3338  155.7040 H   0  0  0  0  0  0  0  0  0  0  0  0  # atno 8009 bound_to 7997
  155.5939  140.0633  157.2742 H   0  0  0  0  0  0  0  0  0  0  0  0  # atno 8010 bound_to 7997
  140.5216  143.9993  150.6419 H   0  0  0  0  0  0  0  0  0  0  0  0  # atno 10167 bound_to 10162
  157.4630  130.8208  149.7906 H   0  0  0  0  0  0  0  0  0  0  0  0  # atno 10718 bound_to 10713
  153.3810  135.6998  153.6565 H   0  0  0  0  0  0  0  0  0  0  0  0  # atno 10763 bound_to 10752
  153.5177  135.3618  155.2617 H   0  0  0  0  0  0  0  0  0  0  0  0  # atno 10764 bound_to 10752
  154.8692  135.4150  154.3108 H   0  0  0  0  0  0  0  0  0  0  0  0  # atno 10765 bound_to 10752
  141.1596  133.6823  156.6937 H   0  0  0  0  0  0  0  0  0  0  0  0  # atno 11005 bound_to 11000
  146.2881  139.7060  142.9181 LP  0  0  0  0  0  0  0  0  0  0  0  0  # atno 17320 bound_to 7965
  145.4260  141.0411  143.2937 LP  0  0  0  0  0  0  0  0  0  0  0  0  # atno 17321 bound_to 7965
  140.3344  143.3058  152.0654 LP  0  0  0  0  0  0  0  0  0  0  0  0  # atno 17342 bound_to 10162
  139.4925  144.6487  151.6723 LP  0  0  0  0  0  0  0  0  0  0  0  0  # atno 17343 bound_to 10162
  156.0037  130.3866  150.2509 LP  0  0  0  0  0  0  0  0  0  0  0  0  # atno 17370 bound_to 10713
  157.0688  131.0111  151.3197 LP  0  0  0  0  0  0  0  0  0  0  0  0  # atno 17371 bound_to 10713
  140.3011  134.8163  157.4098 LP  0  0  0  0  0  0  0  0  0  0  0  0  # atno 17394 bound_to 11000
  140.1261  134.5156  155.8143 LP  0  0  0  0  0  0  0  0  0  0  0  0  # atno 17395 bound_to 11000

$$$$
