AV-unprocessed.smi:1897|AV-procd|sdf|7687|dock1
  -GOLD-   22720 9423D 1   1.00000     0.00000
 Structure written by MMmdl.
 39 41  0  0  0  0  0  0  0  0  2 V2000
  150.3419  142.4003  158.1313 C   0  0  0  0  0  0  0  0  0  0  0  0
  150.2279  141.6105  156.8723 C   0  0  0  0  0  0  0  0  0  0  0  0
  151.2864  141.0642  156.2622 N   0  0  0  0  0  0  0  0  0  0  0  0
  150.9311  140.3698  155.1154 N   0  0  0  0  0  0  0  0  0  0  0  0
  149.6110  140.4228  154.8832 C   0  0  0  0  0  0  0  0  0  0  0  0
  148.9602  139.7782  153.7911 N   0  0  0  0  0  0  0  0  0  0  0  0
  147.7424  139.2039  153.6993 C   0  0  0  0  0  0  0  0  0  0  0  0
  146.9780  139.1740  154.6617 O   0  0  0  0  0  0  0  0  0  0  0  0
  147.4285  138.6765  152.5039 N   0  0  0  0  0  0  0  0  0  0  0  0
  146.2000  137.9548  152.1815 C   0  0  1  0  0  0  0  0  0  0  0  0
  146.1493  137.4925  150.7120 C   0  0  0  0  0  0  0  0  0  0  0  0
  145.6007  136.0630  150.7708 C   0  0  0  0  0  0  0  0  0  0  0  0
  146.1219  135.5624  152.0479 N   0  3  2  0  0  0  0  0  0  0  0  0
  145.5952  134.2857  152.5719 C   0  0  0  0  0  0  0  0  0  0  0  0
  146.4175  133.8916  153.8177 C   0  0  0  0  0  0  0  0  0  0  0  0
  146.4820  135.0307  154.8603 C   0  0  0  0  0  0  0  0  0  0  0  0
  146.9183  136.3672  154.2221 C   0  0  0  0  0  0  0  0  0  0  0  0
  146.0092  136.6667  153.0160 C   0  0  1  0  0  0  0  0  0  0  0  0
  148.6853  141.3133  156.0803 S   0  0  0  0  0  0  0  0  0  0  0  0
  151.3275  142.8608  158.2057 H   0  0  0  0  0  0  0  0  0  0  0  0
  150.1920  141.7496  158.9929 H   0  0  0  0  0  0  0  0  0  0  0  0
  149.5884  143.1878  158.1510 H   0  0  0  0  0  0  0  0  0  0  0  0
  149.4624  139.8369  152.9170 H   0  0  0  0  0  0  0  0  0  0  0  0
  148.1154  138.7548  151.7671 H   0  0  0  0  0  0  0  0  0  0  0  0
  145.3427  138.6079  152.3570 H   0  0  0  0  0  0  0  0  0  0  0  0
  145.5396  138.1459  150.0872 H   0  0  0  0  0  0  0  0  0  0  0  0
  147.1535  137.4743  150.2848 H   0  0  0  0  0  0  0  0  0  0  0  0
  144.5097  136.0712  150.7954 H   0  0  0  0  0  0  0  0  0  0  0  0
  145.9249  135.4517  149.9282 H   0  0  0  0  0  0  0  0  0  0  0  0
  144.5376  134.3880  152.8193 H   0  0  0  0  0  0  0  0  0  0  0  0
  145.6766  133.5121  151.8075 H   0  0  0  0  0  0  0  0  0  0  0  0
  146.0007  132.9923  154.2719 H   0  0  0  0  0  0  0  0  0  0  0  0
  147.4319  133.6354  153.5089 H   0  0  0  0  0  0  0  0  0  0  0  0
  145.4991  135.1542  155.3166 H   0  0  0  0  0  0  0  0  0  0  0  0
  147.1627  134.7609  155.6682 H   0  0  0  0  0  0  0  0  0  0  0  0
  146.8526  137.1676  154.9596 H   0  0  0  0  0  0  0  0  0  0  0  0
  147.9616  136.3077  153.9085 H   0  0  0  0  0  0  0  0  0  0  0  0
  144.9769  136.6842  153.3724 H   0  0  0  0  0  0  0  0  0  0  0  0
  147.1111  135.4241  151.8981 H   0  0  0  0  0  0  0  0  0  0  0  0
  1  2  1  0  0  0  0
  1 20  1  0  0  0  0
  1 21  1  0  0  0  0
  1 22  1  0  0  0  0
  2 19  1  0  0  0  0
  2  3  2  0  0  0  0
  3  4  1  0  0  0  0
  4  5  2  0  0  0  0
  5  6  1  0  0  0  0
  5 19  1  0  0  0  0
  6  7  1  0  0  0  0
  6 23  1  0  0  0  0
  7  8  2  0  0  0  0
  7  9  1  0  0  0  0
  9 10  1  0  0  0  0
  9 24  1  0  0  0  0
 10 18  1  0  0  0  0
 10 11  1  0  0  0  0
 10 25  1  0  0  0  0
 11 12  1  0  0  0  0
 11 26  1  0  0  0  0
 11 27  1  0  0  0  0
 12 13  1  0  0  0  0
 12 28  1  0  0  0  0
 12 29  1  0  0  0  0
 13 18  1  0  0  0  0
 13 14  1  0  0  0  0
 13 39  1  0  0  0  0
 14 15  1  0  0  0  0
 14 30  1  0  0  0  0
 14 31  1  0  0  0  0
 15 16  1  0  0  0  0
 15 32  1  0  0  0  0
 15 33  1  0  0  0  0
 16 17  1  0  0  0  0
 16 34  1  0  0  0  0
 16 35  1  0  0  0  0
 17 18  1  0  0  0  0
 17 36  1  0  0  0  0
 17 37  1  0  0  0  0
 18 38  1  0  0  0  0
M  CHG  1  13   1
M  END
> <s_m_source_file>
AV-unprocessed.smi

> <i_m_source_file_index>
1897

> <i_lp_mmshare_version>
43012

> <i_f3d_flags>
0

> <s_epik_input>
W0NIM11jMW5uYyhzMSlbTkhdQyg9TylbTkhdW0NASF0oW0NIMl1bQ0gyXTIpW0NAQEhdKE4yMylbQ0gyXVtDSDJdW0NIMl1bQ0gyXTM=

> <s_epik_cmdline>
J2VwaWtfcHl0aG9uJywgJy1waCcsICc3LjAnLCAnLXRuJywgJzgnLCAnLW1hJywgJzIwMCcsICctbWV0YWxfYmluZGluZycsICctaW1hZScsICc8aW5maWxlLm1hZT4nLCAnLW9tYWUnLCAnPG91dGZpbGUubWFlPic=

> <r_lp_tautomer_probability>
1

> <r_epik_Ionization_Penalty>
0.00228891

> <r_epik_Ionization_Penalty_Charging>
0.00107044

> <r_epik_Ionization_Penalty_Neutral>
0.00121847

> <r_epik_State_Penalty>
-0

> <r_epik_Charging_Adjusted_Penalty>
0.00107044

> <i_epik_Tot_Q>
1

> <i_epik_Tot_abs_Q>
1

> <r_epik_Metal_State_Penalty>
0.304057

> <b_epik_Metal_Only>
0

> <s_lp_Force_Field>
OPLS_2005

> <r_lp_Energy>
42.6082

> <b_lp_Chiralities_Consistent>
1

> <s_lp_Variant>
AV-unprocessed.smi:1897-4

> <Gold.Version>
5.8.1

> <Gold.Id.Protein>
6NUR|6NUR_protein|mol2

> <Gold.PLP.Fitness>
39.2150

> <Gold.PLP.PLP>
-25.3203

> <Gold.PLP.part.hbond>
-5.0000

> <Gold.PLP.part.metal>
0.0000

> <Gold.PLP.part.buried>
3.6963

> <Gold.PLP.part.nonpolar>
-22.9015

> <Gold.PLP.part.repulsive>
0.3984

> <Gold.PLP.ligand.clash>
0.0033

> <Gold.PLP.ligand.torsion>
0.2275

> <Gold.PLP.Chemscore.Hbond>
4.7840

> <Gold.PLP.Chemscore.CHOScore>
0.0000

> <Gold.PLP.Chemscore.Metal>
0.0000

> <Gold.Chemscore.Hbonds>
donor molecule, donor type, donor heavy atom, donor atom, acceptor molecule, acceptor atom, score
      L1  H     6    23       P1  7957  1.00
      L1  H     9    24       P1  7957  0.82
      L1  H    13    39       P1  7948  1.95
      P1  H  7989  7998       L1     4  1.00

> <Gold.PLP.Chemscore.Internal.Correction>
0.0011

> <Gold.Rescore>
     Score         DG    S(hbond)    S(metal)    S(lipo)     H(rot)  DE(clash)    DE(int)     intcor
     16.60     -21.26       3.51        0.00      56.55       1.00       2.22       2.44       ----

> <Gold.Chemscore.Fitness>
16.6003

> <Gold.Chemscore.DG>
-21.2597

> <Gold.Chemscore.ZeroCoef>
-5.4800

> <Gold.Chemscore.Hbond>
3.5099

> <Gold.Chemscore.Metal>
0.0000

> <Gold.Chemscore.Lipo>
56.5533

> <Gold.Chemscore.Internal_Hbond>
0.0000

> <Gold.Chemscore.DEClash>
2.2170

> <Gold.Chemscore.DEInternal>
2.4423

> <Gold.Chemscore.Rot>
1.0000

> <Gold.Chemscore.Internal.Correction>
   9.000000E+99

> <Gold.Chemscore.Hbonds>
donor molecule, donor type, donor heavy atom, donor atom, acceptor molecule, acceptor atom, score
      L1  H     6    23       P1  7957  0.98
      L1  H     9    24       P1  7957  0.62
      L1  H    13    39       P1  7948  0.91
      P1  H  7989  7998       L1     4  0.37

> <Gold.Chemscore.Hbond.Weighted>
-11.7230

> <Gold.Chemscore.Metal.Weighted>
-0.0000

> <Gold.Chemscore.Lipo.Weighted>
-6.6167

> <Gold.Chemscore.Internal_Hbond.Weighted>
0.0000

> <Gold.Chemscore.DEClash.Weighted>
2.2170

> <Gold.Chemscore.DEInternal.Weighted>
2.4423

> <Gold.Chemscore.Rot.Weighted>
2.5600

> <Gold.Chemscore.Internal.Correction.Weighted>
   9.000000E+99

> <Gold.Protein.RotatedTorsions>
[ 6907 6896 6895 6894 ] final   94.37 input  -60.11 | X-H torsion
[ 7974 7965 7964 7962 ] final  -88.57 input  175.53 | X-H torsion
[ 8008 7997 7996 7995 ] final  160.39 input   59.86 | X-H torsion
[ 10167 10162 10161 10158 ] final   43.56 input  -65.29 | X-H torsion
[ 10718 10713 10712 10709 ] final -102.80 input   66.30 | X-H torsion
[ 10763 10752 10751 10750 ] final -155.31 input  -60.55 | X-H torsion
[ 11005 11000 10999 10996 ] final  -13.02 input  -57.11 | X-H torsion

> <Gold.Protein.ActiveResidues>
 VAL166  LYS551  ARG553  GLY616  TRP617  ASP618  TYR619  PRO620  LYS621  CYS622 
 ASP623  PHE694  ASN695  SER759  ASP760  ASP761  ALA762  ILE779  LEU786  VAL792 
 PHE793  MET794  SER795  GLU796  ALA797  LYS798  CYS799  TRP800  GLU811  SER814 

> <Gold.Protein.RotatedAtoms>
  152.5449  134.1204  159.8396 H   0  0  0  0  0  0  0  0  0  0  0  0  # atno 6907 bound_to 6896
  151.1260  133.5063  159.2608 H   0  0  0  0  0  0  0  0  0  0  0  0  # atno 6908 bound_to 6896
  151.1726  135.0335  159.8813 H   0  0  0  0  0  0  0  0  0  0  0  0  # atno 6909 bound_to 6896
  145.4514  140.9560  143.2020 H   0  0  0  0  0  0  0  0  0  0  0  0  # atno 7974 bound_to 7965
  156.2175  140.1805  156.7555 H   0  0  0  0  0  0  0  0  0  0  0  0  # atno 8008 bound_to 7997
  154.5814  140.0665  156.9138 H   0  0  0  0  0  0  0  0  0  0  0  0  # atno 8009 bound_to 7997
  155.2496  140.3328  155.4286 H   0  0  0  0  0  0  0  0  0  0  0  0  # atno 8010 bound_to 7997
  140.3431  144.2445  150.6153 H   0  0  0  0  0  0  0  0  0  0  0  0  # atno 10167 bound_to 10162
  156.0242  130.5437  150.7161 H   0  0  0  0  0  0  0  0  0  0  0  0  # atno 10718 bound_to 10713
  154.7796  135.3170  154.8018 H   0  0  0  0  0  0  0  0  0  0  0  0  # atno 10763 bound_to 10752
  153.8733  135.6842  153.4777 H   0  0  0  0  0  0  0  0  0  0  0  0  # atno 10764 bound_to 10752
  153.1428  135.4732  154.9459 H   0  0  0  0  0  0  0  0  0  0  0  0  # atno 10765 bound_to 10752
  140.7718  133.8433  155.9213 H   0  0  0  0  0  0  0  0  0  0  0  0  # atno 11005 bound_to 11000
  144.8059  139.6052  143.7051 LP  0  0  0  0  0  0  0  0  0  0  0  0  # atno 17320 bound_to 7965
  146.2502  139.6183  142.9432 LP  0  0  0  0  0  0  0  0  0  0  0  0  # atno 17321 bound_to 7965
  140.5290  143.2247  151.8269 LP  0  0  0  0  0  0  0  0  0  0  0  0  # atno 17342 bound_to 10162
  139.4837  144.4744  151.9386 LP  0  0  0  0  0  0  0  0  0  0  0  0  # atno 17343 bound_to 10162
  157.4787  131.0900  151.0560 LP  0  0  0  0  0  0  0  0  0  0  0  0  # atno 17370 bound_to 10713
  157.1000  130.5978  149.5458 LP  0  0  0  0  0  0  0  0  0  0  0  0  # atno 17371 bound_to 10713
  140.9567  134.1709  157.4686 LP  0  0  0  0  0  0  0  0  0  0  0  0  # atno 17394 bound_to 11000
  139.8755  134.9929  156.5620 LP  0  0  0  0  0  0  0  0  0  0  0  0  # atno 17395 bound_to 11000

$$$$
