AV-unprocessed.smi:3283|AV-procd|sdf|12568|dock7
  -GOLD-   2272018483D 1   1.00000     0.00000
 Structure written by MMmdl.
 44 45  0  0  0  0  0  0  0  0  2 V2000
  148.2332  141.8629  154.3558 C   0  0  0  0  0  0  0  0  0  0  0  0
  149.2378  140.9942  155.0939 C   0  0  0  0  0  0  0  0  0  0  0  0
  149.6332  141.2949  156.3465 C   0  0  0  0  0  0  0  0  0  0  0  0
  150.6603  140.5085  157.1398 C   0  0  0  0  0  0  0  0  0  0  0  0
  151.0533  139.1864  156.4629 C   0  0  0  0  0  0  0  0  0  0  0  0
  151.1553  139.3437  154.9352 C   0  0  1  0  0  0  0  0  0  0  0  0
  151.7937  138.1079  154.2787 C   0  0  0  0  0  0  0  0  0  0  0  0
  149.7965  139.7976  154.3184 C   0  0  1  0  0  0  0  0  0  0  0  0
  148.7263  138.6798  154.2178 C   0  0  0  0  0  0  0  0  0  0  0  0
  148.2416  138.4912  152.8357 N   0  3  0  0  0  0  0  0  0  0  0  0
  146.7891  138.6903  152.6688 C   0  0  0  0  0  0  0  0  0  0  0  0
  146.0035  137.5056  153.2495 C   0  0  0  0  0  0  0  0  0  0  0  0
  145.4266  136.5820  152.2201 C   0  0  0  0  0  0  0  0  0  0  0  0
  145.9463  136.0925  151.0527 C   0  0  0  0  0  0  0  0  0  0  0  0
  144.9101  135.2726  150.5267 C   0  0  0  0  0  0  0  0  0  0  0  0
  143.8386  135.2525  151.2994 N   0  0  0  0  0  0  0  0  0  0  0  0
  144.1536  136.0540  152.3385 N   0  0  0  0  0  0  0  0  0  0  0  0
  143.1810  136.2608  153.3943 C   0  0  0  0  0  0  0  0  0  0  0  0
  148.6636  142.2295  153.4237 H   0  0  0  0  0  0  0  0  0  0  0  0
  147.9453  142.7291  154.9525 H   0  0  0  0  0  0  0  0  0  0  0  0
  147.3258  141.3089  154.1200 H   0  0  0  0  0  0  0  0  0  0  0  0
  149.2286  142.1665  156.8402 H   0  0  0  0  0  0  0  0  0  0  0  0
  151.5413  141.1407  157.2539 H   0  0  0  0  0  0  0  0  0  0  0  0
  150.2776  140.3174  158.1426 H   0  0  0  0  0  0  0  0  0  0  0  0
  152.0019  138.8416  156.8761 H   0  0  0  0  0  0  0  0  0  0  0  0
  150.3214  138.4170  156.7094 H   0  0  0  0  0  0  0  0  0  0  0  0
  151.8581  140.1596  154.7562 H   0  0  0  0  0  0  0  0  0  0  0  0
  151.2404  137.1966  154.5066 H   0  0  0  0  0  0  0  0  0  0  0  0
  152.8123  137.9620  154.6396 H   0  0  0  0  0  0  0  0  0  0  0  0
  151.8466  138.2173  153.1952 H   0  0  0  0  0  0  0  0  0  0  0  0
  150.0030  140.1592  153.3098 H   0  0  0  0  0  0  0  0  0  0  0  0
  149.1165  137.7386  154.6052 H   0  0  0  0  0  0  0  0  0  0  0  0
  147.8555  138.9215  154.8260 H   0  0  0  0  0  0  0  0  0  0  0  0
  148.7301  139.1378  152.2327 H   0  0  0  0  0  0  0  0  0  0  0  0
  146.4957  139.6134  153.1706 H   0  0  0  0  0  0  0  0  0  0  0  0
  146.5634  138.8088  151.6082 H   0  0  0  0  0  0  0  0  0  0  0  0
  146.6552  136.9343  153.9116 H   0  0  0  0  0  0  0  0  0  0  0  0
  145.1945  137.8861  153.8744 H   0  0  0  0  0  0  0  0  0  0  0  0
  146.9211  136.2887  150.6318 H   0  0  0  0  0  0  0  0  0  0  0  0
  144.9045  134.6963  149.6133 H   0  0  0  0  0  0  0  0  0  0  0  0
  142.8726  137.3064  153.4077 H   0  0  0  0  0  0  0  0  0  0  0  0
  143.6231  136.0057  154.3576 H   0  0  0  0  0  0  0  0  0  0  0  0
  142.3012  135.6355  153.2363 H   0  0  0  0  0  0  0  0  0  0  0  0
  148.4674  137.5492  152.5493 H   0  0  0  0  0  0  0  0  0  0  0  0
  1  2  1  0  0  0  0
  1 19  1  0  0  0  0
  1 20  1  0  0  0  0
  1 21  1  0  0  0  0
  2  8  1  0  0  0  0
  2  3  2  0  0  0  0
  3  4  1  0  0  0  0
  3 22  1  0  0  0  0
  4  5  1  0  0  0  0
  4 23  1  0  0  0  0
  4 24  1  0  0  0  0
  5  6  1  0  0  0  0
  5 25  1  0  0  0  0
  5 26  1  0  0  0  0
  6  7  1  0  0  0  0
  6  8  1  0  0  0  0
  6 27  1  0  0  0  0
  7 28  1  0  0  0  0
  7 29  1  0  0  0  0
  7 30  1  0  0  0  0
  8  9  1  0  0  0  0
  8 31  1  0  0  0  0
  9 10  1  0  0  0  0
  9 32  1  0  0  0  0
  9 33  1  0  0  0  0
 10 11  1  0  0  0  0
 10 34  1  0  0  0  0
 10 44  1  0  0  0  0
 11 12  1  0  0  0  0
 11 35  1  0  0  0  0
 11 36  1  0  0  0  0
 12 13  1  0  0  0  0
 12 37  1  0  0  0  0
 12 38  1  0  0  0  0
 13 17  1  0  0  0  0
 13 14  2  0  0  0  0
 14 15  1  0  0  0  0
 14 39  1  0  0  0  0
 15 16  2  0  0  0  0
 15 40  1  0  0  0  0
 16 17  1  0  0  0  0
 17 18  1  0  0  0  0
 18 41  1  0  0  0  0
 18 42  1  0  0  0  0
 18 43  1  0  0  0  0
M  CHG  1  10   1
M  END
> <s_m_source_file>
AV-unprocessed.smi

> <i_m_source_file_index>
3283

> <i_lp_mmshare_version>
43012

> <i_f3d_flags>
0

> <s_epik_input>
W0NIM11DMT1bQ0hdW0NIMl1bQ0gyXVtDQEBIXShbQ0gzXSlbQ0BIXTFbQ0gyXVtOSF1bQ0gyXVtDSDJdYzJbY0hdW2NIXW5uMltDSDNd

> <s_epik_cmdline>
J2VwaWtfcHl0aG9uJywgJy1waCcsICc3LjAnLCAnLXRuJywgJzgnLCAnLW1hJywgJzIwMCcsICctbWV0YWxfYmluZGluZycsICctaW1hZScsICc8aW5maWxlLm1hZT4nLCAnLW9tYWUnLCAnPG91dGZpbGUubWFlPic=

> <r_lp_tautomer_probability>
1

> <r_epik_Ionization_Penalty>
0.000866911

> <r_epik_Ionization_Penalty_Charging>
0.000836385

> <r_epik_Ionization_Penalty_Neutral>
3.05258e-05

> <r_epik_State_Penalty>
-0

> <r_epik_Charging_Adjusted_Penalty>
0.000836385

> <i_epik_Tot_Q>
1

> <i_epik_Tot_abs_Q>
1

> <r_epik_Metal_State_Penalty>
-0

> <b_epik_Metal_Only>
0

> <s_lp_Force_Field>
OPLS_2005

> <r_lp_Energy>
14.2558

> <b_lp_Chiralities_Consistent>
1

> <s_lp_Variant>
AV-unprocessed.smi:3283-1

> <Gold.Version>
5.8.1

> <Gold.Id.Protein>
6NUR|6NUR_protein|mol2

> <Gold.PLP.Fitness>
44.4312

> <Gold.PLP.PLP>
-35.7696

> <Gold.PLP.part.hbond>
-2.0000

> <Gold.PLP.part.metal>
0.0000

> <Gold.PLP.part.buried>
-0.8433

> <Gold.PLP.part.nonpolar>
-33.2556

> <Gold.PLP.part.repulsive>
0.2881

> <Gold.PLP.ligand.clash>
0.0000

> <Gold.PLP.ligand.torsion>
1.7351

> <Gold.PLP.Chemscore.Hbond>
3.0000

> <Gold.PLP.Chemscore.CHOScore>
1.0000

> <Gold.PLP.Chemscore.Metal>
0.0000

> <Gold.Chemscore.Hbonds>
donor molecule, donor type, donor heavy atom, donor atom, acceptor molecule, acceptor atom, score
      L1  H    10    34       P1  7957  1.00
      L1  H    10    44       P1  7948  2.00
      L1  C    15    40       P1  7921  1.00

> <Gold.PLP.Chemscore.Internal.Correction>
0.1317

> <Gold.Rescore>
     Score         DG    S(hbond)    S(metal)    S(lipo)     H(rot)  DE(clash)    DE(int)     intcor
     17.45     -19.23       1.99        0.00      93.25       1.48       0.01       1.77       ----

> <Gold.Chemscore.Fitness>
17.4466

> <Gold.Chemscore.DG>
-19.2300

> <Gold.Chemscore.ZeroCoef>
-5.4800

> <Gold.Chemscore.Hbond>
1.9883

> <Gold.Chemscore.Metal>
0.0000

> <Gold.Chemscore.Lipo>
93.2463

> <Gold.Chemscore.Internal_Hbond>
0.0000

> <Gold.Chemscore.DEClash>
0.0101

> <Gold.Chemscore.DEInternal>
1.7733

> <Gold.Chemscore.Rot>
1.4847

> <Gold.Chemscore.Internal.Correction>
   9.000000E+99

> <Gold.Chemscore.Hbonds>
donor molecule, donor type, donor heavy atom, donor atom, acceptor molecule, acceptor atom, score
      L1  H    10    34       P1  7957  0.99
      L1  H    10    44       P1  7948  0.94

> <Gold.Chemscore.Hbond.Weighted>
-6.6410

> <Gold.Chemscore.Metal.Weighted>
-0.0000

> <Gold.Chemscore.Lipo.Weighted>
-10.9098

> <Gold.Chemscore.Internal_Hbond.Weighted>
0.0000

> <Gold.Chemscore.DEClash.Weighted>
0.0101

> <Gold.Chemscore.DEInternal.Weighted>
1.7733

> <Gold.Chemscore.Rot.Weighted>
3.8008

> <Gold.Chemscore.Internal.Correction.Weighted>
   9.000000E+99

> <Gold.Protein.RotatedTorsions>
[ 6907 6896 6895 6894 ] final   61.77 input  -60.11 | X-H torsion
[ 7974 7965 7964 7962 ] final  122.39 input  175.53 | X-H torsion
[ 8008 7997 7996 7995 ] final  138.47 input   59.86 | X-H torsion
[ 10167 10162 10161 10158 ] final -160.95 input  -65.29 | X-H torsion
[ 10718 10713 10712 10709 ] final  -63.61 input   66.30 | X-H torsion
[ 10763 10752 10751 10750 ] final -114.15 input  -60.55 | X-H torsion
[ 11005 11000 10999 10996 ] final -111.53 input  -57.11 | X-H torsion

> <Gold.Protein.ActiveResidues>
 VAL166  LYS551  ARG553  GLY616  TRP617  ASP618  TYR619  PRO620  LYS621  CYS622 
 ASP623  PHE694  ASN695  SER759  ASP760  ASP761  ALA762  ILE779  LEU786  VAL792 
 PHE793  MET794  SER795  GLU796  ALA797  LYS798  CYS799  TRP800  GLU811  SER814 

> <Gold.Protein.RotatedAtoms>
  152.4116  134.6113  160.0026 H   0  0  0  0  0  0  0  0  0  0  0  0  # atno 6907 bound_to 6896
  151.6289  133.3328  159.3112 H   0  0  0  0  0  0  0  0  0  0  0  0  # atno 6908 bound_to 6896
  150.8007  134.7139  159.6664 H   0  0  0  0  0  0  0  0  0  0  0  0  # atno 6909 bound_to 6896
  145.1081  139.3472  143.4777 H   0  0  0  0  0  0  0  0  0  0  0  0  # atno 7974 bound_to 7965
  156.2997  140.2393  156.4079 H   0  0  0  0  0  0  0  0  0  0  0  0  # atno 8008 bound_to 7997
  154.8468  140.0426  157.1598 H   0  0  0  0  0  0  0  0  0  0  0  0  # atno 8009 bound_to 7997
  154.9042  140.2981  155.5305 H   0  0  0  0  0  0  0  0  0  0  0  0  # atno 8010 bound_to 7997
  139.6501  144.0099  152.2156 H   0  0  0  0  0  0  0  0  0  0  0  0  # atno 10167 bound_to 10162
  156.0780  130.4223  150.1302 H   0  0  0  0  0  0  0  0  0  0  0  0  # atno 10718 bound_to 10713
  154.8427  135.4428  154.1461 H   0  0  0  0  0  0  0  0  0  0  0  0  # atno 10763 bound_to 10752
  153.2633  135.6938  153.7561 H   0  0  0  0  0  0  0  0  0  0  0  0  # atno 10764 bound_to 10752
  153.6830  135.3400  155.3158 H   0  0  0  0  0  0  0  0  0  0  0  0  # atno 10765 bound_to 10752
  141.0729  133.9350  157.2449 H   0  0  0  0  0  0  0  0  0  0  0  0  # atno 11005 bound_to 11000
  146.3527  140.0988  142.8609 LP  0  0  0  0  0  0  0  0  0  0  0  0  # atno 17320 bound_to 7965
  145.0878  140.9264  143.4787 LP  0  0  0  0  0  0  0  0  0  0  0  0  # atno 17321 bound_to 7965
  139.9811  144.6427  150.7900 LP  0  0  0  0  0  0  0  0  0  0  0  0  # atno 17342 bound_to 10162
  140.7534  143.3007  151.3088 LP  0  0  0  0  0  0  0  0  0  0  0  0  # atno 17343 bound_to 10162
  156.9340  130.9723  151.3528 LP  0  0  0  0  0  0  0  0  0  0  0  0  # atno 17370 bound_to 10713
  157.5884  130.8426  149.8623 LP  0  0  0  0  0  0  0  0  0  0  0  0  # atno 17371 bound_to 10713
  139.9541  135.0169  156.9079 LP  0  0  0  0  0  0  0  0  0  0  0  0  # atno 17394 bound_to 11000
  140.5636  134.0511  155.7407 LP  0  0  0  0  0  0  0  0  0  0  0  0  # atno 17395 bound_to 11000

$$$$
