AV-unprocessed.smi:2983|AV-procd|sdf|11377|dock10
  -GOLD-   2272016293D 1   1.00000     0.00000
 Structure written by MMmdl.
 39 40  0  0  0  0  0  0  0  0  1 V2000
  147.7652  124.4912  150.0981 C   0  0  0  0  0  0  0  0  0  0  0  0
  148.5804  125.7515  150.4072 C   0  0  0  0  0  0  0  0  0  0  0  0
  148.0460  126.5128  151.6276 C   0  0  0  0  0  0  0  0  0  0  0  0
  148.4960  127.9831  151.6440 C   0  0  0  0  0  0  0  0  0  0  0  0
  148.1519  128.6555  152.8807 N   0  0  0  0  0  0  0  0  0  0  0  0
  149.0964  129.0777  153.8209 C   0  0  0  0  0  0  0  0  0  0  0  0
  150.4355  128.8423  153.5542 N   0  0  0  0  0  0  0  0  0  0  0  0
  148.7328  129.7125  154.9727 C   0  0  0  0  0  0  0  0  0  0  0  0
  149.6387  130.1584  155.9287 N   0  0  0  0  0  0  0  0  0  0  0  0
  149.4488  129.9785  157.3623 C   0  0  0  0  0  0  0  0  0  0  0  0
  149.3967  131.3416  158.0773 C   0  0  0  0  0  0  0  0  0  0  0  0
  150.5583  132.1006  157.7539 O   0  0  0  0  0  0  0  0  0  0  0  0
  150.6694  132.3453  156.3547 C   0  0  0  0  0  0  0  0  0  0  0  0
  150.7791  131.0051  155.6074 C   0  0  0  0  0  0  0  0  0  0  0  0
  147.3197  129.9773  155.2616 C   0  0  0  0  0  0  0  0  0  0  0  0
  146.8848  130.5287  156.2723 O   0  0  0  0  0  0  0  0  0  0  0  0
  146.4298  129.5592  154.2750 N   0  0  0  0  0  0  0  0  0  0  0  0
  146.7775  128.9214  153.0893 C   0  0  0  0  0  0  0  0  0  0  0  0
  145.8957  128.6213  152.2837 O   0  0  0  0  0  0  0  0  0  0  0  0
  145.4491  129.7414  154.4308 H   0  0  0  0  0  0  0  0  0  0  0  0
  148.1679  123.9703  149.2291 H   0  0  0  0  0  0  0  0  0  0  0  0
  146.7249  124.7387  149.8851 H   0  0  0  0  0  0  0  0  0  0  0  0
  147.7804  123.7971  150.9387 H   0  0  0  0  0  0  0  0  0  0  0  0
  149.6215  125.4739  150.5771 H   0  0  0  0  0  0  0  0  0  0  0  0
  148.5731  126.4065  149.5352 H   0  0  0  0  0  0  0  0  0  0  0  0
  146.9564  126.4666  151.6354 H   0  0  0  0  0  0  0  0  0  0  0  0
  148.3816  126.0158  152.5388 H   0  0  0  0  0  0  0  0  0  0  0  0
  149.5711  128.0871  151.4863 H   0  0  0  0  0  0  0  0  0  0  0  0
  148.0376  128.5516  150.8353 H   0  0  0  0  0  0  0  0  0  0  0  0
  150.7322  128.3794  152.7071 H   0  0  0  0  0  0  0  0  0  0  0  0
  151.1668  129.1506  154.1787 H   0  0  0  0  0  0  0  0  0  0  0  0
  148.5333  129.4178  157.5544 H   0  0  0  0  0  0  0  0  0  0  0  0
  150.2726  129.3792  157.7521 H   0  0  0  0  0  0  0  0  0  0  0  0
  148.5005  131.8979  157.8008 H   0  0  0  0  0  0  0  0  0  0  0  0
  149.3569  131.1973  159.1570 H   0  0  0  0  0  0  0  0  0  0  0  0
  149.8092  132.9181  156.0049 H   0  0  0  0  0  0  0  0  0  0  0  0
  151.5546  132.9538  156.1695 H   0  0  0  0  0  0  0  0  0  0  0  0
  151.6973  130.4875  155.8874 H   0  0  0  0  0  0  0  0  0  0  0  0
  150.8299  131.1784  154.5316 H   0  0  0  0  0  0  0  0  0  0  0  0
  1  2  1  0  0  0  0
  1 21  1  0  0  0  0
  1 22  1  0  0  0  0
  1 23  1  0  0  0  0
  2  3  1  0  0  0  0
  2 24  1  0  0  0  0
  2 25  1  0  0  0  0
  3  4  1  0  0  0  0
  3 26  1  0  0  0  0
  3 27  1  0  0  0  0
  4  5  1  0  0  0  0
  4 28  1  0  0  0  0
  4 29  1  0  0  0  0
  5 18  1  0  0  0  0
  5  6  1  0  0  0  0
  6  7  1  0  0  0  0
  6  8  2  0  0  0  0
  7 30  1  0  0  0  0
  7 31  1  0  0  0  0
  8  9  1  0  0  0  0
  8 15  1  0  0  0  0
  9 14  1  0  0  0  0
  9 10  1  0  0  0  0
 10 11  1  0  0  0  0
 10 32  1  0  0  0  0
 10 33  1  0  0  0  0
 11 12  1  0  0  0  0
 11 34  1  0  0  0  0
 11 35  1  0  0  0  0
 12 13  1  0  0  0  0
 13 14  1  0  0  0  0
 13 36  1  0  0  0  0
 13 37  1  0  0  0  0
 14 38  1  0  0  0  0
 14 39  1  0  0  0  0
 15 16  2  0  0  0  0
 15 17  1  0  0  0  0
 17 20  1  0  0  0  0
 17 18  1  0  0  0  0
 18 19  2  0  0  0  0
M  END
> <s_m_source_file>
AV-unprocessed.smi

> <i_m_source_file_index>
2983

> <i_lp_mmshare_version>
43012

> <i_f3d_flags>
0

> <s_epik_input>
W0NIM11bQ0gyXVtDSDJdW0NIMl1uMWMoW05IMl0pYyhjKD1PKVtuSF1jMT1PKU4yW0NIMl1bQ0gyXU9bQ0gyXVtDSDJdMg==

> <s_epik_cmdline>
J2VwaWtfcHl0aG9uJywgJy1waCcsICc3LjAnLCAnLXRuJywgJzgnLCAnLW1hJywgJzIwMCcsICctbWV0YWxfYmluZGluZycsICctaW1hZScsICc8aW5maWxlLm1hZT4nLCAnLW9tYWUnLCAnPG91dGZpbGUubWFlPic=

> <r_lp_tautomer_probability>
1

> <r_epik_Ionization_Penalty>
1.02563e-05

> <r_epik_Ionization_Penalty_Charging>
2.70122e-06

> <r_epik_Ionization_Penalty_Neutral>
7.55508e-06

> <r_epik_State_Penalty>
-0

> <r_epik_Charging_Adjusted_Penalty>
2.70122e-06

> <i_epik_Tot_Q>
0

> <i_epik_Tot_abs_Q>
0

> <r_epik_Metal_State_Penalty>
-0

> <b_epik_Metal_Only>
0

> <s_epik_Chemistry_Notes>
This compound has an imine and may undergo hydrolysis.

> <s_lp_Force_Field>
OPLS_2005

> <r_lp_Energy>
27.0785

> <b_lp_Chiralities_Consistent>
1

> <s_lp_Variant>
AV-unprocessed.smi:2983-1

> <Gold.Version>
5.8.1

> <Gold.Id.Protein>
6NUR|6NUR_protein|mol2

> <Gold.PLP.Fitness>
33.8780

> <Gold.PLP.PLP>
-25.3343

> <Gold.PLP.part.hbond>
-2.9930

> <Gold.PLP.part.metal>
0.0000

> <Gold.PLP.part.buried>
-1.4251

> <Gold.PLP.part.nonpolar>
-21.7950

> <Gold.PLP.part.repulsive>
0.2783

> <Gold.PLP.ligand.clash>
0.0000

> <Gold.PLP.ligand.torsion>
1.0375

> <Gold.PLP.Chemscore.Hbond>
3.0000

> <Gold.PLP.Chemscore.CHOScore>
0.0000

> <Gold.PLP.Chemscore.Metal>
0.0000

> <Gold.Chemscore.Hbonds>
donor molecule, donor type, donor heavy atom, donor atom, acceptor molecule, acceptor atom, score
      L1  H     7    30       P1 10737  0.98
      L1  H    17    20       P1 10956  0.57
      P1  H  6896  6908       L1    12  0.93

> <Gold.PLP.Chemscore.Internal.Correction>
1.6187

> <Gold.Rescore>
     Score         DG    S(hbond)    S(metal)    S(lipo)     H(rot)  DE(clash)    DE(int)     intcor
     13.95     -16.45       2.82        0.00      45.00       1.45       0.03       2.47       ----

> <Gold.Chemscore.Fitness>
13.9503

> <Gold.Chemscore.DG>
-16.4479

> <Gold.Chemscore.ZeroCoef>
-5.4800

> <Gold.Chemscore.Hbond>
2.8199

> <Gold.Chemscore.Metal>
0.0000

> <Gold.Chemscore.Lipo>
45.0032

> <Gold.Chemscore.Internal_Hbond>
0.0000

> <Gold.Chemscore.DEClash>
0.0319

> <Gold.Chemscore.DEInternal>
2.4658

> <Gold.Chemscore.Rot>
1.4515

> <Gold.Chemscore.Internal.Correction>
   9.000000E+99

> <Gold.Chemscore.Hbonds>
donor molecule, donor type, donor heavy atom, donor atom, acceptor molecule, acceptor atom, score
      L1  H     7    30       P1 10737  0.93
      L1  H    17    20       P1 10956  0.50
      P1  H  6896  6908       L1    12  0.80

> <Gold.Chemscore.Hbond.Weighted>
-9.4184

> <Gold.Chemscore.Metal.Weighted>
-0.0000

> <Gold.Chemscore.Lipo.Weighted>
-5.2654

> <Gold.Chemscore.Internal_Hbond.Weighted>
0.0000

> <Gold.Chemscore.DEClash.Weighted>
0.0319

> <Gold.Chemscore.DEInternal.Weighted>
2.4658

> <Gold.Chemscore.Rot.Weighted>
3.7159

> <Gold.Chemscore.Internal.Correction.Weighted>
   9.000000E+99

> <Gold.Protein.RotatedTorsions>
[ 6907 6896 6895 6894 ] final   90.88 input  -60.11 | X-H torsion
[ 7974 7965 7964 7962 ] final   38.97 input  175.53 | X-H torsion
[ 8008 7997 7996 7995 ] final  105.51 input   59.86 | X-H torsion
[ 10167 10162 10161 10158 ] final  112.63 input  -65.29 | X-H torsion
[ 10718 10713 10712 10709 ] final   94.73 input   66.30 | X-H torsion
[ 10763 10752 10751 10750 ] final   38.94 input  -60.55 | X-H torsion
[ 11005 11000 10999 10996 ] final   -5.20 input  -57.11 | X-H torsion

> <Gold.Protein.ActiveResidues>
 VAL166  LYS551  ARG553  GLY616  TRP617  ASP618  TYR619  PRO620  LYS621  CYS622 
 ASP623  PHE694  ASN695  SER759  ASP760  ASP761  ALA762  ILE779  LEU786  VAL792 
 PHE793  MET794  SER795  GLU796  ALA797  LYS798  CYS799  TRP800  GLU811  SER814 

> <Gold.Protein.RotatedAtoms>
  152.5447  134.1743  159.8609 H   0  0  0  0  0  0  0  0  0  0  0  0  # atno 6907 bound_to 6896
  151.1751  133.4753  159.2601 H   0  0  0  0  0  0  0  0  0  0  0  0  # atno 6908 bound_to 6896
  151.1235  135.0104  159.8605 H   0  0  0  0  0  0  0  0  0  0  0  0  # atno 6909 bound_to 6896
  146.1020  139.5707  142.9408 H   0  0  0  0  0  0  0  0  0  0  0  0  # atno 7974 bound_to 7965
  156.1665  140.3129  155.8899 H   0  0  0  0  0  0  0  0  0  0  0  0  # atno 8008 bound_to 7997
  155.3674  140.0480  157.3063 H   0  0  0  0  0  0  0  0  0  0  0  0  # atno 8009 bound_to 7997
  154.5198  140.2194  155.9008 H   0  0  0  0  0  0  0  0  0  0  0  0  # atno 8010 bound_to 7997
  139.6521  144.7128  151.2028 H   0  0  0  0  0  0  0  0  0  0  0  0  # atno 10167 bound_to 10162
  157.6945  131.0522  150.4231 H   0  0  0  0  0  0  0  0  0  0  0  0  # atno 10718 bound_to 10713
  152.9984  135.6235  154.2385 H   0  0  0  0  0  0  0  0  0  0  0  0  # atno 10763 bound_to 10752
  154.2126  135.2799  155.2955 H   0  0  0  0  0  0  0  0  0  0  0  0  # atno 10764 bound_to 10752
  154.5594  135.5709  153.7052 H   0  0  0  0  0  0  0  0  0  0  0  0  # atno 10765 bound_to 10752
  140.6885  133.9091  155.8602 H   0  0  0  0  0  0  0  0  0  0  0  0  # atno 11005 bound_to 11000
  145.5835  141.0379  143.2109 LP  0  0  0  0  0  0  0  0  0  0  0  0  # atno 17320 bound_to 7965
  144.7440  139.7369  143.7299 LP  0  0  0  0  0  0  0  0  0  0  0  0  # atno 17321 bound_to 7965
  140.7542  143.6133  150.8584 LP  0  0  0  0  0  0  0  0  0  0  0  0  # atno 17342 bound_to 10162
  139.9782  143.5981  152.2951 LP  0  0  0  0  0  0  0  0  0  0  0  0  # atno 17343 bound_to 10162
  156.4604  130.4031  149.6580 LP  0  0  0  0  0  0  0  0  0  0  0  0  # atno 17370 bound_to 10713
  156.3697  130.7524  151.2506 LP  0  0  0  0  0  0  0  0  0  0  0  0  # atno 17371 bound_to 10713
  141.0260  134.0822  157.4068 LP  0  0  0  0  0  0  0  0  0  0  0  0  # atno 17394 bound_to 11000
  139.8930  135.0128  156.6877 LP  0  0  0  0  0  0  0  0  0  0  0  0  # atno 17395 bound_to 11000

$$$$
