AV-unprocessed.smi:2095|AV-procd|sdf|8554|dock3
  -GOLD-   2272011273D 1   1.00000     0.00000
 Structure written by MMmdl.
 42 43  0  0  0  0  0  0  0  0  2 V2000
  144.7351  134.4253  151.0442 C   0  0  0  0  0  0  0  0  0  0  0  0
  145.7550  135.0954  151.9761 C   0  0  2  0  0  0  0  0  0  0  0  0
  145.6431  134.5513  153.4079 C   0  0  0  0  0  0  0  0  0  0  0  0
  146.6532  135.2581  154.3154 C   0  0  0  0  0  0  0  0  0  0  0  0
  146.4617  136.7802  154.2572 C   0  0  0  0  0  0  0  0  0  0  0  0
  146.5925  137.2987  152.8654 N   0  3  2  0  0  0  0  0  0  0  0  0
  146.6140  138.7992  152.8260 C   0  0  2  0  0  0  0  0  0  0  0  0
  146.7742  139.3921  151.4031 C   0  0  0  0  0  0  0  0  0  0  0  0
  147.7218  139.3321  153.7717 C   0  0  0  0  0  0  0  0  0  0  0  0
  148.9573  138.5610  153.6680 N   0  0  0  0  0  0  0  0  0  0  0  0
  150.1509  138.9256  154.1636 C   0  0  0  0  0  0  0  0  0  0  0  0
  150.3598  140.0081  154.7097 O   0  0  0  0  0  0  0  0  0  0  0  0
  151.2752  137.8958  154.0523 C   0  0  0  0  0  0  0  0  0  0  0  0
  151.0085  136.7552  154.9092 N   0  0  0  0  0  0  0  0  0  0  0  0
  149.9596  135.9325  154.9724 C   0  0  0  0  0  0  0  0  0  0  0  0
  150.1010  135.0323  155.9328 N   0  0  0  0  0  0  0  0  0  0  0  0
  151.3349  135.3455  156.4783 N   0  0  0  0  0  0  0  0  0  0  0  0
  151.8779  136.3673  155.8755 N   0  0  0  0  0  0  0  0  0  0  0  0
  145.6078  136.6320  151.9618 C   0  0  0  0  0  0  0  0  0  0  0  0
  143.7125  134.6272  151.3646 H   0  0  0  0  0  0  0  0  0  0  0  0
  144.8706  133.3434  151.0267 H   0  0  0  0  0  0  0  0  0  0  0  0
  144.8401  134.7859  150.0206 H   0  0  0  0  0  0  0  0  0  0  0  0
  146.7502  134.8510  151.6010 H   0  0  0  0  0  0  0  0  0  0  0  0
  144.6329  134.7055  153.7900 H   0  0  0  0  0  0  0  0  0  0  0  0
  145.8219  133.4754  153.4207 H   0  0  0  0  0  0  0  0  0  0  0  0
  146.5384  134.9072  155.3417 H   0  0  0  0  0  0  0  0  0  0  0  0
  147.6689  135.0014  154.0113 H   0  0  0  0  0  0  0  0  0  0  0  0
  145.4790  137.0450  154.6511 H   0  0  0  0  0  0  0  0  0  0  0  0
  147.1929  137.2418  154.9184 H   0  0  0  0  0  0  0  0  0  0  0  0
  145.6488  139.1518  153.1943 H   0  0  0  0  0  0  0  0  0  0  0  0
  146.7674  140.4816  151.4149 H   0  0  0  0  0  0  0  0  0  0  0  0
  145.9537  139.1080  150.7445 H   0  0  0  0  0  0  0  0  0  0  0  0
  147.7114  139.0783  150.9419 H   0  0  0  0  0  0  0  0  0  0  0  0
  147.9848  140.3612  153.5339 H   0  0  0  0  0  0  0  0  0  0  0  0
  147.3520  139.3501  154.7982 H   0  0  0  0  0  0  0  0  0  0  0  0
  148.8890  137.6550  153.2271 H   0  0  0  0  0  0  0  0  0  0  0  0
  151.3690  137.5526  153.0211 H   0  0  0  0  0  0  0  0  0  0  0  0
  152.2299  138.3427  154.3345 H   0  0  0  0  0  0  0  0  0  0  0  0
  149.0946  136.0011  154.3292 H   0  0  0  0  0  0  0  0  0  0  0  0
  145.7585  136.9524  150.9315 H   0  0  0  0  0  0  0  0  0  0  0  0
  144.5954  136.9216  152.2486 H   0  0  0  0  0  0  0  0  0  0  0  0
  147.4991  137.0052  152.5301 H   0  0  0  0  0  0  0  0  0  0  0  0
  1  2  1  0  0  0  0
  1 20  1  0  0  0  0
  1 21  1  0  0  0  0
  1 22  1  0  0  0  0
  2 19  1  0  0  0  0
  2  3  1  0  0  0  0
  2 23  1  0  0  0  0
  3  4  1  0  0  0  0
  3 24  1  0  0  0  0
  3 25  1  0  0  0  0
  4  5  1  0  0  0  0
  4 26  1  0  0  0  0
  4 27  1  0  0  0  0
  5  6  1  0  0  0  0
  5 28  1  0  0  0  0
  5 29  1  0  0  0  0
  6  7  1  0  0  0  0
  6 19  1  0  0  0  0
  6 42  1  0  0  0  0
  7  8  1  0  0  0  0
  7  9  1  0  0  0  0
  7 30  1  0  0  0  0
  8 31  1  0  0  0  0
  8 32  1  0  0  0  0
  8 33  1  0  0  0  0
  9 10  1  0  0  0  0
  9 34  1  0  0  0  0
  9 35  1  0  0  0  0
 10 11  1  0  0  0  0
 10 36  1  0  0  0  0
 11 12  2  0  0  0  0
 11 13  1  0  0  0  0
 13 14  1  0  0  0  0
 13 37  1  0  0  0  0
 13 38  1  0  0  0  0
 14 18  1  0  0  0  0
 14 15  1  0  0  0  0
 15 16  2  0  0  0  0
 15 39  1  0  0  0  0
 16 17  1  0  0  0  0
 17 18  2  0  0  0  0
 19 40  1  0  0  0  0
 19 41  1  0  0  0  0
M  CHG  1   6   1
M  END
> <s_m_source_file>
AV-unprocessed.smi

> <i_m_source_file_index>
2095

> <i_lp_mmshare_version>
43012

> <i_f3d_flags>
0

> <s_epik_input>
W0NIM11bQ0BASF0xW0NIMl1bQ0gyXVtDSDJdTihbQ0gyXTEpW0NASF0oW0NIM10pW0NIMl1bTkhdQyg9TylbQ0gyXW4yW2NIXW5ubjI=

> <s_epik_cmdline>
J2VwaWtfcHl0aG9uJywgJy1waCcsICc3LjAnLCAnLXRuJywgJzgnLCAnLW1hJywgJzIwMCcsICctbWV0YWxfYmluZGluZycsICctaW1hZScsICc8aW5maWxlLm1hZT4nLCAnLW9tYWUnLCAnPG91dGZpbGUubWFlPic=

> <r_lp_tautomer_probability>
1

> <r_epik_Ionization_Penalty>
0.00268321

> <r_epik_Ionization_Penalty_Charging>
0.00267875

> <r_epik_Ionization_Penalty_Neutral>
4.46125e-06

> <r_epik_State_Penalty>
0.00186642

> <r_epik_Charging_Adjusted_Penalty>
0.00454517

> <i_epik_Tot_Q>
1

> <i_epik_Tot_abs_Q>
1

> <r_epik_Metal_State_Penalty>
-0

> <b_epik_Metal_Only>
0

> <s_lp_Force_Field>
OPLS_2005

> <r_lp_Energy>
25.312

> <b_lp_Chiralities_Consistent>
1

> <s_lp_Variant>
AV-unprocessed.smi:2095-1

> <Gold.Version>
5.8.1

> <Gold.Id.Protein>
6NUR|6NUR_protein|mol2

> <Gold.PLP.Fitness>
46.4622

> <Gold.PLP.PLP>
-29.2201

> <Gold.PLP.part.hbond>
-5.0000

> <Gold.PLP.part.metal>
0.0000

> <Gold.PLP.part.buried>
-1.8461

> <Gold.PLP.part.nonpolar>
-23.7475

> <Gold.PLP.part.repulsive>
0.2178

> <Gold.PLP.ligand.clash>
0.0000

> <Gold.PLP.ligand.torsion>
0.3937

> <Gold.PLP.Chemscore.Hbond>
5.0000

> <Gold.PLP.Chemscore.CHOScore>
0.9865

> <Gold.PLP.Chemscore.Metal>
0.0000

> <Gold.Chemscore.Hbonds>
donor molecule, donor type, donor heavy atom, donor atom, acceptor molecule, acceptor atom, score
      L1  H     6    42       P1  7948  2.00
      L1  H    10    36       P1  7948  1.00
      P1  H  7989  7998       L1    12  1.00
      P1  H 10752 10764       L1    18  0.90
      L1  C    15    39       P1  7948  0.98

> <Gold.PLP.Chemscore.Internal.Correction>
0.0700

> <Gold.Rescore>
     Score         DG    S(hbond)    S(metal)    S(lipo)     H(rot)  DE(clash)    DE(int)     intcor
     14.43     -15.65       3.15        0.00      54.74       2.64       0.73       0.49       ----

> <Gold.Chemscore.Fitness>
14.4314

> <Gold.Chemscore.DG>
-15.6496

> <Gold.Chemscore.ZeroCoef>
-5.4800

> <Gold.Chemscore.Hbond>
3.1536

> <Gold.Chemscore.Metal>
0.0000

> <Gold.Chemscore.Lipo>
54.7442

> <Gold.Chemscore.Internal_Hbond>
0.0000

> <Gold.Chemscore.DEClash>
0.7324

> <Gold.Chemscore.DEInternal>
0.4858

> <Gold.Chemscore.Rot>
2.6439

> <Gold.Chemscore.Internal.Correction>
   9.000000E+99

> <Gold.Chemscore.Hbonds>
donor molecule, donor type, donor heavy atom, donor atom, acceptor molecule, acceptor atom, score
      L1  H     6    42       P1  7948  1.00
      L1  H    10    36       P1  7948  0.98
      P1  H  7989  7998       L1    12  0.39
      P1  H 10752 10764       L1    18  0.05

> <Gold.Chemscore.Hbond.Weighted>
-10.5330

> <Gold.Chemscore.Metal.Weighted>
-0.0000

> <Gold.Chemscore.Lipo.Weighted>
-6.4051

> <Gold.Chemscore.Internal_Hbond.Weighted>
0.0000

> <Gold.Chemscore.DEClash.Weighted>
0.7324

> <Gold.Chemscore.DEInternal.Weighted>
0.4858

> <Gold.Chemscore.Rot.Weighted>
6.7685

> <Gold.Chemscore.Internal.Correction.Weighted>
   9.000000E+99

> <Gold.Protein.RotatedTorsions>
[ 6907 6896 6895 6894 ] final   82.14 input  -60.11 | X-H torsion
[ 7974 7965 7964 7962 ] final   55.67 input  175.53 | X-H torsion
[ 8008 7997 7996 7995 ] final -116.69 input   59.86 | X-H torsion
[ 10167 10162 10161 10158 ] final  -29.89 input  -65.29 | X-H torsion
[ 10718 10713 10712 10709 ] final  173.98 input   66.30 | X-H torsion
[ 10763 10752 10751 10750 ] final  -37.55 input  -60.55 | X-H torsion
[ 11005 11000 10999 10996 ] final -113.19 input  -57.11 | X-H torsion

> <Gold.Protein.ActiveResidues>
 VAL166  LYS551  ARG553  GLY616  TRP617  ASP618  TYR619  PRO620  LYS621  CYS622 
 ASP623  PHE694  ASN695  SER759  ASP760  ASP761  ALA762  ILE779  LEU786  VAL792 
 PHE793  MET794  SER795  GLU796  ALA797  LYS798  CYS799  TRP800  GLU811  SER814 

> <Gold.Protein.RotatedAtoms>
  152.5290  134.3095  159.9108 H   0  0  0  0  0  0  0  0  0  0  0  0  # atno 6907 bound_to 6896
  151.3045  133.4101  159.2650 H   0  0  0  0  0  0  0  0  0  0  0  0  # atno 6908 bound_to 6896
  151.0091  134.9399  159.8054 H   0  0  0  0  0  0  0  0  0  0  0  0  # atno 6909 bound_to 6896
  145.9479  139.3946  143.0324 H   0  0  0  0  0  0  0  0  0  0  0  0  # atno 7974 bound_to 7965
  155.0718  140.0393  157.2611 H   0  0  0  0  0  0  0  0  0  0  0  0  # atno 8008 bound_to 7997
  154.6977  140.2666  155.6726 H   0  0  0  0  0  0  0  0  0  0  0  0  # atno 8009 bound_to 7997
  156.2750  140.2747  156.1576 H   0  0  0  0  0  0  0  0  0  0  0  0  # atno 8010 bound_to 7997
  140.7255  143.3892  151.1460 H   0  0  0  0  0  0  0  0  0  0  0  0  # atno 10167 bound_to 10162
  156.9563  131.0046  151.2937 H   0  0  0  0  0  0  0  0  0  0  0  0  # atno 10718 bound_to 10713
  153.8981  135.6805  153.4757 H   0  0  0  0  0  0  0  0  0  0  0  0  # atno 10763 bound_to 10752
  153.1144  135.4768  154.9088 H   0  0  0  0  0  0  0  0  0  0  0  0  # atno 10764 bound_to 10752
  154.7589  135.3205  154.8371 H   0  0  0  0  0  0  0  0  0  0  0  0  # atno 10765 bound_to 10752
  141.0629  133.9505  157.2632 H   0  0  0  0  0  0  0  0  0  0  0  0  # atno 11005 bound_to 11000
  145.8211  140.9678  143.0898 LP  0  0  0  0  0  0  0  0  0  0  0  0  # atno 17320 bound_to 7965
  144.6790  140.0043  143.7484 LP  0  0  0  0  0  0  0  0  0  0  0  0  # atno 17321 bound_to 7965
  139.7495  143.8801  152.3073 LP  0  0  0  0  0  0  0  0  0  0  0  0  # atno 17342 bound_to 10162
  139.8649  144.7098  150.9055 LP  0  0  0  0  0  0  0  0  0  0  0  0  # atno 17343 bound_to 10162
  157.5688  130.8296  149.8364 LP  0  0  0  0  0  0  0  0  0  0  0  0  # atno 17370 bound_to 10713
  156.0341  130.3756  150.1607 LP  0  0  0  0  0  0  0  0  0  0  0  0  # atno 17371 bound_to 10713
  139.9449  135.0185  156.8823 LP  0  0  0  0  0  0  0  0  0  0  0  0  # atno 17394 bound_to 11000
  140.5831  134.0333  155.7471 LP  0  0  0  0  0  0  0  0  0  0  0  0  # atno 17395 bound_to 11000

$$$$
