AV-unprocessed.smi:2074|AV-procd|sdf|8455|dock6
  -GOLD-   2272011153D 1   1.00000     0.00000
 Structure written by MMmdl.
 44 45  0  0  0  0  0  0  0  0  2 V2000
  150.0508  140.8376  154.8087 C   0  0  0  0  0  0  0  0  0  0  0  0
  151.1870  140.1234  155.4830 C   0  0  0  0  0  0  0  0  0  0  0  0
  151.8385  140.7195  156.4671 N   0  0  0  0  0  0  0  0  0  0  0  0
  152.8192  139.8135  156.8818 O   0  0  0  0  0  0  0  0  0  0  0  0
  152.7158  138.6922  156.1241 C   0  0  0  0  0  0  0  0  0  0  0  0
  153.6839  137.5961  156.4176 C   0  0  0  0  0  0  0  0  0  0  0  0
  151.6995  138.8207  155.2173 C   0  0  0  0  0  0  0  0  0  0  0  0
  151.2303  137.8278  154.1849 C   0  0  0  0  0  0  0  0  0  0  0  0
  150.8027  136.5326  154.8746 C   0  0  0  0  0  0  0  0  0  0  0  0
  151.5677  135.9724  155.6591 O   0  0  0  0  0  0  0  0  0  0  0  0
  149.5792  136.0686  154.5733 N   0  0  0  0  0  0  0  0  0  0  0  0
  148.9554  134.8814  155.1535 C   0  0  0  0  0  0  0  0  0  0  0  0
  148.8571  133.6869  154.1624 C   0  0  1  0  0  0  0  0  0  0  0  0
  148.8255  132.3421  154.9291 C   0  0  0  0  0  0  0  0  0  0  0  0
  147.6841  133.8072  153.2312 N   0  3  0  0  0  0  0  0  0  0  0  0
  147.4246  132.5926  152.4065 C   0  0  0  0  0  0  0  0  0  0  0  0
  146.2125  132.7833  151.4788 C   0  0  0  0  0  0  0  0  0  0  0  0
  145.0688  133.1256  152.2443 O   0  0  0  0  0  0  0  0  0  0  0  0
  145.2589  134.3546  152.9264 C   0  0  0  0  0  0  0  0  0  0  0  0
  146.4269  134.2202  153.9173 C   0  0  0  0  0  0  0  0  0  0  0  0
  150.0887  140.7019  153.7279 H   0  0  0  0  0  0  0  0  0  0  0  0
  150.0752  141.9103  155.0056 H   0  0  0  0  0  0  0  0  0  0  0  0
  149.0909  140.4571  155.1578 H   0  0  0  0  0  0  0  0  0  0  0  0
  153.2474  136.6215  156.1990 H   0  0  0  0  0  0  0  0  0  0  0  0
  153.9763  137.6039  157.4678 H   0  0  0  0  0  0  0  0  0  0  0  0
  154.5848  137.7061  155.8139 H   0  0  0  0  0  0  0  0  0  0  0  0
  150.3963  138.2184  153.6006 H   0  0  0  0  0  0  0  0  0  0  0  0
  152.0196  137.6023  153.4669 H   0  0  0  0  0  0  0  0  0  0  0  0
  149.0261  136.5974  153.9144 H   0  0  0  0  0  0  0  0  0  0  0  0
  149.4675  134.5736  156.0668 H   0  0  0  0  0  0  0  0  0  0  0  0
  147.9637  135.2171  155.4535 H   0  0  0  0  0  0  0  0  0  0  0  0
  149.7607  133.7002  153.5507 H   0  0  0  0  0  0  0  0  0  0  0  0
  149.6591  132.2481  155.6237 H   0  0  0  0  0  0  0  0  0  0  0  0
  148.9130  131.4793  154.2716 H   0  0  0  0  0  0  0  0  0  0  0  0
  147.9058  132.2375  155.5054 H   0  0  0  0  0  0  0  0  0  0  0  0
  148.2761  132.3647  151.7674 H   0  0  0  0  0  0  0  0  0  0  0  0
  147.2645  131.7339  153.0603 H   0  0  0  0  0  0  0  0  0  0  0  0
  146.4110  133.5524  150.7303 H   0  0  0  0  0  0  0  0  0  0  0  0
  146.0082  131.8599  150.9365 H   0  0  0  0  0  0  0  0  0  0  0  0
  145.4410  135.1607  152.2134 H   0  0  0  0  0  0  0  0  0  0  0  0
  144.3421  134.6054  153.4603 H   0  0  0  0  0  0  0  0  0  0  0  0
  146.1760  133.4919  154.6900 H   0  0  0  0  0  0  0  0  0  0  0  0
  146.5427  135.1834  154.4095 H   0  0  0  0  0  0  0  0  0  0  0  0
  147.9122  134.5444  152.5792 H   0  0  0  0  0  0  0  0  0  0  0  0
  1  2  1  0  0  0  0
  1 21  1  0  0  0  0
  1 22  1  0  0  0  0
  1 23  1  0  0  0  0
  2  7  1  0  0  0  0
  2  3  2  0  0  0  0
  3  4  1  0  0  0  0
  4  5  1  0  0  0  0
  5  6  1  0  0  0  0
  5  7  2  0  0  0  0
  6 24  1  0  0  0  0
  6 25  1  0  0  0  0
  6 26  1  0  0  0  0
  7  8  1  0  0  0  0
  8  9  1  0  0  0  0
  8 27  1  0  0  0  0
  8 28  1  0  0  0  0
  9 10  2  0  0  0  0
  9 11  1  0  0  0  0
 11 12  1  0  0  0  0
 11 29  1  0  0  0  0
 12 13  1  0  0  0  0
 12 30  1  0  0  0  0
 12 31  1  0  0  0  0
 13 14  1  0  0  0  0
 13 15  1  0  0  0  0
 13 32  1  0  0  0  0
 14 33  1  0  0  0  0
 14 34  1  0  0  0  0
 14 35  1  0  0  0  0
 15 20  1  0  0  0  0
 15 16  1  0  0  0  0
 15 44  1  0  0  0  0
 16 17  1  0  0  0  0
 16 36  1  0  0  0  0
 16 37  1  0  0  0  0
 17 18  1  0  0  0  0
 17 38  1  0  0  0  0
 17 39  1  0  0  0  0
 18 19  1  0  0  0  0
 19 20  1  0  0  0  0
 19 40  1  0  0  0  0
 19 41  1  0  0  0  0
 20 42  1  0  0  0  0
 20 43  1  0  0  0  0
M  CHG  1  15   1
M  END
> <s_m_source_file>
AV-unprocessed.smi

> <i_m_source_file_index>
2074

> <i_lp_mmshare_version>
43012

> <i_f3d_flags>
0

> <s_epik_input>
W0NIM11jMW5vYyhbQ0gzXSljMVtDSDJdQyg9TylbTkhdW0NIMl1bQ0BIXShbQ0gzXSlOMltDSDJdW0NIMl1PW0NIMl1bQ0gyXTI=

> <s_epik_cmdline>
J2VwaWtfcHl0aG9uJywgJy1waCcsICc3LjAnLCAnLXRuJywgJzgnLCAnLW1hJywgJzIwMCcsICctbWV0YWxfYmluZGluZycsICctaW1hZScsICc8aW5maWxlLm1hZT4nLCAnLW9tYWUnLCAnPG91dGZpbGUubWFlPic=

> <r_epik_Ionization_Penalty>
0.663207

> <r_epik_Ionization_Penalty_Charging>
0.663207

> <r_epik_Ionization_Penalty_Neutral>
1.0751e-07

> <r_epik_State_Penalty>
0.682743

> <r_epik_Charging_Adjusted_Penalty>
1.34595

> <i_epik_Tot_Q>
1

> <i_epik_Tot_abs_Q>
1

> <r_epik_Metal_State_Penalty>
0.682743

> <b_epik_Metal_Only>
0

> <s_lp_Force_Field>
OPLS_2005

> <r_lp_Energy>
15.6967

> <b_lp_Chiralities_Consistent>
1

> <s_lp_Variant>
AV-unprocessed.smi:2074-4

> <Gold.Version>
5.8.1

> <Gold.Id.Protein>
6NUR|6NUR_protein|mol2

> <Gold.PLP.Fitness>
40.7456

> <Gold.PLP.PLP>
-30.1968

> <Gold.PLP.part.hbond>
-4.0000

> <Gold.PLP.part.metal>
0.0000

> <Gold.PLP.part.buried>
1.8193

> <Gold.PLP.part.nonpolar>
-26.8994

> <Gold.PLP.part.repulsive>
0.1842

> <Gold.PLP.ligand.clash>
0.0000

> <Gold.PLP.ligand.torsion>
0.5919

> <Gold.PLP.Chemscore.Hbond>
3.8887

> <Gold.PLP.Chemscore.CHOScore>
0.0000

> <Gold.PLP.Chemscore.Metal>
0.0000

> <Gold.Chemscore.Hbonds>
donor molecule, donor type, donor heavy atom, donor atom, acceptor molecule, acceptor atom, score
      L1  H    11    29       P1  7948  0.43
      L1  H    15    44       P1  7948  1.82
      P1  H  7997  8009       L1     4  0.56
      P1  H 10752 10765       L1    10  1.00

> <Gold.PLP.Chemscore.Internal.Correction>
0.0665

> <Gold.Rescore>
     Score         DG    S(hbond)    S(metal)    S(lipo)     H(rot)  DE(clash)    DE(int)     intcor
     11.85     -15.82       1.91        0.00      73.02       1.80       0.29       3.68       ----

> <Gold.Chemscore.Fitness>
11.8474

> <Gold.Chemscore.DG>
-15.8184

> <Gold.Chemscore.ZeroCoef>
-5.4800

> <Gold.Chemscore.Hbond>
1.9141

> <Gold.Chemscore.Metal>
0.0000

> <Gold.Chemscore.Lipo>
73.0196

> <Gold.Chemscore.Internal_Hbond>
0.0000

> <Gold.Chemscore.DEClash>
0.2939

> <Gold.Chemscore.DEInternal>
3.6772

> <Gold.Chemscore.Rot>
1.7961

> <Gold.Chemscore.Internal.Correction>
   9.000000E+99

> <Gold.Chemscore.Hbonds>
donor molecule, donor type, donor heavy atom, donor atom, acceptor molecule, acceptor atom, score
      L1  H    11    29       P1  7948  0.42
      L1  H    15    44       P1  7948  0.52
      P1  H  7997  8009       L1     4  0.22
      P1  H 10752 10765       L1    10  0.55

> <Gold.Chemscore.Hbond.Weighted>
-6.3932

> <Gold.Chemscore.Metal.Weighted>
-0.0000

> <Gold.Chemscore.Lipo.Weighted>
-8.5433

> <Gold.Chemscore.Internal_Hbond.Weighted>
0.0000

> <Gold.Chemscore.DEClash.Weighted>
0.2939

> <Gold.Chemscore.DEInternal.Weighted>
3.6772

> <Gold.Chemscore.Rot.Weighted>
4.5980

> <Gold.Chemscore.Internal.Correction.Weighted>
   9.000000E+99

> <Gold.Protein.RotatedTorsions>
[ 6907 6896 6895 6894 ] final  107.93 input  -60.11 | X-H torsion
[ 7974 7965 7964 7962 ] final    9.79 input  175.53 | X-H torsion
[ 8008 7997 7996 7995 ] final  149.03 input   59.86 | X-H torsion
[ 10167 10162 10161 10158 ] final   57.97 input  -65.29 | X-H torsion
[ 10718 10713 10712 10709 ] final   94.19 input   66.30 | X-H torsion
[ 10763 10752 10751 10750 ] final -172.01 input  -60.55 | X-H torsion
[ 11005 11000 10999 10996 ] final  -73.22 input  -57.11 | X-H torsion

> <Gold.Protein.ActiveResidues>
 VAL166  LYS551  ARG553  GLY616  TRP617  ASP618  TYR619  PRO620  LYS621  CYS622 
 ASP623  PHE694  ASN695  SER759  ASP760  ASP761  ALA762  ILE779  LEU786  VAL792 
 PHE793  MET794  SER795  GLU796  ALA797  LYS798  CYS799  TRP800  GLU811  SER814 

> <Gold.Protein.RotatedAtoms>
  152.5134  133.9163  159.7512 H   0  0  0  0  0  0  0  0  0  0  0  0  # atno 6907 bound_to 6896
  150.9545  133.6504  159.2772 H   0  0  0  0  0  0  0  0  0  0  0  0  # atno 6908 bound_to 6896
  151.3771  135.0938  159.9537 H   0  0  0  0  0  0  0  0  0  0  0  0  # atno 6909 bound_to 6896
  146.2398  139.9731  142.8444 H   0  0  0  0  0  0  0  0  0  0  0  0  # atno 7974 bound_to 7965
  156.2770  140.2113  156.5792 H   0  0  0  0  0  0  0  0  0  0  0  0  # atno 8008 bound_to 7997
  154.7072  140.0515  157.0538 H   0  0  0  0  0  0  0  0  0  0  0  0  # atno 8009 bound_to 7997
  155.0654  140.3171  155.4650 H   0  0  0  0  0  0  0  0  0  0  0  0  # atno 8010 bound_to 7997
  140.1922  144.4074  150.6566 H   0  0  0  0  0  0  0  0  0  0  0  0  # atno 10167 bound_to 10162
  157.6950  131.0504  150.4148 H   0  0  0  0  0  0  0  0  0  0  0  0  # atno 10718 bound_to 10713
  154.6241  135.2879  155.0292 H   0  0  0  0  0  0  0  0  0  0  0  0  # atno 10763 bound_to 10752
  154.1476  135.6508  153.4960 H   0  0  0  0  0  0  0  0  0  0  0  0  # atno 10764 bound_to 10752
  153.0249  135.5348  154.7043 H   0  0  0  0  0  0  0  0  0  0  0  0  # atno 10765 bound_to 10752
  141.1620  133.6871  156.7179 H   0  0  0  0  0  0  0  0  0  0  0  0  # atno 11005 bound_to 11000
  145.1662  140.9698  143.4348 LP  0  0  0  0  0  0  0  0  0  0  0  0  # atno 17320 bound_to 7965
  145.0070  139.3545  143.6139 LP  0  0  0  0  0  0  0  0  0  0  0  0  # atno 17321 bound_to 7965
  140.6448  143.2211  151.6211 LP  0  0  0  0  0  0  0  0  0  0  0  0  # atno 17342 bound_to 10162
  139.5251  144.3084  152.1014 LP  0  0  0  0  0  0  0  0  0  0  0  0  # atno 17343 bound_to 10162
  156.4529  130.4015  149.6625 LP  0  0  0  0  0  0  0  0  0  0  0  0  # atno 17370 bound_to 10713
  156.3767  130.7558  151.2547 LP  0  0  0  0  0  0  0  0  0  0  0  0  # atno 17371 bound_to 10713
  140.2838  134.8295  157.3957 LP  0  0  0  0  0  0  0  0  0  0  0  0  # atno 17394 bound_to 11000
  140.1409  134.4973  155.8032 LP  0  0  0  0  0  0  0  0  0  0  0  0  # atno 17395 bound_to 11000

$$$$
