#       Name:                AV-unprocessed.smi:1959
#       Creating user name   scv26
#       Creation time:       Fri Mar 27 10:08:05 2020


#       File generated by GOLD software.
#

@<TRIPOS>MOLECULE
AV-unprocessed.smi:1959
    50    51     1
SMALL
NO_CHARGES


@<TRIPOS>ATOM
      1 ****        -3.5575   4.1405   0.7633 C.3            1 S1                 0.0000
      2 ****        -3.1028   3.1329  -0.2508 C.2            1 S1                 0.0000
      3 ****        -3.0057   3.2854  -1.6623 C.2            1 S1                 0.0000
      4 ****        -2.5377   2.0789  -2.1006 C.2            1 S1                 0.0000
      5 ****        -2.2235   1.6116  -3.4836 C.3            1 S1                 0.0000
      6 ****        -2.3807   1.2794  -0.9826 N.pl3          1 S1                 0.0000
      7 ****        -1.9062  -0.0940  -0.8966 C.3            1 S1                 0.0000
      8 ****        -0.3769  -0.1873  -0.8408 C.2            1 S1                 0.0000
      9 ****         0.3052   0.7702  -0.4731 O.2            1 S1                 0.0000
     10 ****         0.1504  -1.3707  -1.1927 N.am           1 S1                 0.0000
     11 ****         1.5746  -1.7068  -1.2119 C.3            1 S1                 0.0000
     12 ****         1.8545  -2.6356  -2.4008 C.3            1 S1                 0.0000
     13 ****         2.0134  -2.3535   0.1221 C.3            1 S1                 0.0000
     14 ****         1.7738  -1.4790   1.2981 N.4            1 S1                 1.0000
     15 ****         1.5887  -2.2357   2.5582 C.3            1 S1                 0.0000
     16 ****         1.2691  -1.2732   3.7148 C.3            1 S1                 0.0000
     17 ****         2.3074  -0.3085   3.8356 O.3            1 S1                 0.0000
     18 ****         2.4420   0.4803   2.6592 C.3            1 S1                 0.0000
     19 ****         2.8041  -0.4263   1.4712 C.3            1 S1                 0.0000
     20 ****        -2.7290   1.9286   0.1500 N.2            1 S1                 0.0000
     21 ****        -3.8822   5.0638   0.2833 H              1 S1                 0.0000
     22 ****        -2.7526   4.3915   1.4543 H              1 S1                 0.0000
     23 ****        -4.3945   3.7594   1.3488 H              1 S1                 0.0000
     24 ****        -3.2424   4.1513  -2.2628 H              1 S1                 0.0000
     25 ****        -2.3560   2.4167  -4.2064 H              1 S1                 0.0000
     26 ****        -2.8781   0.7896  -3.7737 H              1 S1                 0.0000
     27 ****        -1.1917   1.2667  -3.5527 H              1 S1                 0.0000
     28 ****        -2.3266  -0.5643  -0.0063 H              1 S1                 0.0000
     29 ****        -2.2837  -0.6493  -1.7560 H              1 S1                 0.0000
     30 ****        -0.4879  -2.0983  -1.4816 H              1 S1                 0.0000
     31 ****         2.1566  -0.7993  -1.3793 H              1 S1                 0.0000
     32 ****         2.9157  -2.8772  -2.4677 H              1 S1                 0.0000
     33 ****         1.5654  -2.1667  -3.3421 H              1 S1                 0.0000
     34 ****         1.3051  -3.5736  -2.3130 H              1 S1                 0.0000
     35 ****         1.4515  -3.2805   0.2478 H              1 S1                 0.0000
     36 ****         3.0656  -2.6407   0.0868 H              1 S1                 0.0000
     37 ****         0.7745  -2.9524   2.4449 H              1 S1                 0.0000
     38 ****         2.4921  -2.8058   2.7809 H              1 S1                 0.0000
     39 ****         0.3110  -0.7758   3.5543 H              1 S1                 0.0000
     40 ****         1.1883  -1.8249   4.6514 H              1 S1                 0.0000
     41 ****         1.5181   1.0277   2.4644 H              1 S1                 0.0000
     42 ****         3.2247   1.2221   2.8181 H              1 S1                 0.0000
     43 ****         3.7784  -0.8882   1.6385 H              1 S1                 0.0000
     44 ****         2.8876   0.1760   0.5670 H              1 S1                 0.0000
     45 ****         0.8984  -1.0051   1.1242 H              1 S1                 0.0000
     46 ****        -0.1375   1.6258  -0.2049 LP             1 S1                 0.0000
     47 ****         1.3017   0.6919  -0.4427 LP             1 S1                 0.0000
     48 ****         3.1708  -0.7832   4.0065 LP             1 S1                 0.0000
     49 ****         2.1001   0.2940   4.6063 LP             1 S1                 0.0000
     50 ****        -2.7087   1.5763   1.0857 LP             1 S1                 0.0000
@<TRIPOS>BOND
    1    1    2 1     
    2    1   21 1     
    3    1   22 1     
    4    1   23 1     
    5    2   20 2     
    6    2    3 1     
    7    3    4 2     
    8    3   24 1     
    9    4    5 1     
   10    4    6 1     
   11    5   25 1     
   12    5   26 1     
   13    5   27 1     
   14    6    7 1     
   15    6   20 1     
   16    7    8 1     
   17    7   28 1     
   18    7   29 1     
   19    8    9 2     
   20    8   10 am    
   21   10   11 1     
   22   10   30 1     
   23   11   12 1     
   24   11   13 1     
   25   11   31 1     
   26   12   32 1     
   27   12   33 1     
   28   12   34 1     
   29   13   14 1     
   30   13   35 1     
   31   13   36 1     
   32   14   19 1     
   33   14   15 1     
   34   14   45 1     
   35   15   16 1     
   36   15   37 1     
   37   15   38 1     
   38   16   17 1     
   39   16   39 1     
   40   16   40 1     
   41   17   18 1     
   42   18   19 1     
   43   18   41 1     
   44   18   42 1     
   45   19   43 1     
   46   19   44 1     
   47    9   46 1     
   48    9   47 1     
   49   17   48 1     
   50   17   49 1     
   51   20   50 1     
@<TRIPOS>SUBSTRUCTURE
      1 S1             1
@<TRIPOS>SET
LONE_PAIRS      STATIC     ATOMS    <user>   **** ""
5 46 47 48 49 50
DONOR_HYDROGENS      STATIC     ATOMS    <user>   **** ""
2 30 45
ATOM$BLUE        STATIC     ATOMS    COLORGROUP SYSTEM
5 46 47 48 49 50
ATOM$RED        STATIC     ATOMS    COLORGROUP SYSTEM
2 30 45
