#       Name:                AV-unprocessed.smi:2143
#       Creating user name   scv26
#       Creation time:       Fri Mar 27 11:49:47 2020


#       File generated by GOLD software.
#

@<TRIPOS>MOLECULE
AV-unprocessed.smi:2143
    50    51     1
SMALL
NO_CHARGES


@<TRIPOS>ATOM
      1 ****        -2.4661  -1.3308   3.9385 C.3            1 S1                 0.0000
      2 ****        -2.1141  -1.4541   2.4450 C.3            1 S1                 0.0000
      3 ****        -3.0013  -2.5320   1.7884 C.3            1 S1                 0.0000
      4 ****        -2.6871  -2.7110   0.2973 C.3            1 S1                 0.0000
      5 ****        -2.8247  -1.3802  -0.4552 C.3            1 S1                 0.0000
      6 ****        -1.9456  -0.2775   0.1672 C.3            1 S1                 0.0000
      7 ****        -0.5275  -0.5463  -0.0753 N.am           1 S1                 0.0000
      8 ****         0.1612  -0.1846  -1.1678 C.2            1 S1                 0.0000
      9 ****        -0.3439   0.4073  -2.1223 O.2            1 S1                 0.0000
     10 ****         1.6440  -0.5764  -1.1893 C.3            1 S1                 0.0000
     11 ****         2.4790   0.4098  -1.8860 N.am           1 S1                 0.0000
     12 ****         2.8420   0.1953  -3.2030 C.2            1 S1                 0.0000
     13 ****         3.5920   1.0611  -3.9192 C.2            1 S1                 0.0000
     14 ****         4.0758   2.3019  -3.3260 C.2            1 S1                 0.0000
     15 ****         4.7483   3.1243  -3.9489 O.2            1 S1                 0.0000
     16 ****         3.6996   2.4908  -1.9740 N.am           1 S1                 0.0000
     17 ****         4.1175   3.6988  -1.2934 C.3            1 S1                 0.0000
     18 ****         2.9027   1.5883  -1.2355 C.2            1 S1                 0.0000
     19 ****         2.5778   1.8135  -0.0666 O.2            1 S1                 0.0000
     20 ****        -2.2322  -0.1049   1.6816 C.3            1 S1                 0.0000
     21 ****        -1.3605   1.0131   2.2898 C.3            1 S1                 0.0000
     22 ****        -3.4688  -0.9254   4.0779 H              1 S1                 0.0000
     23 ****        -1.7656  -0.6855   4.4679 H              1 S1                 0.0000
     24 ****        -2.4319  -2.3037   4.4293 H              1 S1                 0.0000
     25 ****        -1.0793  -1.7936   2.3832 H              1 S1                 0.0000
     26 ****        -2.8704  -3.4855   2.3012 H              1 S1                 0.0000
     27 ****        -4.0522  -2.2638   1.9051 H              1 S1                 0.0000
     28 ****        -1.6767  -3.1040   0.1781 H              1 S1                 0.0000
     29 ****        -3.3585  -3.4524  -0.1370 H              1 S1                 0.0000
     30 ****        -2.5765  -1.5178  -1.5083 H              1 S1                 0.0000
     31 ****        -3.8678  -1.0626  -0.4309 H              1 S1                 0.0000
     32 ****        -2.2004   0.6654  -0.3207 H              1 S1                 0.0000
     33 ****        -0.0302  -1.0351   0.6547 H              1 S1                 0.0000
     34 ****         2.0085  -0.7225  -0.1706 H              1 S1                 0.0000
     35 ****         1.7311  -1.5493  -1.6751 H              1 S1                 0.0000
     36 ****         2.5040  -0.7081  -3.6897 H              1 S1                 0.0000
     37 ****         3.8352   0.8340  -4.9469 H              1 S1                 0.0000
     38 ****         4.4963   3.4192  -0.3085 H              1 S1                 0.0000
     39 ****         3.2380   4.3396  -1.2155 H              1 S1                 0.0000
     40 ****         4.9158   4.1987  -1.8417 H              1 S1                 0.0000
     41 ****        -3.2686   0.2260   1.7679 H              1 S1                 0.0000
     42 ****        -0.3148   0.7136   2.3663 H              1 S1                 0.0000
     43 ****        -1.7007   1.2903   3.2873 H              1 S1                 0.0000
     44 ****        -1.4024   1.9159   1.6796 H              1 S1                 0.0000
     45 ****        -1.3158   0.6423  -2.1074 LP             1 S1                 0.0000
     46 ****         0.2178   0.6530  -2.9123 LP             1 S1                 0.0000
     47 ****         4.9853   2.9547  -4.9055 LP             1 S1                 0.0000
     48 ****         5.0573   3.9617  -3.4981 LP             1 S1                 0.0000
     49 ****         2.0086   1.1577   0.4294 LP             1 S1                 0.0000
     50 ****         2.8836   2.6518   0.3847 LP             1 S1                 0.0000
@<TRIPOS>BOND
    1    1    2 1     
    2    1   22 1     
    3    1   23 1     
    4    1   24 1     
    5    2   20 1     
    6    2    3 1     
    7    2   25 1     
    8    3    4 1     
    9    3   26 1     
   10    3   27 1     
   11    4    5 1     
   12    4   28 1     
   13    4   29 1     
   14    5    6 1     
   15    5   30 1     
   16    5   31 1     
   17    6    7 1     
   18    6   20 1     
   19    6   32 1     
   20    7    8 am    
   21    7   33 1     
   22    8    9 2     
   23    8   10 1     
   24   10   11 1     
   25   10   34 1     
   26   10   35 1     
   27   11   18 am    
   28   11   12 1     
   29   12   13 2     
   30   12   36 1     
   31   13   14 1     
   32   13   37 1     
   33   14   15 2     
   34   14   16 am    
   35   16   17 1     
   36   16   18 am    
   37   17   38 1     
   38   17   39 1     
   39   17   40 1     
   40   18   19 2     
   41   20   21 1     
   42   20   41 1     
   43   21   42 1     
   44   21   43 1     
   45   21   44 1     
   46    9   45 1     
   47    9   46 1     
   48   15   47 1     
   49   15   48 1     
   50   19   49 1     
   51   19   50 1     
@<TRIPOS>SUBSTRUCTURE
      1 S1             1
@<TRIPOS>SET
LONE_PAIRS      STATIC     ATOMS    <user>   **** ""
6 45 46 47 48 49 50
DONOR_HYDROGENS      STATIC     ATOMS    <user>   **** ""
1 33
ATOM$BLUE        STATIC     ATOMS    COLORGROUP SYSTEM
6 45 46 47 48 49 50
ATOM$RED        STATIC     ATOMS    COLORGROUP SYSTEM
1 33
