#       Name:                AV-unprocessed.smi:746
#       Creating user name   scv26
#       Creation time:       Fri Mar 27 00:57:09 2020


#       File generated by GOLD software.
#

@<TRIPOS>MOLECULE
AV-unprocessed.smi:746
    55    57     1
SMALL
NO_CHARGES


@<TRIPOS>ATOM
      1 ****        -3.0084   8.6231  -1.4666 C.3            1 S1                 0.0000
      2 ****        -2.7547   7.2292  -1.4766 O.3            1 S1                 0.0000
      3 ****        -3.0617   6.6134  -0.2369 C.3            1 S1                 0.0000
      4 ****        -2.7544   5.1159  -0.3261 C.3            1 S1                 0.0000
      5 ****        -1.3419   4.9325  -0.2930 O.3            1 S1                 0.0000
      6 ****        -0.8447   3.6455  -0.3111 C.ar           1 S1                 0.0000
      7 ****         0.5515   3.4620  -0.2668 C.ar           1 S1                 0.0000
      8 ****         1.0635   2.1510  -0.2709 C.ar           1 S1                 0.0000
      9 ****         0.1679   1.0637  -0.3089 C.ar           1 S1                 0.0000
     10 ****         0.7098  -0.2493  -0.3228 N.am           1 S1                 0.0000
     11 ****         0.1349  -1.4013   0.0801 C.2            1 S1                 0.0000
     12 ****        -0.9883  -1.4423   0.5850 O.2            1 S1                 0.0000
     13 ****         0.9269  -2.5037  -0.0433 N.am           1 S1                 0.0000
     14 ****         2.2504  -2.4778  -0.7133 C.3            1 S1                 0.0000
     15 ****         2.6485  -3.8035  -1.3731 C.3            1 S1                 0.0000
     16 ****         2.5373  -4.9547  -0.3844 C.3            1 S1                 0.0000
     17 ****         1.0829  -5.0836   0.0731 C.3            1 S1                 0.0000
     18 ****         0.9271  -6.0845   1.2340 C.3            1 S1                 0.0000
     19 ****         0.6463  -5.2612   2.5021 C.3            1 S1                 0.0000
     20 ****         0.8395  -3.7952   2.1102 C.3            1 S1                 0.0000
     21 ****         0.5032  -3.7641   0.6171 C.3            1 S1                 0.0000
     22 ****        -1.2170   1.3514  -0.3726 C.ar           1 S1                 0.0000
     23 ****        -1.7141   2.6066  -0.3705 N.ar           1 S1                 0.0000
     24 ****        -2.7593   9.0478  -2.4389 H              1 S1                 0.0000
     25 ****        -2.4019   9.1283  -0.7138 H              1 S1                 0.0000
     26 ****        -4.0602   8.8321  -1.2671 H              1 S1                 0.0000
     27 ****        -2.4983   7.0703   0.5783 H              1 S1                 0.0000
     28 ****        -4.1219   6.7536  -0.0209 H              1 S1                 0.0000
     29 ****        -3.2071   4.6107   0.5286 H              1 S1                 0.0000
     30 ****        -3.1872   4.6932  -1.2345 H              1 S1                 0.0000
     31 ****         1.2173   4.3115  -0.2274 H              1 S1                 0.0000
     32 ****         2.1305   1.9858  -0.2362 H              1 S1                 0.0000
     33 ****         1.6744  -0.3183  -0.6126 H              1 S1                 0.0000
     34 ****         2.3013  -1.7201  -1.4965 H              1 S1                 0.0000
     35 ****         2.9975  -2.2030   0.0326 H              1 S1                 0.0000
     36 ****         2.0120  -3.9944  -2.2381 H              1 S1                 0.0000
     37 ****         3.6698  -3.7351  -1.7489 H              1 S1                 0.0000
     38 ****         2.8691  -5.8836  -0.8491 H              1 S1                 0.0000
     39 ****         3.1948  -4.7748   0.4670 H              1 S1                 0.0000
     40 ****         0.4885  -5.4133  -0.7805 H              1 S1                 0.0000
     41 ****         0.0972  -6.7660   1.0431 H              1 S1                 0.0000
     42 ****         1.8191  -6.7007   1.3554 H              1 S1                 0.0000
     43 ****        -0.3848  -5.4220   2.8195 H              1 S1                 0.0000
     44 ****         1.2917  -5.5479   3.3327 H              1 S1                 0.0000
     45 ****         0.2124  -3.1244   2.6984 H              1 S1                 0.0000
     46 ****         1.8788  -3.5033   2.2681 H              1 S1                 0.0000
     47 ****        -0.5801  -3.8704   0.5230 H              1 S1                 0.0000
     48 ****        -1.9589   0.5716  -0.4462 H              1 S1                 0.0000
     49 ****        -1.7864   7.0807  -1.6775 LP             1 S1                 0.0000
     50 ****        -3.3120   6.8067  -2.1914 LP             1 S1                 0.0000
     51 ****        -1.0073   5.3665   0.5435 LP             1 S1                 0.0000
     52 ****        -0.9639   5.4062  -1.0885 LP             1 S1                 0.0000
     53 ****        -1.5114  -0.5992   0.7100 LP             1 S1                 0.0000
     54 ****        -1.3768  -2.3187   0.8698 LP             1 S1                 0.0000
     55 ****        -2.7004   2.7664  -0.4118 LP             1 S1                 0.0000
@<TRIPOS>BOND
    1    1    2 1     
    2    1   24 1     
    3    1   25 1     
    4    1   26 1     
    5    2    3 1     
    6    3    4 1     
    7    3   27 1     
    8    3   28 1     
    9    4    5 1     
   10    4   29 1     
   11    4   30 1     
   12    5    6 1     
   13    6   23 ar    
   14    6    7 ar    
   15    7    8 ar    
   16    7   31 1     
   17    8    9 ar    
   18    8   32 1     
   19    9   10 1     
   20    9   22 ar    
   21   10   11 am    
   22   10   33 1     
   23   11   12 2     
   24   11   13 am    
   25   13   21 1     
   26   13   14 1     
   27   14   15 1     
   28   14   34 1     
   29   14   35 1     
   30   15   16 1     
   31   15   36 1     
   32   15   37 1     
   33   16   17 1     
   34   16   38 1     
   35   16   39 1     
   36   17   21 1     
   37   17   18 1     
   38   17   40 1     
   39   18   19 1     
   40   18   41 1     
   41   18   42 1     
   42   19   20 1     
   43   19   43 1     
   44   19   44 1     
   45   20   21 1     
   46   20   45 1     
   47   20   46 1     
   48   21   47 1     
   49   22   23 ar    
   50   22   48 1     
   51    2   49 1     
   52    2   50 1     
   53    5   51 1     
   54    5   52 1     
   55   12   53 1     
   56   12   54 1     
   57   23   55 1     
@<TRIPOS>SUBSTRUCTURE
      1 S1             1
@<TRIPOS>SET
LONE_PAIRS      STATIC     ATOMS    <user>   **** ""
7 49 50 51 52 53 54 55
DONOR_HYDROGENS      STATIC     ATOMS    <user>   **** ""
1 33
ATOM$BLUE        STATIC     ATOMS    COLORGROUP SYSTEM
7 49 50 51 52 53 54 55
ATOM$RED        STATIC     ATOMS    COLORGROUP SYSTEM
1 33
