AV-unprocessed.smi:287|AV-procd|sdf|2183|dock10
  -GOLD-   2262021563D 1   1.00000     0.00000
 Structure written by MMmdl.
 55 58  0  0  0  0  0  0  0  0  1 V2000
  154.0181  138.5784  154.4424 C   0  0  0  0  0  0  0  0  0  0  0  0
  152.5905  138.9922  154.5507 C   0  0  0  0  0  0  0  0  0  0  0  0
  151.4174  138.4641  154.0970 C   0  0  0  0  0  0  0  0  0  0  0  0
  150.3669  139.3343  154.5164 C   0  0  0  0  0  0  0  0  0  0  0  0
  148.8810  139.1490  154.2394 C   0  0  1  0  0  0  0  0  0  0  0  0
  148.1583  140.5004  154.3607 C   0  0  0  0  0  0  0  0  0  0  0  0
  148.6220  138.7002  152.9230 O   0  0  0  0  0  0  0  0  0  0  0  0
  148.2264  138.1091  155.1781 C   0  0  0  0  0  0  0  0  0  0  0  0
  146.9210  137.6636  154.7072 N   0  0  0  0  0  0  0  0  0  0  0  0
  146.6649  136.3544  154.5063 C   0  0  0  0  0  0  0  0  0  0  0  0
  147.1661  135.5124  155.4415 N   0  0  0  0  0  0  0  0  0  0  0  0
  146.9678  134.1955  155.3365 C   0  0  0  0  0  0  0  0  0  0  0  0
  146.3090  133.5241  154.3905 N   0  0  0  0  0  0  0  0  0  0  0  0
  145.8031  134.3659  153.4434 C   0  0  0  0  0  0  0  0  0  0  0  0
  145.9334  135.7839  153.4223 C   0  0  0  0  0  0  0  0  0  0  0  0
  145.2888  136.2842  152.2954 N   0  0  0  0  0  0  0  0  0  0  0  0
  144.8125  135.2268  151.6962 C   0  0  0  0  0  0  0  0  0  0  0  0
  145.0804  134.0285  152.3207 N   0  0  0  0  0  0  0  0  0  0  0  0
  144.6913  132.6407  151.9139 C   0  0  1  0  0  0  0  0  0  0  0  0
  143.7500  132.7515  150.8877 O   0  0  0  0  0  0  0  0  0  0  0  0
  144.2020  132.0927  149.7045 C   0  0  1  0  0  0  0  0  0  0  0  0
  143.6803  132.8017  148.4422 C   0  0  0  0  0  0  0  0  0  0  0  0
  142.3730  132.3598  148.1452 O   0  0  0  0  0  0  0  0  0  0  0  0
  145.7292  132.0304  149.8483 C   0  0  1  0  0  0  0  0  0  0  0  0
  146.3432  133.2177  149.3750 O   0  0  0  0  0  0  0  0  0  0  0  0
  145.8870  131.8495  151.3514 C   0  0  1  0  0  0  0  0  0  0  0  0
  147.1652  132.2370  151.8274 O   0  0  0  0  0  0  0  0  0  0  0  0
  150.9984  140.3294  155.2233 C   0  0  0  0  0  0  0  0  0  0  0  0
  150.5253  141.5413  155.9558 C   0  0  0  0  0  0  0  0  0  0  0  0
  152.3464  140.1330  155.2428 O   0  0  0  0  0  0  0  0  0  0  0  0
  144.2535  132.2008  152.8106 H   0  0  0  0  0  0  0  0  0  0  0  0
  143.8288  131.0673  149.7354 H   0  0  0  0  0  0  0  0  0  0  0  0
  146.1518  131.1899  149.2968 H   0  0  0  0  0  0  0  0  0  0  0  0
  145.7234  130.8007  151.6019 H   0  0  0  0  0  0  0  0  0  0  0  0
  154.1316  137.7539  153.7383 H   0  0  0  0  0  0  0  0  0  0  0  0
  154.3998  138.2526  155.4100 H   0  0  0  0  0  0  0  0  0  0  0  0
  154.6365  139.4061  154.0947 H   0  0  0  0  0  0  0  0  0  0  0  0
  151.3222  137.5562  153.5198 H   0  0  0  0  0  0  0  0  0  0  0  0
  148.2675  140.9185  155.3621 H   0  0  0  0  0  0  0  0  0  0  0  0
  147.0903  140.4026  154.1619 H   0  0  0  0  0  0  0  0  0  0  0  0
  148.5607  141.2293  153.6558 H   0  0  0  0  0  0  0  0  0  0  0  0
  148.6545  139.4444  152.3415 H   0  0  0  0  0  0  0  0  0  0  0  0
  148.8710  137.2302  155.2232 H   0  0  0  0  0  0  0  0  0  0  0  0
  148.1502  138.4989  156.1941 H   0  0  0  0  0  0  0  0  0  0  0  0
  146.2734  138.3984  154.4605 H   0  0  0  0  0  0  0  0  0  0  0  0
  147.3998  133.5943  156.1229 H   0  0  0  0  0  0  0  0  0  0  0  0
  144.2515  135.2955  150.7757 H   0  0  0  0  0  0  0  0  0  0  0  0
  143.6954  133.8858  148.5587 H   0  0  0  0  0  0  0  0  0  0  0  0
  144.3091  132.5567  147.5855 H   0  0  0  0  0  0  0  0  0  0  0  0
  141.7692  133.0623  148.3319 H   0  0  0  0  0  0  0  0  0  0  0  0
  145.6996  133.7091  148.8869 H   0  0  0  0  0  0  0  0  0  0  0  0
  147.8053  132.0376  151.1608 H   0  0  0  0  0  0  0  0  0  0  0  0
  149.7100  141.2894  156.6341 H   0  0  0  0  0  0  0  0  0  0  0  0
  150.1654  142.2979  155.2585 H   0  0  0  0  0  0  0  0  0  0  0  0
  151.3274  141.9832  156.5474 H   0  0  0  0  0  0  0  0  0  0  0  0
  1  2  1  0  0  0  0
  1 35  1  0  0  0  0
  1 36  1  0  0  0  0
  1 37  1  0  0  0  0
  2 30  1  0  0  0  0
  2  3  2  0  0  0  0
  3  4  1  0  0  0  0
  3 38  1  0  0  0  0
  4  5  1  0  0  0  0
  4 28  2  0  0  0  0
  5  6  1  0  0  0  0
  5  7  1  0  0  0  0
  5  8  1  0  0  0  0
  6 39  1  0  0  0  0
  6 40  1  0  0  0  0
  6 41  1  0  0  0  0
  7 42  1  0  0  0  0
  8  9  1  0  0  0  0
  8 43  1  0  0  0  0
  8 44  1  0  0  0  0
  9 10  1  0  0  0  0
  9 45  1  0  0  0  0
 10 15  1  0  0  0  0
 10 11  2  0  0  0  0
 11 12  1  0  0  0  0
 12 13  2  0  0  0  0
 12 46  1  0  0  0  0
 13 14  1  0  0  0  0
 14 18  1  0  0  0  0
 14 15  2  0  0  0  0
 15 16  1  0  0  0  0
 16 17  2  0  0  0  0
 17 18  1  0  0  0  0
 17 47  1  0  0  0  0
 18 19  1  0  0  0  0
 19 31  1  0  0  0  0
 19 26  1  0  0  0  0
 19 20  1  0  0  0  0
 20 21  1  0  0  0  0
 21 32  1  0  0  0  0
 21 22  1  0  0  0  0
 21 24  1  0  0  0  0
 22 23  1  0  0  0  0
 22 48  1  0  0  0  0
 22 49  1  0  0  0  0
 23 50  1  0  0  0  0
 24 33  1  0  0  0  0
 24 25  1  0  0  0  0
 24 26  1  0  0  0  0
 25 51  1  0  0  0  0
 26 34  1  0  0  0  0
 26 27  1  0  0  0  0
 27 52  1  0  0  0  0
 28 29  1  0  0  0  0
 28 30  1  0  0  0  0
 29 53  1  0  0  0  0
 29 54  1  0  0  0  0
 29 55  1  0  0  0  0
M  END
> <s_m_source_file>
AV-unprocessed.smi

> <i_m_source_file_index>
287

> <i_lp_mmshare_version>
43012

> <i_f3d_flags>
0

> <s_epik_input>
W0NIM11jMVtjSF1jKGMobzEpW0NIM10pW0NAQF0oW0NIM10pKFtPSF0pW0NIMl1bTkhdYyhuW2NIXW4yKWMoYzIzKW5bY0hdbjNbQ0BASF00T1tDQEhdKFtDSDJdW09IXSlbQ0BASF0oW09IXSlbQ0BIXTRbT0hd

> <s_epik_cmdline>
J2VwaWtfcHl0aG9uJywgJy1waCcsICc3LjAnLCAnLXRuJywgJzgnLCAnLW1hJywgJzIwMCcsICctbWV0YWxfYmluZGluZycsICctaW1hZScsICc8aW5maWxlLm1hZT4nLCAnLW9tYWUnLCAnPG91dGZpbGUubWFlPic=

> <r_lp_tautomer_probability>
1

> <r_epik_Ionization_Penalty>
0.000992612

> <r_epik_Ionization_Penalty_Charging>
0

> <r_epik_Ionization_Penalty_Neutral>
0.000992612

> <r_epik_State_Penalty>
-0

> <r_epik_Charging_Adjusted_Penalty>
0

> <i_epik_Tot_Q>
0

> <i_epik_Tot_abs_Q>
0

> <r_epik_Metal_State_Penalty>
-0

> <b_epik_Metal_Only>
0

> <s_epik_Chemistry_Notes>
This compound contains an acetal/aminal-like group ( X-CH(R)-Y where X, Y are N, S, or O) that may be acid/base labile, releasing an aldehyde.

> <s_lp_Force_Field>
OPLS_2005

> <r_lp_Energy>
47.3874

> <b_lp_Chiralities_Consistent>
1

> <s_lp_Variant>
AV-unprocessed.smi:287-7

> <Gold.Version>
5.8.1

> <Gold.Id.Protein>
6NUR|6NUR_protein|mol2

> <Gold.PLP.Fitness>
59.2446

> <Gold.PLP.PLP>
-48.9647

> <Gold.PLP.part.hbond>
-10.2088

> <Gold.PLP.part.metal>
0.0000

> <Gold.PLP.part.buried>
1.0387

> <Gold.PLP.part.nonpolar>
-40.3116

> <Gold.PLP.part.repulsive>
0.4768

> <Gold.PLP.ligand.clash>
0.0039

> <Gold.PLP.ligand.torsion>
1.9162

> <Gold.PLP.Chemscore.Hbond>
4.4588

> <Gold.PLP.Chemscore.CHOScore>
0.0000

> <Gold.PLP.Chemscore.Metal>
0.0000

> <Gold.Chemscore.Hbonds>
donor molecule, donor type, donor heavy atom, donor atom, acceptor molecule, acceptor atom, score
      L1  H     7    42       P1  7957  0.78
      L1  H    23    50       P1 10186  1.00
      L1  H    25    51       P1  7921  0.41
      L1  H    27    52       P1 10747  1.00
      P1  H  7997  8009       L1    30  0.36

> <Gold.PLP.Chemscore.Internal.Correction>
0.7398

> <Gold.Rescore>
     Score         DG    S(hbond)    S(metal)    S(lipo)     H(rot)  DE(clash)    DE(int)     intcor
     11.92     -18.34       3.96        0.00     112.02       5.27       3.22       3.20       ----

> <Gold.Chemscore.Fitness>
11.9151

> <Gold.Chemscore.DG>
-18.3410

> <Gold.Chemscore.ZeroCoef>
-5.4800

> <Gold.Chemscore.Hbond>
3.9636

> <Gold.Chemscore.Metal>
0.0000

> <Gold.Chemscore.Lipo>
112.0222

> <Gold.Chemscore.Internal_Hbond>
0.0000

> <Gold.Chemscore.DEClash>
3.2216

> <Gold.Chemscore.DEInternal>
3.2043

> <Gold.Chemscore.Rot>
5.2672

> <Gold.Chemscore.Internal.Correction>
   9.000000E+99

> <Gold.Chemscore.Hbonds>
donor molecule, donor type, donor heavy atom, donor atom, acceptor molecule, acceptor atom, score
      L1  H     7    42       P1  7957  0.77
      L1  H    23    50       P1 10186  0.96
      L1  H    25    51       P1  7921  0.09
      L1  H    27    52       P1 10747  0.97
      P1  H  7997  8009       L1    30  0.04

> <Gold.Chemscore.Hbond.Weighted>
-13.2384

> <Gold.Chemscore.Metal.Weighted>
-0.0000

> <Gold.Chemscore.Lipo.Weighted>
-13.1066

> <Gold.Chemscore.Internal_Hbond.Weighted>
0.0000

> <Gold.Chemscore.DEClash.Weighted>
3.2216

> <Gold.Chemscore.DEInternal.Weighted>
3.2043

> <Gold.Chemscore.Rot.Weighted>
13.4839

> <Gold.Chemscore.Internal.Correction.Weighted>
   9.000000E+99

> <Gold.Protein.RotatedTorsions>
[ 6907 6896 6895 6894 ] final -122.19 input  -60.11 | X-H torsion
[ 7974 7965 7964 7962 ] final   48.83 input  175.53 | X-H torsion
[ 8008 7997 7996 7995 ] final -157.30 input   59.86 | X-H torsion
[ 10167 10162 10161 10158 ] final  -16.42 input  -65.29 | X-H torsion
[ 10718 10713 10712 10709 ] final    3.79 input   66.30 | X-H torsion
[ 10763 10752 10751 10750 ] final -149.05 input  -60.55 | X-H torsion
[ 11005 11000 10999 10996 ] final   22.89 input  -57.11 | X-H torsion

> <Gold.Protein.ActiveResidues>
 VAL166  LYS551  ARG553  GLY616  TRP617  ASP618  TYR619  PRO620  LYS621  CYS622 
 ASP623  PHE694  ASN695  SER759  ASP760  ASP761  ALA762  ILE779  LEU786  VAL792 
 PHE793  MET794  SER795  GLU796  ALA797  LYS798  CYS799  TRP800  GLU811  SER814 

> <Gold.Protein.RotatedAtoms>
  150.8553  133.7725  159.3010 H   0  0  0  0  0  0  0  0  0  0  0  0  # atno 6907 bound_to 6896
  151.5384  135.1067  159.9930 H   0  0  0  0  0  0  0  0  0  0  0  0  # atno 6908 bound_to 6896
  152.4584  133.7728  159.6864 H   0  0  0  0  0  0  0  0  0  0  0  0  # atno 6909 bound_to 6896
  146.0167  139.4604  142.9923 H   0  0  0  0  0  0  0  0  0  0  0  0  # atno 7974 bound_to 7965
  155.7303  140.0801  157.2292 H   0  0  0  0  0  0  0  0  0  0  0  0  # atno 8008 bound_to 7997
  154.4034  140.1596  156.2555 H   0  0  0  0  0  0  0  0  0  0  0  0  # atno 8009 bound_to 7997
  155.9115  140.3403  155.6105 H   0  0  0  0  0  0  0  0  0  0  0  0  # atno 8010 bound_to 7997
  140.7233  143.5118  150.9741 H   0  0  0  0  0  0  0  0  0  0  0  0  # atno 10167 bound_to 10162
  156.8830  130.5660  149.5652 H   0  0  0  0  0  0  0  0  0  0  0  0  # atno 10718 bound_to 10713
  154.8199  135.3319  154.7069 H   0  0  0  0  0  0  0  0  0  0  0  0  # atno 10763 bound_to 10752
  153.7703  135.6926  153.4912 H   0  0  0  0  0  0  0  0  0  0  0  0  # atno 10764 bound_to 10752
  153.2049  135.4503  155.0259 H   0  0  0  0  0  0  0  0  0  0  0  0  # atno 10765 bound_to 10752
  140.3757  134.1975  155.7665 H   0  0  0  0  0  0  0  0  0  0  0  0  # atno 11005 bound_to 11000
  145.7258  141.0059  143.1378 LP  0  0  0  0  0  0  0  0  0  0  0  0  # atno 17320 bound_to 7965
  144.6973  139.8925  143.7454 LP  0  0  0  0  0  0  0  0  0  0  0  0  # atno 17321 bound_to 7965
  139.8832  143.7046  152.3154 LP  0  0  0  0  0  0  0  0  0  0  0  0  # atno 17342 bound_to 10162
  139.7336  144.7576  151.0763 LP  0  0  0  0  0  0  0  0  0  0  0  0  # atno 17343 bound_to 10162
  156.0667  130.5709  150.9303 LP  0  0  0  0  0  0  0  0  0  0  0  0  # atno 17370 bound_to 10713
  157.6129  131.0935  150.8763 LP  0  0  0  0  0  0  0  0  0  0  0  0  # atno 17371 bound_to 10713
  141.1940  133.8138  157.0775 LP  0  0  0  0  0  0  0  0  0  0  0  0  # atno 17394 bound_to 11000
  140.0517  134.9802  157.1149 LP  0  0  0  0  0  0  0  0  0  0  0  0  # atno 17395 bound_to 11000

$$$$
