#       Name:                AV-unprocessed.smi:414
#       Creating user name   scv26
#       Creation time:       Thu Mar 26 22:46:47 2020


#       File generated by GOLD software.
#

@<TRIPOS>MOLECULE
AV-unprocessed.smi:414
    44    45     1
SMALL
NO_CHARGES


@<TRIPOS>ATOM
      1 ****        -5.0572  -1.9832   0.0351 C.3            1 S1                 0.0000
      2 ****        -3.5232  -1.9245   0.0416 C.3            1 S1                 0.0000
      3 ****        -2.9881  -1.3183   1.3530 C.3            1 S1                 0.0000
      4 ****        -1.4522  -1.2572   1.3616 C.3            1 S1                 0.0000
      5 ****        -0.9145  -0.4714   0.1521 C.3            1 S1                 0.0000
      6 ****         0.5447  -0.4851   0.1699 N.am           1 S1                 0.0000
      7 ****         1.3378   0.4509  -0.3735 C.2            1 S1                 0.0000
      8 ****         0.9079   1.4307  -0.9833 O.2            1 S1                 0.0000
      9 ****         2.8484   0.2226  -0.2313 C.3            1 S1                 0.0000
     10 ****         3.5913   1.4709   0.0032 N.am           1 S1                 0.0000
     11 ****         4.2045   2.0869  -1.1022 C.2            1 S1                 0.0000
     12 ****         4.9018   3.2325  -0.9805 C.2            1 S1                 0.0000
     13 ****         5.0132   3.8356   0.3419 C.2            1 S1                 0.0000
     14 ****         5.6498   4.8793   0.4728 O.2            1 S1                 0.0000
     15 ****         4.3966   3.2023   1.3823 N.pl3          1 S1                -1.0000
     16 ****         3.6879   2.0391   1.2431 C.2            1 S1                 0.0000
     17 ****         3.1360   1.4857   2.1951 O.2            1 S1                 0.0000
     18 ****        -1.4484  -1.0691  -1.1651 C.3            1 S1                 0.0000
     19 ****        -2.9843  -1.1397  -1.1698 C.3            1 S1                 0.0000
     20 ****        -5.4924  -0.9860   0.1069 H              1 S1                 0.0000
     21 ****        -5.4314  -2.5712   0.8735 H              1 S1                 0.0000
     22 ****        -5.4285  -2.4435  -0.8809 H              1 S1                 0.0000
     23 ****        -3.1550  -2.9491  -0.0304 H              1 S1                 0.0000
     24 ****        -3.3912  -0.3136   1.4871 H              1 S1                 0.0000
     25 ****        -3.3342  -1.9051   2.2045 H              1 S1                 0.0000
     26 ****        -1.1093  -0.7964   2.2888 H              1 S1                 0.0000
     27 ****        -1.0504  -2.2716   1.3536 H              1 S1                 0.0000
     28 ****        -1.2625   0.5600   0.2386 H              1 S1                 0.0000
     29 ****         0.9872  -1.2556   0.6492 H              1 S1                 0.0000
     30 ****         3.0468  -0.4887   0.5729 H              1 S1                 0.0000
     31 ****         3.2025  -0.2669  -1.1395 H              1 S1                 0.0000
     32 ****         4.0683   1.5799  -2.0461 H              1 S1                 0.0000
     33 ****         5.3638   3.6952  -1.8400 H              1 S1                 0.0000
     34 ****        -1.1096  -0.4734  -2.0135 H              1 S1                 0.0000
     35 ****        -1.0403  -2.0705  -1.3093 H              1 S1                 0.0000
     36 ****        -3.3245  -1.6041  -2.0962 H              1 S1                 0.0000
     37 ****        -3.3924  -0.1280  -1.1645 H              1 S1                 0.0000
     38 ****        -0.0778   1.5584  -1.0930 LP             1 S1                 0.0000
     39 ****         1.5446   2.0986  -1.3688 LP             1 S1                 0.0000
     40 ****         6.0832   5.3037  -0.3223 LP             1 S1                 0.0000
     41 ****         5.7342   5.3038   1.3743 LP             1 S1                 0.0000
     42 ****         4.4662   3.6090   2.2932 LP             1 S1                 0.0000
     43 ****         2.6284   0.6358   2.0537 LP             1 S1                 0.0000
     44 ****         3.1956   1.8863   3.1094 LP             1 S1                 0.0000
@<TRIPOS>BOND
    1    1    2 1     
    2    1   20 1     
    3    1   21 1     
    4    1   22 1     
    5    2   19 1     
    6    2    3 1     
    7    2   23 1     
    8    3    4 1     
    9    3   24 1     
   10    3   25 1     
   11    4    5 1     
   12    4   26 1     
   13    4   27 1     
   14    5    6 1     
   15    5   18 1     
   16    5   28 1     
   17    6    7 am    
   18    6   29 1     
   19    7    8 2     
   20    7    9 1     
   21    9   10 1     
   22    9   30 1     
   23    9   31 1     
   24   10   16 am    
   25   10   11 1     
   26   11   12 2     
   27   11   32 1     
   28   12   13 1     
   29   12   33 1     
   30   13   14 2     
   31   13   15 1     
   32   15   16 1     
   33   16   17 2     
   34   18   19 1     
   35   18   34 1     
   36   18   35 1     
   37   19   36 1     
   38   19   37 1     
   39    8   38 1     
   40    8   39 1     
   41   14   40 1     
   42   14   41 1     
   43   15   42 1     
   44   17   43 1     
   45   17   44 1     
@<TRIPOS>SUBSTRUCTURE
      1 S1             1
@<TRIPOS>SET
LONE_PAIRS      STATIC     ATOMS    <user>   **** ""
7 38 39 40 41 42 43 44
DONOR_HYDROGENS      STATIC     ATOMS    <user>   **** ""
1 29
ATOM$BLUE        STATIC     ATOMS    COLORGROUP SYSTEM
7 38 39 40 41 42 43 44
ATOM$RED        STATIC     ATOMS    COLORGROUP SYSTEM
1 29
