AV-unprocessed.smi:40|AV-procd|sdf|373|dock9
  -GOLD-   2262016223D 1   1.00000     0.00000
 Structure written by MMmdl.
 47 48  0  0  0  0  0  0  0  0  1 V2000
  151.4703  145.4748  160.1831 C   0  0  0  0  0  0  0  0  0  0  0  0
  151.7669  144.7395  158.8694 C   0  0  0  0  0  0  0  0  0  0  0  0
  152.8010  143.6104  159.0095 C   0  0  0  0  0  0  0  0  0  0  0  0
  152.2585  142.3595  159.7240 C   0  0  0  0  0  0  0  0  0  0  0  0
  153.0677  141.0915  159.4193 C   0  0  0  0  0  0  0  0  0  0  0  0
  152.7949  140.6780  158.0904 O   0  0  0  0  0  0  0  0  0  0  0  0
  151.5298  140.5261  157.6561 C   0  0  0  0  0  0  0  0  0  0  0  0
  150.5389  140.5234  158.3859 O   0  0  0  0  0  0  0  0  0  0  0  0
  151.5019  140.3311  156.2203 N   0  0  0  0  0  0  0  0  0  0  0  0
  150.4013  140.1473  155.4582 C   0  0  0  0  0  0  0  0  0  0  0  0
  149.4636  141.0739  155.5127 N   0  0  0  0  0  0  0  0  0  0  0  0
  148.2901  141.0084  154.8105 C   0  0  0  0  0  0  0  0  0  0  0  0
  147.4373  141.8864  154.9320 O   0  0  0  0  0  0  0  0  0  0  0  0
  148.0965  139.8983  153.9524 N   0  0  0  0  0  0  0  0  0  0  0  0
  146.7804  139.8023  153.1984 C   0  0  2  0  0  0  0  0  0  0  0  0
  145.7611  139.3978  154.0624 O   0  0  0  0  0  0  0  0  0  0  0  0
  145.6039  137.9882  153.9809 C   0  0  1  0  0  0  0  0  0  0  0  0
  144.2253  137.5811  154.5123 C   0  0  0  0  0  0  0  0  0  0  0  0
  145.8161  137.6988  152.4954 C   0  0  2  0  0  0  0  0  0  0  0  0
  146.3234  136.3908  152.3221 O   0  0  0  0  0  0  0  0  0  0  0  0
  146.8466  138.7452  152.0703 C   0  0  1  0  0  0  0  0  0  0  0  0
  146.4887  139.2978  150.8197 O   0  0  0  0  0  0  0  0  0  0  0  0
  149.0714  138.9094  153.8913 C   0  0  0  0  0  0  0  0  0  0  0  0
  150.2180  138.9910  154.5993 C   0  0  0  0  0  0  0  0  0  0  0  0
  151.1497  138.0273  154.4934 F   0  0  0  0  0  0  0  0  0  0  0  0
  146.5886  140.8200  152.8524 H   0  0  0  0  0  0  0  0  0  0  0  0
  146.3862  137.5089  154.5716 H   0  0  0  0  0  0  0  0  0  0  0  0
  144.8796  137.8202  151.9481 H   0  0  0  0  0  0  0  0  0  0  0  0
  147.8491  138.3182  152.0106 H   0  0  0  0  0  0  0  0  0  0  0  0
  150.7813  146.3024  160.0140 H   0  0  0  0  0  0  0  0  0  0  0  0
  152.3813  145.8862  160.6184 H   0  0  0  0  0  0  0  0  0  0  0  0
  151.0134  144.8144  160.9196 H   0  0  0  0  0  0  0  0  0  0  0  0
  150.8409  144.3438  158.4504 H   0  0  0  0  0  0  0  0  0  0  0  0
  152.1394  145.4646  158.1453 H   0  0  0  0  0  0  0  0  0  0  0  0
  153.1345  143.3323  158.0090 H   0  0  0  0  0  0  0  0  0  0  0  0
  153.6851  143.9814  159.5294 H   0  0  0  0  0  0  0  0  0  0  0  0
  152.2657  142.5221  160.8014 H   0  0  0  0  0  0  0  0  0  0  0  0
  151.2168  142.1973  159.4453 H   0  0  0  0  0  0  0  0  0  0  0  0
  154.1362  141.2748  159.5362 H   0  0  0  0  0  0  0  0  0  0  0  0
  152.7895  140.3094  160.1273 H   0  0  0  0  0  0  0  0  0  0  0  0
  152.3954  140.4236  155.7597 H   0  0  0  0  0  0  0  0  0  0  0  0
  144.0761  136.5045  154.4277 H   0  0  0  0  0  0  0  0  0  0  0  0
  143.4262  138.0750  153.9591 H   0  0  0  0  0  0  0  0  0  0  0  0
  144.1188  137.8512  155.5630 H   0  0  0  0  0  0  0  0  0  0  0  0
  147.2656  136.4378  152.2693 H   0  0  0  0  0  0  0  0  0  0  0  0
  145.6738  138.9088  150.5414 H   0  0  0  0  0  0  0  0  0  0  0  0
  148.9425  138.0353  153.2720 H   0  0  0  0  0  0  0  0  0  0  0  0
  1  2  1  0  0  0  0
  1 30  1  0  0  0  0
  1 31  1  0  0  0  0
  1 32  1  0  0  0  0
  2  3  1  0  0  0  0
  2 33  1  0  0  0  0
  2 34  1  0  0  0  0
  3  4  1  0  0  0  0
  3 35  1  0  0  0  0
  3 36  1  0  0  0  0
  4  5  1  0  0  0  0
  4 37  1  0  0  0  0
  4 38  1  0  0  0  0
  5  6  1  0  0  0  0
  5 39  1  0  0  0  0
  5 40  1  0  0  0  0
  6  7  1  0  0  0  0
  7  8  2  0  0  0  0
  7  9  1  0  0  0  0
  9 10  1  0  0  0  0
  9 41  1  0  0  0  0
 10 24  1  0  0  0  0
 10 11  2  0  0  0  0
 11 12  1  0  0  0  0
 12 13  2  0  0  0  0
 12 14  1  0  0  0  0
 14 15  1  0  0  0  0
 14 23  1  0  0  0  0
 15 26  1  0  0  0  0
 15 21  1  0  0  0  0
 15 16  1  0  0  0  0
 16 17  1  0  0  0  0
 17 27  1  0  0  0  0
 17 18  1  0  0  0  0
 17 19  1  0  0  0  0
 18 42  1  0  0  0  0
 18 43  1  0  0  0  0
 18 44  1  0  0  0  0
 19 28  1  0  0  0  0
 19 20  1  0  0  0  0
 19 21  1  0  0  0  0
 20 45  1  0  0  0  0
 21 29  1  0  0  0  0
 21 22  1  0  0  0  0
 22 46  1  0  0  0  0
 23 24  2  0  0  0  0
 23 47  1  0  0  0  0
 24 25  1  0  0  0  0
M  END
> <s_m_source_file>
AV-unprocessed.smi

> <i_m_source_file_index>
40

> <i_lp_mmshare_version>
43012

> <i_f3d_flags>
0

> <s_epik_input>
W0NIM11bQ0gyXVtDSDJdW0NIMl1bQ0gyXU9DKD1PKVtOSF1jMW5jKD1PKW4oW2NIXWMxRilbQ0BASF0yT1tDQEhdKFtDSDNdKVtDQEBIXShbT0hdKVtDQEhdMltPSF0=

> <s_epik_cmdline>
J2VwaWtfcHl0aG9uJywgJy1waCcsICc3LjAnLCAnLXRuJywgJzgnLCAnLW1hJywgJzIwMCcsICctbWV0YWxfYmluZGluZycsICctaW1hZScsICc8aW5maWxlLm1hZT4nLCAnLW9tYWUnLCAnPG91dGZpbGUubWFlPic=

> <r_lp_tautomer_probability>
1

> <r_epik_Ionization_Penalty>
2.29506e-06

> <r_epik_Ionization_Penalty_Charging>
8.26867e-09

> <r_epik_Ionization_Penalty_Neutral>
2.2868e-06

> <r_epik_State_Penalty>
-0

> <r_epik_Charging_Adjusted_Penalty>
8.26867e-09

> <i_epik_Tot_Q>
0

> <i_epik_Tot_abs_Q>
0

> <r_epik_Metal_State_Penalty>
-0

> <b_epik_Metal_Only>
0

> <s_epik_Chemistry_Notes>
This compound has an ester and may undergo hydrolysis at high or low pH. This compound contains an acetal/aminal-like group ( X-CH(R)-Y where X, Y are N, S, or O) that may be acid/base labile, releasing an aldehyde.

> <s_lp_Force_Field>
OPLS_2005

> <r_lp_Energy>
31.7957

> <b_lp_Chiralities_Consistent>
1

> <s_lp_Variant>
AV-unprocessed.smi:40-7

> <Gold.Version>
5.8.1

> <Gold.Id.Protein>
6NUR|6NUR_protein|mol2

> <Gold.PLP.Fitness>
52.7560

> <Gold.PLP.PLP>
-46.0364

> <Gold.PLP.part.hbond>
-4.1961

> <Gold.PLP.part.metal>
0.0000

> <Gold.PLP.part.buried>
-4.5943

> <Gold.PLP.part.nonpolar>
-40.0923

> <Gold.PLP.part.repulsive>
1.8985

> <Gold.PLP.ligand.clash>
0.0000

> <Gold.PLP.ligand.torsion>
1.2659

> <Gold.PLP.Chemscore.Hbond>
2.0614

> <Gold.PLP.Chemscore.CHOScore>
1.0000

> <Gold.PLP.Chemscore.Metal>
0.0000

> <Gold.Chemscore.Hbonds>
donor molecule, donor type, donor heavy atom, donor atom, acceptor molecule, acceptor atom, score
      L1  H    20    45       P1  7948  1.00
      L1  H    22    46       P1 10171  1.00
      P1  H  7954  7966       L1    22  0.03
      L1  C    23    47       P1  7948  1.00

> <Gold.PLP.Chemscore.Internal.Correction>
0.0671

> <Gold.Rescore>
     Score         DG    S(hbond)    S(metal)    S(lipo)     H(rot)  DE(clash)    DE(int)     intcor
      8.71     -13.09       1.98        0.00      89.32       3.70       1.45       2.92       ----

> <Gold.Chemscore.Fitness>
8.7146

> <Gold.Chemscore.DG>
-13.0889

> <Gold.Chemscore.ZeroCoef>
-5.4800

> <Gold.Chemscore.Hbond>
1.9819

> <Gold.Chemscore.Metal>
0.0000

> <Gold.Chemscore.Lipo>
89.3190

> <Gold.Chemscore.Internal_Hbond>
0.0000

> <Gold.Chemscore.DEClash>
1.4517

> <Gold.Chemscore.DEInternal>
2.9226

> <Gold.Chemscore.Rot>
3.6957

> <Gold.Chemscore.Internal.Correction>
   9.000000E+99

> <Gold.Chemscore.Hbonds>
donor molecule, donor type, donor heavy atom, donor atom, acceptor molecule, acceptor atom, score
      L1  H    20    45       P1  7948  1.00
      L1  H    22    46       P1 10171  0.99

> <Gold.Chemscore.Hbond.Weighted>
-6.6196

> <Gold.Chemscore.Metal.Weighted>
-0.0000

> <Gold.Chemscore.Lipo.Weighted>
-10.4503

> <Gold.Chemscore.Internal_Hbond.Weighted>
0.0000

> <Gold.Chemscore.DEClash.Weighted>
1.4517

> <Gold.Chemscore.DEInternal.Weighted>
2.9226

> <Gold.Chemscore.Rot.Weighted>
9.4610

> <Gold.Chemscore.Internal.Correction.Weighted>
   9.000000E+99

> <Gold.Protein.RotatedTorsions>
[ 6907 6896 6895 6894 ] final  148.37 input  -60.11 | X-H torsion
[ 7974 7965 7964 7962 ] final   91.89 input  175.53 | X-H torsion
[ 8008 7997 7996 7995 ] final -167.98 input   59.86 | X-H torsion
[ 10167 10162 10161 10158 ] final   33.17 input  -65.29 | X-H torsion
[ 10718 10713 10712 10709 ] final -175.25 input   66.30 | X-H torsion
[ 10763 10752 10751 10750 ] final -176.22 input  -60.55 | X-H torsion
[ 11005 11000 10999 10996 ] final  -52.51 input  -57.11 | X-H torsion

> <Gold.Protein.ActiveResidues>
 VAL166  LYS551  ARG553  GLY616  TRP617  ASP618  TYR619  PRO620  LYS621  CYS622 
 ASP623  PHE694  ASN695  SER759  ASP760  ASP761  ALA762  ILE779  LEU786  VAL792 
 PHE793  MET794  SER795  GLU796  ALA797  LYS798  CYS799  TRP800  GLU811  SER814 

> <Gold.Protein.RotatedAtoms>
  152.1424  133.4472  159.4772 H   0  0  0  0  0  0  0  0  0  0  0  0  # atno 6907 bound_to 6896
  150.6887  134.2289  159.4436 H   0  0  0  0  0  0  0  0  0  0  0  0  # atno 6908 bound_to 6896
  152.0181  134.9838  160.0620 H   0  0  0  0  0  0  0  0  0  0  0  0  # atno 6909 bound_to 6896
  145.4996  139.2276  143.2785 H   0  0  0  0  0  0  0  0  0  0  0  0  # atno 7974 bound_to 7965
  155.8851  140.1015  157.1458 H   0  0  0  0  0  0  0  0  0  0  0  0  # atno 8008 bound_to 7997
  154.4009  140.1321  156.4309 H   0  0  0  0  0  0  0  0  0  0  0  0  # atno 8009 bound_to 7997
  155.7598  140.3463  155.5194 H   0  0  0  0  0  0  0  0  0  0  0  0  # atno 8010 bound_to 7997
  140.4431  144.1158  150.6177 H   0  0  0  0  0  0  0  0  0  0  0  0  # atno 10167 bound_to 10162
  156.7971  130.9539  151.3119 H   0  0  0  0  0  0  0  0  0  0  0  0  # atno 10718 bound_to 10713
  154.5750  135.2831  155.0790 H   0  0  0  0  0  0  0  0  0  0  0  0  # atno 10763 bound_to 10752
  154.2148  135.6401  153.5130 H   0  0  0  0  0  0  0  0  0  0  0  0  # atno 10764 bound_to 10752
  153.0069  135.5500  154.6385 H   0  0  0  0  0  0  0  0  0  0  0  0  # atno 10765 bound_to 10752
  141.0928  133.6629  156.4035 H   0  0  0  0  0  0  0  0  0  0  0  0  # atno 11005 bound_to 11000
  146.2234  140.5795  142.9007 LP  0  0  0  0  0  0  0  0  0  0  0  0  # atno 17320 bound_to 7965
  144.7788  140.5796  143.6620 LP  0  0  0  0  0  0  0  0  0  0  0  0  # atno 17321 bound_to 7965
  140.4295  143.2575  151.9614 LP  0  0  0  0  0  0  0  0  0  0  0  0  # atno 17342 bound_to 10162
  139.4791  144.5757  151.8015 LP  0  0  0  0  0  0  0  0  0  0  0  0  # atno 17343 bound_to 10162
  157.6572  130.8935  149.9754 LP  0  0  0  0  0  0  0  0  0  0  0  0  # atno 17370 bound_to 10713
  156.1124  130.3649  150.0026 LP  0  0  0  0  0  0  0  0  0  0  0  0  # atno 17371 bound_to 10713
  140.5211  134.6303  157.5318 LP  0  0  0  0  0  0  0  0  0  0  0  0  # atno 17394 bound_to 11000
  139.9758  134.7218  155.9953 LP  0  0  0  0  0  0  0  0  0  0  0  0  # atno 17395 bound_to 11000

$$$$
