#       Name:                AV-unprocessed.smi:3116
#       Creating user name   scv26
#       Creation time:       Fri Mar 27 17:25:25 2020


#       File generated by GOLD software.
#

@<TRIPOS>MOLECULE
AV-unprocessed.smi:3116
    37    37     1
SMALL
NO_CHARGES


@<TRIPOS>ATOM
      1 ****        -2.3598   1.2650   1.5915 C.3            1 S1                 0.0000
      2 ****        -1.9712   1.4872   0.1138 C.3            1 S1                 0.0000
      3 ****        -1.2559   0.3216  -0.4311 N.3            1 S1                 0.0000
      4 ****         0.1399   0.2211  -0.0084 C.3            1 S1                 0.0000
      5 ****         1.0014   1.0464  -0.9874 C.3            1 S1                 0.0000
      6 ****         0.5264  -1.2820   0.0368 C.3            1 S1                 0.0000
      7 ****        -0.2140  -2.0449   1.1533 C.3            1 S1                 0.0000
      8 ****         1.9653  -1.4780   0.1678 N.pl3          1 S1                 0.0000
      9 ****         2.8281  -2.0814  -0.7240 C.2            1 S1                 0.0000
     10 ****         4.0791  -2.0346  -0.1787 C.2            1 S1                 0.0000
     11 ****         3.8805  -1.3753   1.0660 C.2            1 S1                 0.0000
     12 ****         2.6165  -1.0439   1.2712 N.2            1 S1                 0.0000
     13 ****        -3.2029   1.7828  -0.7541 C.2            1 S1                 0.0000
     14 ****        -2.9762   2.3530  -1.9405 N.am           1 S1                 0.0000
     15 ****        -4.3385   1.4954  -0.3789 O.2            1 S1                 0.0000
     16 ****        -2.9679   2.0883   1.9683 H              1 S1                 0.0000
     17 ****        -1.4857   1.2004   2.2384 H              1 S1                 0.0000
     18 ****        -2.9302   0.3442   1.7206 H              1 S1                 0.0000
     19 ****        -1.3313   2.3688   0.0550 H              1 S1                 0.0000
     20 ****        -1.2889   0.3043  -1.4403 H              1 S1                 0.0000
     21 ****         0.2701   0.6324   0.9925 H              1 S1                 0.0000
     22 ****         2.0479   1.0652  -0.6827 H              1 S1                 0.0000
     23 ****         0.6743   2.0847  -1.0397 H              1 S1                 0.0000
     24 ****         0.9585   0.6351  -1.9964 H              1 S1                 0.0000
     25 ****         0.2416  -1.7343  -0.9150 H              1 S1                 0.0000
     26 ****        -1.2939  -2.0179   1.0067 H              1 S1                 0.0000
     27 ****        -0.0058  -1.6192   2.1354 H              1 S1                 0.0000
     28 ****         0.0835  -3.0936   1.1757 H              1 S1                 0.0000
     29 ****         2.4843  -2.4891  -1.6631 H              1 S1                 0.0000
     30 ****         4.9963  -2.4135  -0.6043 H              1 S1                 0.0000
     31 ****         4.6119  -1.1295   1.8216 H              1 S1                 0.0000
     32 ****        -3.7492   2.5646  -2.5545 H              1 S1                 0.0000
     33 ****        -2.0296   2.5653  -2.2205 H              1 S1                 0.0000
     34 ****        -1.7423  -0.4655  -0.0519 LP             1 S1                 0.0000
     35 ****         2.2286  -0.5763   2.0655 LP             1 S1                 0.0000
     36 ****        -4.4758   1.0588   0.5102 LP             1 S1                 0.0000
     37 ****        -5.1244   1.6985  -0.9629 LP             1 S1                 0.0000
@<TRIPOS>BOND
    1    1    2 1     
    2    1   16 1     
    3    1   17 1     
    4    1   18 1     
    5    2    3 1     
    6    2   13 1     
    7    2   19 1     
    8    3    4 1     
    9    3   20 1     
   10    4    5 1     
   11    4    6 1     
   12    4   21 1     
   13    5   22 1     
   14    5   23 1     
   15    5   24 1     
   16    6    7 1     
   17    6    8 1     
   18    6   25 1     
   19    7   26 1     
   20    7   27 1     
   21    7   28 1     
   22    8   12 1     
   23    8    9 1     
   24    9   10 2     
   25    9   29 1     
   26   10   11 1     
   27   10   30 1     
   28   11   12 2     
   29   11   31 1     
   30   13   14 am    
   31   13   15 2     
   32   14   32 1     
   33   14   33 1     
   34    3   34 1     
   35   12   35 1     
   36   15   36 1     
   37   15   37 1     
@<TRIPOS>SUBSTRUCTURE
      1 S1             1
@<TRIPOS>SET
LONE_PAIRS      STATIC     ATOMS    <user>   **** ""
4 34 35 36 37
DONOR_HYDROGENS      STATIC     ATOMS    <user>   **** ""
3 20 32 33
ATOM$BLUE        STATIC     ATOMS    COLORGROUP SYSTEM
4 34 35 36 37
ATOM$RED        STATIC     ATOMS    COLORGROUP SYSTEM
3 20 32 33
