#       Name:                AV-unprocessed.smi:1328
#       Creating user name   scv26
#       Creation time:       Fri Mar 27 05:05:37 2020


#       File generated by GOLD software.
#

@<TRIPOS>MOLECULE
AV-unprocessed.smi:1328
    45    46     1
SMALL
NO_CHARGES


@<TRIPOS>ATOM
      1 ****        -2.2577   1.5826   2.7458 C.3            1 S1                 0.0000
      2 ****        -2.6595   2.2087   1.4410 C.2            1 S1                 0.0000
      3 ****        -3.1345   3.4429   1.4278 N.2            1 S1                 0.0000
      4 ****        -3.4081   3.7338   0.0877 O.3            1 S1                 0.0000
      5 ****        -3.0848   2.6492  -0.6617 C.2            1 S1                 0.0000
      6 ****        -3.2979   2.7616  -2.1336 C.3            1 S1                 0.0000
      7 ****        -2.6062   1.6450   0.1339 C.2            1 S1                 0.0000
      8 ****        -2.1298   0.2739  -0.2694 C.3            1 S1                 0.0000
      9 ****        -0.6163   0.3006  -0.4814 C.2            1 S1                 0.0000
     10 ****        -0.1456   0.8398  -1.4828 O.2            1 S1                 0.0000
     11 ****         0.1296  -0.2773   0.4734 N.am           1 S1                 0.0000
     12 ****         1.5896  -0.3258   0.5136 C.3            1 S1                 0.0000
     13 ****         2.0482  -0.0236   1.9475 C.3            1 S1                 0.0000
     14 ****         2.1028  -1.6965   0.0256 C.3            1 S1                 0.0000
     15 ****         1.7480  -2.0475  -1.4205 C.3            1 S1                 0.0000
     16 ****         2.8208  -3.0483  -1.8183 C.3            1 S1                 0.0000
     17 ****         3.9160  -2.8580  -0.7651 C.3            1 S1                 0.0000
     18 ****         3.5211  -1.7183  -0.0135 O.3            1 S1                 0.0000
     19 ****        -2.9896   0.8391   3.0612 H              1 S1                 0.0000
     20 ****        -2.1734   2.3243   3.5408 H              1 S1                 0.0000
     21 ****        -1.2925   1.0836   2.6606 H              1 S1                 0.0000
     22 ****        -2.3445   2.8614  -2.6526 H              1 S1                 0.0000
     23 ****        -3.9090   3.6308  -2.3777 H              1 S1                 0.0000
     24 ****        -3.8025   1.8761  -2.5200 H              1 S1                 0.0000
     25 ****        -2.3878  -0.4730   0.4829 H              1 S1                 0.0000
     26 ****        -2.6033  -0.0555  -1.1947 H              1 S1                 0.0000
     27 ****        -0.3545  -0.6994   1.2525 H              1 S1                 0.0000
     28 ****         2.0014   0.4512  -0.1330 H              1 S1                 0.0000
     29 ****         3.1360  -0.0076   2.0183 H              1 S1                 0.0000
     30 ****         1.6807  -0.7730   2.6492 H              1 S1                 0.0000
     31 ****         1.6851   0.9498   2.2788 H              1 S1                 0.0000
     32 ****         1.7583  -2.4898   0.6922 H              1 S1                 0.0000
     33 ****         0.7378  -2.4444  -1.5241 H              1 S1                 0.0000
     34 ****         1.8279  -1.1614  -2.0520 H              1 S1                 0.0000
     35 ****         2.4400  -4.0698  -1.7923 H              1 S1                 0.0000
     36 ****         3.1863  -2.8518  -2.8266 H              1 S1                 0.0000
     37 ****         3.9666  -3.7250  -0.1049 H              1 S1                 0.0000
     38 ****         4.9011  -2.7096  -1.2078 H              1 S1                 0.0000
     39 ****        -3.2702   4.0448   2.2148 LP             1 S1                 0.0000
     40 ****        -2.8644   4.5205  -0.2048 LP             1 S1                 0.0000
     41 ****        -4.3802   3.9416  -0.0210 LP             1 S1                 0.0000
     42 ****        -0.7532   1.2600  -2.1567 LP             1 S1                 0.0000
     43 ****         0.8445   0.8578  -1.6223 LP             1 S1                 0.0000
     44 ****         3.8864  -1.7797   0.9153 LP             1 S1                 0.0000
     45 ****         3.8624  -0.8866  -0.4516 LP             1 S1                 0.0000
@<TRIPOS>BOND
    1    1    2 1     
    2    1   19 1     
    3    1   20 1     
    4    1   21 1     
    5    2    7 1     
    6    2    3 2     
    7    3    4 1     
    8    4    5 1     
    9    5    6 1     
   10    5    7 2     
   11    6   22 1     
   12    6   23 1     
   13    6   24 1     
   14    7    8 1     
   15    8    9 1     
   16    8   25 1     
   17    8   26 1     
   18    9   10 2     
   19    9   11 am    
   20   11   12 1     
   21   11   27 1     
   22   12   13 1     
   23   12   14 1     
   24   12   28 1     
   25   13   29 1     
   26   13   30 1     
   27   13   31 1     
   28   14   18 1     
   29   14   15 1     
   30   14   32 1     
   31   15   16 1     
   32   15   33 1     
   33   15   34 1     
   34   16   17 1     
   35   16   35 1     
   36   16   36 1     
   37   17   18 1     
   38   17   37 1     
   39   17   38 1     
   40    3   39 1     
   41    4   40 1     
   42    4   41 1     
   43   10   42 1     
   44   10   43 1     
   45   18   44 1     
   46   18   45 1     
@<TRIPOS>SUBSTRUCTURE
      1 S1             1
@<TRIPOS>SET
LONE_PAIRS      STATIC     ATOMS    <user>   **** ""
7 39 40 41 42 43 44 45
DONOR_HYDROGENS      STATIC     ATOMS    <user>   **** ""
1 27
ATOM$BLUE        STATIC     ATOMS    COLORGROUP SYSTEM
7 39 40 41 42 43 44 45
ATOM$RED        STATIC     ATOMS    COLORGROUP SYSTEM
1 27
