#       Name:                AV-unprocessed.smi:1967
#       Creating user name   scv26
#       Creation time:       Fri Mar 27 10:12:37 2020


#       File generated by GOLD software.
#

@<TRIPOS>MOLECULE
AV-unprocessed.smi:1967
    38    39     1
SMALL
NO_CHARGES


@<TRIPOS>ATOM
      1 ****        -0.5089   2.6115   1.2345 O.2            1 S1                 0.0000
      2 ****        -0.6816   1.8948  -0.0398 S.o2           1 S1                 0.0000
      3 ****        -0.5135   2.6607  -1.2857 O.2            1 S1                 0.0000
      4 ****         0.0568   0.4517  -0.0686 N.pl3          1 S1                -1.0000
      5 ****         1.5083   0.4071  -0.0821 C.3            1 S1                 0.0000
      6 ****         1.9890  -1.0594  -0.0434 C.3            1 S1                 0.0000
      7 ****         3.5061  -1.2185  -0.0318 C.ar           1 S1                 0.0000
      8 ****         4.2077  -1.3300   1.1905 C.ar           1 S1                 0.0000
      9 ****         5.6071  -1.4814   1.1546 C.ar           1 S1                 0.0000
     10 ****         6.2535  -1.5221  -0.0955 C.ar           1 S1                 0.0000
     11 ****         5.4676  -1.4104  -1.2594 C.ar           1 S1                 0.0000
     12 ****         4.1254  -1.2653  -1.2368 N.ar           1 S1                 0.0000
     13 ****        -2.3132   1.2962  -0.0487 N.pl3          1 S1                 0.0000
     14 ****        -2.8393   0.7155  -1.3019 C.3            1 S1                 0.0000
     15 ****        -4.3765   0.6947  -1.3077 C.3            1 S1                 0.0000
     16 ****        -4.9271  -0.0220  -0.0707 C.3            1 S1                 0.0000
     17 ****        -4.3743   0.6484   1.1907 C.3            1 S1                 0.0000
     18 ****        -2.8369   0.6698   1.1832 C.3            1 S1                 0.0000
     19 ****         1.9145   0.8939  -0.9693 H              1 S1                 0.0000
     20 ****         1.9304   0.9392   0.7712 H              1 S1                 0.0000
     21 ****         1.5841  -1.5571   0.8391 H              1 S1                 0.0000
     22 ****         1.5898  -1.6009  -0.9028 H              1 S1                 0.0000
     23 ****         3.6841  -1.2937   2.1347 H              1 S1                 0.0000
     24 ****         6.1742  -1.5648   2.0698 H              1 S1                 0.0000
     25 ****         7.3254  -1.6369  -0.1613 H              1 S1                 0.0000
     26 ****         5.9292  -1.4399  -2.2352 H              1 S1                 0.0000
     27 ****        -2.4822   1.2905  -2.1560 H              1 S1                 0.0000
     28 ****        -2.4459  -0.2954  -1.4157 H              1 S1                 0.0000
     29 ****        -4.7544   1.7174  -1.3374 H              1 S1                 0.0000
     30 ****        -4.7367   0.2059  -2.2131 H              1 S1                 0.0000
     31 ****        -6.0170   0.0097  -0.0692 H              1 S1                 0.0000
     32 ****        -4.6395  -1.0740  -0.0906 H              1 S1                 0.0000
     33 ****        -4.7522   1.6694   1.2590 H              1 S1                 0.0000
     34 ****        -4.7329   0.1265   2.0782 H              1 S1                 0.0000
     35 ****        -2.4434  -0.3447   1.2591 H              1 S1                 0.0000
     36 ****        -2.4787   1.2130   2.0572 H              1 S1                 0.0000
     37 ****        -0.4780  -0.3932  -0.0769 LP             1 S1                 0.0000
     38 ****         3.6023  -1.1942  -2.0861 LP             1 S1                 0.0000
@<TRIPOS>BOND
    1    1    2 2     
    2    2    3 2     
    3    2    4 1     
    4    2   13 1     
    5    4    5 1     
    6    5    6 1     
    7    5   19 1     
    8    5   20 1     
    9    6    7 1     
   10    6   21 1     
   11    6   22 1     
   12    7   12 ar    
   13    7    8 ar    
   14    8    9 ar    
   15    8   23 1     
   16    9   10 ar    
   17    9   24 1     
   18   10   11 ar    
   19   10   25 1     
   20   11   12 ar    
   21   11   26 1     
   22   13   18 1     
   23   13   14 1     
   24   14   15 1     
   25   14   27 1     
   26   14   28 1     
   27   15   16 1     
   28   15   29 1     
   29   15   30 1     
   30   16   17 1     
   31   16   31 1     
   32   16   32 1     
   33   17   18 1     
   34   17   33 1     
   35   17   34 1     
   36   18   35 1     
   37   18   36 1     
   38    4   37 1     
   39   12   38 1     
@<TRIPOS>SUBSTRUCTURE
      1 S1             1
@<TRIPOS>SET
LONE_PAIRS      STATIC     ATOMS    <user>   **** ""
4 1 3 37 38
ATOM$BLUE        STATIC     ATOMS    COLORGROUP SYSTEM
4 1 3 37 38
