#       Name:                AV-unprocessed.smi:3330
#       Creating user name   scv26
#       Creation time:       Fri Mar 27 19:18:10 2020


#       File generated by GOLD software.
#

@<TRIPOS>MOLECULE
AV-unprocessed.smi:3330
    44    45     1
SMALL
NO_CHARGES


@<TRIPOS>ATOM
      1 ****        -2.0099  -0.4378   2.6240 C.3            1 S1                 0.0000
      2 ****        -1.4508   0.0094   1.2612 C.3            1 S1                 0.0000
      3 ****         0.0259  -0.0913   1.2704 N.4            1 S1                 1.0000
      4 ****         0.7436   1.0609   1.8537 C.3            1 S1                 0.0000
      5 ****         2.2618   0.9611   1.6128 C.3            1 S1                 0.0000
      6 ****         2.5931   0.7116   0.2026 N.am           1 S1                 0.0000
      7 ****         2.9521  -0.4768  -0.2948 C.2            1 S1                 0.0000
      8 ****         3.0550  -1.5464   0.3055 O.2            1 S1                 0.0000
      9 ****         3.1872  -0.3001  -1.7760 C.3            1 S1                 0.0000
     10 ****         2.8771   1.0976  -1.9710 N.pl3          1 S1                -1.0000
     11 ****         2.5415   1.6353  -0.7759 C.2            1 S1                 0.0000
     12 ****         2.2135   2.8009  -0.5588 O.2            1 S1                 0.0000
     13 ****        -2.0171  -0.8163   0.0749 C.3            1 S1                 0.0000
     14 ****        -3.5453  -0.6980  -0.0751 C.3            1 S1                 0.0000
     15 ****        -1.3717  -0.4525  -1.1828 N.pl3          1 S1                 0.0000
     16 ****        -0.7114  -1.2746  -2.0726 C.2            1 S1                 0.0000
     17 ****        -0.2729  -0.4933  -3.1026 C.2            1 S1                 0.0000
     18 ****        -0.7178   0.8112  -2.7521 C.2            1 S1                 0.0000
     19 ****        -1.3814   0.8314  -1.6079 N.2            1 S1                 0.0000
     20 ****        -3.0887  -0.2958   2.6829 H              1 S1                 0.0000
     21 ****        -1.5741   0.1378   3.4407 H              1 S1                 0.0000
     22 ****        -1.8006  -1.4910   2.8129 H              1 S1                 0.0000
     23 ****        -1.7243   1.0542   1.1053 H              1 S1                 0.0000
     24 ****         0.3070  -0.9430   1.7342 H              1 S1                 0.0000
     25 ****         0.3687   1.9793   1.4003 H              1 S1                 0.0000
     26 ****         0.5372   1.1269   2.9218 H              1 S1                 0.0000
     27 ****         2.7493   1.8789   1.9448 H              1 S1                 0.0000
     28 ****         2.6753   0.1697   2.2401 H              1 S1                 0.0000
     29 ****         4.2201  -0.5497  -2.0201 H              1 S1                 0.0000
     30 ****         2.5370  -0.9703  -2.3387 H              1 S1                 0.0000
     31 ****        -1.7854  -1.8675   0.2545 H              1 S1                 0.0000
     32 ****        -4.0693  -1.1135   0.7849 H              1 S1                 0.0000
     33 ****        -3.8931  -1.2435  -0.9530 H              1 S1                 0.0000
     34 ****        -3.8566   0.3412  -0.1870 H              1 S1                 0.0000
     35 ****        -0.6047  -2.3353  -1.8998 H              1 S1                 0.0000
     36 ****         0.2882  -0.8038  -3.9715 H              1 S1                 0.0000
     37 ****        -0.5794   1.7370  -3.2910 H              1 S1                 0.0000
     38 ****         0.3193  -0.1437   0.3048 H              1 S1                 0.0000
     39 ****         2.8588  -1.5909   1.2850 LP             1 S1                 0.0000
     40 ****         3.3349  -2.3709  -0.1864 LP             1 S1                 0.0000
     41 ****         2.9058   1.5857  -2.8434 LP             1 S1                 0.0000
     42 ****         1.9744   3.0886   0.3685 LP             1 S1                 0.0000
     43 ****         2.1861   3.4607  -1.3097 LP             1 S1                 0.0000
     44 ****        -1.7978   1.6209  -1.1572 LP             1 S1                 0.0000
@<TRIPOS>BOND
    1    1    2 1     
    2    1   20 1     
    3    1   21 1     
    4    1   22 1     
    5    2    3 1     
    6    2   13 1     
    7    2   23 1     
    8    3    4 1     
    9    3   24 1     
   10    3   38 1     
   11    4    5 1     
   12    4   25 1     
   13    4   26 1     
   14    5    6 1     
   15    5   27 1     
   16    5   28 1     
   17    6   11 am    
   18    6    7 am    
   19    7    8 2     
   20    7    9 1     
   21    9   10 1     
   22    9   29 1     
   23    9   30 1     
   24   10   11 1     
   25   11   12 2     
   26   13   14 1     
   27   13   15 1     
   28   13   31 1     
   29   14   32 1     
   30   14   33 1     
   31   14   34 1     
   32   15   19 1     
   33   15   16 1     
   34   16   17 2     
   35   16   35 1     
   36   17   18 1     
   37   17   36 1     
   38   18   19 2     
   39   18   37 1     
   40    8   39 1     
   41    8   40 1     
   42   10   41 1     
   43   12   42 1     
   44   12   43 1     
   45   19   44 1     
@<TRIPOS>SUBSTRUCTURE
      1 S1             1
@<TRIPOS>SET
LONE_PAIRS      STATIC     ATOMS    <user>   **** ""
6 39 40 41 42 43 44
DONOR_HYDROGENS      STATIC     ATOMS    <user>   **** ""
2 24 38
ATOM$BLUE        STATIC     ATOMS    COLORGROUP SYSTEM
6 39 40 41 42 43 44
ATOM$RED        STATIC     ATOMS    COLORGROUP SYSTEM
2 24 38
