AV-unprocessed.smi:1242|AV-procd|sdf|5216|dock8
  -GOLD-   22720 4313D 1   1.00000     0.00000
 Structure written by MMmdl.
 39 40  0  0  0  0  0  0  0  0  1 V2000
  152.9913  139.5449  157.2658 O   0  0  0  0  0  0  0  0  0  0  0  0
  152.2355  139.3648  158.2220 C   0  0  0  0  0  0  0  0  0  0  0  0
  151.8634  137.9487  158.6849 C   0  0  0  0  0  0  0  0  0  0  0  0
  152.9790  137.2143  159.3053 N   0  0  0  0  0  0  0  0  0  0  0  0
  153.1979  137.4243  160.6811 C   0  0  0  0  0  0  0  0  0  0  0  0
  154.1785  136.8097  161.3699 C   0  0  0  0  0  0  0  0  0  0  0  0
  154.4220  137.1017  162.8424 C   0  0  0  0  0  0  0  0  0  0  0  0
  153.3479  136.8081  163.5759 F   0  0  0  0  0  0  0  0  0  0  0  0
  155.4521  136.3935  163.3068 F   0  0  0  0  0  0  0  0  0  0  0  0
  154.6992  138.3942  163.0091 F   0  0  0  0  0  0  0  0  0  0  0  0
  155.0414  135.9242  160.6124 C   0  0  0  0  0  0  0  0  0  0  0  0
  154.8494  135.7163  159.2950 C   0  0  0  0  0  0  0  0  0  0  0  0
  153.7642  136.3753  158.5648 C   0  0  0  0  0  0  0  0  0  0  0  0
  153.5737  136.1865  157.3631 O   0  0  0  0  0  0  0  0  0  0  0  0
  151.6806  140.3671  158.9201 N   0  0  0  0  0  0  0  0  0  0  0  0
  151.8748  141.7961  158.6735 C   0  0  2  0  0  0  0  0  0  0  0  0
  152.2562  142.5281  159.9873 C   0  0  0  0  0  0  0  0  0  0  0  0
  151.8775  144.0218  160.0709 C   0  0  0  0  0  0  0  0  0  0  0  0
  152.4064  144.9076  158.9249 C   0  0  0  0  0  0  0  0  0  0  0  0
  152.0750  144.4481  157.4858 C   0  0  0  0  0  0  0  0  0  0  0  0
  150.8588  143.6435  157.3802 N   0  0  0  0  0  0  0  0  0  0  0  0
  150.6986  142.4086  157.8868 C   0  0  0  0  0  0  0  0  0  0  0  0
  149.6437  141.7907  157.7472 O   0  0  0  0  0  0  0  0  0  0  0  0
  151.0235  138.0121  159.3795 H   0  0  0  0  0  0  0  0  0  0  0  0
  151.4775  137.4003  157.8244 H   0  0  0  0  0  0  0  0  0  0  0  0
  152.5128  138.1190  161.1451 H   0  0  0  0  0  0  0  0  0  0  0  0
  155.8538  135.4149  161.1098 H   0  0  0  0  0  0  0  0  0  0  0  0
  155.5105  135.0480  158.7632 H   0  0  0  0  0  0  0  0  0  0  0  0
  151.0643  140.1262  159.6832 H   0  0  0  0  0  0  0  0  0  0  0  0
  152.7294  141.8715  158.0000 H   0  0  0  0  0  0  0  0  0  0  0  0
  151.7793  142.0264  160.8307 H   0  0  0  0  0  0  0  0  0  0  0  0
  153.3288  142.4193  160.1525 H   0  0  0  0  0  0  0  0  0  0  0  0
  150.7921  144.1160  160.1272 H   0  0  0  0  0  0  0  0  0  0  0  0
  152.2430  144.4214  161.0173 H   0  0  0  0  0  0  0  0  0  0  0  0
  151.9967  145.9080  159.0683 H   0  0  0  0  0  0  0  0  0  0  0  0
  153.4869  145.0196  159.0191 H   0  0  0  0  0  0  0  0  0  0  0  0
  151.9675  145.3210  156.8416 H   0  0  0  0  0  0  0  0  0  0  0  0
  152.9129  143.8876  157.0698 H   0  0  0  0  0  0  0  0  0  0  0  0
  150.0841  144.0503  156.8761 H   0  0  0  0  0  0  0  0  0  0  0  0
  1  2  2  0  0  0  0
  2  3  1  0  0  0  0
  2 15  1  0  0  0  0
  3  4  1  0  0  0  0
  3 24  1  0  0  0  0
  3 25  1  0  0  0  0
  4 13  1  0  0  0  0
  4  5  1  0  0  0  0
  5  6  2  0  0  0  0
  5 26  1  0  0  0  0
  6  7  1  0  0  0  0
  6 11  1  0  0  0  0
  7  8  1  0  0  0  0
  7  9  1  0  0  0  0
  7 10  1  0  0  0  0
 11 12  2  0  0  0  0
 11 27  1  0  0  0  0
 12 13  1  0  0  0  0
 12 28  1  0  0  0  0
 13 14  2  0  0  0  0
 15 16  1  0  0  0  0
 15 29  1  0  0  0  0
 16 22  1  0  0  0  0
 16 17  1  0  0  0  0
 16 30  1  0  0  0  0
 17 18  1  0  0  0  0
 17 31  1  0  0  0  0
 17 32  1  0  0  0  0
 18 19  1  0  0  0  0
 18 33  1  0  0  0  0
 18 34  1  0  0  0  0
 19 20  1  0  0  0  0
 19 35  1  0  0  0  0
 19 36  1  0  0  0  0
 20 21  1  0  0  0  0
 20 37  1  0  0  0  0
 20 38  1  0  0  0  0
 21 22  1  0  0  0  0
 21 39  1  0  0  0  0
 22 23  2  0  0  0  0
M  END
> <s_m_source_file>
AV-unprocessed.smi

> <i_m_source_file_index>
1242

> <i_lp_mmshare_version>
43012

> <i_f3d_flags>
0

> <s_epik_input>
Tz1jMVtjSF1bY0hdYyhDKEYpKEYpRilbY0hdbjFbQ0gyXUMoPU8pW05IXVtDQEBIXTJbQ0gyXVtDSDJdW0NIMl1bQ0gyXVtOSF1DMj1P

> <s_epik_cmdline>
J2VwaWtfcHl0aG9uJywgJy1waCcsICc3LjAnLCAnLXRuJywgJzgnLCAnLW1hJywgJzIwMCcsICctbWV0YWxfYmluZGluZycsICctaW1hZScsICc8aW5maWxlLm1hZT4nLCAnLW9tYWUnLCAnPG91dGZpbGUubWFlPic=

> <r_lp_tautomer_probability>
1

> <r_epik_Ionization_Penalty>
6.92876e-08

> <r_epik_Ionization_Penalty_Charging>
1.59659e-08

> <r_epik_Ionization_Penalty_Neutral>
5.33217e-08

> <r_epik_State_Penalty>
-0

> <r_epik_Charging_Adjusted_Penalty>
1.59659e-08

> <i_epik_Tot_Q>
0

> <i_epik_Tot_abs_Q>
0

> <r_epik_Metal_State_Penalty>
-0

> <b_epik_Metal_Only>
0

> <s_lp_Force_Field>
OPLS_2005

> <r_lp_Energy>
26.9049

> <b_lp_Chiralities_Consistent>
1

> <s_lp_Variant>
AV-unprocessed.smi:1242-1

> <Gold.Version>
5.8.1

> <Gold.Id.Protein>
6NUR|6NUR_protein|mol2

> <Gold.PLP.Fitness>
50.1474

> <Gold.PLP.PLP>
-42.3613

> <Gold.PLP.part.hbond>
-3.0000

> <Gold.PLP.part.metal>
0.0000

> <Gold.PLP.part.buried>
-5.8213

> <Gold.PLP.part.nonpolar>
-33.0095

> <Gold.PLP.part.repulsive>
0.2387

> <Gold.PLP.ligand.clash>
0.0000

> <Gold.PLP.ligand.torsion>
0.6484

> <Gold.PLP.Chemscore.Hbond>
3.0000

> <Gold.PLP.Chemscore.CHOScore>
0.0000

> <Gold.PLP.Chemscore.Metal>
0.0000

> <Gold.Chemscore.Hbonds>
donor molecule, donor type, donor heavy atom, donor atom, acceptor molecule, acceptor atom, score
      L1  H    21    39       P1  8028  1.00
      P1  H  7997  8009       L1     1  1.00
      P1  H 10752 10764       L1    14  0.68

> <Gold.PLP.Chemscore.Internal.Correction>
0.0830

> <Gold.Rescore>
     Score         DG    S(hbond)    S(metal)    S(lipo)     H(rot)  DE(clash)    DE(int)     intcor
     20.28     -21.14       2.98        0.00      86.52       1.72       0.02       0.84       ----

> <Gold.Chemscore.Fitness>
20.2846

> <Gold.Chemscore.DG>
-21.1442

> <Gold.Chemscore.ZeroCoef>
-5.4800

> <Gold.Chemscore.Hbond>
2.9784

> <Gold.Chemscore.Metal>
0.0000

> <Gold.Chemscore.Lipo>
86.5177

> <Gold.Chemscore.Internal_Hbond>
0.0000

> <Gold.Chemscore.DEClash>
0.0215

> <Gold.Chemscore.DEInternal>
0.8380

> <Gold.Chemscore.Rot>
1.7212

> <Gold.Chemscore.Internal.Correction>
   9.000000E+99

> <Gold.Chemscore.Hbonds>
donor molecule, donor type, donor heavy atom, donor atom, acceptor molecule, acceptor atom, score
      L1  H    21    39       P1  8028  0.97
      P1  H  7997  8009       L1     1  0.99
      P1  H 10752 10764       L1    14  0.67

> <Gold.Chemscore.Hbond.Weighted>
-9.9478

> <Gold.Chemscore.Metal.Weighted>
-0.0000

> <Gold.Chemscore.Lipo.Weighted>
-10.1226

> <Gold.Chemscore.Internal_Hbond.Weighted>
0.0000

> <Gold.Chemscore.DEClash.Weighted>
0.0215

> <Gold.Chemscore.DEInternal.Weighted>
0.8380

> <Gold.Chemscore.Rot.Weighted>
4.4062

> <Gold.Chemscore.Internal.Correction.Weighted>
   9.000000E+99

> <Gold.Protein.RotatedTorsions>
[ 6907 6896 6895 6894 ] final  105.14 input  -60.11 | X-H torsion
[ 7974 7965 7964 7962 ] final   41.14 input  175.53 | X-H torsion
[ 8008 7997 7996 7995 ] final  174.76 input   59.86 | X-H torsion
[ 10167 10162 10161 10158 ] final   24.26 input  -65.29 | X-H torsion
[ 10718 10713 10712 10709 ] final  -48.71 input   66.30 | X-H torsion
[ 10763 10752 10751 10750 ] final   20.29 input  -60.55 | X-H torsion
[ 11005 11000 10999 10996 ] final  179.58 input  -57.11 | X-H torsion

> <Gold.Protein.ActiveResidues>
 VAL166  LYS551  ARG553  GLY616  TRP617  ASP618  TYR619  PRO620  LYS621  CYS622 
 ASP623  PHE694  ASN695  SER759  ASP760  ASP761  ALA762  ILE779  LEU786  VAL792 
 PHE793  MET794  SER795  GLU796  ALA797  LYS798  CYS799  TRP800  GLU811  SER814 

> <Gold.Protein.RotatedAtoms>
  152.5241  133.9573  159.7699 H   0  0  0  0  0  0  0  0  0  0  0  0  # atno 6907 bound_to 6896
  150.9870  133.6179  159.2721 H   0  0  0  0  0  0  0  0  0  0  0  0  # atno 6908 bound_to 6896
  151.3336  135.0853  159.9400 H   0  0  0  0  0  0  0  0  0  0  0  0  # atno 6909 bound_to 6896
  146.0848  139.5450  142.9514 H   0  0  0  0  0  0  0  0  0  0  0  0  # atno 7974 bound_to 7965
  156.0940  140.1426  156.9554 H   0  0  0  0  0  0  0  0  0  0  0  0  # atno 8008 bound_to 7997
  154.4660  140.0926  156.7067 H   0  0  0  0  0  0  0  0  0  0  0  0  # atno 8009 bound_to 7997
  155.4871  140.3447  155.4351 H   0  0  0  0  0  0  0  0  0  0  0  0  # atno 8010 bound_to 7997
  140.5203  144.0014  150.6413 H   0  0  0  0  0  0  0  0  0  0  0  0  # atno 10167 bound_to 10162
  156.1961  130.4154  149.9304 H   0  0  0  0  0  0  0  0  0  0  0  0  # atno 10718 bound_to 10713
  153.1090  135.6692  153.9535 H   0  0  0  0  0  0  0  0  0  0  0  0  # atno 10763 bound_to 10752
  153.9084  135.3028  155.3450 H   0  0  0  0  0  0  0  0  0  0  0  0  # atno 10764 bound_to 10752
  154.7510  135.5034  153.9366 H   0  0  0  0  0  0  0  0  0  0  0  0  # atno 10765 bound_to 10752
  140.4077  134.6720  157.4597 H   0  0  0  0  0  0  0  0  0  0  0  0  # atno 11005 bound_to 11000
  145.6151  141.0333  143.1945 LP  0  0  0  0  0  0  0  0  0  0  0  0  # atno 17320 bound_to 7965
  144.7318  139.7704  143.7344 LP  0  0  0  0  0  0  0  0  0  0  0  0  # atno 17321 bound_to 7965
  140.3361  143.3048  152.0637 LP  0  0  0  0  0  0  0  0  0  0  0  0  # atno 17342 bound_to 10162
  139.4921  144.6475  151.6746 LP  0  0  0  0  0  0  0  0  0  0  0  0  # atno 17343 bound_to 10162
  156.7028  130.8940  151.3601 LP  0  0  0  0  0  0  0  0  0  0  0  0  # atno 17370 bound_to 10713
  157.6958  130.9281  150.0642 LP  0  0  0  0  0  0  0  0  0  0  0  0  # atno 17371 bound_to 10713
  140.0290  134.6434  155.9133 LP  0  0  0  0  0  0  0  0  0  0  0  0  # atno 17394 bound_to 11000
  141.1833  133.6550  156.5110 LP  0  0  0  0  0  0  0  0  0  0  0  0  # atno 17395 bound_to 11000

$$$$
