AV-unprocessed.smi:1920|AV-procd|sdf|7784|dock2
  -GOLD-   22720 9523D 1   1.00000     0.00000
 Structure written by MMmdl.
 36 37  0  0  0  0  0  0  0  0  1 V2000
  149.4330  139.6027  157.8613 C   0  0  0  0  0  0  0  0  0  0  0  0
  150.7618  140.2902  157.5202 C   0  0  1  0  0  0  0  0  0  0  0  0
  150.5959  141.2937  156.3607 C   0  0  0  0  0  0  0  0  0  0  0  0
  149.8011  140.7623  155.2680 N   0  0  0  0  0  0  0  0  0  0  0  0
  149.9268  139.5169  154.6665 C   0  0  0  0  0  0  0  0  0  0  0  0
  148.9634  139.4553  153.6853 C   0  0  0  0  0  0  0  0  0  0  0  0
  148.2319  140.6407  153.6707 N   0  0  0  0  0  0  0  0  0  0  0  0
  148.7845  141.3645  154.6355 C   0  0  0  0  0  0  0  0  0  0  0  0
  151.2705  140.9658  158.7132 N   0  0  0  0  0  0  0  0  0  0  0  0
  152.5092  140.8458  159.2170 C   0  0  0  0  0  0  0  0  0  0  0  0
  153.3691  140.1065  158.7374 O   0  0  0  0  0  0  0  0  0  0  0  0
  152.8231  141.7021  160.4495 C   0  0  0  0  0  0  0  0  0  0  0  0
  153.0795  143.1930  160.1333 C   0  0  1  0  0  0  0  0  0  0  0  0
  152.7595  143.5735  158.7076 C   0  0  0  0  0  0  0  0  0  0  0  0
  151.8887  144.5759  158.6233 C   0  0  0  0  0  0  0  0  0  0  0  0
  151.4484  145.0709  159.9727 C   0  0  0  0  0  0  0  0  0  0  0  0
  152.1910  144.1512  160.9683 C   0  0  0  0  0  0  0  0  0  0  0  0
  149.0361  139.0677  156.9980 H   0  0  0  0  0  0  0  0  0  0  0  0
  148.6804  140.3251  158.1795 H   0  0  0  0  0  0  0  0  0  0  0  0
  149.5610  138.8777  158.6660 H   0  0  0  0  0  0  0  0  0  0  0  0
  151.4552  139.5088  157.2043 H   0  0  0  0  0  0  0  0  0  0  0  0
  150.1067  142.2011  156.7172 H   0  0  0  0  0  0  0  0  0  0  0  0
  151.5705  141.5961  155.9739 H   0  0  0  0  0  0  0  0  0  0  0  0
  150.6739  138.8001  154.9741 H   0  0  0  0  0  0  0  0  0  0  0  0
  148.7410  138.6547  152.9954 H   0  0  0  0  0  0  0  0  0  0  0  0
  148.4434  142.3589  154.8847 H   0  0  0  0  0  0  0  0  0  0  0  0
  150.6347  141.5958  159.1805 H   0  0  0  0  0  0  0  0  0  0  0  0
  152.0001  141.6193  161.1614 H   0  0  0  0  0  0  0  0  0  0  0  0
  153.6988  141.2767  160.9406 H   0  0  0  0  0  0  0  0  0  0  0  0
  154.1295  143.4312  160.3100 H   0  0  0  0  0  0  0  0  0  0  0  0
  153.2169  143.0803  157.8630 H   0  0  0  0  0  0  0  0  0  0  0  0
  151.5290  145.0123  157.7030 H   0  0  0  0  0  0  0  0  0  0  0  0
  151.7317  146.1164  160.0992 H   0  0  0  0  0  0  0  0  0  0  0  0
  150.3660  144.9874  160.0737 H   0  0  0  0  0  0  0  0  0  0  0  0
  151.4706  143.5987  161.5729 H   0  0  0  0  0  0  0  0  0  0  0  0
  152.7981  144.7377  161.6589 H   0  0  0  0  0  0  0  0  0  0  0  0
  1  2  1  0  0  0  0
  1 18  1  0  0  0  0
  1 19  1  0  0  0  0
  1 20  1  0  0  0  0
  2  3  1  0  0  0  0
  2  9  1  0  0  0  0
  2 21  1  0  0  0  0
  3  4  1  0  0  0  0
  3 22  1  0  0  0  0
  3 23  1  0  0  0  0
  4  8  1  0  0  0  0
  4  5  1  0  0  0  0
  5  6  2  0  0  0  0
  5 24  1  0  0  0  0
  6  7  1  0  0  0  0
  6 25  1  0  0  0  0
  7  8  2  0  0  0  0
  8 26  1  0  0  0  0
  9 10  1  0  0  0  0
  9 27  1  0  0  0  0
 10 11  2  0  0  0  0
 10 12  1  0  0  0  0
 12 13  1  0  0  0  0
 12 28  1  0  0  0  0
 12 29  1  0  0  0  0
 13 17  1  0  0  0  0
 13 14  1  0  0  0  0
 13 30  1  0  0  0  0
 14 15  2  0  0  0  0
 14 31  1  0  0  0  0
 15 16  1  0  0  0  0
 15 32  1  0  0  0  0
 16 17  1  0  0  0  0
 16 33  1  0  0  0  0
 16 34  1  0  0  0  0
 17 35  1  0  0  0  0
 17 36  1  0  0  0  0
M  END
> <s_m_source_file>
AV-unprocessed.smi

> <i_m_source_file_index>
1920

> <i_lp_mmshare_version>
43012

> <i_f3d_flags>
0

> <s_epik_input>
W2NIXTFuW2NIXVtjSF1uMVtDSDJdW0NAQEhdKFtDSDNdKVtOSF1DKD1PKVtDSDJdW0NAQEhdMltDSF09W0NIXVtDSDJdW0NIMl0y

> <s_epik_cmdline>
J2VwaWtfcHl0aG9uJywgJy1waCcsICc3LjAnLCAnLXRuJywgJzgnLCAnLW1hJywgJzIwMCcsICctbWV0YWxfYmluZGluZycsICctaW1hZScsICc8aW5maWxlLm1hZT4nLCAnLW9tYWUnLCAnPG91dGZpbGUubWFlPic=

> <r_lp_tautomer_probability>
1

> <r_epik_Ionization_Penalty>
0.635367

> <r_epik_Ionization_Penalty_Charging>
0.635367

> <r_epik_Ionization_Penalty_Neutral>
2.1249e-08

> <r_epik_State_Penalty>
0.65258

> <r_epik_Charging_Adjusted_Penalty>
1.28795

> <i_epik_Tot_Q>
0

> <i_epik_Tot_abs_Q>
0

> <r_epik_Metal_State_Penalty>
0.310403

> <b_epik_Metal_Only>
0

> <s_lp_Force_Field>
OPLS_2005

> <r_lp_Energy>
18.2419

> <b_lp_Chiralities_Consistent>
1

> <s_lp_Variant>
AV-unprocessed.smi:1920-8

> <Gold.Version>
5.8.1

> <Gold.Id.Protein>
6NUR|6NUR_protein|mol2

> <Gold.PLP.Fitness>
46.6396

> <Gold.PLP.PLP>
-40.4992

> <Gold.PLP.part.hbond>
-1.0000

> <Gold.PLP.part.metal>
0.0000

> <Gold.PLP.part.buried>
-2.6797

> <Gold.PLP.part.nonpolar>
-38.4669

> <Gold.PLP.part.repulsive>
1.1767

> <Gold.PLP.ligand.clash>
0.0000

> <Gold.PLP.ligand.torsion>
1.2966

> <Gold.PLP.Chemscore.Hbond>
0.9600

> <Gold.PLP.Chemscore.CHOScore>
1.9052

> <Gold.PLP.Chemscore.Metal>
0.0000

> <Gold.Chemscore.Hbonds>
donor molecule, donor type, donor heavy atom, donor atom, acceptor molecule, acceptor atom, score
      P1  H  7997  8010       L1    11  0.85
      L1  C     6    25       P1  7948  0.69
      L1  C     6    25       P1  7957  0.20
      L1  C     8    26       P1  8028  1.00

> <Gold.PLP.Chemscore.Internal.Correction>
0.1380

> <Gold.Rescore>
     Score         DG    S(hbond)    S(metal)    S(lipo)     H(rot)  DE(clash)    DE(int)     intcor
     13.72     -15.26       0.92        0.00      99.53       1.93       0.17       1.38       ----

> <Gold.Chemscore.Fitness>
13.7171

> <Gold.Chemscore.DG>
-15.2619

> <Gold.Chemscore.ZeroCoef>
-5.4800

> <Gold.Chemscore.Hbond>
0.9220

> <Gold.Chemscore.Metal>
0.0000

> <Gold.Chemscore.Lipo>
99.5289

> <Gold.Chemscore.Internal_Hbond>
0.0000

> <Gold.Chemscore.DEClash>
0.1691

> <Gold.Chemscore.DEInternal>
1.3758

> <Gold.Chemscore.Rot>
1.9306

> <Gold.Chemscore.Internal.Correction>
   9.000000E+99

> <Gold.Chemscore.Hbonds>
donor molecule, donor type, donor heavy atom, donor atom, acceptor molecule, acceptor atom, score
      P1  H  7997  8010       L1    11  0.79

> <Gold.Chemscore.Hbond.Weighted>
-3.0795

> <Gold.Chemscore.Metal.Weighted>
-0.0000

> <Gold.Chemscore.Lipo.Weighted>
-11.6449

> <Gold.Chemscore.Internal_Hbond.Weighted>
0.0000

> <Gold.Chemscore.DEClash.Weighted>
0.1691

> <Gold.Chemscore.DEInternal.Weighted>
1.3758

> <Gold.Chemscore.Rot.Weighted>
4.9424

> <Gold.Chemscore.Internal.Correction.Weighted>
   9.000000E+99

> <Gold.Protein.RotatedTorsions>
[ 6907 6896 6895 6894 ] final   24.71 input  -60.11 | X-H torsion
[ 7974 7965 7964 7962 ] final  -17.57 input  175.53 | X-H torsion
[ 8008 7997 7996 7995 ] final   23.21 input   59.86 | X-H torsion
[ 10167 10162 10161 10158 ] final  -74.40 input  -65.29 | X-H torsion
[ 10718 10713 10712 10709 ] final  -61.21 input   66.30 | X-H torsion
[ 10763 10752 10751 10750 ] final -165.52 input  -60.55 | X-H torsion
[ 11005 11000 10999 10996 ] final   89.81 input  -57.11 | X-H torsion

> <Gold.Protein.ActiveResidues>
 VAL166  LYS551  ARG553  GLY616  TRP617  ASP618  TYR619  PRO620  LYS621  CYS622 
 ASP623  PHE694  ASN695  SER759  ASP760  ASP761  ALA762  ILE779  LEU786  VAL792 
 PHE793  MET794  SER795  GLU796  ALA797  LYS798  CYS799  TRP800  GLU811  SER814 

> <Gold.Protein.RotatedAtoms>
  151.9617  135.0120  160.0547 H   0  0  0  0  0  0  0  0  0  0  0  0  # atno 6907 bound_to 6896
  152.1863  133.4737  159.4992 H   0  0  0  0  0  0  0  0  0  0  0  0  # atno 6908 bound_to 6896
  150.6926  134.1687  159.4247 H   0  0  0  0  0  0  0  0  0  0  0  0  # atno 6909 bound_to 6896
  146.1934  140.3798  142.8449 H   0  0  0  0  0  0  0  0  0  0  0  0  # atno 7974 bound_to 7965
  154.9774  140.3098  155.4961 H   0  0  0  0  0  0  0  0  0  0  0  0  # atno 8008 bound_to 7997
  156.2958  140.2273  156.4810 H   0  0  0  0  0  0  0  0  0  0  0  0  # atno 8009 bound_to 7997
  154.7821  140.0445  157.1123 H   0  0  0  0  0  0  0  0  0  0  0  0  # atno 8010 bound_to 7997
  140.5030  143.2358  151.7721 H   0  0  0  0  0  0  0  0  0  0  0  0  # atno 10167 bound_to 10162
  156.0937  130.4196  150.0962 H   0  0  0  0  0  0  0  0  0  0  0  0  # atno 10718 bound_to 10713
  154.6924  135.2973  154.9460 H   0  0  0  0  0  0  0  0  0  0  0  0  # atno 10763 bound_to 10752
  154.0419  135.6656  153.4795 H   0  0  0  0  0  0  0  0  0  0  0  0  # atno 10764 bound_to 10752
  153.0621  135.5109  154.8023 H   0  0  0  0  0  0  0  0  0  0  0  0  # atno 10765 bound_to 10752
  139.8868  134.8575  156.3195 H   0  0  0  0  0  0  0  0  0  0  0  0  # atno 11005 bound_to 11000
  144.8532  140.7032  143.6155 LP  0  0  0  0  0  0  0  0  0  0  0  0  # atno 17320 bound_to 7965
  145.3720  139.1656  143.4327 LP  0  0  0  0  0  0  0  0  0  0  0  0  # atno 17321 bound_to 7965
  139.4876  144.4496  151.9669 LP  0  0  0  0  0  0  0  0  0  0  0  0  # atno 17342 bound_to 10162
  140.3586  144.3001  150.5937 LP  0  0  0  0  0  0  0  0  0  0  0  0  # atno 17343 bound_to 10162
  156.8966  130.9606  151.3582 LP  0  0  0  0  0  0  0  0  0  0  0  0  # atno 17370 bound_to 10713
  157.6093  130.8571  149.8925 LP  0  0  0  0  0  0  0  0  0  0  0  0  # atno 17371 bound_to 10713
  140.9796  133.7275  156.0653 LP  0  0  0  0  0  0  0  0  0  0  0  0  # atno 17394 bound_to 11000
  140.7766  134.3772  157.5496 LP  0  0  0  0  0  0  0  0  0  0  0  0  # atno 17395 bound_to 11000

$$$$
