#       Name:                AV-unprocessed.smi:34
#       Creating user name   scv26
#       Creation time:       Thu Mar 26 15:55:02 2020


#       File generated by GOLD software.
#

@<TRIPOS>MOLECULE
AV-unprocessed.smi:34
    66    70     1
SMALL
NO_CHARGES


@<TRIPOS>ATOM
      1 ****        -4.0514   0.5666  -1.5443 O.2            1 S1                 0.0000
      2 ****        -4.1701  -0.3386  -0.7180 C.2            1 S1                 0.0000
      3 ****        -3.0214  -0.9736  -0.0966 N.am           1 S1                 0.0000
      4 ****        -1.7083  -0.7511  -0.3389 C.ar           1 S1                 0.0000
      5 ****        -1.2774   0.2176  -1.1885 N.ar           1 S1                 0.0000
      6 ****         0.0298   0.3964  -1.3944 C.ar           1 S1                 0.0000
      7 ****         1.0548  -0.2669  -0.8568 N.ar           1 S1                 0.0000
      8 ****         0.6356  -1.2369   0.0081 C.ar           1 S1                 0.0000
      9 ****        -0.7223  -1.5407   0.3087 C.ar           1 S1                 0.0000
     10 ****        -0.7812  -2.5985   1.2046 N.2            1 S1                 0.0000
     11 ****         0.4705  -2.9026   1.4152 C.2            1 S1                 0.0000
     12 ****         1.3961  -2.1102   0.7677 N.pl3          1 S1                 0.0000
     13 ****         2.8972  -2.2384   0.8022 C.3            1 S1                 0.0000
     14 ****         3.4647  -1.0535   0.3357 O.3            1 S1                 0.0000
     15 ****         3.6461  -0.1748   1.4357 C.3            1 S1                 0.0000
     16 ****         4.5671   0.9961   1.0644 C.3            1 S1                 0.0000
     17 ****         3.8419   1.9509   0.3011 O.3            1 S1                 0.0000
     18 ****         3.8019   1.8730  -1.0474 C.2            1 S1                 0.0000
     19 ****         4.4491   1.0561  -1.7056 O.2            1 S1                 0.0000
     20 ****         2.8766   2.8695  -1.6584 C.ar           1 S1                 0.0000
     21 ****         2.7557   2.9297  -3.0663 C.ar           1 S1                 0.0000
     22 ****         1.8768   3.8480  -3.6722 C.ar           1 S1                 0.0000
     23 ****         1.1075   4.7172  -2.8772 C.ar           1 S1                 0.0000
     24 ****         1.2179   4.6666  -1.4754 C.ar           1 S1                 0.0000
     25 ****         2.0967   3.7490  -0.8677 C.ar           1 S1                 0.0000
     26 ****         4.2326  -1.1373   2.4618 C.3            1 S1                 0.0000
     27 ****         4.1196  -0.6695   3.7053 F              1 S1                 0.0000
     28 ****         3.3996  -2.3976   2.2553 C.3            1 S1                 0.0000
     29 ****         4.1901  -3.5549   2.4307 O.3            1 S1                 0.0000
     30 ****        -5.5166  -0.7966  -0.2368 C.ar           1 S1                 0.0000
     31 ****        -6.6192   0.0865  -0.2767 C.ar           1 S1                 0.0000
     32 ****        -7.8895  -0.3379   0.1595 C.ar           1 S1                 0.0000
     33 ****        -8.0702  -1.6512   0.6319 C.ar           1 S1                 0.0000
     34 ****        -6.9807  -2.5416   0.6637 C.ar           1 S1                 0.0000
     35 ****        -5.7098  -2.1184   0.2280 C.ar           1 S1                 0.0000
     36 ****        -3.2285  -1.6868   0.5873 H              1 S1                 0.0000
     37 ****         0.2911   1.1837  -2.0862 H              1 S1                 0.0000
     38 ****         0.7535  -3.7202   2.0624 H              1 S1                 0.0000
     39 ****         3.1132  -3.0803   0.1435 H              1 S1                 0.0000
     40 ****         2.6789   0.1963   1.7816 H              1 S1                 0.0000
     41 ****         4.8985   1.4951   1.9750 H              1 S1                 0.0000
     42 ****         5.4666   0.6517   0.5519 H              1 S1                 0.0000
     43 ****         3.3344   2.2700  -3.6968 H              1 S1                 0.0000
     44 ****         1.7928   3.8846  -4.7483 H              1 S1                 0.0000
     45 ****         0.4325   5.4208  -3.3418 H              1 S1                 0.0000
     46 ****         0.6261   5.3317  -0.8638 H              1 S1                 0.0000
     47 ****         2.1529   3.7322   0.2109 H              1 S1                 0.0000
     48 ****         5.2896  -1.3161   2.2565 H              1 S1                 0.0000
     49 ****         2.5643  -2.4139   2.9556 H              1 S1                 0.0000
     50 ****         4.5019  -3.5721   3.3229 H              1 S1                 0.0000
     51 ****        -6.4978   1.0977  -0.6377 H              1 S1                 0.0000
     52 ****        -8.7259   0.3449   0.1307 H              1 S1                 0.0000
     53 ****        -9.0444  -1.9765   0.9662 H              1 S1                 0.0000
     54 ****        -7.1200  -3.5513   1.0207 H              1 S1                 0.0000
     55 ****        -4.8902  -2.8217   0.2530 H              1 S1                 0.0000
     56 ****        -3.1415   0.8871  -1.8076 LP             1 S1                 0.0000
     57 ****        -4.8649   0.9811  -1.9522 LP             1 S1                 0.0000
     58 ****        -1.9407   0.7980  -1.6608 LP             1 S1                 0.0000
     59 ****         2.0148  -0.0767  -1.0625 LP             1 S1                 0.0000
     60 ****        -1.5941  -3.0283   1.5977 LP             1 S1                 0.0000
     61 ****         2.8571  -0.6308  -0.3367 LP             1 S1                 0.0000
     62 ****         4.3486  -1.2479  -0.0897 LP             1 S1                 0.0000
     63 ****         5.0462   0.4013  -1.2422 LP             1 S1                 0.0000
     64 ****         4.3770   1.0481  -2.7030 LP             1 S1                 0.0000
     65 ****         4.9674  -3.5312   1.8019 LP             1 S1                 0.0000
     66 ****         3.6398  -4.3701   2.2497 LP             1 S1                 0.0000
@<TRIPOS>BOND
    1    1    2 2     
    2    2    3 am    
    3    2   30 1     
    4    3    4 1     
    5    3   36 1     
    6    4    9 ar    
    7    4    5 ar    
    8    5    6 ar    
    9    6    7 ar    
   10    6   37 1     
   11    7    8 ar    
   12    8   12 1     
   13    8    9 ar    
   14    9   10 1     
   15   10   11 2     
   16   11   12 1     
   17   11   38 1     
   18   12   13 1     
   19   13   28 1     
   20   13   14 1     
   21   13   39 1     
   22   14   15 1     
   23   15   16 1     
   24   15   26 1     
   25   15   40 1     
   26   16   17 1     
   27   16   41 1     
   28   16   42 1     
   29   17   18 1     
   30   18   19 2     
   31   18   20 1     
   32   20   25 ar    
   33   20   21 ar    
   34   21   22 ar    
   35   21   43 1     
   36   22   23 ar    
   37   22   44 1     
   38   23   24 ar    
   39   23   45 1     
   40   24   25 ar    
   41   24   46 1     
   42   25   47 1     
   43   26   27 1     
   44   26   28 1     
   45   26   48 1     
   46   28   29 1     
   47   28   49 1     
   48   29   50 1     
   49   30   35 ar    
   50   30   31 ar    
   51   31   32 ar    
   52   31   51 1     
   53   32   33 ar    
   54   32   52 1     
   55   33   34 ar    
   56   33   53 1     
   57   34   35 ar    
   58   34   54 1     
   59   35   55 1     
   60    1   56 1     
   61    1   57 1     
   62    5   58 1     
   63    7   59 1     
   64   10   60 1     
   65   14   61 1     
   66   14   62 1     
   67   19   63 1     
   68   19   64 1     
   69   29   65 1     
   70   29   66 1     
@<TRIPOS>SUBSTRUCTURE
      1 S1             1
@<TRIPOS>SET
LONE_PAIRS      STATIC     ATOMS    <user>   **** ""
11 56 57 58 59 60 61 62 63 64 65 66
DONOR_HYDROGENS      STATIC     ATOMS    <user>   **** ""
2 36 50
ATOM$BLUE        STATIC     ATOMS    COLORGROUP SYSTEM
11 56 57 58 59 60 61 62 63 64 65 66
ATOM$RED        STATIC     ATOMS    COLORGROUP SYSTEM
2 36 50
