AV-unprocessed.smi:481|AV-procd|sdf|2683|dock7
  -GOLD-   2262023113D 1   1.00000     0.00000
 Structure written by MMmdl.
 42 44  0  0  0  0  0  0  0  0  2 V2000
  150.1325  131.9622  156.8668 C   0  0  0  0  0  0  0  0  0  0  0  0
  150.0095  132.6519  158.1011 O   0  0  0  0  0  0  0  0  0  0  0  0
  148.7125  133.1809  158.3388 C   0  0  0  0  0  0  0  0  0  0  0  0
  148.4796  134.4958  157.5750 C   0  0  0  0  0  0  0  0  0  0  0  0
  149.4752  135.5019  157.9297 N   0  0  0  0  0  0  0  0  0  0  0  0
  149.5568  136.2155  159.0812 C   0  0  0  0  0  0  0  0  0  0  0  0
  148.6003  136.0150  160.0863 N   0  0  0  0  0  0  0  0  0  0  0  0
  148.6247  136.6840  161.2398 N   0  0  0  0  0  0  0  0  0  0  0  0
  147.8893  136.3402  162.2473 C   0  0  0  0  0  0  0  0  0  0  0  0
  146.8445  135.2948  162.2829 C   0  0  0  0  0  0  0  0  0  0  0  0
  147.1446  133.9141  162.2051 C   0  0  0  0  0  0  0  0  0  0  0  0
  146.1133  132.9560  162.2425 C   0  0  0  0  0  0  0  0  0  0  0  0
  144.7718  133.3681  162.3463 C   0  0  0  0  0  0  0  0  0  0  0  0
  144.4623  134.7398  162.4060 C   0  0  0  0  0  0  0  0  0  0  0  0
  145.4941  135.6978  162.3690 C   0  0  0  0  0  0  0  0  0  0  0  0
  150.5872  137.0671  159.1305 N   0  0  0  0  0  0  0  0  0  0  0  0
  151.2078  136.8788  157.9049 C   0  0  0  0  0  0  0  0  0  0  0  0
  150.5522  135.9492  157.1605 C   0  0  0  0  0  0  0  0  0  0  0  0
  150.9615  135.5444  155.7984 C   0  0  0  0  0  0  0  0  0  0  0  0
  150.3176  134.7104  155.1645 O   0  0  0  0  0  0  0  0  0  0  0  0
  152.0890  136.2036  155.3819 N   0  5  0  0  0  0  0  0  0  0  0  0
  152.7888  137.1476  156.1036 C   0  0  0  0  0  0  0  0  0  0  0  0
  153.7952  137.6961  155.6525 O   0  0  0  0  0  0  0  0  0  0  0  0
  152.3657  137.4969  157.3595 N   0  0  0  0  0  0  0  0  0  0  0  0
  153.0897  138.4960  158.1505 C   0  0  0  0  0  0  0  0  0  0  0  0
  151.1282  131.5253  156.7943 H   0  0  0  0  0  0  0  0  0  0  0  0
  150.0034  132.6285  156.0143 H   0  0  0  0  0  0  0  0  0  0  0  0
  149.4065  131.1519  156.7899 H   0  0  0  0  0  0  0  0  0  0  0  0
  147.9461  132.4414  158.1019 H   0  0  0  0  0  0  0  0  0  0  0  0
  148.6312  133.3742  159.4087 H   0  0  0  0  0  0  0  0  0  0  0  0
  148.5099  134.3133  156.5010 H   0  0  0  0  0  0  0  0  0  0  0  0
  147.4895  134.9045  157.7684 H   0  0  0  0  0  0  0  0  0  0  0  0
  147.7072  135.7070  159.7293 H   0  0  0  0  0  0  0  0  0  0  0  0
  148.0622  136.8715  163.1835 H   0  0  0  0  0  0  0  0  0  0  0  0
  148.1664  133.5767  162.1133 H   0  0  0  0  0  0  0  0  0  0  0  0
  146.3526  131.9043  162.1894 H   0  0  0  0  0  0  0  0  0  0  0  0
  143.9810  132.6331  162.3762 H   0  0  0  0  0  0  0  0  0  0  0  0
  143.4330  135.0581  162.4821 H   0  0  0  0  0  0  0  0  0  0  0  0
  145.2409  136.7472  162.4193 H   0  0  0  0  0  0  0  0  0  0  0  0
  153.0946  139.4580  157.6367 H   0  0  0  0  0  0  0  0  0  0  0  0
  154.1240  138.1860  158.3055 H   0  0  0  0  0  0  0  0  0  0  0  0
  152.6480  138.6537  159.1341 H   0  0  0  0  0  0  0  0  0  0  0  0
  1  2  1  0  0  0  0
  1 26  1  0  0  0  0
  1 27  1  0  0  0  0
  1 28  1  0  0  0  0
  2  3  1  0  0  0  0
  3  4  1  0  0  0  0
  3 29  1  0  0  0  0
  3 30  1  0  0  0  0
  4  5  1  0  0  0  0
  4 31  1  0  0  0  0
  4 32  1  0  0  0  0
  5 18  1  0  0  0  0
  5  6  1  0  0  0  0
  6  7  1  0  0  0  0
  6 16  2  0  0  0  0
  7  8  1  0  0  0  0
  7 33  1  0  0  0  0
  8  9  2  0  0  0  0
  9 10  1  0  0  0  0
  9 34  1  0  0  0  0
 10 15  1  0  0  0  0
 10 11  2  0  0  0  0
 11 12  1  0  0  0  0
 11 35  1  0  0  0  0
 12 13  2  0  0  0  0
 12 36  1  0  0  0  0
 13 14  1  0  0  0  0
 13 37  1  0  0  0  0
 14 15  2  0  0  0  0
 14 38  1  0  0  0  0
 15 39  1  0  0  0  0
 16 17  1  0  0  0  0
 17 24  1  0  0  0  0
 17 18  2  0  0  0  0
 18 19  1  0  0  0  0
 19 20  2  0  0  0  0
 19 21  1  0  0  0  0
 21 22  1  0  0  0  0
 22 23  2  0  0  0  0
 22 24  1  0  0  0  0
 24 25  1  0  0  0  0
 25 40  1  0  0  0  0
 25 41  1  0  0  0  0
 25 42  1  0  0  0  0
M  CHG  1  21  -1
M  END
> <s_m_source_file>
AV-unprocessed.smi

> <i_m_source_file_index>
481

> <i_lp_mmshare_version>
43012

> <i_f3d_flags>
0

> <s_epik_input>
W0NIM11uMWMoPU8pW25IXWMoPU8pYyhjMTIpbihbQ0gyXVtDSDJdT1tDSDNdKWMobjIpW05IXS9OPVtDSF0vYzNbY0hdW2NIXVtjSF1bY0hdW2NIXTM=

> <s_epik_cmdline>
J2VwaWtfcHl0aG9uJywgJy1waCcsICc3LjAnLCAnLXRuJywgJzgnLCAnLW1hJywgJzIwMCcsICctbWV0YWxfYmluZGluZycsICctaW1hZScsICc8aW5maWxlLm1hZT4nLCAnLW9tYWUnLCAnPG91dGZpbGUubWFlPic=

> <r_epik_Ionization_Penalty>
4.48471

> <r_epik_Ionization_Penalty_Charging>
4.58449e-09

> <r_epik_Ionization_Penalty_Neutral>
4.48471

> <r_epik_State_Penalty>
4.48428

> <r_epik_Charging_Adjusted_Penalty>
4.48428

> <i_epik_Tot_Q>
-1

> <i_epik_Tot_abs_Q>
1

> <r_epik_Metal_State_Penalty>
0.811551

> <b_epik_Metal_Only>
1

> <s_epik_Chemistry_Notes>
This compound has an imine and may undergo hydrolysis.

> <s_lp_Force_Field>
OPLS_2005

> <r_lp_Energy>
49.411

> <b_lp_Chiralities_Consistent>
1

> <s_lp_Variant>
AV-unprocessed.smi:481-4

> <Gold.Version>
5.8.1

> <Gold.Id.Protein>
6NUR|6NUR_protein|mol2

> <Gold.PLP.Fitness>
50.6960

> <Gold.PLP.PLP>
-37.4799

> <Gold.PLP.part.hbond>
-4.6720

> <Gold.PLP.part.metal>
0.0000

> <Gold.PLP.part.buried>
-6.6010

> <Gold.PLP.part.nonpolar>
-27.1431

> <Gold.PLP.part.repulsive>
0.3952

> <Gold.PLP.ligand.clash>
0.0000

> <Gold.PLP.ligand.torsion>
0.9357

> <Gold.PLP.Chemscore.Hbond>
4.8480

> <Gold.PLP.Chemscore.CHOScore>
0.0000

> <Gold.PLP.Chemscore.Metal>
0.0000

> <Gold.Chemscore.Hbonds>
donor molecule, donor type, donor heavy atom, donor atom, acceptor molecule, acceptor atom, score
      P1  H  6896  6908       L1     2  0.70
      P1  H  6931  6943       L1     8  0.75
      P1  H 10752 10763       L1    21  0.94

> <Gold.PLP.Chemscore.Internal.Correction>
0.5435

> <Gold.Rescore>
     Score         DG    S(hbond)    S(metal)    S(lipo)     H(rot)  DE(clash)    DE(int)     intcor
     19.01     -19.91       2.89        0.00      74.20       1.52       0.05       0.85       ----

> <Gold.Chemscore.Fitness>
19.0107

> <Gold.Chemscore.DG>
-19.9064

> <Gold.Chemscore.ZeroCoef>
-5.4800

> <Gold.Chemscore.Hbond>
2.8874

> <Gold.Chemscore.Metal>
0.0000

> <Gold.Chemscore.Lipo>
74.1983

> <Gold.Chemscore.Internal_Hbond>
0.0000

> <Gold.Chemscore.DEClash>
0.0457

> <Gold.Chemscore.DEInternal>
0.8500

> <Gold.Chemscore.Rot>
1.5230

> <Gold.Chemscore.Internal.Correction>
   9.000000E+99

> <Gold.Chemscore.Hbonds>
donor molecule, donor type, donor heavy atom, donor atom, acceptor molecule, acceptor atom, score
      P1  H  6896  6908       L1     2  0.07
      P1  H  6931  6943       L1     8  0.09
      P1  H 10752 10763       L1    21  0.29

> <Gold.Chemscore.Hbond.Weighted>
-9.6440

> <Gold.Chemscore.Metal.Weighted>
-0.0000

> <Gold.Chemscore.Lipo.Weighted>
-8.6812

> <Gold.Chemscore.Internal_Hbond.Weighted>
0.0000

> <Gold.Chemscore.DEClash.Weighted>
0.0457

> <Gold.Chemscore.DEInternal.Weighted>
0.8500

> <Gold.Chemscore.Rot.Weighted>
3.8989

> <Gold.Chemscore.Internal.Correction.Weighted>
   9.000000E+99

> <Gold.Protein.RotatedTorsions>
[ 6907 6896 6895 6894 ] final  118.56 input  -60.11 | X-H torsion
[ 7974 7965 7964 7962 ] final  -58.79 input  175.53 | X-H torsion
[ 8008 7997 7996 7995 ] final -155.86 input   59.86 | X-H torsion
[ 10167 10162 10161 10158 ] final   17.48 input  -65.29 | X-H torsion
[ 10718 10713 10712 10709 ] final  -50.50 input   66.30 | X-H torsion
[ 10763 10752 10751 10750 ] final   57.34 input  -60.55 | X-H torsion
[ 11005 11000 10999 10996 ] final  137.30 input  -57.11 | X-H torsion

> <Gold.Protein.ActiveResidues>
 VAL166  LYS551  ARG553  GLY616  TRP617  ASP618  TYR619  PRO620  LYS621  CYS622 
 ASP623  PHE694  ASN695  SER759  ASP760  ASP761  ALA762  ILE779  LEU786  VAL792 
 PHE793  MET794  SER795  GLU796  ALA797  LYS798  CYS799  TRP800  GLU811  SER814 

> <Gold.Protein.RotatedAtoms>
  152.4534  133.7675  159.6780 H   0  0  0  0  0  0  0  0  0  0  0  0  # atno 6907 bound_to 6896
  150.8453  133.7861  159.3051 H   0  0  0  0  0  0  0  0  0  0  0  0  # atno 6908 bound_to 6896
  151.5473  135.1070  159.9993 H   0  0  0  0  0  0  0  0  0  0  0  0  # atno 6909 bound_to 6896
  145.8351  140.8454  143.0063 H   0  0  0  0  0  0  0  0  0  0  0  0  # atno 7974 bound_to 7965
  155.7083  140.0775  157.2382 H   0  0  0  0  0  0  0  0  0  0  0  0  # atno 8008 bound_to 7997
  154.4062  140.1635  156.2321 H   0  0  0  0  0  0  0  0  0  0  0  0  # atno 8009 bound_to 7997
  155.9306  140.3391  155.6249 H   0  0  0  0  0  0  0  0  0  0  0  0  # atno 8010 bound_to 7997
  140.5723  143.9138  150.6722 H   0  0  0  0  0  0  0  0  0  0  0  0  # atno 10167 bound_to 10162
  156.1795  130.4150  149.9528 H   0  0  0  0  0  0  0  0  0  0  0  0  # atno 10718 bound_to 10713
  152.9848  135.5645  154.5374 H   0  0  0  0  0  0  0  0  0  0  0  0  # atno 10763 bound_to 10752
  154.4835  135.2789  155.1554 H   0  0  0  0  0  0  0  0  0  0  0  0  # atno 10764 bound_to 10752
  154.3053  135.6299  153.5495 H   0  0  0  0  0  0  0  0  0  0  0  0  # atno 10765 bound_to 10752
  140.0105  134.9441  157.0267 H   0  0  0  0  0  0  0  0  0  0  0  0  # atno 11005 bound_to 11000
  144.6737  140.0729  143.7472 LP  0  0  0  0  0  0  0  0  0  0  0  0  # atno 17320 bound_to 7965
  145.9528  139.2745  143.1202 LP  0  0  0  0  0  0  0  0  0  0  0  0  # atno 17321 bound_to 7965
  140.2616  143.3519  152.1317 LP  0  0  0  0  0  0  0  0  0  0  0  0  # atno 17342 bound_to 10162
  139.5124  144.6916  151.5744 LP  0  0  0  0  0  0  0  0  0  0  0  0  # atno 17343 bound_to 10162
  156.7303  130.9041  151.3625 LP  0  0  0  0  0  0  0  0  0  0  0  0  # atno 17370 bound_to 10713
  157.6858  130.9184  150.0383 LP  0  0  0  0  0  0  0  0  0  0  0  0  # atno 17371 bound_to 10713
  140.4563  134.1530  155.7186 LP  0  0  0  0  0  0  0  0  0  0  0  0  # atno 17394 bound_to 11000
  141.1707  133.8614  157.1578 LP  0  0  0  0  0  0  0  0  0  0  0  0  # atno 17395 bound_to 11000

$$$$
