AV-unprocessed.smi:171|AV-procd|sdf|1421|dock8
  -GOLD-   2262019193D 1   1.00000     0.00000
 Structure written by MMmdl.
 56 59  0  0  0  0  0  0  0  0  1 V2000
  150.6822  133.7109  156.7903 C   0  0  0  0  0  0  0  0  0  0  0  0
  149.3300  134.3184  157.1960 C   0  0  0  0  0  0  0  0  0  0  0  0
  148.2101  133.2806  157.0226 C   0  0  0  0  0  0  0  0  0  0  0  0
  148.9828  135.6219  156.4393 C   0  0  0  0  0  0  0  0  0  0  0  0
  147.7325  136.3871  156.9705 C   0  0  1  0  0  0  0  0  0  0  0  0
  147.7526  136.7211  158.4834 C   0  0  0  0  0  0  0  0  0  0  0  0
  148.4003  136.0365  159.2722 O   0  0  0  0  0  0  0  0  0  0  0  0
  147.0375  137.7790  158.9068 N   0  0  0  0  0  0  0  0  0  0  0  0
  146.2704  138.6936  158.0572 C   0  0  0  0  0  0  0  0  0  0  0  0
  146.1684  138.2358  156.5867 C   0  0  0  0  0  0  0  0  0  0  0  0
  147.3975  137.5714  156.1589 N   0  0  0  0  0  0  0  0  0  0  0  0
  148.3638  138.4544  155.7854 C   0  0  0  0  0  0  0  0  0  0  0  0
  148.7486  138.5545  154.4848 N   0  0  0  0  0  0  0  0  0  0  0  0
  149.7088  139.4122  154.1286 C   0  0  0  0  0  0  0  0  0  0  0  0
  150.4088  140.2473  154.8985 N   0  0  0  0  0  0  0  0  0  0  0  0
  150.0308  140.1488  156.2051 C   0  0  0  0  0  0  0  0  0  0  0  0
  149.0249  139.2886  156.7284 C   0  0  0  0  0  0  0  0  0  0  0  0
  148.9095  139.4728  158.1009 N   0  0  0  0  0  0  0  0  0  0  0  0
  149.8007  140.3863  158.3743 C   0  0  0  0  0  0  0  0  0  0  0  0
  150.5275  140.8399  157.2963 N   0  0  0  0  0  0  0  0  0  0  0  0
  151.5837  141.8405  157.3139 C   0  0  0  0  0  0  0  0  0  0  0  0
  151.2078  143.1183  158.1097 C   0  0  2  0  0  0  0  0  0  0  0  0
  149.8304  143.3808  157.8992 O   0  0  0  0  0  0  0  0  0  0  0  0
  151.9889  144.3563  157.6741 C   0  0  0  0  0  0  0  0  0  0  0  0
  152.0545  145.1884  158.9453 C   0  0  0  0  0  0  0  0  0  0  0  0
  152.2648  144.2035  159.9409 O   0  0  0  0  0  0  0  0  0  0  0  0
  151.4505  143.0720  159.6455 C   0  0  2  0  0  0  0  0  0  0  0  0
  152.1567  141.8252  160.2006 C   0  0  0  0  0  0  0  0  0  0  0  0
  150.7158  133.4929  155.7224 H   0  0  0  0  0  0  0  0  0  0  0  0
  150.8684  132.7786  157.3242 H   0  0  0  0  0  0  0  0  0  0  0  0
  151.5084  134.3813  157.0252 H   0  0  0  0  0  0  0  0  0  0  0  0
  149.3818  134.5545  158.2597 H   0  0  0  0  0  0  0  0  0  0  0  0
  148.0957  132.9927  155.9769 H   0  0  0  0  0  0  0  0  0  0  0  0
  147.2521  133.6704  157.3676 H   0  0  0  0  0  0  0  0  0  0  0  0
  148.4190  132.3765  157.5955 H   0  0  0  0  0  0  0  0  0  0  0  0
  149.8537  136.2783  156.4074 H   0  0  0  0  0  0  0  0  0  0  0  0
  148.8104  135.3345  155.4015 H   0  0  0  0  0  0  0  0  0  0  0  0
  146.8793  135.7203  156.8394 H   0  0  0  0  0  0  0  0  0  0  0  0
  147.0512  137.9846  159.8952 H   0  0  0  0  0  0  0  0  0  0  0  0
  145.2770  138.8429  158.4810 H   0  0  0  0  0  0  0  0  0  0  0  0
  146.7738  139.6602  158.0973 H   0  0  0  0  0  0  0  0  0  0  0  0
  145.3511  137.5206  156.4869 H   0  0  0  0  0  0  0  0  0  0  0  0
  145.9038  139.0764  155.9441 H   0  0  0  0  0  0  0  0  0  0  0  0
  149.9522  139.4304  153.0767 H   0  0  0  0  0  0  0  0  0  0  0  0
  149.9564  140.7528  159.3784 H   0  0  0  0  0  0  0  0  0  0  0  0
  152.4806  141.3810  157.7310 H   0  0  0  0  0  0  0  0  0  0  0  0
  151.8165  142.0902  156.2785 H   0  0  0  0  0  0  0  0  0  0  0  0
  149.7347  143.8407  157.0793 H   0  0  0  0  0  0  0  0  0  0  0  0
  153.0041  144.0779  157.3879 H   0  0  0  0  0  0  0  0  0  0  0  0
  151.5419  144.8891  156.8335 H   0  0  0  0  0  0  0  0  0  0  0  0
  152.8586  145.9241  158.9287 H   0  0  0  0  0  0  0  0  0  0  0  0
  151.1113  145.7057  159.1275 H   0  0  0  0  0  0  0  0  0  0  0  0
  150.5086  143.1994  160.1825 H   0  0  0  0  0  0  0  0  0  0  0  0
  151.5719  140.9232  160.0202 H   0  0  0  0  0  0  0  0  0  0  0  0
  152.2959  141.9122  161.2782 H   0  0  0  0  0  0  0  0  0  0  0  0
  153.1426  141.6894  159.7555 H   0  0  0  0  0  0  0  0  0  0  0  0
  1  2  1  0  0  0  0
  1 29  1  0  0  0  0
  1 30  1  0  0  0  0
  1 31  1  0  0  0  0
  2  3  1  0  0  0  0
  2  4  1  0  0  0  0
  2 32  1  0  0  0  0
  3 33  1  0  0  0  0
  3 34  1  0  0  0  0
  3 35  1  0  0  0  0
  4  5  1  0  0  0  0
  4 36  1  0  0  0  0
  4 37  1  0  0  0  0
  5 11  1  0  0  0  0
  5  6  1  0  0  0  0
  5 38  1  0  0  0  0
  6  7  2  0  0  0  0
  6  8  1  0  0  0  0
  8  9  1  0  0  0  0
  8 39  1  0  0  0  0
  9 10  1  0  0  0  0
  9 40  1  0  0  0  0
  9 41  1  0  0  0  0
 10 11  1  0  0  0  0
 10 42  1  0  0  0  0
 10 43  1  0  0  0  0
 11 12  1  0  0  0  0
 12 17  1  0  0  0  0
 12 13  2  0  0  0  0
 13 14  1  0  0  0  0
 14 15  2  0  0  0  0
 14 44  1  0  0  0  0
 15 16  1  0  0  0  0
 16 20  1  0  0  0  0
 16 17  2  0  0  0  0
 17 18  1  0  0  0  0
 18 19  2  0  0  0  0
 19 20  1  0  0  0  0
 19 45  1  0  0  0  0
 20 21  1  0  0  0  0
 21 22  1  0  0  0  0
 21 46  1  0  0  0  0
 21 47  1  0  0  0  0
 22 27  1  0  0  0  0
 22 23  1  0  0  0  0
 22 24  1  0  0  0  0
 23 48  1  0  0  0  0
 24 25  1  0  0  0  0
 24 49  1  0  0  0  0
 24 50  1  0  0  0  0
 25 26  1  0  0  0  0
 25 51  1  0  0  0  0
 25 52  1  0  0  0  0
 26 27  1  0  0  0  0
 27 28  1  0  0  0  0
 27 53  1  0  0  0  0
 28 54  1  0  0  0  0
 28 55  1  0  0  0  0
 28 56  1  0  0  0  0
M  END
> <s_m_source_file>
AV-unprocessed.smi

> <i_m_source_file_index>
171

> <i_lp_mmshare_version>
43012

> <i_f3d_flags>
0

> <s_epik_input>
W0NIM11bQ0hdKFtDSDNdKVtDSDJdW0NAQEhdMUMoPU8pW05IXVtDSDJdW0NIMl1OMWMobltjSF1uMiljKGMyMyluW2NIXW4zW0NIMl1bQ0BAXTQoW09IXSlbQ0gyXVtDSDJdT1tDQEhdNFtDSDNd

> <s_epik_cmdline>
J2VwaWtfcHl0aG9uJywgJy1waCcsICc3LjAnLCAnLXRuJywgJzgnLCAnLW1hJywgJzIwMCcsICctbWV0YWxfYmluZGluZycsICctaW1hZScsICc8aW5maWxlLm1hZT4nLCAnLW9tYWUnLCAnPG91dGZpbGUubWFlPic=

> <r_lp_tautomer_probability>
1

> <r_epik_Ionization_Penalty>
0.000670584

> <r_epik_Ionization_Penalty_Charging>
0

> <r_epik_Ionization_Penalty_Neutral>
0.000670584

> <r_epik_State_Penalty>
0.000304767

> <r_epik_Charging_Adjusted_Penalty>
0.000304767

> <i_epik_Tot_Q>
0

> <i_epik_Tot_abs_Q>
0

> <r_epik_Metal_State_Penalty>
-0

> <b_epik_Metal_Only>
0

> <s_lp_Force_Field>
OPLS_2005

> <r_lp_Energy>
45.2633

> <b_lp_Chiralities_Consistent>
1

> <s_lp_Variant>
AV-unprocessed.smi:171-8

> <Gold.Version>
5.8.1

> <Gold.Id.Protein>
6NUR|6NUR_protein|mol2

> <Gold.PLP.Fitness>
43.2220

> <Gold.PLP.PLP>
-32.5586

> <Gold.PLP.part.hbond>
-3.0000

> <Gold.PLP.part.metal>
0.0000

> <Gold.PLP.part.buried>
-5.5906

> <Gold.PLP.part.nonpolar>
-25.6278

> <Gold.PLP.part.repulsive>
0.4248

> <Gold.PLP.ligand.clash>
0.0000

> <Gold.PLP.ligand.torsion>
0.7246

> <Gold.PLP.Chemscore.Hbond>
3.0000

> <Gold.PLP.Chemscore.CHOScore>
0.9134

> <Gold.PLP.Chemscore.Metal>
0.0000

> <Gold.Chemscore.Hbonds>
donor molecule, donor type, donor heavy atom, donor atom, acceptor molecule, acceptor atom, score
      L1  H    23    48       P1  8028  1.00
      P1  H  7989  7998       L1    15  0.85
      L1  C    14    44       P1  7957  1.00

> <Gold.PLP.Chemscore.Internal.Correction>
0.3721

> <Gold.Rescore>
     Score         DG    S(hbond)    S(metal)    S(lipo)     H(rot)  DE(clash)    DE(int)     intcor
     10.86     -15.87       2.30        0.00      80.25       2.61       0.25       4.76       ----

> <Gold.Chemscore.Fitness>
10.8582

> <Gold.Chemscore.DG>
-15.8693

> <Gold.Chemscore.ZeroCoef>
-5.4800

> <Gold.Chemscore.Hbond>
2.2979

> <Gold.Chemscore.Metal>
0.0000

> <Gold.Chemscore.Lipo>
80.2503

> <Gold.Chemscore.Internal_Hbond>
0.0000

> <Gold.Chemscore.DEClash>
0.2482

> <Gold.Chemscore.DEInternal>
4.7629

> <Gold.Chemscore.Rot>
2.6074

> <Gold.Chemscore.Internal.Correction>
   9.000000E+99

> <Gold.Chemscore.Hbonds>
donor molecule, donor type, donor heavy atom, donor atom, acceptor molecule, acceptor atom, score
      L1  H    23    48       P1  8028  0.88
      P1  H  7989  7998       L1    15  0.14

> <Gold.Chemscore.Hbond.Weighted>
-7.6749

> <Gold.Chemscore.Metal.Weighted>
-0.0000

> <Gold.Chemscore.Lipo.Weighted>
-9.3893

> <Gold.Chemscore.Internal_Hbond.Weighted>
0.0000

> <Gold.Chemscore.DEClash.Weighted>
0.2482

> <Gold.Chemscore.DEInternal.Weighted>
4.7629

> <Gold.Chemscore.Rot.Weighted>
6.6748

> <Gold.Chemscore.Internal.Correction.Weighted>
   9.000000E+99

> <Gold.Protein.RotatedTorsions>
[ 6907 6896 6895 6894 ] final  178.06 input  -60.11 | X-H torsion
[ 7974 7965 7964 7962 ] final   61.24 input  175.53 | X-H torsion
[ 8008 7997 7996 7995 ] final  -95.41 input   59.86 | X-H torsion
[ 10167 10162 10161 10158 ] final  167.39 input  -65.29 | X-H torsion
[ 10718 10713 10712 10709 ] final  -66.54 input   66.30 | X-H torsion
[ 10763 10752 10751 10750 ] final  109.82 input  -60.55 | X-H torsion
[ 11005 11000 10999 10996 ] final -119.72 input  -57.11 | X-H torsion

> <Gold.Protein.ActiveResidues>
 VAL166  LYS551  ARG553  GLY616  TRP617  ASP618  TYR619  PRO620  LYS621  CYS622 
 ASP623  PHE694  ASN695  SER759  ASP760  ASP761  ALA762  ILE779  LEU786  VAL792 
 PHE793  MET794  SER795  GLU796  ALA797  LYS798  CYS799  TRP800  GLU811  SER814 

> <Gold.Protein.RotatedAtoms>
  151.6939  133.3311  159.3249 H   0  0  0  0  0  0  0  0  0  0  0  0  # atno 6907 bound_to 6896
  150.7766  134.6674  159.6382 H   0  0  0  0  0  0  0  0  0  0  0  0  # atno 6908 bound_to 6896
  152.3810  134.6593  160.0195 H   0  0  0  0  0  0  0  0  0  0  0  0  # atno 6909 bound_to 6896
  145.8869  139.3483  143.0672 H   0  0  0  0  0  0  0  0  0  0  0  0  # atno 7974 bound_to 7965
  154.7610  140.0480  157.0973 H   0  0  0  0  0  0  0  0  0  0  0  0  # atno 8008 bound_to 7997
  154.9937  140.3116  155.4876 H   0  0  0  0  0  0  0  0  0  0  0  0  # atno 8009 bound_to 7997
  156.2904  140.2214  156.5043 H   0  0  0  0  0  0  0  0  0  0  0  0  # atno 8010 bound_to 7997
  139.4944  144.3927  151.9499 H   0  0  0  0  0  0  0  0  0  0  0  0  # atno 10167 bound_to 10162
  156.0607  130.4263  150.1724 H   0  0  0  0  0  0  0  0  0  0  0  0  # atno 10718 bound_to 10713
  153.4402  135.3768  155.2223 H   0  0  0  0  0  0  0  0  0  0  0  0  # atno 10763 bound_to 10752
  154.8753  135.3861  154.4162 H   0  0  0  0  0  0  0  0  0  0  0  0  # atno 10764 bound_to 10752
  153.4706  135.7087  153.6059 H   0  0  0  0  0  0  0  0  0  0  0  0  # atno 10765 bound_to 10752
  141.0195  134.0145  157.3303 H   0  0  0  0  0  0  0  0  0  0  0  0  # atno 11005 bound_to 11000
  145.8955  140.9276  143.0530 LP  0  0  0  0  0  0  0  0  0  0  0  0  # atno 17320 bound_to 7965
  144.6729  140.0963  143.7463 LP  0  0  0  0  0  0  0  0  0  0  0  0  # atno 17321 bound_to 7965
  140.3365  144.3255  150.5976 LP  0  0  0  0  0  0  0  0  0  0  0  0  # atno 17342 bound_to 10162
  140.5602  143.2193  151.7778 LP  0  0  0  0  0  0  0  0  0  0  0  0  # atno 17343 bound_to 10162
  156.9792  130.9859  151.3441 LP  0  0  0  0  0  0  0  0  0  0  0  0  # atno 17370 bound_to 10713
  157.5613  130.8247  149.8269 LP  0  0  0  0  0  0  0  0  0  0  0  0  # atno 17371 bound_to 10713
  139.9137  135.0194  156.7796 LP  0  0  0  0  0  0  0  0  0  0  0  0  # atno 17394 bound_to 11000
  140.6597  133.9656  155.7798 LP  0  0  0  0  0  0  0  0  0  0  0  0  # atno 17395 bound_to 11000

$$$$
