AV-unprocessed.smi:2322|AV-procd|sdf|9286|dock4
  -GOLD-   2272012513D 1   1.00000     0.00000
 Structure written by MMmdl.
 38 40  0  0  0  0  0  0  0  0  1 V2000
  147.4676  132.9811  152.3878 C   0  0  0  0  0  0  0  0  0  0  0  0
  148.4095  132.3830  153.3143 N   0  0  0  0  0  0  0  0  0  0  0  0
  148.3935  131.0514  153.5566 N   0  0  0  0  0  0  0  0  0  0  0  0
  149.3840  130.9011  154.4348 C   0  0  0  0  0  0  0  0  0  0  0  0
  150.0509  132.0404  154.7847 N   0  0  0  0  0  0  0  0  0  0  0  0
  149.3885  132.9263  154.0450 C   0  0  0  0  0  0  0  0  0  0  0  0
  149.6237  134.3316  153.9735 N   0  0  0  0  0  0  0  0  0  0  0  0
  150.4281  135.1367  154.6990 C   0  0  0  0  0  0  0  0  0  0  0  0
  151.1239  134.6858  155.6073 O   0  0  0  0  0  0  0  0  0  0  0  0
  150.4162  136.4387  154.3698 N   0  0  0  0  0  0  0  0  0  0  0  0
  151.1908  137.4882  155.0236 C   0  0  1  0  0  0  0  0  0  0  0  0
  152.4203  137.8690  154.1825 C   0  0  0  0  0  0  0  0  0  0  0  0
  153.1365  139.0846  154.7922 C   0  0  0  0  0  0  0  0  0  0  0  0
  152.2285  140.1739  154.9207 O   0  0  0  0  0  0  0  0  0  0  0  0
  151.1400  139.8969  155.7969 C   0  0  1  0  0  0  0  0  0  0  0  0
  150.3127  141.1594  155.9352 C   0  0  0  0  0  0  0  0  0  0  0  0
  150.7633  142.2866  156.8349 C   0  0  0  0  0  0  0  0  0  0  0  0
  149.5634  141.4529  157.2143 C   0  0  0  0  0  0  0  0  0  0  0  0
  150.3118  138.7302  155.2279 C   0  0  0  0  0  0  0  0  0  0  0  0
  147.9918  133.2923  151.4841 H   0  0  0  0  0  0  0  0  0  0  0  0
  146.9999  133.8520  152.8475 H   0  0  0  0  0  0  0  0  0  0  0  0
  146.6891  132.2662  152.1186 H   0  0  0  0  0  0  0  0  0  0  0  0
  149.6361  129.9320  154.8394 H   0  0  0  0  0  0  0  0  0  0  0  0
  149.0945  134.8063  153.2566 H   0  0  0  0  0  0  0  0  0  0  0  0
  149.8168  136.7230  153.6078 H   0  0  0  0  0  0  0  0  0  0  0  0
  151.5220  137.1378  156.0032 H   0  0  0  0  0  0  0  0  0  0  0  0
  153.1100  137.0274  154.1117 H   0  0  0  0  0  0  0  0  0  0  0  0
  152.1129  138.1080  153.1633 H   0  0  0  0  0  0  0  0  0  0  0  0
  153.5628  138.8367  155.7655 H   0  0  0  0  0  0  0  0  0  0  0  0
  153.9643  139.3904  154.1520 H   0  0  0  0  0  0  0  0  0  0  0  0
  151.5296  139.6275  156.7806 H   0  0  0  0  0  0  0  0  0  0  0  0
  149.8093  141.4556  155.0165 H   0  0  0  0  0  0  0  0  0  0  0  0
  151.6760  142.1436  157.4098 H   0  0  0  0  0  0  0  0  0  0  0  0
  150.5824  143.3035  156.4929 H   0  0  0  0  0  0  0  0  0  0  0  0
  148.5816  141.9130  157.1256 H   0  0  0  0  0  0  0  0  0  0  0  0
  149.6783  140.7542  158.0407 H   0  0  0  0  0  0  0  0  0  0  0  0
  149.8684  139.0296  154.2769 H   0  0  0  0  0  0  0  0  0  0  0  0
  149.4838  138.4962  155.8983 H   0  0  0  0  0  0  0  0  0  0  0  0
  1  2  1  0  0  0  0
  1 20  1  0  0  0  0
  1 21  1  0  0  0  0
  1 22  1  0  0  0  0
  2  6  1  0  0  0  0
  2  3  1  0  0  0  0
  3  4  2  0  0  0  0
  4  5  1  0  0  0  0
  4 23  1  0  0  0  0
  5  6  2  0  0  0  0
  6  7  1  0  0  0  0
  7  8  1  0  0  0  0
  7 24  1  0  0  0  0
  8  9  2  0  0  0  0
  8 10  1  0  0  0  0
 10 11  1  0  0  0  0
 10 25  1  0  0  0  0
 11 19  1  0  0  0  0
 11 12  1  0  0  0  0
 11 26  1  0  0  0  0
 12 13  1  0  0  0  0
 12 27  1  0  0  0  0
 12 28  1  0  0  0  0
 13 14  1  0  0  0  0
 13 29  1  0  0  0  0
 13 30  1  0  0  0  0
 14 15  1  0  0  0  0
 15 16  1  0  0  0  0
 15 19  1  0  0  0  0
 15 31  1  0  0  0  0
 16 18  1  0  0  0  0
 16 17  1  0  0  0  0
 16 32  1  0  0  0  0
 17 18  1  0  0  0  0
 17 33  1  0  0  0  0
 17 34  1  0  0  0  0
 18 35  1  0  0  0  0
 18 36  1  0  0  0  0
 19 37  1  0  0  0  0
 19 38  1  0  0  0  0
M  END
> <s_m_source_file>
AV-unprocessed.smi

> <i_m_source_file_index>
2322

> <i_lp_mmshare_version>
43012

> <i_f3d_flags>
0

> <s_epik_input>
W0NIM11uMW5bY0hdbmMxW05IXUMoPU8pW05IXVtDQEBIXTJbQ0gyXVtDSDJdT1tDQEhdKFtDSDJdMilbQ0hdM1tDSDJdW0NIMl0z

> <s_epik_cmdline>
J2VwaWtfcHl0aG9uJywgJy1waCcsICc3LjAnLCAnLXRuJywgJzgnLCAnLW1hJywgJzIwMCcsICctbWV0YWxfYmluZGluZycsICctaW1hZScsICc8aW5maWxlLm1hZT4nLCAnLW9tYWUnLCAnPG91dGZpbGUubWFlPic=

> <r_lp_tautomer_probability>
1

> <r_epik_Ionization_Penalty>
2.16399e-05

> <r_epik_Ionization_Penalty_Charging>
0

> <r_epik_Ionization_Penalty_Neutral>
2.16399e-05

> <r_epik_State_Penalty>
-0

> <r_epik_Charging_Adjusted_Penalty>
0

> <i_epik_Tot_Q>
0

> <i_epik_Tot_abs_Q>
0

> <r_epik_Metal_State_Penalty>
-0

> <b_epik_Metal_Only>
0

> <s_lp_Force_Field>
OPLS_2005

> <r_lp_Energy>
20.3548

> <b_lp_Chiralities_Consistent>
1

> <s_lp_Variant>
AV-unprocessed.smi:2322-2

> <Gold.Version>
5.8.1

> <Gold.Id.Protein>
6NUR|6NUR_protein|mol2

> <Gold.PLP.Fitness>
41.1266

> <Gold.PLP.PLP>
-33.1635

> <Gold.PLP.part.hbond>
-4.5757

> <Gold.PLP.part.metal>
0.0000

> <Gold.PLP.part.buried>
1.3680

> <Gold.PLP.part.nonpolar>
-29.5009

> <Gold.PLP.part.repulsive>
0.2970

> <Gold.PLP.ligand.clash>
0.0000

> <Gold.PLP.ligand.torsion>
0.7956

> <Gold.PLP.Chemscore.Hbond>
2.8268

> <Gold.PLP.Chemscore.CHOScore>
0.0000

> <Gold.PLP.Chemscore.Metal>
0.0000

> <Gold.Chemscore.Hbonds>
donor molecule, donor type, donor heavy atom, donor atom, acceptor molecule, acceptor atom, score
      L1  H     7    24       P1  7948  0.74
      L1  H    10    25       P1  7948  0.93
      P1  H  7989  7998       L1    14  0.66
      P1  H 10752 10763       L1     9  0.43

> <Gold.PLP.Chemscore.Internal.Correction>
1.0738

> <Gold.Rescore>
     Score         DG    S(hbond)    S(metal)    S(lipo)     H(rot)  DE(clash)    DE(int)     intcor
     13.89     -15.83       2.02        0.00      59.30       1.31       0.03       1.91       ----

> <Gold.Chemscore.Fitness>
13.8908

> <Gold.Chemscore.DG>
-15.8313

> <Gold.Chemscore.ZeroCoef>
-5.4800

> <Gold.Chemscore.Hbond>
2.0240

> <Gold.Chemscore.Metal>
0.0000

> <Gold.Chemscore.Lipo>
59.2966

> <Gold.Chemscore.Internal_Hbond>
0.0000

> <Gold.Chemscore.DEClash>
0.0259

> <Gold.Chemscore.DEInternal>
1.9147

> <Gold.Chemscore.Rot>
1.3072

> <Gold.Chemscore.Internal.Correction>
   9.000000E+99

> <Gold.Chemscore.Hbonds>
donor molecule, donor type, donor heavy atom, donor atom, acceptor molecule, acceptor atom, score
      L1  H     7    24       P1  7948  0.09
      L1  H    10    25       P1  7948  0.39
      P1  H  7989  7998       L1    14  0.49
      P1  H 10752 10763       L1     9  0.08

> <Gold.Chemscore.Hbond.Weighted>
-6.7601

> <Gold.Chemscore.Metal.Weighted>
-0.0000

> <Gold.Chemscore.Lipo.Weighted>
-6.9377

> <Gold.Chemscore.Internal_Hbond.Weighted>
0.0000

> <Gold.Chemscore.DEClash.Weighted>
0.0259

> <Gold.Chemscore.DEInternal.Weighted>
1.9147

> <Gold.Chemscore.Rot.Weighted>
3.3464

> <Gold.Chemscore.Internal.Correction.Weighted>
   9.000000E+99

> <Gold.Protein.RotatedTorsions>
[ 6907 6896 6895 6894 ] final -125.65 input  -60.11 | X-H torsion
[ 7974 7965 7964 7962 ] final   73.72 input  175.53 | X-H torsion
[ 8008 7997 7996 7995 ] final   58.91 input   59.86 | X-H torsion
[ 10167 10162 10161 10158 ] final   78.37 input  -65.29 | X-H torsion
[ 10718 10713 10712 10709 ] final  -14.08 input   66.30 | X-H torsion
[ 10763 10752 10751 10750 ] final   80.37 input  -60.55 | X-H torsion
[ 11005 11000 10999 10996 ] final -178.01 input  -57.11 | X-H torsion

> <Gold.Protein.ActiveResidues>
 VAL166  LYS551  ARG553  GLY616  TRP617  ASP618  TYR619  PRO620  LYS621  CYS622 
 ASP623  PHE694  ASN695  SER759  ASP760  ASP761  ALA762  ILE779  LEU786  VAL792 
 PHE793  MET794  SER795  GLU796  ALA797  LYS798  CYS799  TRP800  GLU811  SER814 

> <Gold.Protein.RotatedAtoms>
  150.8889  133.7270  159.2910 H   0  0  0  0  0  0  0  0  0  0  0  0  # atno 6907 bound_to 6896
  151.4827  135.1051  159.9791 H   0  0  0  0  0  0  0  0  0  0  0  0  # atno 6908 bound_to 6896
  152.4807  133.8202  159.7105 H   0  0  0  0  0  0  0  0  0  0  0  0  # atno 6909 bound_to 6896
  145.7373  139.2707  143.1507 H   0  0  0  0  0  0  0  0  0  0  0  0  # atno 7974 bound_to 7965
  155.5577  140.3487  155.4484 H   0  0  0  0  0  0  0  0  0  0  0  0  # atno 8008 bound_to 7997
  156.0537  140.1323  157.0047 H   0  0  0  0  0  0  0  0  0  0  0  0  # atno 8009 bound_to 7997
  154.4446  140.0999  156.6399 H   0  0  0  0  0  0  0  0  0  0  0  0  # atno 8010 bound_to 7997
  139.9717  144.5890  150.7979 H   0  0  0  0  0  0  0  0  0  0  0  0  # atno 10167 bound_to 10162
  156.6211  130.4875  149.6164 H   0  0  0  0  0  0  0  0  0  0  0  0  # atno 10718 bound_to 10713
  153.1028  135.4805  154.8898 H   0  0  0  0  0  0  0  0  0  0  0  0  # atno 10763 bound_to 10752
  154.7398  135.3079  154.8751 H   0  0  0  0  0  0  0  0  0  0  0  0  # atno 10764 bound_to 10752
  153.9362  135.6839  153.4798 H   0  0  0  0  0  0  0  0  0  0  0  0  # atno 10765 bound_to 10752
  140.4346  134.6488  157.4728 H   0  0  0  0  0  0  0  0  0  0  0  0  # atno 11005 bound_to 11000
  146.0481  140.8097  142.9795 LP  0  0  0  0  0  0  0  0  0  0  0  0  # atno 17320 bound_to 7965
  144.6879  140.3011  143.7263 LP  0  0  0  0  0  0  0  0  0  0  0  0  # atno 17321 bound_to 7965
  140.7519  143.2982  151.3150 LP  0  0  0  0  0  0  0  0  0  0  0  0  # atno 17342 bound_to 10162
  139.6476  144.0422  152.2602 LP  0  0  0  0  0  0  0  0  0  0  0  0  # atno 17343 bound_to 10162
  156.2311  130.6795  151.1464 LP  0  0  0  0  0  0  0  0  0  0  0  0  # atno 17370 bound_to 10713
  157.7227  131.0671  150.6066 LP  0  0  0  0  0  0  0  0  0  0  0  0  # atno 17371 bound_to 10713
  140.0111  134.6689  155.9379 LP  0  0  0  0  0  0  0  0  0  0  0  0  # atno 17394 bound_to 11000
  141.1731  133.6538  156.4727 LP  0  0  0  0  0  0  0  0  0  0  0  0  # atno 17395 bound_to 11000

$$$$
