AV-unprocessed.smi:1200|AV-procd|sdf|5025|dock9
  -GOLD-   22720 4 43D 1   1.00000     0.00000
 Structure written by MMmdl.
 42 43  0  0  0  0  0  0  0  0  3 V2000
  145.4294  135.7908  151.0017 C   0  0  0  0  0  0  0  0  0  0  0  0
  145.2924  135.8448  152.4523 N   0  5  0  0  0  0  0  0  0  0  0  0
  145.8323  136.8285  153.2206 C   0  0  0  0  0  0  0  0  0  0  0  0
  146.0688  136.8667  154.4327 O   0  0  0  0  0  0  0  0  0  0  0  0
  146.2079  138.0493  152.3728 C   0  0  0  0  0  0  0  0  0  0  0  0
  146.8436  139.0837  153.2259 N   0  3  2  0  0  0  0  0  0  0  0  0
  147.0289  140.3713  152.5101 C   0  0  0  0  0  0  0  0  0  0  0  0
  147.5437  141.4647  153.4613 C   0  0  0  0  0  0  0  0  0  0  0  0
  148.8522  141.0373  154.1457 C   0  0  1  0  0  0  0  0  0  0  0  0
  149.2628  142.0535  155.1105 N   0  0  0  0  0  0  0  0  0  0  0  0
  150.1329  141.8614  156.1124 C   0  0  0  0  0  0  0  0  0  0  0  0
  150.7032  140.7903  156.3157 O   0  0  0  0  0  0  0  0  0  0  0  0
  150.2921  142.9835  156.8356 N   0  0  0  0  0  0  0  0  0  0  0  0
  151.0948  143.2061  157.9888 C   0  0  0  0  0  0  0  0  0  0  0  0
  152.0877  142.3163  158.4687 C   0  0  0  0  0  0  0  0  0  0  0  0
  152.8020  142.6579  159.6332 C   0  0  0  0  0  0  0  0  0  0  0  0
  152.4965  143.8710  160.2795 C   0  0  0  0  0  0  0  0  0  0  0  0
  151.5478  144.7240  159.8403 N   0  0  0  0  0  0  0  0  0  0  0  0
  150.8675  144.3901  158.7229 C   0  0  0  0  0  0  0  0  0  0  0  0
  148.6509  139.6784  154.8406 C   0  0  0  0  0  0  0  0  0  0  0  0
  148.1083  138.6249  153.8612 C   0  0  0  0  0  0  0  0  0  0  0  0
  144.9376  134.9143  150.5805 H   0  0  0  0  0  0  0  0  0  0  0  0
  146.4710  135.7441  150.6827 H   0  0  0  0  0  0  0  0  0  0  0  0
  144.9872  136.6582  150.5107 H   0  0  0  0  0  0  0  0  0  0  0  0
  146.8529  137.8004  151.5271 H   0  0  0  0  0  0  0  0  0  0  0  0
  145.2797  138.4339  151.9478 H   0  0  0  0  0  0  0  0  0  0  0  0
  147.7247  140.2315  151.6811 H   0  0  0  0  0  0  0  0  0  0  0  0
  146.0804  140.6928  152.0782 H   0  0  0  0  0  0  0  0  0  0  0  0
  147.6963  142.3920  152.9074 H   0  0  0  0  0  0  0  0  0  0  0  0
  146.7817  141.6754  154.2136 H   0  0  0  0  0  0  0  0  0  0  0  0
  149.6219  140.9353  153.3779 H   0  0  0  0  0  0  0  0  0  0  0  0
  148.8454  142.9677  155.0142 H   0  0  0  0  0  0  0  0  0  0  0  0
  149.7902  143.7943  156.5043 H   0  0  0  0  0  0  0  0  0  0  0  0
  152.3131  141.3805  157.9833 H   0  0  0  0  0  0  0  0  0  0  0  0
  153.5653  142.0017  160.0244 H   0  0  0  0  0  0  0  0  0  0  0  0
  153.0252  144.1615  161.1753 H   0  0  0  0  0  0  0  0  0  0  0  0
  150.1145  145.0959  158.4034 H   0  0  0  0  0  0  0  0  0  0  0  0
  149.5923  139.3295  155.2670 H   0  0  0  0  0  0  0  0  0  0  0  0
  147.9559  139.7869  155.6749 H   0  0  0  0  0  0  0  0  0  0  0  0
  147.9443  137.6925  154.4020 H   0  0  0  0  0  0  0  0  0  0  0  0
  148.8493  138.4136  153.0889 H   0  0  0  0  0  0  0  0  0  0  0  0
  146.1865  139.2633  153.9718 H   0  0  0  0  0  0  0  0  0  0  0  0
  1  2  1  0  0  0  0
  1 22  1  0  0  0  0
  1 23  1  0  0  0  0
  1 24  1  0  0  0  0
  2  3  1  0  0  0  0
  3  4  2  0  0  0  0
  3  5  1  0  0  0  0
  5  6  1  0  0  0  0
  5 25  1  0  0  0  0
  5 26  1  0  0  0  0
  6 21  1  0  0  0  0
  6  7  1  0  0  0  0
  6 42  1  0  0  0  0
  7  8  1  0  0  0  0
  7 27  1  0  0  0  0
  7 28  1  0  0  0  0
  8  9  1  0  0  0  0
  8 29  1  0  0  0  0
  8 30  1  0  0  0  0
  9 10  1  0  0  0  0
  9 20  1  0  0  0  0
  9 31  1  0  0  0  0
 10 11  1  0  0  0  0
 10 32  1  0  0  0  0
 11 12  2  0  0  0  0
 11 13  1  0  0  0  0
 13 14  1  0  0  0  0
 13 33  1  0  0  0  0
 14 19  1  0  0  0  0
 14 15  2  0  0  0  0
 15 16  1  0  0  0  0
 15 34  1  0  0  0  0
 16 17  2  0  0  0  0
 16 35  1  0  0  0  0
 17 18  1  0  0  0  0
 17 36  1  0  0  0  0
 18 19  2  0  0  0  0
 19 37  1  0  0  0  0
 20 21  1  0  0  0  0
 20 38  1  0  0  0  0
 20 39  1  0  0  0  0
 21 40  1  0  0  0  0
 21 41  1  0  0  0  0
M  CHG  1   2  -1
M  CHG  1   6   1
M  END
> <s_m_source_file>
AV-unprocessed.smi

> <i_m_source_file_index>
1200

> <i_lp_mmshare_version>
43012

> <i_f3d_flags>
0

> <s_epik_input>
W0NIM11bTkhdQyg9TylbQ0gyXU4xW0NIMl1bQ0gyXVtDSF0oW0NIMl1bQ0gyXTEpW05IXUMoPU8pW05IXWMyW2NIXVtjSF1bY0hdbltjSF0y

> <s_epik_cmdline>
J2VwaWtfcHl0aG9uJywgJy1waCcsICc3LjAnLCAnLXRuJywgJzgnLCAnLW1hJywgJzIwMCcsICctbWV0YWxfYmluZGluZycsICctaW1hZScsICc8aW5maWxlLm1hZT4nLCAnLW9tYWUnLCAnPG91dGZpbGUubWFlPic=

> <r_epik_Ionization_Penalty>
6.14345

> <r_epik_Ionization_Penalty_Charging>
6.13946

> <r_epik_Ionization_Penalty_Neutral>
0.00398477

> <r_epik_State_Penalty>
6.94483

> <r_epik_Charging_Adjusted_Penalty>
13.0843

> <i_epik_Tot_Q>
0

> <i_epik_Tot_abs_Q>
2

> <r_epik_Metal_State_Penalty>
2.87819

> <b_epik_Metal_Only>
1

> <s_lp_Force_Field>
OPLS_2005

> <r_lp_Energy>
13.1486

> <b_lp_Chiralities_Consistent>
1

> <s_lp_Variant>
AV-unprocessed.smi:1200-4

> <Gold.Version>
5.8.1

> <Gold.Id.Protein>
6NUR|6NUR_protein|mol2

> <Gold.PLP.Fitness>
43.5235

> <Gold.PLP.PLP>
-36.2339

> <Gold.PLP.part.hbond>
-1.9461

> <Gold.PLP.part.metal>
0.0000

> <Gold.PLP.part.buried>
-3.2541

> <Gold.PLP.part.nonpolar>
-31.6023

> <Gold.PLP.part.repulsive>
0.5606

> <Gold.PLP.ligand.clash>
0.0000

> <Gold.PLP.ligand.torsion>
0.3979

> <Gold.PLP.Chemscore.Hbond>
1.9120

> <Gold.PLP.Chemscore.CHOScore>
0.7705

> <Gold.PLP.Chemscore.Metal>
0.0000

> <Gold.Chemscore.Hbonds>
donor molecule, donor type, donor heavy atom, donor atom, acceptor molecule, acceptor atom, score
      L1  H    10    32       P1  8028  0.90
      L1  H    13    33       P1  8028  1.00
      L1  C    19    37       P1  8029  0.79

> <Gold.PLP.Chemscore.Internal.Correction>
0.0379

> <Gold.Rescore>
     Score         DG    S(hbond)    S(metal)    S(lipo)     H(rot)  DE(clash)    DE(int)     intcor
     16.54     -19.86       1.96        0.00     102.53       1.63       0.15       3.18       ----

> <Gold.Chemscore.Fitness>
16.5357

> <Gold.Chemscore.DG>
-19.8608

> <Gold.Chemscore.ZeroCoef>
-5.4800

> <Gold.Chemscore.Hbond>
1.9650

> <Gold.Chemscore.Metal>
0.0000

> <Gold.Chemscore.Lipo>
102.5329

> <Gold.Chemscore.Internal_Hbond>
0.0000

> <Gold.Chemscore.DEClash>
0.1489

> <Gold.Chemscore.DEInternal>
3.1762

> <Gold.Chemscore.Rot>
1.6323

> <Gold.Chemscore.Internal.Correction>
   9.000000E+99

> <Gold.Chemscore.Hbonds>
donor molecule, donor type, donor heavy atom, donor atom, acceptor molecule, acceptor atom, score
      L1  H    10    32       P1  8028  0.88
      L1  H    13    33       P1  8028  0.93

> <Gold.Chemscore.Hbond.Weighted>
-6.5630

> <Gold.Chemscore.Metal.Weighted>
-0.0000

> <Gold.Chemscore.Lipo.Weighted>
-11.9963

> <Gold.Chemscore.Internal_Hbond.Weighted>
0.0000

> <Gold.Chemscore.DEClash.Weighted>
0.1489

> <Gold.Chemscore.DEInternal.Weighted>
3.1762

> <Gold.Chemscore.Rot.Weighted>
4.1786

> <Gold.Chemscore.Internal.Correction.Weighted>
   9.000000E+99

> <Gold.Protein.RotatedTorsions>
[ 6907 6896 6895 6894 ] final  174.37 input  -60.11 | X-H torsion
[ 7974 7965 7964 7962 ] final -140.69 input  175.53 | X-H torsion
[ 8008 7997 7996 7995 ] final   58.78 input   59.86 | X-H torsion
[ 10167 10162 10161 10158 ] final   30.01 input  -65.29 | X-H torsion
[ 10718 10713 10712 10709 ] final   35.71 input   66.30 | X-H torsion
[ 10763 10752 10751 10750 ] final  -47.49 input  -60.55 | X-H torsion
[ 11005 11000 10999 10996 ] final   75.61 input  -57.11 | X-H torsion

> <Gold.Protein.ActiveResidues>
 VAL166  LYS551  ARG553  GLY616  TRP617  ASP618  TYR619  PRO620  LYS621  CYS622 
 ASP623  PHE694  ASN695  SER759  ASP760  ASP761  ALA762  ILE779  LEU786  VAL792 
 PHE793  MET794  SER795  GLU796  ALA797  LYS798  CYS799  TRP800  GLU811  SER814 

> <Gold.Protein.RotatedAtoms>
  151.7533  133.3329  159.3397 H   0  0  0  0  0  0  0  0  0  0  0  0  # atno 6907 bound_to 6896
  150.7526  134.6172  159.6126 H   0  0  0  0  0  0  0  0  0  0  0  0  # atno 6908 bound_to 6896
  152.3454  134.7080  160.0303 H   0  0  0  0  0  0  0  0  0  0  0  0  # atno 6909 bound_to 6896
  144.8577  140.6170  143.5348 H   0  0  0  0  0  0  0  0  0  0  0  0  # atno 7974 bound_to 7965
  155.5556  140.3487  155.4479 H   0  0  0  0  0  0  0  0  0  0  0  0  # atno 8008 bound_to 7997
  156.0551  140.1327  157.0031 H   0  0  0  0  0  0  0  0  0  0  0  0  # atno 8009 bound_to 7997
  154.4453  140.0996  156.6419 H   0  0  0  0  0  0  0  0  0  0  0  0  # atno 8010 bound_to 7997
  140.4716  144.0754  150.6239 H   0  0  0  0  0  0  0  0  0  0  0  0  # atno 10167 bound_to 10162
  157.3260  130.7473  149.6816 H   0  0  0  0  0  0  0  0  0  0  0  0  # atno 10718 bound_to 10713
  154.0623  135.6616  153.4813 H   0  0  0  0  0  0  0  0  0  0  0  0  # atno 10763 bound_to 10752
  153.0422  135.5137  154.7647 H   0  0  0  0  0  0  0  0  0  0  0  0  # atno 10764 bound_to 10752
  154.6687  135.3026  154.9737 H   0  0  0  0  0  0  0  0  0  0  0  0  # atno 10765 bound_to 10752
  139.9336  134.7532  156.1292 H   0  0  0  0  0  0  0  0  0  0  0  0  # atno 11005 bound_to 11000
  145.4373  139.1540  143.3990 LP  0  0  0  0  0  0  0  0  0  0  0  0  # atno 17320 bound_to 7965
  146.2836  140.4492  142.8766 LP  0  0  0  0  0  0  0  0  0  0  0  0  # atno 17321 bound_to 7965
  140.3970  143.2723  151.9993 LP  0  0  0  0  0  0  0  0  0  0  0  0  # atno 17342 bound_to 10162
  139.4819  144.6029  151.7573 LP  0  0  0  0  0  0  0  0  0  0  0  0  # atno 17343 bound_to 10162
  155.9690  130.4209  150.4444 LP  0  0  0  0  0  0  0  0  0  0  0  0  # atno 17370 bound_to 10713
  157.2468  131.0537  151.2403 LP  0  0  0  0  0  0  0  0  0  0  0  0  # atno 17371 bound_to 10713
  141.0938  133.6704  156.2599 LP  0  0  0  0  0  0  0  0  0  0  0  0  # atno 17394 bound_to 11000
  140.6136  134.5434  157.5537 LP  0  0  0  0  0  0  0  0  0  0  0  0  # atno 17395 bound_to 11000

$$$$
