#       Name:                AV-unprocessed.smi:176
#       Creating user name   scv26
#       Creation time:       Thu Mar 26 19:22:06 2020


#       File generated by GOLD software.
#

@<TRIPOS>MOLECULE
AV-unprocessed.smi:176
    67    71     1
SMALL
NO_CHARGES


@<TRIPOS>ATOM
      1 ****        -7.0410  -2.9312   0.5717 O.3            1 S1                 0.0000
      2 ****        -6.4170  -2.7327  -0.6801 C.3            1 S1                 0.0000
      3 ****        -5.8692  -1.3025  -0.8331 C.3            1 S1                 0.0000
      4 ****        -7.0419  -0.3302  -1.0798 C.3            1 S1                 0.0000
      5 ****        -7.8014  -0.0994   0.0888 O.3            1 S1                 0.0000
      6 ****        -4.8134  -0.8577   0.2051 C.3            1 S1                 0.0000
      7 ****        -4.0002  -0.2005  -0.9114 C.3            1 S1                 0.0000
      8 ****        -2.5693  -0.1476  -0.8433 N.pl3          1 S1                 0.0000
      9 ****        -1.6805  -0.4555  -1.8487 C.2            1 S1                 0.0000
     10 ****        -0.4211  -0.2939  -1.5470 N.2            1 S1                 0.0000
     11 ****        -0.4435   0.1940  -0.2458 C.ar           1 S1                 0.0000
     12 ****         0.5613   0.5935   0.6802 C.ar           1 S1                 0.0000
     13 ****         1.8872   0.5103   0.4024 N.3            1 S1                 0.0000
     14 ****         2.3723  -0.8544   0.1963 C.3            1 S1                 0.0000
     15 ****         3.7645  -0.8613  -0.4633 C.3            1 S1                 0.0000
     16 ****         4.7729   0.0214   0.3024 C.3            1 S1                 0.0000
     17 ****         4.9931  -0.5803   1.5682 O.3            1 S1                 0.0000
     18 ****         6.1348   0.0949  -0.4233 C.3            1 S1                 0.0000
     19 ****         7.1152   1.0614   0.2689 C.3            1 S1                 0.0000
     20 ****         6.5014   2.4593   0.4470 C.3            1 S1                 0.0000
     21 ****         5.1560   2.3930   1.1885 C.3            1 S1                 0.0000
     22 ****         4.1766   1.4430   0.4724 C.3            1 S1                 0.0000
     23 ****         2.7904   1.3937   1.1431 C.3            1 S1                 0.0000
     24 ****         0.1474   1.0683   1.8859 N.ar           1 S1                 0.0000
     25 ****        -1.1559   1.1370   2.1729 C.ar           1 S1                 0.0000
     26 ****        -2.1970   0.7874   1.4149 N.ar           1 S1                 0.0000
     27 ****        -1.7894   0.3154   0.2020 C.ar           1 S1                 0.0000
     28 ****        -4.7191  -1.1668  -1.8569 C.3            1 S1                 0.0000
     29 ****        -7.3522  -3.8222   0.6155 H              1 S1                 0.0000
     30 ****        -5.6137  -3.4655  -0.7601 H              1 S1                 0.0000
     31 ****        -7.1280  -2.9720  -1.4715 H              1 S1                 0.0000
     32 ****        -6.6831   0.6376  -1.4307 H              1 S1                 0.0000
     33 ****        -7.7060  -0.7052  -1.8591 H              1 S1                 0.0000
     34 ****        -8.4968   0.5060  -0.1181 H              1 S1                 0.0000
     35 ****        -5.1743  -0.1655   0.9664 H              1 S1                 0.0000
     36 ****        -4.2886  -1.6985   0.6629 H              1 S1                 0.0000
     37 ****        -4.3330   0.8252  -1.0786 H              1 S1                 0.0000
     38 ****        -1.9946  -0.8142  -2.8182 H              1 S1                 0.0000
     39 ****         2.4124  -1.3598   1.1621 H              1 S1                 0.0000
     40 ****         1.6844  -1.4294  -0.4227 H              1 S1                 0.0000
     41 ****         4.1330  -1.8851  -0.5399 H              1 S1                 0.0000
     42 ****         3.6679  -0.4966  -1.4869 H              1 S1                 0.0000
     43 ****         4.1688  -0.6177   2.0287 H              1 S1                 0.0000
     44 ****         6.5818  -0.8976  -0.4941 H              1 S1                 0.0000
     45 ****         5.9795   0.4303  -1.4498 H              1 S1                 0.0000
     46 ****         7.4000   0.6627   1.2434 H              1 S1                 0.0000
     47 ****         8.0351   1.1327  -0.3117 H              1 S1                 0.0000
     48 ****         7.1939   3.1028   0.9904 H              1 S1                 0.0000
     49 ****         6.3561   2.9194  -0.5313 H              1 S1                 0.0000
     50 ****         5.3168   2.0636   2.2156 H              1 S1                 0.0000
     51 ****         4.7253   3.3929   1.2509 H              1 S1                 0.0000
     52 ****         4.0222   1.8521  -0.5280 H              1 S1                 0.0000
     53 ****         2.3710   2.4003   1.1790 H              1 S1                 0.0000
     54 ****         2.8786   1.0460   2.1734 H              1 S1                 0.0000
     55 ****        -1.3991   1.5232   3.1518 H              1 S1                 0.0000
     56 ****        -4.1639  -2.0954  -2.0031 H              1 S1                 0.0000
     57 ****        -5.0047  -0.7311  -2.8149 H              1 S1                 0.0000
     58 ****        -7.8109  -2.3003   0.6682 LP             1 S1                 0.0000
     59 ****        -6.3823  -2.7679   1.3062 LP             1 S1                 0.0000
     60 ****        -7.2159   0.2904   0.7996 LP             1 S1                 0.0000
     61 ****        -8.1907  -0.9614   0.4133 LP             1 S1                 0.0000
     62 ****         0.3769  -0.4787  -2.1205 LP             1 S1                 0.0000
     63 ****         1.9325   0.9361  -0.5013 LP             1 S1                 0.0000
     64 ****         5.6478  -0.0352   2.0918 LP             1 S1                 0.0000
     65 ****         5.3529  -1.5050   1.4444 LP             1 S1                 0.0000
     66 ****         0.8218   1.3675   2.5609 LP             1 S1                 0.0000
     67 ****        -3.1528   0.8619   1.6995 LP             1 S1                 0.0000
@<TRIPOS>BOND
    1    1    2 1     
    2    1   29 1     
    3    2    3 1     
    4    2   30 1     
    5    2   31 1     
    6    3   28 1     
    7    3    4 1     
    8    3    6 1     
    9    4    5 1     
   10    4   32 1     
   11    4   33 1     
   12    5   34 1     
   13    6    7 1     
   14    6   35 1     
   15    6   36 1     
   16    7    8 1     
   17    7   28 1     
   18    7   37 1     
   19    8   27 1     
   20    8    9 1     
   21    9   10 2     
   22    9   38 1     
   23   10   11 1     
   24   11   27 ar    
   25   11   12 ar    
   26   12   13 1     
   27   12   24 ar    
   28   13   23 1     
   29   13   14 1     
   30   14   15 1     
   31   14   39 1     
   32   14   40 1     
   33   15   16 1     
   34   15   41 1     
   35   15   42 1     
   36   16   22 1     
   37   16   17 1     
   38   16   18 1     
   39   17   43 1     
   40   18   19 1     
   41   18   44 1     
   42   18   45 1     
   43   19   20 1     
   44   19   46 1     
   45   19   47 1     
   46   20   21 1     
   47   20   48 1     
   48   20   49 1     
   49   21   22 1     
   50   21   50 1     
   51   21   51 1     
   52   22   23 1     
   53   22   52 1     
   54   23   53 1     
   55   23   54 1     
   56   24   25 ar    
   57   25   26 ar    
   58   25   55 1     
   59   26   27 ar    
   60   28   56 1     
   61   28   57 1     
   62    1   58 1     
   63    1   59 1     
   64    5   60 1     
   65    5   61 1     
   66   10   62 1     
   67   13   63 1     
   68   17   64 1     
   69   17   65 1     
   70   24   66 1     
   71   26   67 1     
@<TRIPOS>SUBSTRUCTURE
      1 S1             1
@<TRIPOS>SET
LONE_PAIRS      STATIC     ATOMS    <user>   **** ""
10 58 59 60 61 62 63 64 65 66 67
DONOR_HYDROGENS      STATIC     ATOMS    <user>   **** ""
3 29 34 43
ATOM$BLUE        STATIC     ATOMS    COLORGROUP SYSTEM
10 58 59 60 61 62 63 64 65 66 67
ATOM$RED        STATIC     ATOMS    COLORGROUP SYSTEM
3 29 34 43
