AV-unprocessed.smi:3303|AV-procd|sdf|12693|dock2
  -GOLD-   2272019 23D 1   1.00000     0.00000
 Structure written by MMmdl.
 44 45  0  0  0  0  0  0  0  0  2 V2000
  147.8484  139.7931  154.3995 C   0  0  0  0  0  0  0  0  0  0  0  0
  148.9279  138.7146  154.2003 C   0  0  2  0  0  0  0  0  0  0  0  0
  148.5937  137.4071  154.9453 C   0  0  0  0  0  0  0  0  0  0  0  0
  149.5919  136.3495  154.6478 N   0  3  2  0  0  0  0  0  0  0  0  0
  149.1828  135.0178  155.1498 C   0  0  0  0  0  0  0  0  0  0  0  0
  150.9882  136.7330  155.0019 C   0  0  2  0  0  0  0  0  0  0  0  0
  151.2650  136.7271  156.5215 C   0  0  0  0  0  0  0  0  0  0  0  0
  151.3780  138.0640  154.3172 C   0  0  0  0  0  0  0  0  0  0  0  0
  150.3565  139.2086  154.5236 C   0  0  2  0  0  0  0  0  0  0  0  0
  150.4181  139.7739  155.8680 N   0  0  0  0  0  0  0  0  0  0  0  0
  151.1479  141.0337  155.9251 C   0  0  0  0  0  0  0  0  0  0  0  0
  150.4203  142.0408  156.8321 C   0  0  0  0  0  0  0  0  0  0  0  0
  151.3298  142.6658  157.8777 C   0  0  0  0  0  0  0  0  0  0  0  0
  151.6392  144.0416  157.8267 C   0  0  0  0  0  0  0  0  0  0  0  0
  152.5141  144.5696  158.7958 C   0  0  0  0  0  0  0  0  0  0  0  0
  153.0439  143.7064  159.7738 C   0  0  0  0  0  0  0  0  0  0  0  0
  152.6718  142.3480  159.7406 C   0  0  0  0  0  0  0  0  0  0  0  0
  151.8369  141.8306  158.8137 N   0  0  0  0  0  0  0  0  0  0  0  0
  147.7260  140.0557  155.4507 H   0  0  0  0  0  0  0  0  0  0  0  0
  146.8806  139.4475  154.0350 H   0  0  0  0  0  0  0  0  0  0  0  0
  148.0973  140.7037  153.8539 H   0  0  0  0  0  0  0  0  0  0  0  0
  148.9193  138.4757  153.1355 H   0  0  0  0  0  0  0  0  0  0  0  0
  148.5315  137.5784  156.0205 H   0  0  0  0  0  0  0  0  0  0  0  0
  147.6086  137.0594  154.6313 H   0  0  0  0  0  0  0  0  0  0  0  0
  149.0467  135.0230  156.2318 H   0  0  0  0  0  0  0  0  0  0  0  0
  149.9276  134.2621  154.8983 H   0  0  0  0  0  0  0  0  0  0  0  0
  148.2387  134.7153  154.6958 H   0  0  0  0  0  0  0  0  0  0  0  0
  151.6370  135.9680  154.5731 H   0  0  0  0  0  0  0  0  0  0  0  0
  152.2742  137.0813  156.7336 H   0  0  0  0  0  0  0  0  0  0  0  0
  151.1894  135.7239  156.9400 H   0  0  0  0  0  0  0  0  0  0  0  0
  150.5752  137.3629  157.0733 H   0  0  0  0  0  0  0  0  0  0  0  0
  152.3858  138.3580  154.6076 H   0  0  0  0  0  0  0  0  0  0  0  0
  151.4422  137.8768  153.2445 H   0  0  0  0  0  0  0  0  0  0  0  0
  150.5901  140.0142  153.8256 H   0  0  0  0  0  0  0  0  0  0  0  0
  149.4814  139.9279  156.2144 H   0  0  0  0  0  0  0  0  0  0  0  0
  152.1596  140.8835  156.2990 H   0  0  0  0  0  0  0  0  0  0  0  0
  151.2338  141.4409  154.9171 H   0  0  0  0  0  0  0  0  0  0  0  0
  149.9970  142.8379  156.2198 H   0  0  0  0  0  0  0  0  0  0  0  0
  149.5740  141.5591  157.3245 H   0  0  0  0  0  0  0  0  0  0  0  0
  151.2222  144.6771  157.0593 H   0  0  0  0  0  0  0  0  0  0  0  0
  152.7762  145.6173  158.7870 H   0  0  0  0  0  0  0  0  0  0  0  0
  153.7180  144.0764  160.5320 H   0  0  0  0  0  0  0  0  0  0  0  0
  153.0589  141.6574  160.4749 H   0  0  0  0  0  0  0  0  0  0  0  0
  149.5926  136.2627  153.6415 H   0  0  0  0  0  0  0  0  0  0  0  0
  1  2  1  0  0  0  0
  1 19  1  0  0  0  0
  1 20  1  0  0  0  0
  1 21  1  0  0  0  0
  2  9  1  0  0  0  0
  2  3  1  0  0  0  0
  2 22  1  0  0  0  0
  3  4  1  0  0  0  0
  3 23  1  0  0  0  0
  3 24  1  0  0  0  0
  4  5  1  0  0  0  0
  4  6  1  0  0  0  0
  4 44  1  0  0  0  0
  5 25  1  0  0  0  0
  5 26  1  0  0  0  0
  5 27  1  0  0  0  0
  6  7  1  0  0  0  0
  6  8  1  0  0  0  0
  6 28  1  0  0  0  0
  7 29  1  0  0  0  0
  7 30  1  0  0  0  0
  7 31  1  0  0  0  0
  8  9  1  0  0  0  0
  8 32  1  0  0  0  0
  8 33  1  0  0  0  0
  9 10  1  0  0  0  0
  9 34  1  0  0  0  0
 10 11  1  0  0  0  0
 10 35  1  0  0  0  0
 11 12  1  0  0  0  0
 11 36  1  0  0  0  0
 11 37  1  0  0  0  0
 12 13  1  0  0  0  0
 12 38  1  0  0  0  0
 12 39  1  0  0  0  0
 13 18  1  0  0  0  0
 13 14  2  0  0  0  0
 14 15  1  0  0  0  0
 14 40  1  0  0  0  0
 15 16  2  0  0  0  0
 15 41  1  0  0  0  0
 16 17  1  0  0  0  0
 16 42  1  0  0  0  0
 17 18  2  0  0  0  0
 17 43  1  0  0  0  0
M  CHG  1   4   1
M  END
> <s_m_source_file>
AV-unprocessed.smi

> <i_m_source_file_index>
3303

> <i_lp_mmshare_version>
43012

> <i_f3d_flags>
0

> <s_epik_input>
W0NIM11bQ0BASF0xW0NIMl1OKFtDSDNdKVtDQEBIXShbQ0gzXSlbQ0gyXVtDQEhdMVtOSF1bQ0gyXVtDSDJdYzJbY0hdW2NIXVtjSF1bY0hdbjI=

> <s_epik_cmdline>
J2VwaWtfcHl0aG9uJywgJy1waCcsICc3LjAnLCAnLXRuJywgJzgnLCAnLW1hJywgJzIwMCcsICctbWV0YWxfYmluZGluZycsICctaW1hZScsICc8aW5maWxlLm1hZT4nLCAnLW9tYWUnLCAnPG91dGZpbGUubWFlPic=

> <r_epik_Ionization_Penalty>
2.31085

> <r_epik_Ionization_Penalty_Charging>
0.000313057

> <r_epik_Ionization_Penalty_Neutral>
2.31054

> <r_epik_State_Penalty>
2.4087

> <r_epik_Charging_Adjusted_Penalty>
2.40902

> <i_epik_Tot_Q>
1

> <i_epik_Tot_abs_Q>
1

> <r_epik_Metal_State_Penalty>
2.30979

> <b_epik_Metal_Only>
0

> <s_lp_Force_Field>
OPLS_2005

> <r_lp_Energy>
27.6401

> <b_lp_Chiralities_Consistent>
1

> <s_lp_Variant>
AV-unprocessed.smi:3303-37

> <Gold.Version>
5.8.1

> <Gold.Id.Protein>
6NUR|6NUR_protein|mol2

> <Gold.PLP.Fitness>
41.8855

> <Gold.PLP.PLP>
-38.4712

> <Gold.PLP.part.hbond>
-1.0000

> <Gold.PLP.part.metal>
0.0000

> <Gold.PLP.part.buried>
-4.1010

> <Gold.PLP.part.nonpolar>
-33.4729

> <Gold.PLP.part.repulsive>
0.0299

> <Gold.PLP.ligand.clash>
0.0000

> <Gold.PLP.ligand.torsion>
1.2976

> <Gold.PLP.Chemscore.Hbond>
2.0000

> <Gold.PLP.Chemscore.CHOScore>
0.0000

> <Gold.PLP.Chemscore.Metal>
0.0000

> <Gold.Chemscore.Hbonds>
donor molecule, donor type, donor heavy atom, donor atom, acceptor molecule, acceptor atom, score
      L1  H     4    44       P1  7948  2.00

> <Gold.PLP.Chemscore.Internal.Correction>
0.0094

> <Gold.Rescore>
     Score         DG    S(hbond)    S(metal)    S(lipo)     H(rot)  DE(clash)    DE(int)     intcor
     17.94     -19.20       0.98        0.00     118.45       1.33       0.00       1.26       ----

> <Gold.Chemscore.Fitness>
17.9350

> <Gold.Chemscore.DG>
-19.2017

> <Gold.Chemscore.ZeroCoef>
-5.4800

> <Gold.Chemscore.Hbond>
0.9763

> <Gold.Chemscore.Metal>
0.0000

> <Gold.Chemscore.Lipo>
118.4493

> <Gold.Chemscore.Internal_Hbond>
0.0000

> <Gold.Chemscore.DEClash>
0.0029

> <Gold.Chemscore.DEInternal>
1.2638

> <Gold.Chemscore.Rot>
1.3272

> <Gold.Chemscore.Internal.Correction>
   9.000000E+99

> <Gold.Chemscore.Hbonds>
donor molecule, donor type, donor heavy atom, donor atom, acceptor molecule, acceptor atom, score
      L1  H     4    44       P1  7948  0.50

> <Gold.Chemscore.Hbond.Weighted>
-3.2608

> <Gold.Chemscore.Metal.Weighted>
-0.0000

> <Gold.Chemscore.Lipo.Weighted>
-13.8586

> <Gold.Chemscore.Internal_Hbond.Weighted>
0.0000

> <Gold.Chemscore.DEClash.Weighted>
0.0029

> <Gold.Chemscore.DEInternal.Weighted>
1.2638

> <Gold.Chemscore.Rot.Weighted>
3.3976

> <Gold.Chemscore.Internal.Correction.Weighted>
   9.000000E+99

> <Gold.Protein.RotatedTorsions>
[ 6907 6896 6895 6894 ] final -155.52 input  -60.11 | X-H torsion
[ 7974 7965 7964 7962 ] final -131.18 input  175.53 | X-H torsion
[ 8008 7997 7996 7995 ] final -166.63 input   59.86 | X-H torsion
[ 10167 10162 10161 10158 ] final   71.69 input  -65.29 | X-H torsion
[ 10718 10713 10712 10709 ] final -148.92 input   66.30 | X-H torsion
[ 10763 10752 10751 10750 ] final  120.97 input  -60.55 | X-H torsion
[ 11005 11000 10999 10996 ] final  138.58 input  -57.11 | X-H torsion

> <Gold.Protein.ActiveResidues>
 VAL166  LYS551  ARG553  GLY616  TRP617  ASP618  TYR619  PRO620  LYS621  CYS622 
 ASP623  PHE694  ASN695  SER759  ASP760  ASP761  ALA762  ILE779  LEU786  VAL792 
 PHE793  MET794  SER795  GLU796  ALA797  LYS798  CYS799  TRP800  GLU811  SER814 

> <Gold.Protein.RotatedAtoms>
  151.2737  133.4242  159.2622 H   0  0  0  0  0  0  0  0  0  0  0  0  # atno 6907 bound_to 6896
  151.0422  134.9615  159.8178 H   0  0  0  0  0  0  0  0  0  0  0  0  # atno 6908 bound_to 6896
  152.5367  134.2695  159.9018 H   0  0  0  0  0  0  0  0  0  0  0  0  # atno 6909 bound_to 6896
  144.9404  140.7232  143.4850 H   0  0  0  0  0  0  0  0  0  0  0  0  # atno 7974 bound_to 7965
  155.8665  140.0986  157.1579 H   0  0  0  0  0  0  0  0  0  0  0  0  # atno 8008 bound_to 7997
  154.3994  140.1355  156.4088 H   0  0  0  0  0  0  0  0  0  0  0  0  # atno 8009 bound_to 7997
  155.7798  140.3458  155.5294 H   0  0  0  0  0  0  0  0  0  0  0  0  # atno 8010 bound_to 7997
  140.0433  144.5371  150.7417 H   0  0  0  0  0  0  0  0  0  0  0  0  # atno 10167 bound_to 10162
  156.4265  130.8054  151.2280 H   0  0  0  0  0  0  0  0  0  0  0  0  # atno 10718 bound_to 10713
  153.6068  135.3438  155.2965 H   0  0  0  0  0  0  0  0  0  0  0  0  # atno 10763 bound_to 10752
  154.8626  135.4240  154.2353 H   0  0  0  0  0  0  0  0  0  0  0  0  # atno 10764 bound_to 10752
  153.3194  135.7037  153.7116 H   0  0  0  0  0  0  0  0  0  0  0  0  # atno 10765 bound_to 10752
  140.0193  134.9404  157.0442 H   0  0  0  0  0  0  0  0  0  0  0  0  # atno 11005 bound_to 11000
  145.3000  139.1853  143.4694 LP  0  0  0  0  0  0  0  0  0  0  0  0  # atno 17320 bound_to 7965
  146.3283  140.2990  142.8619 LP  0  0  0  0  0  0  0  0  0  0  0  0  # atno 17321 bound_to 7965
  140.7250  143.2627  151.4151 LP  0  0  0  0  0  0  0  0  0  0  0  0  # atno 17342 bound_to 10162
  139.5999  144.1317  152.2187 LP  0  0  0  0  0  0  0  0  0  0  0  0  # atno 17343 bound_to 10162
  157.7508  131.0212  150.3739 LP  0  0  0  0  0  0  0  0  0  0  0  0  # atno 17370 bound_to 10713
  156.4067  130.3926  149.6921 LP  0  0  0  0  0  0  0  0  0  0  0  0  # atno 17371 bound_to 10713
  140.4415  134.1677  155.7174 LP  0  0  0  0  0  0  0  0  0  0  0  0  # atno 17394 bound_to 11000
  141.1764  133.8506  157.1408 LP  0  0  0  0  0  0  0  0  0  0  0  0  # atno 17395 bound_to 11000

$$$$
