AV-unprocessed.smi:287|AV-procd|sdf|2205|dock9
  -GOLD-   2262022 33D 1   1.00000     0.00000
 Structure written by MMmdl.
 55 58  0  0  0  0  0  0  0  0  1 V2000
  153.0709  142.9194  162.3185 C   0  0  0  0  0  0  0  0  0  0  0  0
  152.5240  142.5156  160.9926 C   0  0  0  0  0  0  0  0  0  0  0  0
  151.6793  143.1075  160.1000 C   0  0  0  0  0  0  0  0  0  0  0  0
  151.5218  142.2100  159.0020 C   0  0  0  0  0  0  0  0  0  0  0  0
  150.6539  142.4511  157.7737 C   0  0  1  0  0  0  0  0  0  0  0  0
  149.1931  142.6740  158.1999 C   0  0  0  0  0  0  0  0  0  0  0  0
  151.0160  143.6190  157.0626 O   0  0  0  0  0  0  0  0  0  0  0  0
  150.7432  141.2867  156.7607 C   0  0  0  0  0  0  0  0  0  0  0  0
  150.3239  141.6747  155.4178 N   0  0  0  0  0  0  0  0  0  0  0  0
  149.0629  141.4340  155.0031 C   0  0  0  0  0  0  0  0  0  0  0  0
  148.1216  142.4132  155.0175 N   0  0  0  0  0  0  0  0  0  0  0  0
  146.8780  142.1467  154.6074 C   0  0  0  0  0  0  0  0  0  0  0  0
  146.3774  140.9946  154.1562 N   0  0  0  0  0  0  0  0  0  0  0  0
  147.3193  140.0073  154.1374 C   0  0  0  0  0  0  0  0  0  0  0  0
  148.6760  140.1493  154.5427 C   0  0  0  0  0  0  0  0  0  0  0  0
  149.3421  138.9402  154.3945 N   0  0  0  0  0  0  0  0  0  0  0  0
  148.4280  138.1324  153.9293 C   0  0  0  0  0  0  0  0  0  0  0  0
  147.1809  138.6885  153.7475 N   0  0  0  0  0  0  0  0  0  0  0  0
  145.9504  137.9975  153.2392 C   0  0  2  0  0  0  0  0  0  0  0  0
  145.8661  136.7179  153.7963 O   0  0  0  0  0  0  0  0  0  0  0  0
  145.8753  135.7223  152.7727 C   0  0  1  0  0  0  0  0  0  0  0  0
  145.0334  134.5151  153.2131 C   0  0  0  0  0  0  0  0  0  0  0  0
  143.6653  134.8608  153.2411 O   0  0  0  0  0  0  0  0  0  0  0  0
  145.2932  136.4681  151.5707 C   0  0  2  0  0  0  0  0  0  0  0  0
  145.5772  135.8494  150.3305 O   0  0  0  0  0  0  0  0  0  0  0  0
  145.9273  137.8445  151.7063 C   0  0  2  0  0  0  0  0  0  0  0  0
  147.2130  137.9141  151.1072 O   0  0  0  0  0  0  0  0  0  0  0  0
  152.3078  141.1276  159.3183 C   0  0  0  0  0  0  0  0  0  0  0  0
  152.6195  139.8356  158.6378 C   0  0  0  0  0  0  0  0  0  0  0  0
  152.9171  141.3048  160.5241 O   0  0  0  0  0  0  0  0  0  0  0  0
  145.1215  138.5983  153.6157 H   0  0  0  0  0  0  0  0  0  0  0  0
  146.9027  135.4266  152.5535 H   0  0  0  0  0  0  0  0  0  0  0  0
  144.2115  136.5563  151.6840 H   0  0  0  0  0  0  0  0  0  0  0  0
  145.3025  138.6247  151.2701 H   0  0  0  0  0  0  0  0  0  0  0  0
  152.6892  143.8963  162.6159 H   0  0  0  0  0  0  0  0  0  0  0  0
  154.1590  142.9768  162.2868 H   0  0  0  0  0  0  0  0  0  0  0  0
  152.7913  142.1993  163.0875 H   0  0  0  0  0  0  0  0  0  0  0  0
  151.2163  144.0754  160.2233 H   0  0  0  0  0  0  0  0  0  0  0  0
  148.7982  141.8067  158.7304 H   0  0  0  0  0  0  0  0  0  0  0  0
  148.5474  142.8512  157.3388 H   0  0  0  0  0  0  0  0  0  0  0  0
  149.1009  143.5338  158.8649 H   0  0  0  0  0  0  0  0  0  0  0  0
  150.2578  143.9301  156.5921 H   0  0  0  0  0  0  0  0  0  0  0  0
  151.7848  140.9684  156.6922 H   0  0  0  0  0  0  0  0  0  0  0  0
  150.1747  140.4211  157.1043 H   0  0  0  0  0  0  0  0  0  0  0  0
  151.0538  142.0187  154.8099 H   0  0  0  0  0  0  0  0  0  0  0  0
  146.1840  142.9731  154.6478 H   0  0  0  0  0  0  0  0  0  0  0  0
  148.6397  137.0962  153.7084 H   0  0  0  0  0  0  0  0  0  0  0  0
  145.1963  133.6576  152.5597 H   0  0  0  0  0  0  0  0  0  0  0  0
  145.3128  134.2111  154.2224 H   0  0  0  0  0  0  0  0  0  0  0  0
  143.1532  134.0687  153.1859 H   0  0  0  0  0  0  0  0  0  0  0  0
  144.7695  135.7808  149.8435 H   0  0  0  0  0  0  0  0  0  0  0  0
  147.8228  137.4400  151.6517 H   0  0  0  0  0  0  0  0  0  0  0  0
  153.0320  140.0119  157.6444 H   0  0  0  0  0  0  0  0  0  0  0  0
  151.7201  139.2291  158.5300 H   0  0  0  0  0  0  0  0  0  0  0  0
  153.3484  139.2560  159.2050 H   0  0  0  0  0  0  0  0  0  0  0  0
  1  2  1  0  0  0  0
  1 35  1  0  0  0  0
  1 36  1  0  0  0  0
  1 37  1  0  0  0  0
  2 30  1  0  0  0  0
  2  3  2  0  0  0  0
  3  4  1  0  0  0  0
  3 38  1  0  0  0  0
  4  5  1  0  0  0  0
  4 28  2  0  0  0  0
  5  6  1  0  0  0  0
  5  7  1  0  0  0  0
  5  8  1  0  0  0  0
  6 39  1  0  0  0  0
  6 40  1  0  0  0  0
  6 41  1  0  0  0  0
  7 42  1  0  0  0  0
  8  9  1  0  0  0  0
  8 43  1  0  0  0  0
  8 44  1  0  0  0  0
  9 10  1  0  0  0  0
  9 45  1  0  0  0  0
 10 15  1  0  0  0  0
 10 11  2  0  0  0  0
 11 12  1  0  0  0  0
 12 13  2  0  0  0  0
 12 46  1  0  0  0  0
 13 14  1  0  0  0  0
 14 18  1  0  0  0  0
 14 15  2  0  0  0  0
 15 16  1  0  0  0  0
 16 17  2  0  0  0  0
 17 18  1  0  0  0  0
 17 47  1  0  0  0  0
 18 19  1  0  0  0  0
 19 31  1  0  0  0  0
 19 26  1  0  0  0  0
 19 20  1  0  0  0  0
 20 21  1  0  0  0  0
 21 32  1  0  0  0  0
 21 22  1  0  0  0  0
 21 24  1  0  0  0  0
 22 23  1  0  0  0  0
 22 48  1  0  0  0  0
 22 49  1  0  0  0  0
 23 50  1  0  0  0  0
 24 33  1  0  0  0  0
 24 25  1  0  0  0  0
 24 26  1  0  0  0  0
 25 51  1  0  0  0  0
 26 34  1  0  0  0  0
 26 27  1  0  0  0  0
 27 52  1  0  0  0  0
 28 29  1  0  0  0  0
 28 30  1  0  0  0  0
 29 53  1  0  0  0  0
 29 54  1  0  0  0  0
 29 55  1  0  0  0  0
M  END
> <s_m_source_file>
AV-unprocessed.smi

> <i_m_source_file_index>
287

> <i_lp_mmshare_version>
43012

> <i_f3d_flags>
0

> <s_epik_input>
W0NIM11jMVtjSF1jKGMobzEpW0NIM10pW0NAQF0oW0NIM10pKFtPSF0pW0NIMl1bTkhdYyhuW2NIXW4yKWMoYzIzKW5bY0hdbjNbQ0BASF00T1tDQEhdKFtDSDJdW09IXSlbQ0BASF0oW09IXSlbQ0BIXTRbT0hd

> <s_epik_cmdline>
J2VwaWtfcHl0aG9uJywgJy1waCcsICc3LjAnLCAnLXRuJywgJzgnLCAnLW1hJywgJzIwMCcsICctbWV0YWxfYmluZGluZycsICctaW1hZScsICc8aW5maWxlLm1hZT4nLCAnLW9tYWUnLCAnPG91dGZpbGUubWFlPic=

> <r_lp_tautomer_probability>
1

> <r_epik_Ionization_Penalty>
0.000992612

> <r_epik_Ionization_Penalty_Charging>
0

> <r_epik_Ionization_Penalty_Neutral>
0.000992612

> <r_epik_State_Penalty>
-0

> <r_epik_Charging_Adjusted_Penalty>
0

> <i_epik_Tot_Q>
0

> <i_epik_Tot_abs_Q>
0

> <r_epik_Metal_State_Penalty>
-0

> <b_epik_Metal_Only>
0

> <s_epik_Chemistry_Notes>
This compound contains an acetal/aminal-like group ( X-CH(R)-Y where X, Y are N, S, or O) that may be acid/base labile, releasing an aldehyde.

> <s_lp_Force_Field>
OPLS_2005

> <r_lp_Energy>
50.5208

> <b_lp_Chiralities_Consistent>
1

> <s_lp_Variant>
AV-unprocessed.smi:287-29

> <Gold.Version>
5.8.1

> <Gold.Id.Protein>
6NUR|6NUR_protein|mol2

> <Gold.PLP.Fitness>
46.5819

> <Gold.PLP.PLP>
-39.1134

> <Gold.PLP.part.hbond>
-3.9678

> <Gold.PLP.part.metal>
0.0000

> <Gold.PLP.part.buried>
-3.3496

> <Gold.PLP.part.nonpolar>
-37.5402

> <Gold.PLP.part.repulsive>
5.2408

> <Gold.PLP.ligand.clash>
0.0000

> <Gold.PLP.ligand.torsion>
1.8185

> <Gold.PLP.Chemscore.Hbond>
2.8016

> <Gold.PLP.Chemscore.CHOScore>
0.8825

> <Gold.PLP.Chemscore.Metal>
0.0000

> <Gold.Chemscore.Hbonds>
donor molecule, donor type, donor heavy atom, donor atom, acceptor molecule, acceptor atom, score
      L1  H     7    42       P1  8028  1.00
      L1  H    27    52       P1  7948  0.98
      P1  H  7954  7966       L1    27  0.60
      L1  C    17    47       P1  7948  0.96

> <Gold.PLP.Chemscore.Internal.Correction>
0.0530

> <Gold.Rescore>
     Score         DG    S(hbond)    S(metal)    S(lipo)     H(rot)  DE(clash)    DE(int)     intcor
      7.57     -11.86       2.76        0.00      90.86       5.27       1.36       2.92       ----

> <Gold.Chemscore.Fitness>
7.5747

> <Gold.Chemscore.DG>
-11.8569

> <Gold.Chemscore.ZeroCoef>
-5.4800

> <Gold.Chemscore.Hbond>
2.7634

> <Gold.Chemscore.Metal>
0.0000

> <Gold.Chemscore.Lipo>
90.8631

> <Gold.Chemscore.Internal_Hbond>
0.0000

> <Gold.Chemscore.DEClash>
1.3645

> <Gold.Chemscore.DEInternal>
2.9177

> <Gold.Chemscore.Rot>
5.2672

> <Gold.Chemscore.Internal.Correction>
   9.000000E+99

> <Gold.Chemscore.Hbonds>
donor molecule, donor type, donor heavy atom, donor atom, acceptor molecule, acceptor atom, score
      L1  H     7    42       P1  8028  1.00
      L1  H    27    52       P1  7948  0.93
      P1  H  7954  7966       L1    27  0.04

> <Gold.Chemscore.Hbond.Weighted>
-9.2298

> <Gold.Chemscore.Metal.Weighted>
-0.0000

> <Gold.Chemscore.Lipo.Weighted>
-10.6310

> <Gold.Chemscore.Internal_Hbond.Weighted>
0.0000

> <Gold.Chemscore.DEClash.Weighted>
1.3645

> <Gold.Chemscore.DEInternal.Weighted>
2.9177

> <Gold.Chemscore.Rot.Weighted>
13.4839

> <Gold.Chemscore.Internal.Correction.Weighted>
   9.000000E+99

> <Gold.Protein.RotatedTorsions>
[ 6907 6896 6895 6894 ] final  -77.92 input  -60.11 | X-H torsion
[ 7974 7965 7964 7962 ] final  -43.96 input  175.53 | X-H torsion
[ 8008 7997 7996 7995 ] final  111.51 input   59.86 | X-H torsion
[ 10167 10162 10161 10158 ] final  -64.11 input  -65.29 | X-H torsion
[ 10718 10713 10712 10709 ] final -120.68 input   66.30 | X-H torsion
[ 10763 10752 10751 10750 ] final  173.62 input  -60.55 | X-H torsion
[ 11005 11000 10999 10996 ] final  171.36 input  -57.11 | X-H torsion

> <Gold.Protein.ActiveResidues>
 VAL166  LYS551  ARG553  GLY616  TRP617  ASP618  TYR619  PRO620  LYS621  CYS622 
 ASP623  PHE694  ASN695  SER759  ASP760  ASP761  ALA762  ILE779  LEU786  VAL792 
 PHE793  MET794  SER795  GLU796  ALA797  LYS798  CYS799  TRP800  GLU811  SER814 

> <Gold.Protein.RotatedAtoms>
  150.6986  134.4350  159.5265 H   0  0  0  0  0  0  0  0  0  0  0  0  # atno 6907 bound_to 6896
  152.2070  134.8534  160.0511 H   0  0  0  0  0  0  0  0  0  0  0  0  # atno 6908 bound_to 6896
  151.9433  133.3609  159.4010 H   0  0  0  0  0  0  0  0  0  0  0  0  # atno 6909 bound_to 6896
  145.9967  140.7120  142.9290 H   0  0  0  0  0  0  0  0  0  0  0  0  # atno 7974 bound_to 7965
  156.2129  140.3018  155.9773 H   0  0  0  0  0  0  0  0  0  0  0  0  # atno 8008 bound_to 7997
  155.2679  140.0432  157.3021 H   0  0  0  0  0  0  0  0  0  0  0  0  # atno 8009 bound_to 7997
  154.5725  140.2352  155.8179 H   0  0  0  0  0  0  0  0  0  0  0  0  # atno 8010 bound_to 7997
  140.5824  143.2329  151.6314 H   0  0  0  0  0  0  0  0  0  0  0  0  # atno 10167 bound_to 10162
  156.1277  130.6372  150.9570 H   0  0  0  0  0  0  0  0  0  0  0  0  # atno 10718 bound_to 10713
  154.4426  135.2762  155.1837 H   0  0  0  0  0  0  0  0  0  0  0  0  # atno 10763 bound_to 10752
  154.3697  135.6111  153.5737 H   0  0  0  0  0  0  0  0  0  0  0  0  # atno 10764 bound_to 10752
  152.9842  135.5854  154.4756 H   0  0  0  0  0  0  0  0  0  0  0  0  # atno 10765 bound_to 10752
  140.3182  134.7460  157.4043 H   0  0  0  0  0  0  0  0  0  0  0  0  # atno 11005 bound_to 11000
  144.6906  140.3163  143.7240 LP  0  0  0  0  0  0  0  0  0  0  0  0  # atno 17320 bound_to 7965
  145.7549  139.1805  143.2300 LP  0  0  0  0  0  0  0  0  0  0  0  0  # atno 17321 bound_to 7965
  139.5177  144.3306  152.0830 LP  0  0  0  0  0  0  0  0  0  0  0  0  # atno 17342 bound_to 10162
  140.2458  144.4222  150.6241 LP  0  0  0  0  0  0  0  0  0  0  0  0  # atno 17343 bound_to 10162
  157.6457  131.0904  150.8157 LP  0  0  0  0  0  0  0  0  0  0  0  0  # atno 17370 bound_to 10713
  156.8246  130.4995  149.5339 LP  0  0  0  0  0  0  0  0  0  0  0  0  # atno 17371 bound_to 10713
  140.0965  134.5530  155.8393 LP  0  0  0  0  0  0  0  0  0  0  0  0  # atno 17394 bound_to 11000
  141.2093  133.6682  156.6428 LP  0  0  0  0  0  0  0  0  0  0  0  0  # atno 17395 bound_to 11000

$$$$
