#       Name:                AV-unprocessed.smi:264
#       Creating user name   scv26
#       Creation time:       Thu Mar 26 21:21:19 2020


#       File generated by GOLD software.
#

@<TRIPOS>MOLECULE
AV-unprocessed.smi:264
    64    68     1
SMALL
NO_CHARGES


@<TRIPOS>ATOM
      1 ****        -3.0759   2.7819  -5.2835 C.3            1 S1                 0.0000
      2 ****        -3.0349   1.2939  -4.8989 C.3            1 S1                 0.0000
      3 ****        -4.3421   0.7241  -4.9635 O.3            1 S1                 0.0000
      4 ****        -4.7066   0.1977  -3.6961 C.3            1 S1                 0.0000
      5 ****        -3.3782  -0.1799  -3.0554 C.3            1 S1                 0.0000
      6 ****        -2.4639   0.9533  -3.5010 C.3            1 S1                 0.0000
      7 ****        -2.6351   2.0396  -2.6043 O.3            1 S1                 0.0000
      8 ****        -0.9634   0.5757  -3.5311 C.3            1 S1                 0.0000
      9 ****        -0.4659   0.0922  -2.2521 N.pl3          1 S1                 0.0000
     10 ****        -0.4360  -1.2149  -1.8212 C.2            1 S1                 0.0000
     11 ****         0.0512  -1.3949  -0.6242 N.2            1 S1                 0.0000
     12 ****         0.3863  -0.1155  -0.1962 C.ar           1 S1                 0.0000
     13 ****         0.9551   0.4143   0.9970 C.ar           1 S1                 0.0000
     14 ****         1.2810  -0.3618   2.0625 N.3            1 S1                 0.0000
     15 ****         0.1612  -1.0676   2.6733 C.3            1 S1                 0.0000
     16 ****         0.6820  -2.1718   3.6034 C.3            1 S1                 0.0000
     17 ****         1.5921  -1.6281   4.5584 O.3            1 S1                 0.0000
     18 ****         2.7113  -0.9249   4.0040 C.3            1 S1                 0.0000
     19 ****         3.7340  -1.8702   3.3793 C.3            1 S1                 0.0000
     20 ****         4.4937  -2.3720   4.5975 C.3            1 S1                 0.0000
     21 ****         4.6275  -1.2122   5.4029 O.3            1 S1                 0.0000
     22 ****         3.5067  -0.3561   5.1921 C.3            1 S1                 0.0000
     23 ****         2.2090   0.1816   3.0509 C.3            1 S1                 0.0000
     24 ****         1.1676   1.7573   1.0426 N.ar           1 S1                 0.0000
     25 ****         0.8369   2.5306   0.0043 C.ar           1 S1                 0.0000
     26 ****         0.2895   2.1755  -1.1594 N.ar           1 S1                 0.0000
     27 ****         0.0815   0.8295  -1.2168 C.ar           1 S1                 0.0000
     28 ****        -2.0833   3.2293  -5.2266 H              1 S1                 0.0000
     29 ****        -3.7409   3.3476  -4.6306 H              1 S1                 0.0000
     30 ****        -3.4382   2.9066  -6.3041 H              1 S1                 0.0000
     31 ****        -2.4529   0.7668  -5.6559 H              1 S1                 0.0000
     32 ****        -5.2084   0.9735  -3.1162 H              1 S1                 0.0000
     33 ****        -5.3852  -0.6498  -3.7932 H              1 S1                 0.0000
     34 ****        -3.4421  -0.2964  -1.9727 H              1 S1                 0.0000
     35 ****        -3.0369  -1.1271  -3.4750 H              1 S1                 0.0000
     36 ****        -2.2790   1.7951  -1.7637 H              1 S1                 0.0000
     37 ****        -0.7866  -0.2041  -4.2731 H              1 S1                 0.0000
     38 ****        -0.3617   1.4316  -3.8398 H              1 S1                 0.0000
     39 ****        -0.7951  -2.0362  -2.4242 H              1 S1                 0.0000
     40 ****        -0.4371  -0.3543   3.2420 H              1 S1                 0.0000
     41 ****        -0.4987  -1.5058   1.9258 H              1 S1                 0.0000
     42 ****        -0.1505  -2.6282   4.1391 H              1 S1                 0.0000
     43 ****         1.1499  -2.9702   3.0287 H              1 S1                 0.0000
     44 ****         3.3110  -2.6753   2.7811 H              1 S1                 0.0000
     45 ****         4.4169  -1.3126   2.7369 H              1 S1                 0.0000
     46 ****         3.9134  -3.1239   5.1347 H              1 S1                 0.0000
     47 ****         5.4643  -2.7997   4.3448 H              1 S1                 0.0000
     48 ****         3.8859   0.6434   4.9765 H              1 S1                 0.0000
     49 ****         2.8995  -0.2865   6.0955 H              1 S1                 0.0000
     50 ****         3.0557   0.6596   2.5560 H              1 S1                 0.0000
     51 ****         1.6953   0.9543   3.6249 H              1 S1                 0.0000
     52 ****         1.0377   3.5852   0.1236 H              1 S1                 0.0000
     53 ****        -4.3497  -0.0107  -5.6417 LP             1 S1                 0.0000
     54 ****        -4.9982   1.4302  -5.2297 LP             1 S1                 0.0000
     55 ****        -3.6084   2.2486  -2.5100 LP             1 S1                 0.0000
     56 ****        -2.1537   2.8437  -2.9532 LP             1 S1                 0.0000
     57 ****         0.1590  -2.2564  -0.1280 LP             1 S1                 0.0000
     58 ****         1.8388  -1.0491   1.5972 LP             1 S1                 0.0000
     59 ****         1.9445  -2.3815   5.1137 LP             1 S1                 0.0000
     60 ****         1.0857  -0.9928   5.1414 LP             1 S1                 0.0000
     61 ****         5.4674  -0.7292   5.1551 LP             1 S1                 0.0000
     62 ****         4.6677  -1.4779   6.3661 LP             1 S1                 0.0000
     63 ****         1.5740   2.1684   1.8586 LP             1 S1                 0.0000
     64 ****         0.0614   2.8140  -1.8944 LP             1 S1                 0.0000
@<TRIPOS>BOND
    1    1    2 1     
    2    1   28 1     
    3    1   29 1     
    4    1   30 1     
    5    2    6 1     
    6    2    3 1     
    7    2   31 1     
    8    3    4 1     
    9    4    5 1     
   10    4   32 1     
   11    4   33 1     
   12    5    6 1     
   13    5   34 1     
   14    5   35 1     
   15    6    7 1     
   16    6    8 1     
   17    7   36 1     
   18    8    9 1     
   19    8   37 1     
   20    8   38 1     
   21    9   27 1     
   22    9   10 1     
   23   10   11 2     
   24   10   39 1     
   25   11   12 1     
   26   12   27 ar    
   27   12   13 ar    
   28   13   14 1     
   29   13   24 ar    
   30   14   23 1     
   31   14   15 1     
   32   15   16 1     
   33   15   40 1     
   34   15   41 1     
   35   16   17 1     
   36   16   42 1     
   37   16   43 1     
   38   17   18 1     
   39   18   22 1     
   40   18   19 1     
   41   18   23 1     
   42   19   20 1     
   43   19   44 1     
   44   19   45 1     
   45   20   21 1     
   46   20   46 1     
   47   20   47 1     
   48   21   22 1     
   49   22   48 1     
   50   22   49 1     
   51   23   50 1     
   52   23   51 1     
   53   24   25 ar    
   54   25   26 ar    
   55   25   52 1     
   56   26   27 ar    
   57    3   53 1     
   58    3   54 1     
   59    7   55 1     
   60    7   56 1     
   61   11   57 1     
   62   14   58 1     
   63   17   59 1     
   64   17   60 1     
   65   21   61 1     
   66   21   62 1     
   67   24   63 1     
   68   26   64 1     
@<TRIPOS>SUBSTRUCTURE
      1 S1             1
@<TRIPOS>SET
LONE_PAIRS      STATIC     ATOMS    <user>   **** ""
12 53 54 55 56 57 58 59 60 61 62 63 64
DONOR_HYDROGENS      STATIC     ATOMS    <user>   **** ""
1 36
ATOM$BLUE        STATIC     ATOMS    COLORGROUP SYSTEM
12 53 54 55 56 57 58 59 60 61 62 63 64
ATOM$RED        STATIC     ATOMS    COLORGROUP SYSTEM
1 36
