#       Name:                AV-unprocessed.smi:438
#       Creating user name   scv26
#       Creation time:       Thu Mar 26 22:54:57 2020


#       File generated by GOLD software.
#

@<TRIPOS>MOLECULE
AV-unprocessed.smi:438
    55    56     1
SMALL
NO_CHARGES


@<TRIPOS>ATOM
      1 ****        -4.9340   1.0167   3.1154 C.3            1 S1                 0.0000
      2 ****        -4.2187   0.1400   2.1030 C.2            1 S1                 0.0000
      3 ****        -2.8427   0.3797   1.9491 N.2            1 S1                 0.0000
      4 ****        -2.1699  -0.3181   1.1171 C.2            1 S1                 0.0000
      5 ****        -0.4072   0.0346   0.9807 S.3            1 S1                 0.0000
      6 ****         0.1966  -1.1523  -0.2574 C.3            1 S1                 0.0000
      7 ****         1.6945  -1.0072  -0.5090 C.2            1 S1                 0.0000
      8 ****         2.4681  -1.8897  -0.1384 O.2            1 S1                 0.0000
      9 ****         2.0837   0.1172  -1.1350 N.am           1 S1                 0.0000
     10 ****         3.4514   0.5339  -1.4562 C.3            1 S1                 0.0000
     11 ****         4.1203  -0.4184  -2.4720 C.3            1 S1                 0.0000
     12 ****         5.5171   0.0829  -2.8669 C.3            1 S1                 0.0000
     13 ****         6.4008   0.2798  -1.6265 C.3            1 S1                 0.0000
     14 ****         5.7422   1.2365  -0.6197 C.3            1 S1                 0.0000
     15 ****         4.3386   0.7532  -0.2002 C.3            1 S1                 0.0000
     16 ****         3.7097   1.7311   0.8085 C.3            1 S1                 0.0000
     17 ****        -2.7144  -1.3108   0.3325 N.pl3          1 S1                -1.0000
     18 ****        -4.0427  -1.6044   0.4234 C.2            1 S1                 0.0000
     19 ****        -4.5671  -2.4822  -0.2611 O.2            1 S1                 0.0000
     20 ****        -4.8520  -0.8239   1.3756 C.2            1 S1                 0.0000
     21 ****        -6.3390  -1.1422   1.5132 C.3            1 S1                 0.0000
     22 ****        -7.1818  -0.4475   0.4343 C.3            1 S1                 0.0000
     23 ****        -8.5470  -0.7534   0.6203 O.3            1 S1                 0.0000
     24 ****        -5.8153   1.4789   2.6704 H              1 S1                 0.0000
     25 ****        -4.2844   1.8156   3.4748 H              1 S1                 0.0000
     26 ****        -5.2471   0.4245   3.9753 H              1 S1                 0.0000
     27 ****        -0.3394  -1.0050  -1.1958 H              1 S1                 0.0000
     28 ****        -0.0169  -2.1664   0.0832 H              1 S1                 0.0000
     29 ****         1.3546   0.7666  -1.3927 H              1 S1                 0.0000
     30 ****         3.3404   1.5011  -1.9484 H              1 S1                 0.0000
     31 ****         4.2110  -1.4214  -2.0543 H              1 S1                 0.0000
     32 ****         3.4995  -0.5102  -3.3638 H              1 S1                 0.0000
     33 ****         5.9870  -0.6252  -3.5499 H              1 S1                 0.0000
     34 ****         5.4302   1.0254  -3.4090 H              1 S1                 0.0000
     35 ****         6.5830  -0.6843  -1.1499 H              1 S1                 0.0000
     36 ****         7.3759   0.6672  -1.9233 H              1 S1                 0.0000
     37 ****         6.3814   1.3331   0.2585 H              1 S1                 0.0000
     38 ****         5.6731   2.2323  -1.0598 H              1 S1                 0.0000
     39 ****         4.4657  -0.2031   0.3084 H              1 S1                 0.0000
     40 ****         3.5286   2.7058   0.3546 H              1 S1                 0.0000
     41 ****         4.3642   1.8811   1.6675 H              1 S1                 0.0000
     42 ****         2.7589   1.3600   1.1913 H              1 S1                 0.0000
     43 ****        -6.6944  -0.8461   2.4998 H              1 S1                 0.0000
     44 ****        -6.4871  -2.2222   1.4702 H              1 S1                 0.0000
     45 ****        -7.0513   0.6337   0.4811 H              1 S1                 0.0000
     46 ****        -6.8793  -0.7705  -0.5622 H              1 S1                 0.0000
     47 ****        -9.0445  -0.3248  -0.0589 H              1 S1                 0.0000
     48 ****        -2.3929   1.0922   2.4877 LP             1 S1                 0.0000
     49 ****         2.1148  -2.7011   0.3273 LP             1 S1                 0.0000
     50 ****         3.4499  -1.7954  -0.3029 LP             1 S1                 0.0000
     51 ****        -2.1341  -1.8173  -0.3052 LP             1 S1                 0.0000
     52 ****        -4.0157  -3.0066  -0.9099 LP             1 S1                 0.0000
     53 ****        -5.5447  -2.6712  -0.1685 LP             1 S1                 0.0000
     54 ****        -8.8472  -0.4262   1.5163 LP             1 S1                 0.0000
     55 ****        -8.6819  -1.7427   0.5645 LP             1 S1                 0.0000
@<TRIPOS>BOND
    1    1   24 1     
    2    1   25 1     
    3    1   26 1     
    4    1    2 1     
    5    2   20 2     
    6    2    3 1     
    7    3    4 2     
    8    4    5 1     
    9    4   17 1     
   10    5    6 1     
   11    6    7 1     
   12    6   27 1     
   13    6   28 1     
   14    7    8 2     
   15    7    9 am    
   16    9   10 1     
   17    9   29 1     
   18   10   15 1     
   19   10   11 1     
   20   10   30 1     
   21   11   12 1     
   22   11   31 1     
   23   11   32 1     
   24   12   13 1     
   25   12   33 1     
   26   12   34 1     
   27   13   14 1     
   28   13   35 1     
   29   13   36 1     
   30   14   15 1     
   31   14   37 1     
   32   14   38 1     
   33   15   16 1     
   34   15   39 1     
   35   16   40 1     
   36   16   41 1     
   37   16   42 1     
   38   17   18 1     
   39   18   19 2     
   40   18   20 1     
   41   20   21 1     
   42   21   22 1     
   43   21   43 1     
   44   21   44 1     
   45   22   23 1     
   46   22   45 1     
   47   22   46 1     
   48   23   47 1     
   49    3   48 1     
   50    8   49 1     
   51    8   50 1     
   52   17   51 1     
   53   19   52 1     
   54   19   53 1     
   55   23   54 1     
   56   23   55 1     
@<TRIPOS>SUBSTRUCTURE
      1 S1             1
@<TRIPOS>SET
LONE_PAIRS      STATIC     ATOMS    <user>   **** ""
8 48 49 50 51 52 53 54 55
DONOR_HYDROGENS      STATIC     ATOMS    <user>   **** ""
2 29 47
ATOM$BLUE        STATIC     ATOMS    COLORGROUP SYSTEM
8 48 49 50 51 52 53 54 55
ATOM$RED        STATIC     ATOMS    COLORGROUP SYSTEM
2 29 47
