#       Name:                AV-unprocessed.smi:246
#       Creating user name   scv26
#       Creation time:       Thu Mar 26 20:53:18 2020


#       File generated by GOLD software.
#

@<TRIPOS>MOLECULE
AV-unprocessed.smi:246
    68    71     1
SMALL
NO_CHARGES


@<TRIPOS>ATOM
      1 ****        -6.5682   2.2782  -2.8364 C.3            1 S1                 0.0000
      2 ****        -5.8459   2.9852  -1.6809 C.3            1 S1                 0.0000
      3 ****        -4.4341   2.8618  -1.7828 O.3            1 S1                 0.0000
      4 ****        -3.8390   3.7163  -2.7486 C.3            1 S1                 0.0000
      5 ****        -2.3200   3.5304  -2.7012 C.3            1 S1                 0.0000
      6 ****        -1.9871   2.2917  -3.3096 O.3            1 S1                 0.0000
      7 ****        -0.5975   2.0018  -3.2825 C.3            1 S1                 0.0000
      8 ****        -0.2816   0.7676  -4.1292 C.3            1 S1                 0.0000
      9 ****         1.0217   0.2366  -3.5257 C.3            1 S1                 0.0000
     10 ****         1.0084   0.6891  -2.1415 N.pl3          1 S1                 0.0000
     11 ****         1.7799   0.1388  -1.1698 C.ar           1 S1                 0.0000
     12 ****         2.7791  -0.7026  -1.5455 N.ar           1 S1                 0.0000
     13 ****         3.5749  -1.2635  -0.6312 C.ar           1 S1                 0.0000
     14 ****         3.5494  -1.1228   0.6941 N.ar           1 S1                 0.0000
     15 ****         2.5473  -0.2842   1.0831 C.ar           1 S1                 0.0000
     16 ****         1.6249   0.3851   0.2273 C.ar           1 S1                 0.0000
     17 ****         0.7533   1.1513   0.9948 N.2            1 S1                 0.0000
     18 ****         1.1349   0.9451   2.2250 C.2            1 S1                 0.0000
     19 ****         2.2042   0.0926   2.3700 N.pl3          1 S1                 0.0000
     20 ****         2.8301  -0.3100   3.6199 C.3            1 S1                 0.0000
     21 ****         2.1384  -1.5107   4.3029 C.3            1 S1                 0.0000
     22 ****         0.8260  -1.1369   4.6765 O.3            1 S1                 0.0000
     23 ****         2.0628  -2.7732   3.4201 C.3            1 S1                 0.0000
     24 ****         1.4933  -4.0090   4.1192 C.3            1 S1                 0.0000
     25 ****         2.1106  -5.1714   3.3550 C.3            1 S1                 0.0000
     26 ****         3.2394  -4.5282   2.5455 C.3            1 S1                 0.0000
     27 ****         3.3654  -3.2167   3.0742 O.3            1 S1                 0.0000
     28 ****        -0.0959   1.5995  -1.8908 C.3            1 S1                 0.0000
     29 ****        -0.0156   2.8437  -3.6625 H              1 S1                 0.0000
     30 ****        -7.6473   2.2937  -2.6819 H              1 S1                 0.0000
     31 ****        -6.2588   1.2355  -2.9110 H              1 S1                 0.0000
     32 ****        -6.3696   2.7575  -3.7944 H              1 S1                 0.0000
     33 ****        -6.1426   4.0330  -1.6140 H              1 S1                 0.0000
     34 ****        -6.1464   2.5191  -0.7423 H              1 S1                 0.0000
     35 ****        -4.2121   3.5143  -3.7527 H              1 S1                 0.0000
     36 ****        -4.0823   4.7524  -2.5094 H              1 S1                 0.0000
     37 ****        -1.8359   4.3386  -3.2513 H              1 S1                 0.0000
     38 ****        -1.9673   3.5795  -1.6702 H              1 S1                 0.0000
     39 ****        -1.0686   0.0229  -4.0009 H              1 S1                 0.0000
     40 ****        -0.1992   0.9887  -5.1936 H              1 S1                 0.0000
     41 ****         1.0804  -0.8496  -3.6057 H              1 S1                 0.0000
     42 ****         1.8871   0.6677  -4.0304 H              1 S1                 0.0000
     43 ****         4.3427  -1.9179  -1.0168 H              1 S1                 0.0000
     44 ****         0.6412   1.4084   3.0670 H              1 S1                 0.0000
     45 ****         3.8752  -0.5479   3.4195 H              1 S1                 0.0000
     46 ****         2.8393   0.5494   4.2914 H              1 S1                 0.0000
     47 ****         2.6847  -1.7456   5.2172 H              1 S1                 0.0000
     48 ****         0.4267  -1.8621   5.1323 H              1 S1                 0.0000
     49 ****         1.4987  -2.5784   2.5059 H              1 S1                 0.0000
     50 ****         1.8228  -4.0414   5.1586 H              1 S1                 0.0000
     51 ****         0.4030  -4.0298   4.1116 H              1 S1                 0.0000
     52 ****         2.4897  -5.9288   4.0422 H              1 S1                 0.0000
     53 ****         1.3867  -5.6492   2.6936 H              1 S1                 0.0000
     54 ****         4.1784  -5.0765   2.6235 H              1 S1                 0.0000
     55 ****         2.9685  -4.4640   1.4905 H              1 S1                 0.0000
     56 ****         0.2172   2.4702  -1.3144 H              1 S1                 0.0000
     57 ****        -0.8729   1.0719  -1.3361 H              1 S1                 0.0000
     58 ****        -4.2195   1.9162  -2.0272 LP             1 S1                 0.0000
     59 ****        -4.0363   3.0738  -0.8901 LP             1 S1                 0.0000
     60 ****        -2.2864   2.3172  -4.2634 LP             1 S1                 0.0000
     61 ****        -2.4719   1.5621  -2.8274 LP             1 S1                 0.0000
     62 ****         2.9197  -0.9034  -2.5150 LP             1 S1                 0.0000
     63 ****         4.1835  -1.5741   1.3220 LP             1 S1                 0.0000
     64 ****         0.0030   1.7300   0.6752 LP             1 S1                 0.0000
     65 ****         0.2925  -0.9165   3.8600 LP             1 S1                 0.0000
     66 ****         0.8607  -0.3384   5.2776 LP             1 S1                 0.0000
     67 ****         3.9491  -3.2298   3.8861 LP             1 S1                 0.0000
     68 ****         3.7630  -2.6078   2.3877 LP             1 S1                 0.0000
@<TRIPOS>BOND
    1    1    2 1     
    2    1   30 1     
    3    1   31 1     
    4    1   32 1     
    5    2    3 1     
    6    2   33 1     
    7    2   34 1     
    8    3    4 1     
    9    4    5 1     
   10    4   35 1     
   11    4   36 1     
   12    5    6 1     
   13    5   37 1     
   14    5   38 1     
   15    6    7 1     
   16    7   29 1     
   17    7   28 1     
   18    7    8 1     
   19    8    9 1     
   20    8   39 1     
   21    8   40 1     
   22    9   10 1     
   23    9   41 1     
   24    9   42 1     
   25   10   11 1     
   26   10   28 1     
   27   11   16 ar    
   28   11   12 ar    
   29   12   13 ar    
   30   13   14 ar    
   31   13   43 1     
   32   14   15 ar    
   33   15   19 1     
   34   15   16 ar    
   35   16   17 1     
   36   17   18 2     
   37   18   19 1     
   38   18   44 1     
   39   19   20 1     
   40   20   21 1     
   41   20   45 1     
   42   20   46 1     
   43   21   22 1     
   44   21   23 1     
   45   21   47 1     
   46   22   48 1     
   47   23   27 1     
   48   23   24 1     
   49   23   49 1     
   50   24   25 1     
   51   24   50 1     
   52   24   51 1     
   53   25   26 1     
   54   25   52 1     
   55   25   53 1     
   56   26   27 1     
   57   26   54 1     
   58   26   55 1     
   59   28   56 1     
   60   28   57 1     
   61    3   58 1     
   62    3   59 1     
   63    6   60 1     
   64    6   61 1     
   65   12   62 1     
   66   14   63 1     
   67   17   64 1     
   68   22   65 1     
   69   22   66 1     
   70   27   67 1     
   71   27   68 1     
@<TRIPOS>SUBSTRUCTURE
      1 S1             1
@<TRIPOS>SET
LONE_PAIRS      STATIC     ATOMS    <user>   **** ""
11 58 59 60 61 62 63 64 65 66 67 68
DONOR_HYDROGENS      STATIC     ATOMS    <user>   **** ""
1 48
ATOM$BLUE        STATIC     ATOMS    COLORGROUP SYSTEM
11 58 59 60 61 62 63 64 65 66 67 68
ATOM$RED        STATIC     ATOMS    COLORGROUP SYSTEM
1 48
