#       Name:                AV-unprocessed.smi:2593
#       Creating user name   scv26
#       Creation time:       Fri Mar 27 14:17:46 2020


#       File generated by GOLD software.
#

@<TRIPOS>MOLECULE
AV-unprocessed.smi:2593
    44    46     1
SMALL
NO_CHARGES


@<TRIPOS>ATOM
      1 ****        -1.8613   3.8756   2.4168 C.3            1 S1                 0.0000
      2 ****        -1.3905   2.5410   2.4718 O.3            1 S1                 0.0000
      3 ****        -1.8647   1.7517   1.3927 C.3            1 S1                 0.0000
      4 ****        -1.2883   0.3332   1.4995 C.3            1 S1                 0.0000
      5 ****         0.1670   0.3338   1.5069 N.pl3          1 S1                 0.0000
      6 ****         1.0032   0.3695   0.4416 C.2            1 S1                 0.0000
      7 ****         0.4077   0.4339  -1.2131 S.3            1 S1                 0.0000
      8 ****         0.6495  -1.3171  -1.6146 C.3            1 S1                 0.0000
      9 ****         0.2086  -1.5783  -3.0402 C.ar           1 S1                 0.0000
     10 ****         1.0916  -1.3523  -4.1174 C.ar           1 S1                 0.0000
     11 ****         0.6322  -1.6045  -5.4242 C.ar           1 S1                 0.0000
     12 ****        -0.6853  -2.0689  -5.6026 C.ar           1 S1                 0.0000
     13 ****        -1.4902  -2.2613  -4.4611 C.ar           1 S1                 0.0000
     14 ****        -2.7988  -2.7171  -4.5985 N.pl3          1 S1                 0.0000
     15 ****        -1.0579  -2.0232  -3.2042 N.ar           1 S1                 0.0000
     16 ****         2.3053   0.3550   0.7254 N.2            1 S1                 0.0000
     17 ****         2.3148   0.3160   2.1061 C.ar           1 S1                 0.0000
     18 ****         3.3954   0.2893   3.0168 C.ar           1 S1                 0.0000
     19 ****         3.1570   0.2536   4.4063 C.ar           1 S1                 0.0000
     20 ****         1.8380   0.2458   4.9042 C.ar           1 S1                 0.0000
     21 ****         0.7470   0.2705   4.0142 C.ar           1 S1                 0.0000
     22 ****         0.9903   0.3041   2.6280 C.ar           1 S1                 0.0000
     23 ****        -1.4721   4.4364   3.2665 H              1 S1                 0.0000
     24 ****        -2.9505   3.9115   2.4598 H              1 S1                 0.0000
     25 ****        -1.5293   4.3730   1.5047 H              1 S1                 0.0000
     26 ****        -2.9546   1.7098   1.4114 H              1 S1                 0.0000
     27 ****        -1.5729   2.2030   0.4432 H              1 S1                 0.0000
     28 ****        -1.6417  -0.1439   2.4139 H              1 S1                 0.0000
     29 ****        -1.6425  -0.2872   0.6759 H              1 S1                 0.0000
     30 ****         1.7017  -1.5788  -1.4977 H              1 S1                 0.0000
     31 ****         0.0797  -1.9340  -0.9183 H              1 S1                 0.0000
     32 ****         2.0956  -0.9925  -3.9466 H              1 S1                 0.0000
     33 ****         1.2780  -1.4431  -6.2746 H              1 S1                 0.0000
     34 ****        -1.0650  -2.2709  -6.5935 H              1 S1                 0.0000
     35 ****        -3.1962  -2.9175  -5.5048 H              1 S1                 0.0000
     36 ****        -3.4005  -2.8364  -3.7963 H              1 S1                 0.0000
     37 ****         4.4095   0.2972   2.6455 H              1 S1                 0.0000
     38 ****         3.9901   0.2336   5.0935 H              1 S1                 0.0000
     39 ****         1.6639   0.2211   5.9700 H              1 S1                 0.0000
     40 ****        -0.2643   0.2674   4.3925 H              1 S1                 0.0000
     41 ****        -1.6967   2.1282   3.3296 LP             1 S1                 0.0000
     42 ****        -0.3909   2.5524   2.4455 LP             1 S1                 0.0000
     43 ****        -1.6570  -2.1715  -2.4174 LP             1 S1                 0.0000
     44 ****         3.0820   0.3689   0.0956 LP             1 S1                 0.0000
@<TRIPOS>BOND
    1    1    2 1     
    2    1   23 1     
    3    1   24 1     
    4    1   25 1     
    5    2    3 1     
    6    3    4 1     
    7    3   26 1     
    8    3   27 1     
    9    4    5 1     
   10    4   28 1     
   11    4   29 1     
   12    5   22 1     
   13    5    6 1     
   14    6    7 1     
   15    6   16 2     
   16    7    8 1     
   17    8    9 1     
   18    8   30 1     
   19    8   31 1     
   20    9   15 ar    
   21    9   10 ar    
   22   10   11 ar    
   23   10   32 1     
   24   11   12 ar    
   25   11   33 1     
   26   12   13 ar    
   27   12   34 1     
   28   13   14 1     
   29   13   15 ar    
   30   14   35 1     
   31   14   36 1     
   32   16   17 1     
   33   17   22 ar    
   34   17   18 ar    
   35   18   19 ar    
   36   18   37 1     
   37   19   20 ar    
   38   19   38 1     
   39   20   21 ar    
   40   20   39 1     
   41   21   22 ar    
   42   21   40 1     
   43    2   41 1     
   44    2   42 1     
   45   15   43 1     
   46   16   44 1     
@<TRIPOS>SUBSTRUCTURE
      1 S1             1
@<TRIPOS>SET
LONE_PAIRS      STATIC     ATOMS    <user>   **** ""
4 41 42 43 44
DONOR_HYDROGENS      STATIC     ATOMS    <user>   **** ""
2 35 36
ATOM$BLUE        STATIC     ATOMS    COLORGROUP SYSTEM
4 41 42 43 44
ATOM$RED        STATIC     ATOMS    COLORGROUP SYSTEM
2 35 36
