AV-unprocessed.smi:2890|AV-procd|sdf|11116|dock5
  -GOLD-   2272015583D 1   1.00000     0.00000
 Structure written by MMmdl.
 38 39  0  0  0  0  0  0  0  0  1 V2000
  152.9398  142.3924  161.6619 C   0  0  0  0  0  0  0  0  0  0  0  0
  152.7166  142.9441  160.2497 C   0  0  0  0  0  0  0  0  0  0  0  0
  152.5678  141.8457  159.2329 C   0  0  0  0  0  0  0  0  0  0  0  0
  153.4964  140.9075  159.1497 N   0  0  0  0  0  0  0  0  0  0  0  0
  153.0825  140.0472  158.1288 O   0  0  0  0  0  0  0  0  0  0  0  0
  151.9080  140.5080  157.6281 C   0  0  0  0  0  0  0  0  0  0  0  0
  151.2993  139.7170  156.5177 C   0  0  0  0  0  0  0  0  0  0  0  0
  152.2715  139.4560  155.3630 C   0  0  0  0  0  0  0  0  0  0  0  0
  151.5274  141.6500  158.2787 C   0  0  0  0  0  0  0  0  0  0  0  0
  150.3041  142.5004  158.0465 C   0  0  0  0  0  0  0  0  0  0  0  0
  149.1965  141.6550  157.4182 C   0  0  0  0  0  0  0  0  0  0  0  0
  148.8458  140.6040  157.9533 O   0  0  0  0  0  0  0  0  0  0  0  0
  148.6529  142.1265  156.2850 N   0  0  0  0  0  0  0  0  0  0  0  0
  147.5599  141.4997  155.5487 C   0  0  0  0  0  0  0  0  0  0  0  0
  146.3369  141.3110  156.3535 C   0  0  0  0  0  0  0  0  0  0  0  0
  145.3784  141.1640  156.9843 N   0  0  0  0  0  0  0  0  0  0  0  0
  147.3038  142.1795  154.1940 C   0  0  0  0  0  0  0  0  0  0  0  0
  147.1069  140.7776  153.6019 C   0  0  0  0  0  0  0  0  0  0  0  0
  147.9861  140.2567  154.7461 C   0  0  0  0  0  0  0  0  0  0  0  0
  153.0474  143.2028  162.3830 H   0  0  0  0  0  0  0  0  0  0  0  0
  153.8435  141.7838  161.7070 H   0  0  0  0  0  0  0  0  0  0  0  0
  152.1012  141.7727  161.9806 H   0  0  0  0  0  0  0  0  0  0  0  0
  151.8294  143.5786  160.2464 H   0  0  0  0  0  0  0  0  0  0  0  0
  153.5483  143.5952  159.9804 H   0  0  0  0  0  0  0  0  0  0  0  0
  150.9403  138.7654  156.9104 H   0  0  0  0  0  0  0  0  0  0  0  0
  150.4196  140.2365  156.1374 H   0  0  0  0  0  0  0  0  0  0  0  0
  151.7906  138.8791  154.5728 H   0  0  0  0  0  0  0  0  0  0  0  0
  153.1439  138.8955  155.7007 H   0  0  0  0  0  0  0  0  0  0  0  0
  152.6219  140.3917  154.9266 H   0  0  0  0  0  0  0  0  0  0  0  0
  149.9346  142.9374  158.9746 H   0  0  0  0  0  0  0  0  0  0  0  0
  150.5286  143.3408  157.3884 H   0  0  0  0  0  0  0  0  0  0  0  0
  149.0048  142.9996  155.9203 H   0  0  0  0  0  0  0  0  0  0  0  0
  146.4195  142.8167  154.1584 H   0  0  0  0  0  0  0  0  0  0  0  0
  148.1806  142.6863  153.7856 H   0  0  0  0  0  0  0  0  0  0  0  0
  146.0747  140.4279  153.6616 H   0  0  0  0  0  0  0  0  0  0  0  0
  147.5256  140.6381  152.6046 H   0  0  0  0  0  0  0  0  0  0  0  0
  149.0466  140.2444  154.4878 H   0  0  0  0  0  0  0  0  0  0  0  0
  147.6652  139.3047  155.1704 H   0  0  0  0  0  0  0  0  0  0  0  0
  1  2  1  0  0  0  0
  1 20  1  0  0  0  0
  1 21  1  0  0  0  0
  1 22  1  0  0  0  0
  2  3  1  0  0  0  0
  2 23  1  0  0  0  0
  2 24  1  0  0  0  0
  3  9  1  0  0  0  0
  3  4  2  0  0  0  0
  4  5  1  0  0  0  0
  5  6  1  0  0  0  0
  6  7  1  0  0  0  0
  6  9  2  0  0  0  0
  7  8  1  0  0  0  0
  7 25  1  0  0  0  0
  7 26  1  0  0  0  0
  8 27  1  0  0  0  0
  8 28  1  0  0  0  0
  8 29  1  0  0  0  0
  9 10  1  0  0  0  0
 10 11  1  0  0  0  0
 10 30  1  0  0  0  0
 10 31  1  0  0  0  0
 11 12  2  0  0  0  0
 11 13  1  0  0  0  0
 13 14  1  0  0  0  0
 13 32  1  0  0  0  0
 14 19  1  0  0  0  0
 14 15  1  0  0  0  0
 14 17  1  0  0  0  0
 15 16  3  0  0  0  0
 17 18  1  0  0  0  0
 17 33  1  0  0  0  0
 17 34  1  0  0  0  0
 18 19  1  0  0  0  0
 18 35  1  0  0  0  0
 18 36  1  0  0  0  0
 19 37  1  0  0  0  0
 19 38  1  0  0  0  0
M  END
> <s_m_source_file>
AV-unprocessed.smi

> <i_m_source_file_index>
2890

> <i_lp_mmshare_version>
43012

> <i_f3d_flags>
0

> <s_epik_input>
W0NIM11bQ0gyXWMxbm9jKFtDSDJdW0NIM10pYzFbQ0gyXUMoPU8pW05IXUMyKEMjTilbQ0gyXVtDSDJdW0NIMl0y

> <s_epik_cmdline>
J2VwaWtfcHl0aG9uJywgJy1waCcsICc3LjAnLCAnLXRuJywgJzgnLCAnLW1hJywgJzIwMCcsICctbWV0YWxfYmluZGluZycsICctaW1hZScsICc8aW5maWxlLm1hZT4nLCAnLW9tYWUnLCAnPG91dGZpbGUubWFlPic=

> <r_lp_tautomer_probability>
1

> <r_epik_Ionization_Penalty>
5.40968e-07

> <r_epik_Ionization_Penalty_Charging>
0

> <r_epik_Ionization_Penalty_Neutral>
5.40968e-07

> <r_epik_State_Penalty>
-0

> <r_epik_Charging_Adjusted_Penalty>
0

> <i_epik_Tot_Q>
0

> <i_epik_Tot_abs_Q>
0

> <r_epik_Metal_State_Penalty>
-0

> <b_epik_Metal_Only>
0

> <s_lp_Force_Field>
OPLS_2005

> <r_lp_Energy>
4.95517

> <b_lp_Chiralities_Consistent>
1

> <s_lp_Variant>
AV-unprocessed.smi:2890-1

> <Gold.Version>
5.8.1

> <Gold.Id.Protein>
6NUR|6NUR_protein|mol2

> <Gold.PLP.Fitness>
39.3363

> <Gold.PLP.PLP>
-34.4385

> <Gold.PLP.part.hbond>
-2.0000

> <Gold.PLP.part.metal>
0.0000

> <Gold.PLP.part.buried>
-4.4063

> <Gold.PLP.part.nonpolar>
-28.4289

> <Gold.PLP.part.repulsive>
0.0778

> <Gold.PLP.ligand.clash>
0.0606

> <Gold.PLP.ligand.torsion>
0.6345

> <Gold.PLP.Chemscore.Hbond>
1.9920

> <Gold.PLP.Chemscore.CHOScore>
0.0000

> <Gold.PLP.Chemscore.Metal>
0.0000

> <Gold.Chemscore.Hbonds>
donor molecule, donor type, donor heavy atom, donor atom, acceptor molecule, acceptor atom, score
      L1  H    13    32       P1  8028  1.00
      P1  H  7997  8009       L1     5  1.00

> <Gold.PLP.Chemscore.Internal.Correction>
0.2515

> <Gold.Rescore>
     Score         DG    S(hbond)    S(metal)    S(lipo)     H(rot)  DE(clash)    DE(int)     intcor
     15.04     -15.65       1.55        0.00      80.35       1.72       0.03       0.58       ----

> <Gold.Chemscore.Fitness>
15.0375

> <Gold.Chemscore.DG>
-15.6481

> <Gold.Chemscore.ZeroCoef>
-5.4800

> <Gold.Chemscore.Hbond>
1.5483

> <Gold.Chemscore.Metal>
0.0000

> <Gold.Chemscore.Lipo>
80.3470

> <Gold.Chemscore.Internal_Hbond>
0.0000

> <Gold.Chemscore.DEClash>
0.0330

> <Gold.Chemscore.DEInternal>
0.5776

> <Gold.Chemscore.Rot>
1.7202

> <Gold.Chemscore.Internal.Correction>
   9.000000E+99

> <Gold.Chemscore.Hbonds>
donor molecule, donor type, donor heavy atom, donor atom, acceptor molecule, acceptor atom, score
      L1  H    13    32       P1  8028  0.96
      P1  H  7997  8009       L1     5  0.39

> <Gold.Chemscore.Hbond.Weighted>
-5.1712

> <Gold.Chemscore.Metal.Weighted>
-0.0000

> <Gold.Chemscore.Lipo.Weighted>
-9.4006

> <Gold.Chemscore.Internal_Hbond.Weighted>
0.0000

> <Gold.Chemscore.DEClash.Weighted>
0.0330

> <Gold.Chemscore.DEInternal.Weighted>
0.5776

> <Gold.Chemscore.Rot.Weighted>
4.4037

> <Gold.Chemscore.Internal.Correction.Weighted>
   9.000000E+99

> <Gold.Protein.RotatedTorsions>
[ 6907 6896 6895 6894 ] final -154.08 input  -60.11 | X-H torsion
[ 7974 7965 7964 7962 ] final -117.70 input  175.53 | X-H torsion
[ 8008 7997 7996 7995 ] final  167.65 input   59.86 | X-H torsion
[ 10167 10162 10161 10158 ] final   65.20 input  -65.29 | X-H torsion
[ 10718 10713 10712 10709 ] final   -2.93 input   66.30 | X-H torsion
[ 10763 10752 10751 10750 ] final -161.43 input  -60.55 | X-H torsion
[ 11005 11000 10999 10996 ] final  -63.72 input  -57.11 | X-H torsion

> <Gold.Protein.ActiveResidues>
 VAL166  LYS551  ARG553  GLY616  TRP617  ASP618  TYR619  PRO620  LYS621  CYS622 
 ASP623  PHE694  ASN695  SER759  ASP760  ASP761  ALA762  ILE779  LEU786  VAL792 
 PHE793  MET794  SER795  GLU796  ALA797  LYS798  CYS799  TRP800  GLU811  SER814 

> <Gold.Protein.RotatedAtoms>
  151.2521  133.4345  159.2611 H   0  0  0  0  0  0  0  0  0  0  0  0  # atno 6907 bound_to 6896
  151.0608  134.9735  159.8269 H   0  0  0  0  0  0  0  0  0  0  0  0  # atno 6908 bound_to 6896
  152.5398  134.2471  159.8937 H   0  0  0  0  0  0  0  0  0  0  0  0  # atno 6909 bound_to 6896
  145.0823  140.8434  143.4032 H   0  0  0  0  0  0  0  0  0  0  0  0  # atno 7974 bound_to 7965
  156.1615  140.1611  156.8603 H   0  0  0  0  0  0  0  0  0  0  0  0  # atno 8008 bound_to 7997
  154.5166  140.0788  156.8127 H   0  0  0  0  0  0  0  0  0  0  0  0  # atno 8009 bound_to 7997
  155.3697  140.3399  155.4245 H   0  0  0  0  0  0  0  0  0  0  0  0  # atno 8010 bound_to 7997
  140.1138  144.4793  150.6961 H   0  0  0  0  0  0  0  0  0  0  0  0  # atno 10167 bound_to 10162
  156.7836  130.5338  149.5747 H   0  0  0  0  0  0  0  0  0  0  0  0  # atno 10718 bound_to 10713
  154.7304  135.3045  154.8901 H   0  0  0  0  0  0  0  0  0  0  0  0  # atno 10763 bound_to 10752
  153.9746  135.6737  153.4752 H   0  0  0  0  0  0  0  0  0  0  0  0  # atno 10764 bound_to 10752
  153.0913  135.4958  154.8615 H   0  0  0  0  0  0  0  0  0  0  0  0  # atno 10765 bound_to 10752
  141.1402  133.6656  156.5724 H   0  0  0  0  0  0  0  0  0  0  0  0  # atno 11005 bound_to 11000
  145.1164  139.2723  143.5611 LP  0  0  0  0  0  0  0  0  0  0  0  0  # atno 17320 bound_to 7965
  146.3531  140.0775  142.8619 LP  0  0  0  0  0  0  0  0  0  0  0  0  # atno 17321 bound_to 7965
  140.6910  143.2376  151.5130 LP  0  0  0  0  0  0  0  0  0  0  0  0  # atno 17342 bound_to 10162
  139.5605  144.2169  152.1683 LP  0  0  0  0  0  0  0  0  0  0  0  0  # atno 17343 bound_to 10162
  156.1203  130.6105  151.0183 LP  0  0  0  0  0  0  0  0  0  0  0  0  # atno 17370 bound_to 10713
  157.6635  131.0876  150.7784 LP  0  0  0  0  0  0  0  0  0  0  0  0  # atno 17371 bound_to 10713
  140.3902  134.7447  157.4717 LP  0  0  0  0  0  0  0  0  0  0  0  0  # atno 17394 bound_to 11000
  140.0572  134.6047  155.8792 LP  0  0  0  0  0  0  0  0  0  0  0  0  # atno 17395 bound_to 11000

$$$$
