AV-unprocessed.smi:2784|AV-procd|sdf|10726|dock2
  -GOLD-   2272015163D 1   1.00000     0.00000
 Structure written by MMmdl.
 31 32  0  0  0  0  0  0  0  0  1 V2000
  152.8022  141.5152  160.3450 C   0  0  0  0  0  0  0  0  0  0  0  0
  152.6735  141.4501  158.9334 O   0  0  0  0  0  0  0  0  0  0  0  0
  152.2417  142.6687  158.3439 C   0  0  2  0  0  0  0  0  0  0  0  0
  153.1041  143.8212  158.8661 C   0  0  0  0  0  0  0  0  0  0  0  0
  152.1952  145.0424  158.7841 C   0  0  0  0  0  0  0  0  0  0  0  0
  150.8236  144.5048  159.1902 C   0  0  0  0  0  0  0  0  0  0  0  0
  150.7870  143.0388  158.7153 C   0  0  1  0  0  0  0  0  0  0  0  0
  149.9079  142.8879  157.5582 N   0  0  0  0  0  0  0  0  0  0  0  0
  149.6315  141.7277  156.9461 C   0  0  0  0  0  0  0  0  0  0  0  0
  150.0886  140.6426  157.3064 O   0  0  0  0  0  0  0  0  0  0  0  0
  148.7998  141.9108  155.9070 N   0  0  0  0  0  0  0  0  0  0  0  0
  148.3092  140.9278  155.0110 C   0  0  0  0  0  0  0  0  0  0  0  0
  148.9034  139.7777  154.6897 N   0  0  0  0  0  0  0  0  0  0  0  0
  148.0399  139.1789  153.7838 C   0  0  0  0  0  0  0  0  0  0  0  0
  146.9626  140.0086  153.6075 C   0  0  0  0  0  0  0  0  0  0  0  0
  147.1207  141.1266  154.3819 O   0  0  0  0  0  0  0  0  0  0  0  0
  153.1052  140.5408  160.7279 H   0  0  0  0  0  0  0  0  0  0  0  0
  151.8549  141.7802  160.8159 H   0  0  0  0  0  0  0  0  0  0  0  0
  153.5575  142.2408  160.6479 H   0  0  0  0  0  0  0  0  0  0  0  0
  152.3658  142.6251  157.2595 H   0  0  0  0  0  0  0  0  0  0  0  0
  153.3729  143.6434  159.9085 H   0  0  0  0  0  0  0  0  0  0  0  0
  154.0287  143.9430  158.3014 H   0  0  0  0  0  0  0  0  0  0  0  0
  152.5313  145.8614  159.4205 H   0  0  0  0  0  0  0  0  0  0  0  0
  152.1601  145.4078  157.7570 H   0  0  0  0  0  0  0  0  0  0  0  0
  150.7364  144.5305  160.2773 H   0  0  0  0  0  0  0  0  0  0  0  0
  150.0104  145.1128  158.7914 H   0  0  0  0  0  0  0  0  0  0  0  0
  150.4409  142.4084  159.5368 H   0  0  0  0  0  0  0  0  0  0  0  0
  149.4864  143.7307  157.1965 H   0  0  0  0  0  0  0  0  0  0  0  0
  148.4907  142.8552  155.7316 H   0  0  0  0  0  0  0  0  0  0  0  0
  148.2574  138.2190  153.3393 H   0  0  0  0  0  0  0  0  0  0  0  0
  146.0649  139.9547  153.0094 H   0  0  0  0  0  0  0  0  0  0  0  0
  1  2  1  0  0  0  0
  1 17  1  0  0  0  0
  1 18  1  0  0  0  0
  1 19  1  0  0  0  0
  2  3  1  0  0  0  0
  3  7  1  0  0  0  0
  3  4  1  0  0  0  0
  3 20  1  0  0  0  0
  4  5  1  0  0  0  0
  4 21  1  0  0  0  0
  4 22  1  0  0  0  0
  5  6  1  0  0  0  0
  5 23  1  0  0  0  0
  5 24  1  0  0  0  0
  6  7  1  0  0  0  0
  6 25  1  0  0  0  0
  6 26  1  0  0  0  0
  7  8  1  0  0  0  0
  7 27  1  0  0  0  0
  8  9  1  0  0  0  0
  8 28  1  0  0  0  0
  9 10  2  0  0  0  0
  9 11  1  0  0  0  0
 11 12  1  0  0  0  0
 11 29  1  0  0  0  0
 12 16  1  0  0  0  0
 12 13  2  0  0  0  0
 13 14  1  0  0  0  0
 14 15  2  0  0  0  0
 14 30  1  0  0  0  0
 15 16  1  0  0  0  0
 15 31  1  0  0  0  0
M  END
> <s_m_source_file>
AV-unprocessed.smi

> <i_m_source_file_index>
2784

> <i_lp_mmshare_version>
43012

> <i_f3d_flags>
0

> <s_epik_input>
W0NIM11PW0NAQEhdMVtDSDJdW0NIMl1bQ0gyXVtDQEhdMVtOSF1DKD1PKVtOSF1jMm5bY0hdW2NIXW8y

> <s_epik_cmdline>
J2VwaWtfcHl0aG9uJywgJy1waCcsICc3LjAnLCAnLXRuJywgJzgnLCAnLW1hJywgJzIwMCcsICctbWV0YWxfYmluZGluZycsICctaW1hZScsICc8aW5maWxlLm1hZT4nLCAnLW9tYWUnLCAnPG91dGZpbGUubWFlPic=

> <r_lp_tautomer_probability>
0.785861

> <r_epik_Ionization_Penalty>
4.58897e-05

> <r_epik_Ionization_Penalty_Charging>
0

> <r_epik_Ionization_Penalty_Neutral>
4.58897e-05

> <r_epik_State_Penalty>
0.0380021

> <r_epik_Charging_Adjusted_Penalty>
0.0380021

> <i_epik_Tot_Q>
0

> <i_epik_Tot_abs_Q>
0

> <r_epik_Metal_State_Penalty>
0.0585611

> <b_epik_Metal_Only>
0

> <s_lp_Force_Field>
OPLS_2005

> <r_lp_Energy>
17.9939

> <b_lp_Chiralities_Consistent>
1

> <s_lp_Variant>
AV-unprocessed.smi:2784-1

> <Gold.Version>
5.8.1

> <Gold.Id.Protein>
6NUR|6NUR_protein|mol2

> <Gold.PLP.Fitness>
40.3718

> <Gold.PLP.PLP>
-28.7782

> <Gold.PLP.part.hbond>
-2.0000

> <Gold.PLP.part.metal>
0.0000

> <Gold.PLP.part.buried>
-4.5750

> <Gold.PLP.part.nonpolar>
-23.1994

> <Gold.PLP.part.repulsive>
0.3836

> <Gold.PLP.ligand.clash>
0.0000

> <Gold.PLP.ligand.torsion>
0.2052

> <Gold.PLP.Chemscore.Hbond>
2.0000

> <Gold.PLP.Chemscore.CHOScore>
1.9987

> <Gold.PLP.Chemscore.Metal>
0.0000

> <Gold.Chemscore.Hbonds>
donor molecule, donor type, donor heavy atom, donor atom, acceptor molecule, acceptor atom, score
      L1  H     8    28       P1  8028  0.98
      L1  H    11    29       P1  8028  1.00
      L1  C    14    30       P1  7948  0.93
      L1  C    15    31       P1 10175  1.00

> <Gold.PLP.Chemscore.Internal.Correction>
0.0078

> <Gold.Rescore>
     Score         DG    S(hbond)    S(metal)    S(lipo)     H(rot)  DE(clash)    DE(int)     intcor
     16.23     -17.60       1.91        0.00      78.08       1.32       0.10       1.28       ----

> <Gold.Chemscore.Fitness>
16.2265

> <Gold.Chemscore.DG>
-17.6027

> <Gold.Chemscore.ZeroCoef>
-5.4800

> <Gold.Chemscore.Hbond>
1.9087

> <Gold.Chemscore.Metal>
0.0000

> <Gold.Chemscore.Lipo>
78.0840

> <Gold.Chemscore.Internal_Hbond>
0.0000

> <Gold.Chemscore.DEClash>
0.0997

> <Gold.Chemscore.DEInternal>
1.2765

> <Gold.Chemscore.Rot>
1.3235

> <Gold.Chemscore.Internal.Correction>
   9.000000E+99

> <Gold.Chemscore.Hbonds>
donor molecule, donor type, donor heavy atom, donor atom, acceptor molecule, acceptor atom, score
      L1  H     8    28       P1  8028  0.65
      L1  H    11    29       P1  8028  0.94

> <Gold.Chemscore.Hbond.Weighted>
-6.3751

> <Gold.Chemscore.Metal.Weighted>
-0.0000

> <Gold.Chemscore.Lipo.Weighted>
-9.1358

> <Gold.Chemscore.Internal_Hbond.Weighted>
0.0000

> <Gold.Chemscore.DEClash.Weighted>
0.0997

> <Gold.Chemscore.DEInternal.Weighted>
1.2765

> <Gold.Chemscore.Rot.Weighted>
3.3882

> <Gold.Chemscore.Internal.Correction.Weighted>
   9.000000E+99

> <Gold.Protein.RotatedTorsions>
[ 6907 6896 6895 6894 ] final -119.18 input  -60.11 | X-H torsion
[ 7974 7965 7964 7962 ] final -138.60 input  175.53 | X-H torsion
[ 8008 7997 7996 7995 ] final   68.66 input   59.86 | X-H torsion
[ 10167 10162 10161 10158 ] final   72.24 input  -65.29 | X-H torsion
[ 10718 10713 10712 10709 ] final -114.06 input   66.30 | X-H torsion
[ 10763 10752 10751 10750 ] final -149.56 input  -60.55 | X-H torsion
[ 11005 11000 10999 10996 ] final  155.33 input  -57.11 | X-H torsion

> <Gold.Protein.ActiveResidues>
 VAL166  LYS551  ARG553  GLY616  TRP617  ASP618  TYR619  PRO620  LYS621  CYS622 
 ASP623  PHE694  ASN695  SER759  ASP760  ASP761  ALA762  ILE779  LEU786  VAL792 
 PHE793  MET794  SER795  GLU796  ALA797  LYS798  CYS799  TRP800  GLU811  SER814 

> <Gold.Protein.RotatedAtoms>
  150.8283  133.8135  159.3109 H   0  0  0  0  0  0  0  0  0  0  0  0  # atno 6907 bound_to 6896
  151.5872  135.1053  160.0040 H   0  0  0  0  0  0  0  0  0  0  0  0  # atno 6908 bound_to 6896
  152.4365  133.7329  159.6654 H   0  0  0  0  0  0  0  0  0  0  0  0  # atno 6909 bound_to 6896
  144.8745  140.6416  143.5246 H   0  0  0  0  0  0  0  0  0  0  0  0  # atno 7974 bound_to 7965
  155.7118  140.3494  155.4977 H   0  0  0  0  0  0  0  0  0  0  0  0  # atno 8008 bound_to 7997
  155.9349  140.1091  157.1124 H   0  0  0  0  0  0  0  0  0  0  0  0  # atno 8009 bound_to 7997
  154.4092  140.1224  156.4837 H   0  0  0  0  0  0  0  0  0  0  0  0  # atno 8010 bound_to 7997
  140.0374  144.5417  150.7460 H   0  0  0  0  0  0  0  0  0  0  0  0  # atno 10167 bound_to 10162
  156.0806  130.6006  150.8725 H   0  0  0  0  0  0  0  0  0  0  0  0  # atno 10718 bound_to 10713
  154.8170  135.3306  154.7147 H   0  0  0  0  0  0  0  0  0  0  0  0  # atno 10763 bound_to 10752
  153.7786  135.6920  153.4897 H   0  0  0  0  0  0  0  0  0  0  0  0  # atno 10764 bound_to 10752
  153.1996  135.4521  155.0197 H   0  0  0  0  0  0  0  0  0  0  0  0  # atno 10765 bound_to 10752
  140.1571  134.8635  157.2528 H   0  0  0  0  0  0  0  0  0  0  0  0  # atno 11005 bound_to 11000
  145.4069  139.1587  143.4147 LP  0  0  0  0  0  0  0  0  0  0  0  0  # atno 17320 bound_to 7965
  146.2953  140.4170  142.8724 LP  0  0  0  0  0  0  0  0  0  0  0  0  # atno 17321 bound_to 7965
  140.7275  143.2652  151.4068 LP  0  0  0  0  0  0  0  0  0  0  0  0  # atno 17342 bound_to 10162
  139.6036  144.1244  152.2225 LP  0  0  0  0  0  0  0  0  0  0  0  0  # atno 17343 bound_to 10162
  157.5921  131.0944  150.9102 LP  0  0  0  0  0  0  0  0  0  0  0  0  # atno 17370 bound_to 10713
  156.9276  130.5338  149.5279 LP  0  0  0  0  0  0  0  0  0  0  0  0  # atno 17371 bound_to 10713
  140.2534  134.3656  155.7433 LP  0  0  0  0  0  0  0  0  0  0  0  0  # atno 17394 bound_to 11000
  141.2205  133.7329  156.8970 LP  0  0  0  0  0  0  0  0  0  0  0  0  # atno 17395 bound_to 11000

$$$$
