AV-unprocessed.smi:1565|AV-procd|sdf|6302|dock10
  -GOLD-   22720 6503D 1   1.00000     0.00000
 Structure written by MMmdl.
 39 40  0  0  0  0  0  0  0  0  2 V2000
  146.8332  141.8311  155.1516 C   0  0  0  0  0  0  0  0  0  0  0  0
  147.7347  141.6191  153.9222 C   0  0  1  0  0  0  0  0  0  0  0  0
  149.1495  141.1232  154.2792 C   0  0  0  0  0  0  0  0  0  0  0  0
  149.1325  139.7105  154.6474 N   0  0  0  0  0  0  0  0  0  0  0  0
  150.3111  139.2338  155.2597 C   0  0  0  0  0  0  0  0  0  0  0  0
  151.0846  138.2357  154.6231 C   0  0  0  0  0  0  0  0  0  0  0  0
  152.2529  137.7657  155.2534 C   0  0  0  0  0  0  0  0  0  0  0  0
  152.6297  138.3092  156.5028 C   0  0  0  0  0  0  0  0  0  0  0  0
  153.8423  137.8275  157.2526 C   0  0  0  0  0  0  0  0  0  0  0  0
  154.2174  136.6654  157.0609 O   0  0  0  0  0  0  0  0  0  0  0  0
  154.3382  138.7709  158.1025 N   0  5  0  0  0  0  0  0  0  0  0  0
  154.4181  138.6088  159.5564 C   0  0  0  0  0  0  0  0  0  0  0  0
  154.6940  139.9543  160.2580 C   0  0  0  0  0  0  0  0  0  0  0  0
  153.7174  140.8092  159.9542 F   0  0  0  0  0  0  0  0  0  0  0  0
  154.7207  139.7996  161.5826 F   0  0  0  0  0  0  0  0  0  0  0  0
  155.8516  140.4800  159.8546 F   0  0  0  0  0  0  0  0  0  0  0  0
  151.7901  139.2977  157.0598 C   0  0  0  0  0  0  0  0  0  0  0  0
  150.6699  139.7535  156.4590 N   0  0  0  0  0  0  0  0  0  0  0  0
  148.4897  138.8642  153.6464 C   0  0  0  0  0  0  0  0  0  0  0  0
  147.0729  139.3803  153.3396 C   0  0  2  0  0  0  0  0  0  0  0  0
  146.4154  138.5983  152.1979 C   0  0  0  0  0  0  0  0  0  0  0  0
  147.1360  140.7533  152.9552 O   0  0  0  0  0  0  0  0  0  0  0  0
  147.2488  142.5974  155.8059 H   0  0  0  0  0  0  0  0  0  0  0  0
  146.7242  140.9245  155.7461 H   0  0  0  0  0  0  0  0  0  0  0  0
  145.8372  142.1582  154.8521 H   0  0  0  0  0  0  0  0  0  0  0  0
  147.8373  142.5898  153.4367 H   0  0  0  0  0  0  0  0  0  0  0  0
  149.8054  141.2405  153.4156 H   0  0  0  0  0  0  0  0  0  0  0  0
  149.5634  141.7471  155.0705 H   0  0  0  0  0  0  0  0  0  0  0  0
  150.8026  137.8340  153.6613 H   0  0  0  0  0  0  0  0  0  0  0  0
  152.8413  136.9952  154.7768 H   0  0  0  0  0  0  0  0  0  0  0  0
  153.5106  138.1677  159.9720 H   0  0  0  0  0  0  0  0  0  0  0  0
  155.2146  137.9114  159.8180 H   0  0  0  0  0  0  0  0  0  0  0  0
  152.0193  139.7439  158.0168 H   0  0  0  0  0  0  0  0  0  0  0  0
  149.0954  138.8593  152.7389 H   0  0  0  0  0  0  0  0  0  0  0  0
  148.4300  137.8358  154.0050 H   0  0  0  0  0  0  0  0  0  0  0  0
  146.4458  139.2749  154.2249 H   0  0  0  0  0  0  0  0  0  0  0  0
  146.3330  137.5394  152.4439 H   0  0  0  0  0  0  0  0  0  0  0  0
  146.9926  138.6847  151.2769 H   0  0  0  0  0  0  0  0  0  0  0  0
  145.4108  138.9721  151.9982 H   0  0  0  0  0  0  0  0  0  0  0  0
  1  2  1  0  0  0  0
  1 23  1  0  0  0  0
  1 24  1  0  0  0  0
  1 25  1  0  0  0  0
  2 22  1  0  0  0  0
  2  3  1  0  0  0  0
  2 26  1  0  0  0  0
  3  4  1  0  0  0  0
  3 27  1  0  0  0  0
  3 28  1  0  0  0  0
  4  5  1  0  0  0  0
  4 19  1  0  0  0  0
  5 18  1  0  0  0  0
  5  6  2  0  0  0  0
  6  7  1  0  0  0  0
  6 29  1  0  0  0  0
  7  8  2  0  0  0  0
  7 30  1  0  0  0  0
  8  9  1  0  0  0  0
  8 17  1  0  0  0  0
  9 10  2  0  0  0  0
  9 11  1  0  0  0  0
 11 12  1  0  0  0  0
 12 13  1  0  0  0  0
 12 31  1  0  0  0  0
 12 32  1  0  0  0  0
 13 14  1  0  0  0  0
 13 15  1  0  0  0  0
 13 16  1  0  0  0  0
 17 18  2  0  0  0  0
 17 33  1  0  0  0  0
 19 20  1  0  0  0  0
 19 34  1  0  0  0  0
 19 35  1  0  0  0  0
 20 21  1  0  0  0  0
 20 22  1  0  0  0  0
 20 36  1  0  0  0  0
 21 37  1  0  0  0  0
 21 38  1  0  0  0  0
 21 39  1  0  0  0  0
M  CHG  1  11  -1
M  END
> <s_m_source_file>
AV-unprocessed.smi

> <i_m_source_file_index>
1565

> <i_lp_mmshare_version>
43012

> <i_f3d_flags>
0

> <s_epik_input>
W0NIM11bQ0BASF0xW0NIMl1OKFtDSDJdW0NASF0oTzEpW0NIM10pYzJbY0hdW2NIXWMoW2NIXW4yKUMoPU8pW05IXVtDSDJdQyhGKShGKUY=

> <s_epik_cmdline>
J2VwaWtfcHl0aG9uJywgJy1waCcsICc3LjAnLCAnLXRuJywgJzgnLCAnLW1hJywgJzIwMCcsICctbWV0YWxfYmluZGluZycsICctaW1hZScsICc8aW5maWxlLm1hZT4nLCAnLW9tYWUnLCAnPG91dGZpbGUubWFlPic=

> <r_lp_tautomer_probability>
1

> <r_epik_Ionization_Penalty>
6.78525

> <r_epik_Ionization_Penalty_Charging>
6.78469

> <r_epik_Ionization_Penalty_Neutral>
0.000559052

> <r_epik_State_Penalty>
6.78469

> <r_epik_Charging_Adjusted_Penalty>
13.5694

> <i_epik_Tot_Q>
-1

> <i_epik_Tot_abs_Q>
1

> <r_epik_Metal_State_Penalty>
2.70441

> <b_epik_Metal_Only>
1

> <s_lp_Force_Field>
OPLS_2005

> <r_lp_Energy>
29.3503

> <b_lp_Chiralities_Consistent>
1

> <s_lp_Variant>
AV-unprocessed.smi:1565-6

> <Gold.Version>
5.8.1

> <Gold.Id.Protein>
6NUR|6NUR_protein|mol2

> <Gold.PLP.Fitness>
40.1852

> <Gold.PLP.PLP>
-33.6963

> <Gold.PLP.part.hbond>
-1.9371

> <Gold.PLP.part.metal>
0.0000

> <Gold.PLP.part.buried>
2.0730

> <Gold.PLP.part.nonpolar>
-34.3541

> <Gold.PLP.part.repulsive>
0.3026

> <Gold.PLP.ligand.clash>
0.0000

> <Gold.PLP.ligand.torsion>
1.2861

> <Gold.PLP.Chemscore.Hbond>
2.9120

> <Gold.PLP.Chemscore.CHOScore>
0.0000

> <Gold.PLP.Chemscore.Metal>
0.0000

> <Gold.Chemscore.Hbonds>
donor molecule, donor type, donor heavy atom, donor atom, acceptor molecule, acceptor atom, score
      P1  H  7997  8009       L1    11  2.00
      P1  H 10752 10763       L1    10  0.70

> <Gold.PLP.Chemscore.Internal.Correction>
0.3250

> <Gold.Rescore>
     Score         DG    S(hbond)    S(metal)    S(lipo)     H(rot)  DE(clash)    DE(int)     intcor
     15.62     -17.29       1.78        0.00      78.48       1.29       0.36       1.31       ----

> <Gold.Chemscore.Fitness>
15.6152

> <Gold.Chemscore.DG>
-17.2856

> <Gold.Chemscore.ZeroCoef>
-5.4800

> <Gold.Chemscore.Hbond>
1.7758

> <Gold.Chemscore.Metal>
0.0000

> <Gold.Chemscore.Lipo>
78.4797

> <Gold.Chemscore.Internal_Hbond>
0.0000

> <Gold.Chemscore.DEClash>
0.3576

> <Gold.Chemscore.DEInternal>
1.3128

> <Gold.Chemscore.Rot>
1.2921

> <Gold.Chemscore.Internal.Correction>
   9.000000E+99

> <Gold.Chemscore.Hbonds>
donor molecule, donor type, donor heavy atom, donor atom, acceptor molecule, acceptor atom, score
      P1  H  7997  8009       L1    11  0.38
      P1  H 10752 10763       L1    10  0.66

> <Gold.Chemscore.Hbond.Weighted>
-5.9313

> <Gold.Chemscore.Metal.Weighted>
-0.0000

> <Gold.Chemscore.Lipo.Weighted>
-9.1821

> <Gold.Chemscore.Internal_Hbond.Weighted>
0.0000

> <Gold.Chemscore.DEClash.Weighted>
0.3576

> <Gold.Chemscore.DEInternal.Weighted>
1.3128

> <Gold.Chemscore.Rot.Weighted>
3.3078

> <Gold.Chemscore.Internal.Correction.Weighted>
   9.000000E+99

> <Gold.Protein.RotatedTorsions>
[ 6907 6896 6895 6894 ] final -130.81 input  -60.11 | X-H torsion
[ 7974 7965 7964 7962 ] final   66.78 input  175.53 | X-H torsion
[ 8008 7997 7996 7995 ] final  147.27 input   59.86 | X-H torsion
[ 10167 10162 10161 10158 ] final -162.28 input  -65.29 | X-H torsion
[ 10718 10713 10712 10709 ] final  -75.48 input   66.30 | X-H torsion
[ 10763 10752 10751 10750 ] final  143.16 input  -60.55 | X-H torsion
[ 11005 11000 10999 10996 ] final -140.23 input  -57.11 | X-H torsion

> <Gold.Protein.ActiveResidues>
 VAL166  LYS551  ARG553  GLY616  TRP617  ASP618  TYR619  PRO620  LYS621  CYS622 
 ASP623  PHE694  ASN695  SER759  ASP760  ASP761  ALA762  ILE779  LEU786  VAL792 
 PHE793  MET794  SER795  GLU796  ALA797  LYS798  CYS799  TRP800  GLU811  SER814 

> <Gold.Protein.RotatedAtoms>
  150.9439  133.6625  159.2784 H   0  0  0  0  0  0  0  0  0  0  0  0  # atno 6907 bound_to 6896
  151.4004  135.0969  159.9564 H   0  0  0  0  0  0  0  0  0  0  0  0  # atno 6908 bound_to 6896
  152.5081  133.8934  159.7460 H   0  0  0  0  0  0  0  0  0  0  0  0  # atno 6909 bound_to 6896
  145.8225  139.3092  143.1035 H   0  0  0  0  0  0  0  0  0  0  0  0  # atno 7974 bound_to 7965
  156.2830  140.2160  156.5511 H   0  0  0  0  0  0  0  0  0  0  0  0  # atno 8008 bound_to 7997
  154.7290  140.0497  157.0732 H   0  0  0  0  0  0  0  0  0  0  0  0  # atno 8009 bound_to 7997
  155.0378  140.3142  155.4738 H   0  0  0  0  0  0  0  0  0  0  0  0  # atno 8010 bound_to 7997
  139.6404  144.0271  152.2087 H   0  0  0  0  0  0  0  0  0  0  0  0  # atno 10167 bound_to 10162
  156.0206  130.4442  150.3049 H   0  0  0  0  0  0  0  0  0  0  0  0  # atno 10718 bound_to 10713
  153.9678  135.2953  155.3429 H   0  0  0  0  0  0  0  0  0  0  0  0  # atno 10763 bound_to 10752
  154.7339  135.5055  153.9012 H   0  0  0  0  0  0  0  0  0  0  0  0  # atno 10764 bound_to 10752
  153.0915  135.6709  153.9957 H   0  0  0  0  0  0  0  0  0  0  0  0  # atno 10765 bound_to 10752
  140.8443  134.2364  157.4794 H   0  0  0  0  0  0  0  0  0  0  0  0  # atno 11005 bound_to 11000
  145.9660  140.8798  143.0187 LP  0  0  0  0  0  0  0  0  0  0  0  0  # atno 17320 bound_to 7965
  144.6746  140.1878  143.7399 LP  0  0  0  0  0  0  0  0  0  0  0  0  # atno 17321 bound_to 7965
  139.9959  144.6328  150.7773 LP  0  0  0  0  0  0  0  0  0  0  0  0  # atno 17342 bound_to 10162
  140.7488  143.2927  151.3286 LP  0  0  0  0  0  0  0  0  0  0  0  0  # atno 17343 bound_to 10162
  157.1152  131.0232  151.3032 LP  0  0  0  0  0  0  0  0  0  0  0  0  # atno 17370 bound_to 10713
  157.4673  130.7688  149.7290 LP  0  0  0  0  0  0  0  0  0  0  0  0  # atno 17371 bound_to 10713
  139.8703  134.9651  156.4517 LP  0  0  0  0  0  0  0  0  0  0  0  0  # atno 17394 bound_to 11000
  140.8861  133.7882  155.9520 LP  0  0  0  0  0  0  0  0  0  0  0  0  # atno 17395 bound_to 11000

$$$$
