#       Name:                AV-unprocessed.smi:3231
#       Creating user name   scv26
#       Creation time:       Fri Mar 27 18:18:29 2020


#       File generated by GOLD software.
#

@<TRIPOS>MOLECULE
AV-unprocessed.smi:3231
    47    48     1
SMALL
NO_CHARGES


@<TRIPOS>ATOM
      1 ****        -0.1335   0.4513   2.0934 O.3            1 S1                 0.0000
      2 ****        -0.0926   0.6635   0.6949 C.3            1 S1                 0.0000
      3 ****         1.3821   0.6060   0.2594 C.3            1 S1                 0.0000
      4 ****         1.9230  -0.7616   0.3893 N.4            1 S1                 1.0000
      5 ****         3.3418  -0.8913   0.0014 C.3            1 S1                 0.0000
      6 ****         3.8288  -2.3445   0.1266 C.3            1 S1                 0.0000
      7 ****         3.1287  -3.2455  -0.7718 N.pl3          1 S1                 0.0000
      8 ****         2.2906  -4.2941  -0.4546 C.2            1 S1                 0.0000
      9 ****         1.8768  -4.8530  -1.6297 C.2            1 S1                 0.0000
     10 ****         2.5312  -4.0737  -2.6241 C.2            1 S1                 0.0000
     11 ****         3.2797  -3.1125  -2.1070 N.2            1 S1                 0.0000
     12 ****        -0.7393   2.0296   0.3782 C.3            1 S1                 0.0000
     13 ****        -2.1691   1.9863   0.0715 N.3            1 S1                 0.0000
     14 ****        -2.6350   3.2735  -0.4353 C.3            1 S1                 0.0000
     15 ****        -4.1372   3.2542  -0.7666 C.3            1 S1                 0.0000
     16 ****        -4.8732   2.8745   0.3913 O.3            1 S1                 0.0000
     17 ****        -4.4856   1.5999   0.8933 C.3            1 S1                 0.0000
     18 ****        -2.9830   1.6089   1.2255 C.3            1 S1                 0.0000
     19 ****         0.2657   1.1920   2.5244 H              1 S1                 0.0000
     20 ****        -0.6434  -0.1324   0.1908 H              1 S1                 0.0000
     21 ****         1.4714   0.9044  -0.7861 H              1 S1                 0.0000
     22 ****         1.9842   1.3036   0.8437 H              1 S1                 0.0000
     23 ****         1.8223  -1.0534   1.3510 H              1 S1                 0.0000
     24 ****         3.4767  -0.5328  -1.0201 H              1 S1                 0.0000
     25 ****         3.9439  -0.2483   0.6443 H              1 S1                 0.0000
     26 ****         4.8949  -2.4015  -0.0976 H              1 S1                 0.0000
     27 ****         3.7050  -2.7007   1.1501 H              1 S1                 0.0000
     28 ****         2.0587  -4.5523   0.5684 H              1 S1                 0.0000
     29 ****         1.2117  -5.6940  -1.7597 H              1 S1                 0.0000
     30 ****         2.4849  -4.1770  -3.6983 H              1 S1                 0.0000
     31 ****        -0.5405   2.7446   1.1785 H              1 S1                 0.0000
     32 ****        -0.2327   2.4341  -0.4991 H              1 S1                 0.0000
     33 ****        -2.4406   4.0540   0.3020 H              1 S1                 0.0000
     34 ****        -2.0744   3.5442  -1.3307 H              1 S1                 0.0000
     35 ****        -4.4670   4.2412  -1.0912 H              1 S1                 0.0000
     36 ****        -4.3452   2.5609  -1.5832 H              1 S1                 0.0000
     37 ****        -5.0701   1.3747   1.7856 H              1 S1                 0.0000
     38 ****        -4.7136   0.8273   0.1573 H              1 S1                 0.0000
     39 ****        -2.7001   0.6178   1.5793 H              1 S1                 0.0000
     40 ****        -2.8002   2.3006   2.0494 H              1 S1                 0.0000
     41 ****         1.3743  -1.3778  -0.1934 H              1 S1                 0.0000
     42 ****         0.3694  -0.3822   2.3220 LP             1 S1                 0.0000
     43 ****        -1.0834   0.3600   2.3922 LP             1 S1                 0.0000
     44 ****         3.8334  -2.4384  -2.5959 LP             1 S1                 0.0000
     45 ****        -2.2783   1.2827  -0.6307 LP             1 S1                 0.0000
     46 ****        -5.8450   2.8445   0.1574 LP             1 S1                 0.0000
     47 ****        -4.7230   3.5588   1.1048 LP             1 S1                 0.0000
@<TRIPOS>BOND
    1    1    2 1     
    2    1   19 1     
    3    2    3 1     
    4    2   12 1     
    5    2   20 1     
    6    3    4 1     
    7    3   21 1     
    8    3   22 1     
    9    4    5 1     
   10    4   23 1     
   11    4   41 1     
   12    5    6 1     
   13    5   24 1     
   14    5   25 1     
   15    6    7 1     
   16    6   26 1     
   17    6   27 1     
   18    7   11 1     
   19    7    8 1     
   20    8    9 2     
   21    8   28 1     
   22    9   10 1     
   23    9   29 1     
   24   10   11 2     
   25   10   30 1     
   26   12   13 1     
   27   12   31 1     
   28   12   32 1     
   29   13   18 1     
   30   13   14 1     
   31   14   15 1     
   32   14   33 1     
   33   14   34 1     
   34   15   16 1     
   35   15   35 1     
   36   15   36 1     
   37   16   17 1     
   38   17   18 1     
   39   17   37 1     
   40   17   38 1     
   41   18   39 1     
   42   18   40 1     
   43    1   42 1     
   44    1   43 1     
   45   11   44 1     
   46   13   45 1     
   47   16   46 1     
   48   16   47 1     
@<TRIPOS>SUBSTRUCTURE
      1 S1             1
@<TRIPOS>SET
LONE_PAIRS      STATIC     ATOMS    <user>   **** ""
6 42 43 44 45 46 47
DONOR_HYDROGENS      STATIC     ATOMS    <user>   **** ""
3 19 23 41
ATOM$BLUE        STATIC     ATOMS    COLORGROUP SYSTEM
6 42 43 44 45 46 47
ATOM$RED        STATIC     ATOMS    COLORGROUP SYSTEM
3 19 23 41
