AV-unprocessed.smi:634|AV-procd|sdf|3137|dock7
  -GOLD-   22720 0 63D 1   1.00000     0.00000
 Structure written by MMmdl.
 32 33  0  0  0  0  0  0  0  0  2 V2000
  146.3837  131.1917  152.7804 C   0  0  0  0  0  0  0  0  0  0  0  0
  147.3579  132.0592  153.5006 C   0  0  0  0  0  0  0  0  0  0  0  0
  147.9564  133.2466  153.1859 C   0  0  0  0  0  0  0  0  0  0  0  0
  148.7710  133.5066  154.3203 C   0  0  0  0  0  0  0  0  0  0  0  0
  149.5772  134.6738  154.3800 N   0  0  0  0  0  0  0  0  0  0  0  0
  150.4193  135.0678  155.3521 C   0  0  0  0  0  0  0  0  0  0  0  0
  150.5480  134.3932  156.3791 O   0  0  0  0  0  0  0  0  0  0  0  0
  151.0525  136.2340  155.0416 N   0  5  0  0  0  0  0  0  0  0  0  0
  151.5025  137.2934  155.9636 C   0  0  1  0  0  0  0  0  0  0  0  0
  152.2533  138.3341  155.1067 C   0  0  0  0  0  0  0  0  0  0  0  0
  150.3116  137.9799  156.6865 C   0  0  0  0  0  0  0  0  0  0  0  0
  150.8396  138.8012  157.8739 C   0  0  0  0  0  0  0  0  0  0  0  0
  152.3462  137.9338  158.4607 S   0  0  0  0  0  0  0  0  0  0  0  0
  153.4858  138.8629  158.4008 O   0  0  0  0  0  0  0  0  0  0  0  0
  152.0404  137.2000  159.6986 O   0  0  0  0  0  0  0  0  0  0  0  0
  152.4424  136.7450  157.0630 C   0  0  0  0  0  0  0  0  0  0  0  0
  148.6744  132.5628  155.2454 N   0  0  0  0  0  0  0  0  0  0  0  0
  147.7688  131.6308  154.7248 O   0  0  0  0  0  0  0  0  0  0  0  0
  146.2953  131.4894  151.7354 H   0  0  0  0  0  0  0  0  0  0  0  0
  145.3966  131.2594  153.2374 H   0  0  0  0  0  0  0  0  0  0  0  0
  146.6998  130.1487  152.8083 H   0  0  0  0  0  0  0  0  0  0  0  0
  147.8328  133.8326  152.2872 H   0  0  0  0  0  0  0  0  0  0  0  0
  149.5231  135.2835  153.5777 H   0  0  0  0  0  0  0  0  0  0  0  0
  152.6431  139.1558  155.7075 H   0  0  0  0  0  0  0  0  0  0  0  0
  151.6016  138.7685  154.3474 H   0  0  0  0  0  0  0  0  0  0  0  0
  153.1017  137.8842  154.5893 H   0  0  0  0  0  0  0  0  0  0  0  0
  149.7205  138.5965  156.0084 H   0  0  0  0  0  0  0  0  0  0  0  0
  149.6300  137.2318  157.0904 H   0  0  0  0  0  0  0  0  0  0  0  0
  151.1223  139.8090  157.5676 H   0  0  0  0  0  0  0  0  0  0  0  0
  150.1144  138.8792  158.6839 H   0  0  0  0  0  0  0  0  0  0  0  0
  152.1140  135.7801  157.4477 H   0  0  0  0  0  0  0  0  0  0  0  0
  153.4759  136.6379  156.7332 H   0  0  0  0  0  0  0  0  0  0  0  0
  1  2  1  0  0  0  0
  1 19  1  0  0  0  0
  1 20  1  0  0  0  0
  1 21  1  0  0  0  0
  2 18  1  0  0  0  0
  2  3  2  0  0  0  0
  3  4  1  0  0  0  0
  3 22  1  0  0  0  0
  4  5  1  0  0  0  0
  4 17  2  0  0  0  0
  5  6  1  0  0  0  0
  5 23  1  0  0  0  0
  6  7  2  0  0  0  0
  6  8  1  0  0  0  0
  8  9  1  0  0  0  0
  9 16  1  0  0  0  0
  9 10  1  0  0  0  0
  9 11  1  0  0  0  0
 10 24  1  0  0  0  0
 10 25  1  0  0  0  0
 10 26  1  0  0  0  0
 11 12  1  0  0  0  0
 11 27  1  0  0  0  0
 11 28  1  0  0  0  0
 12 13  1  0  0  0  0
 12 29  1  0  0  0  0
 12 30  1  0  0  0  0
 13 14  2  0  0  0  0
 13 15  2  0  0  0  0
 13 16  1  0  0  0  0
 16 31  1  0  0  0  0
 16 32  1  0  0  0  0
 17 18  1  0  0  0  0
M  CHG  1   8  -1
M  END
> <s_m_source_file>
AV-unprocessed.smi

> <i_m_source_file_index>
634

> <i_lp_mmshare_version>
43012

> <i_f3d_flags>
0

> <s_epik_input>
W0NIM11jMVtjSF1jKG5vMSlbTkhdQyg9TylbTkhdW0NAQF0yKFtDSDNdKVtDSDJdW0NIMl1TKD1PKSg9TylbQ0gyXTI=

> <s_epik_cmdline>
J2VwaWtfcHl0aG9uJywgJy1waCcsICc3LjAnLCAnLXRuJywgJzgnLCAnLW1hJywgJzIwMCcsICctbWV0YWxfYmluZGluZycsICctaW1hZScsICc8aW5maWxlLm1hZT4nLCAnLW9tYWUnLCAnPG91dGZpbGUubWFlPic=

> <r_lp_tautomer_probability>
1

> <r_epik_Ionization_Penalty>
6.62388

> <r_epik_Ionization_Penalty_Charging>
6.62387

> <r_epik_Ionization_Penalty_Neutral>
5.45748e-06

> <r_epik_State_Penalty>
6.65157

> <r_epik_Charging_Adjusted_Penalty>
13.2754

> <i_epik_Tot_Q>
-1

> <i_epik_Tot_abs_Q>
1

> <r_epik_Metal_State_Penalty>
2.59195

> <b_epik_Metal_Only>
1

> <s_lp_Force_Field>
OPLS_2005

> <r_lp_Energy>
8.12985

> <b_lp_Chiralities_Consistent>
1

> <s_lp_Variant>
AV-unprocessed.smi:634-5

> <Gold.Version>
5.8.1

> <Gold.Id.Protein>
6NUR|6NUR_protein|mol2

> <Gold.PLP.Fitness>
35.9310

> <Gold.PLP.PLP>
-22.7828

> <Gold.PLP.part.hbond>
-4.0000

> <Gold.PLP.part.metal>
0.0000

> <Gold.PLP.part.buried>
-4.0577

> <Gold.PLP.part.nonpolar>
-16.1142

> <Gold.PLP.part.repulsive>
0.2237

> <Gold.PLP.ligand.clash>
0.0000

> <Gold.PLP.ligand.torsion>
0.2395

> <Gold.PLP.Chemscore.Hbond>
4.5412

> <Gold.PLP.Chemscore.CHOScore>
0.0000

> <Gold.PLP.Chemscore.Metal>
0.0000

> <Gold.Chemscore.Hbonds>
donor molecule, donor type, donor heavy atom, donor atom, acceptor molecule, acceptor atom, score
      L1  H     5    23       P1  7948  0.75
      P1  H  6896  6907       L1    15  0.84
      P1  H  7997  8009       L1    14  0.80
      P1  H 10752 10765       L1     8  1.45

> <Gold.PLP.Chemscore.Internal.Correction>
0.0034

> <Gold.Rescore>
     Score         DG    S(hbond)    S(metal)    S(lipo)     H(rot)  DE(clash)    DE(int)     intcor
     13.00     -14.55       2.05        0.00      40.75       1.00       0.05       1.50       ----

> <Gold.Chemscore.Fitness>
13.0006

> <Gold.Chemscore.DG>
-14.5507

> <Gold.Chemscore.ZeroCoef>
-5.4800

> <Gold.Chemscore.Hbond>
2.0547

> <Gold.Chemscore.Metal>
0.0000

> <Gold.Chemscore.Lipo>
40.7525

> <Gold.Chemscore.Internal_Hbond>
0.0000

> <Gold.Chemscore.DEClash>
0.0515

> <Gold.Chemscore.DEInternal>
1.4986

> <Gold.Chemscore.Rot>
1.0000

> <Gold.Chemscore.Internal.Correction>
   9.000000E+99

> <Gold.Chemscore.Hbonds>
donor molecule, donor type, donor heavy atom, donor atom, acceptor molecule, acceptor atom, score
      L1  H     5    23       P1  7948  0.09
      P1  H  6896  6907       L1    15  0.82
      P1  H  7997  8009       L1    14  0.79
      P1  H 10752 10765       L1     8  0.08

> <Gold.Chemscore.Hbond.Weighted>
-6.8627

> <Gold.Chemscore.Metal.Weighted>
-0.0000

> <Gold.Chemscore.Lipo.Weighted>
-4.7680

> <Gold.Chemscore.Internal_Hbond.Weighted>
0.0000

> <Gold.Chemscore.DEClash.Weighted>
0.0515

> <Gold.Chemscore.DEInternal.Weighted>
1.4986

> <Gold.Chemscore.Rot.Weighted>
2.5600

> <Gold.Chemscore.Internal.Correction.Weighted>
   9.000000E+99

> <Gold.Protein.RotatedTorsions>
[ 6907 6896 6895 6894 ] final    9.80 input  -60.11 | X-H torsion
[ 7974 7965 7964 7962 ] final -150.78 input  175.53 | X-H torsion
[ 8008 7997 7996 7995 ] final  141.02 input   59.86 | X-H torsion
[ 10167 10162 10161 10158 ] final -117.54 input  -65.29 | X-H torsion
[ 10718 10713 10712 10709 ] final    4.32 input   66.30 | X-H torsion
[ 10763 10752 10751 10750 ] final  159.21 input  -60.55 | X-H torsion
[ 11005 11000 10999 10996 ] final   24.19 input  -57.11 | X-H torsion

> <Gold.Protein.ActiveResidues>
 VAL166  LYS551  ARG553  GLY616  TRP617  ASP618  TYR619  PRO620  LYS621  CYS622 
 ASP623  PHE694  ASN695  SER759  ASP760  ASP761  ALA762  ILE779  LEU786  VAL792 
 PHE793  MET794  SER795  GLU796  ALA797  LYS798  CYS799  TRP800  GLU811  SER814 

> <Gold.Protein.RotatedAtoms>
  151.7280  135.0881  160.0295 H   0  0  0  0  0  0  0  0  0  0  0  0  # atno 6907 bound_to 6896
  152.3559  133.6233  159.5988 H   0  0  0  0  0  0  0  0  0  0  0  0  # atno 6908 bound_to 6896
  150.7571  133.9416  159.3499 H   0  0  0  0  0  0  0  0  0  0  0  0  # atno 6909 bound_to 6896
  144.7887  140.4885  143.5788 H   0  0  0  0  0  0  0  0  0  0  0  0  # atno 7974 bound_to 7965
  156.2971  140.2326  156.4496 H   0  0  0  0  0  0  0  0  0  0  0  0  # atno 8008 bound_to 7997
  154.8113  140.0443  157.1365 H   0  0  0  0  0  0  0  0  0  0  0  0  # atno 8009 bound_to 7997
  154.9420  140.3030  155.5119 H   0  0  0  0  0  0  0  0  0  0  0  0  # atno 8010 bound_to 7997
  140.0673  143.4911  152.1999 H   0  0  0  0  0  0  0  0  0  0  0  0  # atno 10167 bound_to 10162
  156.8908  130.5687  149.5650 H   0  0  0  0  0  0  0  0  0  0  0  0  # atno 10718 bound_to 10713
  154.2282  135.2779  155.2899 H   0  0  0  0  0  0  0  0  0  0  0  0  # atno 10763 bound_to 10752
  154.5646  135.5637  153.7041 H   0  0  0  0  0  0  0  0  0  0  0  0  # atno 10764 bound_to 10752
  153.0026  135.6306  154.2423 H   0  0  0  0  0  0  0  0  0  0  0  0  # atno 10765 bound_to 10752
  140.3614  134.2122  155.7672 H   0  0  0  0  0  0  0  0  0  0  0  0  # atno 11005 bound_to 11000
  145.5851  139.1491  143.3213 LP  0  0  0  0  0  0  0  0  0  0  0  0  # atno 17320 bound_to 7965
  146.2131  140.5979  142.9051 LP  0  0  0  0  0  0  0  0  0  0  0  0  # atno 17321 bound_to 7965
  139.5857  144.7530  151.3526 LP  0  0  0  0  0  0  0  0  0  0  0  0  # atno 17342 bound_to 10162
  140.7143  143.7308  150.7625 LP  0  0  0  0  0  0  0  0  0  0  0  0  # atno 17343 bound_to 10162
  156.0630  130.5679  150.9231 LP  0  0  0  0  0  0  0  0  0  0  0  0  # atno 17370 bound_to 10713
  157.6085  131.0937  150.8837 LP  0  0  0  0  0  0  0  0  0  0  0  0  # atno 17371 bound_to 10713
  141.1983  133.8039  157.0589 LP  0  0  0  0  0  0  0  0  0  0  0  0  # atno 17394 bound_to 11000
  140.0624  134.9747  157.1327 LP  0  0  0  0  0  0  0  0  0  0  0  0  # atno 17395 bound_to 11000

$$$$
