AV-unprocessed.smi:207|AV-procd|sdf|1603|dock8
  -GOLD-   2262019513D 1   1.00000     0.00000
 Structure written by MMmdl.
 56 59  0  0  0  0  0  0  0  0  2 V2000
  146.7115  136.5446  156.3906 C   0  0  0  0  0  0  0  0  0  0  0  0
  147.2729  136.7825  154.9689 C   0  0  0  0  0  0  0  0  0  0  0  0
  146.1619  137.3916  154.0823 C   0  0  0  0  0  0  0  0  0  0  0  0
  148.3980  137.8479  155.0313 C   0  0  0  0  0  0  0  0  0  0  0  0
  149.6299  137.3328  155.6197 N   0  0  0  0  0  0  0  0  0  0  0  0
  150.4984  138.2640  156.0908 C   0  0  0  0  0  0  0  0  0  0  0  0
  151.6340  137.8066  156.6789 N   0  0  0  0  0  0  0  0  0  0  0  0
  152.5361  138.6609  157.1684 C   0  0  0  0  0  0  0  0  0  0  0  0
  152.5012  139.9936  157.1772 N   0  0  0  0  0  0  0  0  0  0  0  0
  151.3669  140.4652  156.5870 C   0  0  0  0  0  0  0  0  0  0  0  0
  150.3202  139.6793  156.0221 C   0  0  0  0  0  0  0  0  0  0  0  0
  149.3232  140.5174  155.5339 N   0  0  0  0  0  0  0  0  0  0  0  0
  149.7544  141.7210  155.7930 C   0  0  0  0  0  0  0  0  0  0  0  0
  150.9796  141.7835  156.4166 N   0  0  0  0  0  0  0  0  0  0  0  0
  151.6847  142.9888  156.8297 C   0  0  0  0  0  0  0  0  0  0  0  0
  151.8099  143.1611  158.3559 C   0  0  0  0  0  0  0  0  0  0  0  0
  150.4360  143.5703  158.9250 C   0  0  0  0  0  0  0  0  0  0  0  0
  150.1320  144.9300  158.6846 O   0  0  0  0  0  0  0  0  0  0  0  0
  152.5305  142.0132  159.0789 C   0  0  0  0  0  0  0  0  0  0  0  0
  153.4157  142.9283  159.7614 O   0  0  0  0  0  0  0  0  0  0  0  0
  153.0093  143.9786  158.8570 C   0  0  0  0  0  0  0  0  0  0  0  0
  150.1492  136.1349  154.9808 C   0  0  0  0  0  0  0  0  0  0  0  0
  149.0784  135.0389  154.9627 C   0  0  0  0  0  0  0  0  0  0  0  0
  147.7990  135.5107  154.3604 N   0  3  1  0  0  0  0  0  0  0  0  0
  146.8124  134.3995  154.2356 C   0  0  0  0  0  0  0  0  0  0  0  0
  145.8832  134.5901  153.0256 C   0  0  0  0  0  0  0  0  0  0  0  0
  146.6436  134.6161  151.8363 O   0  0  0  0  0  0  0  0  0  0  0  0
  146.3424  137.4752  156.8233 H   0  0  0  0  0  0  0  0  0  0  0  0
  147.4686  136.1571  157.0721 H   0  0  0  0  0  0  0  0  0  0  0  0
  145.8782  135.8419  156.3900 H   0  0  0  0  0  0  0  0  0  0  0  0
  145.8972  138.3938  154.4221 H   0  0  0  0  0  0  0  0  0  0  0  0
  145.2375  136.8161  154.0943 H   0  0  0  0  0  0  0  0  0  0  0  0
  146.4852  137.4772  153.0442 H   0  0  0  0  0  0  0  0  0  0  0  0
  148.6391  138.1884  154.0228 H   0  0  0  0  0  0  0  0  0  0  0  0
  148.0381  138.7267  155.5677 H   0  0  0  0  0  0  0  0  0  0  0  0
  153.4107  138.2130  157.6170 H   0  0  0  0  0  0  0  0  0  0  0  0
  149.1875  142.6029  155.5315 H   0  0  0  0  0  0  0  0  0  0  0  0
  152.6729  142.9779  156.3680 H   0  0  0  0  0  0  0  0  0  0  0  0
  151.1675  143.8426  156.3898 H   0  0  0  0  0  0  0  0  0  0  0  0
  149.6361  142.9794  158.4789 H   0  0  0  0  0  0  0  0  0  0  0  0
  150.3936  143.4018  160.0016 H   0  0  0  0  0  0  0  0  0  0  0  0
  149.2905  144.9791  158.2569 H   0  0  0  0  0  0  0  0  0  0  0  0
  151.9019  141.4420  159.7628 H   0  0  0  0  0  0  0  0  0  0  0  0
  153.0793  141.3450  158.4130 H   0  0  0  0  0  0  0  0  0  0  0  0
  153.7720  144.1656  158.1009 H   0  0  0  0  0  0  0  0  0  0  0  0
  152.7391  144.9004  159.3733 H   0  0  0  0  0  0  0  0  0  0  0  0
  150.4535  136.3731  153.9607 H   0  0  0  0  0  0  0  0  0  0  0  0
  151.0304  135.7720  155.5113 H   0  0  0  0  0  0  0  0  0  0  0  0
  149.4641  134.1841  154.4083 H   0  0  0  0  0  0  0  0  0  0  0  0
  148.8980  134.6876  155.9793 H   0  0  0  0  0  0  0  0  0  0  0  0
  147.3441  133.4504  154.1521 H   0  0  0  0  0  0  0  0  0  0  0  0
  146.1875  134.3004  155.1200 H   0  0  0  0  0  0  0  0  0  0  0  0
  145.1261  133.8095  152.9599 H   0  0  0  0  0  0  0  0  0  0  0  0
  145.3529  135.5386  153.1130 H   0  0  0  0  0  0  0  0  0  0  0  0
  147.4135  135.1455  151.9817 H   0  0  0  0  0  0  0  0  0  0  0  0
  148.0256  135.7661  153.4096 H   0  0  0  0  0  0  0  0  0  0  0  0
  1  2  1  0  0  0  0
  1 28  1  0  0  0  0
  1 29  1  0  0  0  0
  1 30  1  0  0  0  0
  2 24  1  0  0  0  0
  2  3  1  0  0  0  0
  2  4  1  0  0  0  0
  3 31  1  0  0  0  0
  3 32  1  0  0  0  0
  3 33  1  0  0  0  0
  4  5  1  0  0  0  0
  4 34  1  0  0  0  0
  4 35  1  0  0  0  0
  5  6  1  0  0  0  0
  5 22  1  0  0  0  0
  6 11  1  0  0  0  0
  6  7  2  0  0  0  0
  7  8  1  0  0  0  0
  8  9  2  0  0  0  0
  8 36  1  0  0  0  0
  9 10  1  0  0  0  0
 10 14  1  0  0  0  0
 10 11  2  0  0  0  0
 11 12  1  0  0  0  0
 12 13  2  0  0  0  0
 13 14  1  0  0  0  0
 13 37  1  0  0  0  0
 14 15  1  0  0  0  0
 15 16  1  0  0  0  0
 15 38  1  0  0  0  0
 15 39  1  0  0  0  0
 16 21  1  0  0  0  0
 16 17  1  0  0  0  0
 16 19  1  0  0  0  0
 17 18  1  0  0  0  0
 17 40  1  0  0  0  0
 17 41  1  0  0  0  0
 18 42  1  0  0  0  0
 19 20  1  0  0  0  0
 19 43  1  0  0  0  0
 19 44  1  0  0  0  0
 20 21  1  0  0  0  0
 21 45  1  0  0  0  0
 21 46  1  0  0  0  0
 22 23  1  0  0  0  0
 22 47  1  0  0  0  0
 22 48  1  0  0  0  0
 23 24  1  0  0  0  0
 23 49  1  0  0  0  0
 23 50  1  0  0  0  0
 24 25  1  0  0  0  0
 24 56  1  0  0  0  0
 25 26  1  0  0  0  0
 25 51  1  0  0  0  0
 25 52  1  0  0  0  0
 26 27  1  0  0  0  0
 26 53  1  0  0  0  0
 26 54  1  0  0  0  0
 27 55  1  0  0  0  0
M  CHG  1  24   1
M  END
> <s_m_source_file>
AV-unprocessed.smi

> <i_m_source_file_index>
207

> <i_lp_mmshare_version>
43012

> <i_f3d_flags>
0

> <s_epik_input>
W09IXVtDSDJdW0NIMl1OMVtDSDJdW0NIMl1OKFtDSDJdQzEoW0NIM10pW0NIM10pYyhuW2NIXW4yKWMoYzIzKW5bY0hdbjNbQ0gyXUM0KFtDSDJdW09IXSlbQ0gyXU9bQ0gyXTQ=

> <s_epik_cmdline>
J2VwaWtfcHl0aG9uJywgJy1waCcsICc3LjAnLCAnLXRuJywgJzgnLCAnLW1hJywgJzIwMCcsICctbWV0YWxfYmluZGluZycsICctaW1hZScsICc8aW5maWxlLm1hZT4nLCAnLW9tYWUnLCAnPG91dGZpbGUubWFlPic=

> <r_lp_tautomer_probability>
1

> <r_epik_Ionization_Penalty>
0.416568

> <r_epik_Ionization_Penalty_Charging>
0.416506

> <r_epik_Ionization_Penalty_Neutral>
6.2219e-05

> <r_epik_State_Penalty>
0.419386

> <r_epik_Charging_Adjusted_Penalty>
0.835892

> <i_epik_Tot_Q>
1

> <i_epik_Tot_abs_Q>
1

> <r_epik_Metal_State_Penalty>
0.420232

> <b_epik_Metal_Only>
0

> <s_lp_Force_Field>
OPLS_2005

> <r_lp_Energy>
56.8459

> <b_lp_Chiralities_Consistent>
1

> <s_lp_Variant>
AV-unprocessed.smi:207-2

> <Gold.Version>
5.8.1

> <Gold.Id.Protein>
6NUR|6NUR_protein|mol2

> <Gold.PLP.Fitness>
47.8032

> <Gold.PLP.PLP>
-32.2801

> <Gold.PLP.part.hbond>
-4.6696

> <Gold.PLP.part.metal>
0.0000

> <Gold.PLP.part.buried>
-5.6022

> <Gold.PLP.part.nonpolar>
-23.2439

> <Gold.PLP.part.repulsive>
0.1409

> <Gold.PLP.ligand.clash>
0.0000

> <Gold.PLP.ligand.torsion>
1.0848

> <Gold.PLP.Chemscore.Hbond>
4.6000

> <Gold.PLP.Chemscore.CHOScore>
1.0000

> <Gold.PLP.Chemscore.Metal>
0.0000

> <Gold.Chemscore.Hbonds>
donor molecule, donor type, donor heavy atom, donor atom, acceptor molecule, acceptor atom, score
      L1  H    18    42       P1  8029  1.00
      L1  H    24    56       P1  7948  2.00
      L1  H    27    55       P1  7948  1.00
      P1  H  7997  8008       L1     9  0.60
      L1  C    13    37       P1  8028  1.00

> <Gold.PLP.Chemscore.Internal.Correction>
0.8926

> <Gold.Rescore>
     Score         DG    S(hbond)    S(metal)    S(lipo)     H(rot)  DE(clash)    DE(int)     intcor
      9.08     -13.71       2.69        0.00      76.60       3.80       0.67       3.96       ----

> <Gold.Chemscore.Fitness>
9.0814

> <Gold.Chemscore.DG>
-13.7118

> <Gold.Chemscore.ZeroCoef>
-5.4800

> <Gold.Chemscore.Hbond>
2.6938

> <Gold.Chemscore.Metal>
0.0000

> <Gold.Chemscore.Lipo>
76.5977

> <Gold.Chemscore.Internal_Hbond>
0.0000

> <Gold.Chemscore.DEClash>
0.6748

> <Gold.Chemscore.DEInternal>
3.9556

> <Gold.Chemscore.Rot>
3.7997

> <Gold.Chemscore.Internal.Correction>
   9.000000E+99

> <Gold.Chemscore.Hbonds>
donor molecule, donor type, donor heavy atom, donor atom, acceptor molecule, acceptor atom, score
      L1  H    18    42       P1  8029  0.48
      L1  H    24    56       P1  7948  1.00
      L1  H    27    55       P1  7948  0.97
      P1  H  7997  8008       L1     9  0.04

> <Gold.Chemscore.Hbond.Weighted>
-8.9971

> <Gold.Chemscore.Metal.Weighted>
-0.0000

> <Gold.Chemscore.Lipo.Weighted>
-8.9619

> <Gold.Chemscore.Internal_Hbond.Weighted>
0.0000

> <Gold.Chemscore.DEClash.Weighted>
0.6748

> <Gold.Chemscore.DEInternal.Weighted>
3.9556

> <Gold.Chemscore.Rot.Weighted>
9.7273

> <Gold.Chemscore.Internal.Correction.Weighted>
   9.000000E+99

> <Gold.Protein.RotatedTorsions>
[ 6907 6896 6895 6894 ] final -136.21 input  -60.11 | X-H torsion
[ 7974 7965 7964 7962 ] final  -35.28 input  175.53 | X-H torsion
[ 8008 7997 7996 7995 ] final  -48.59 input   59.86 | X-H torsion
[ 10167 10162 10161 10158 ] final  -79.90 input  -65.29 | X-H torsion
[ 10718 10713 10712 10709 ] final  -44.56 input   66.30 | X-H torsion
[ 10763 10752 10751 10750 ] final  166.16 input  -60.55 | X-H torsion
[ 11005 11000 10999 10996 ] final -132.78 input  -57.11 | X-H torsion

> <Gold.Protein.ActiveResidues>
 VAL166  LYS551  ARG553  GLY616  TRP617  ASP618  TYR619  PRO620  LYS621  CYS622 
 ASP623  PHE694  ASN695  SER759  ASP760  ASP761  ALA762  ILE779  LEU786  VAL792 
 PHE793  MET794  SER795  GLU796  ALA797  LYS798  CYS799  TRP800  GLU811  SER814 

> <Gold.Protein.RotatedAtoms>
  151.0073  133.5999  159.2686 H   0  0  0  0  0  0  0  0  0  0  0  0  # atno 6907 bound_to 6896
  151.3163  135.0806  159.9300 H   0  0  0  0  0  0  0  0  0  0  0  0  # atno 6908 bound_to 6896
  152.5290  133.9728  159.7824 H   0  0  0  0  0  0  0  0  0  0  0  0  # atno 6909 bound_to 6896
  146.0759  140.6141  142.8931 H   0  0  0  0  0  0  0  0  0  0  0  0  # atno 7974 bound_to 7965
  154.4031  140.1318  156.4363 H   0  0  0  0  0  0  0  0  0  0  0  0  # atno 8008 bound_to 7997
  155.7502  140.3488  155.5126 H   0  0  0  0  0  0  0  0  0  0  0  0  # atno 8009 bound_to 7997
  155.8957  140.1010  157.1377 H   0  0  0  0  0  0  0  0  0  0  0  0  # atno 8010 bound_to 7997
  140.4552  143.2470  151.8430 H   0  0  0  0  0  0  0  0  0  0  0  0  # atno 10167 bound_to 10162
  156.2374  130.4177  149.8802 H   0  0  0  0  0  0  0  0  0  0  0  0  # atno 10718 bound_to 10713
  154.3349  135.2754  155.2453 H   0  0  0  0  0  0  0  0  0  0  0  0  # atno 10763 bound_to 10752
  154.4748  135.5873  153.6351 H   0  0  0  0  0  0  0  0  0  0  0  0  # atno 10764 bound_to 10752
  152.9863  135.6097  154.3545 H   0  0  0  0  0  0  0  0  0  0  0  0  # atno 10765 bound_to 10752
  140.9140  134.1531  157.4367 H   0  0  0  0  0  0  0  0  0  0  0  0  # atno 11005 bound_to 11000
  144.7261  140.4529  143.6972 LP  0  0  0  0  0  0  0  0  0  0  0  0  # atno 17320 bound_to 7965
  145.6307  139.1536  143.2971 LP  0  0  0  0  0  0  0  0  0  0  0  0  # atno 17321 bound_to 7965
  139.4800  144.5073  151.8980 LP  0  0  0  0  0  0  0  0  0  0  0  0  # atno 17342 bound_to 10162
  140.4160  144.2306  150.5888 LP  0  0  0  0  0  0  0  0  0  0  0  0  # atno 17343 bound_to 10162
  156.6395  130.8699  151.3511 LP  0  0  0  0  0  0  0  0  0  0  0  0  # atno 17370 bound_to 10713
  157.7160  130.9498  150.1258 LP  0  0  0  0  0  0  0  0  0  0  0  0  # atno 17371 bound_to 10713
  139.8762  134.9946  156.5704 LP  0  0  0  0  0  0  0  0  0  0  0  0  # atno 17394 bound_to 11000
  140.8074  133.8456  155.8779 LP  0  0  0  0  0  0  0  0  0  0  0  0  # atno 17395 bound_to 11000

$$$$
