AV-unprocessed.smi:311|AV-procd|sdf|2304|dock3
  -GOLD-   2262022203D 1   1.00000     0.00000
 Structure written by MMmdl.
 44 46  0  0  0  0  0  0  0  0  2 V2000
  150.4014  135.2359  156.5079 C   0  0  0  0  0  0  0  0  0  0  0  0
  150.1842  133.7554  156.3771 C   0  0  0  0  0  0  0  0  0  0  0  0
  150.2681  132.9860  157.4490 N   0  0  0  0  0  0  0  0  0  0  0  0
  150.0094  131.6848  157.0079 O   0  0  0  0  0  0  0  0  0  0  0  0
  149.7714  131.7229  155.6723 C   0  0  0  0  0  0  0  0  0  0  0  0
  149.4622  130.4213  155.0135 C   0  0  0  0  0  0  0  0  0  0  0  0
  149.8657  133.0062  155.2077 C   0  0  0  0  0  0  0  0  0  0  0  0
  149.6670  133.5210  153.8044 C   0  0  0  0  0  0  0  0  0  0  0  0
  148.2244  133.2623  153.3733 C   0  0  0  0  0  0  0  0  0  0  0  0
  147.7371  132.1385  153.4919 O   0  0  0  0  0  0  0  0  0  0  0  0
  147.5652  134.3049  152.8447 N   0  0  0  0  0  0  0  0  0  0  0  0
  146.2305  134.2475  152.2582 C   0  0  1  0  0  0  0  0  0  0  0  0
  145.6090  135.6336  152.0394 C   0  0  0  0  0  0  0  0  0  0  0  0
  144.8395  135.5305  150.7070 C   0  0  0  0  0  0  0  0  0  0  0  0
  144.9805  134.1321  150.2383 N   0  3  2  0  0  0  0  0  0  0  0  0
  143.7863  133.3069  150.5716 C   0  0  0  0  0  0  0  0  0  0  0  0
  144.0206  131.8137  150.3076 C   0  0  0  0  0  0  0  0  0  0  0  0
  145.2298  131.3180  151.1049 C   0  0  0  0  0  0  0  0  0  0  0  0
  146.4649  132.1333  150.7106 C   0  0  0  0  0  0  0  0  0  0  0  0
  146.2494  133.6585  150.8415 C   0  0  2  0  0  0  0  0  0  0  0  0
  150.9510  135.6286  155.6524 H   0  0  0  0  0  0  0  0  0  0  0  0
  150.9698  135.4823  157.4054 H   0  0  0  0  0  0  0  0  0  0  0  0
  149.4494  135.7644  156.5601 H   0  0  0  0  0  0  0  0  0  0  0  0
  148.8312  130.5672  154.1365 H   0  0  0  0  0  0  0  0  0  0  0  0
  148.9368  129.7537  155.6971 H   0  0  0  0  0  0  0  0  0  0  0  0
  150.3784  129.9249  154.6936 H   0  0  0  0  0  0  0  0  0  0  0  0
  149.8746  134.5899  153.7426 H   0  0  0  0  0  0  0  0  0  0  0  0
  150.3426  133.0392  153.0967 H   0  0  0  0  0  0  0  0  0  0  0  0
  148.0495  135.1896  152.7939 H   0  0  0  0  0  0  0  0  0  0  0  0
  145.5576  133.6683  152.8930 H   0  0  0  0  0  0  0  0  0  0  0  0
  144.9522  135.9037  152.8671 H   0  0  0  0  0  0  0  0  0  0  0  0
  146.3749  136.4070  151.9636 H   0  0  0  0  0  0  0  0  0  0  0  0
  143.7963  135.8345  150.8055 H   0  0  0  0  0  0  0  0  0  0  0  0
  145.2978  136.1885  149.9676 H   0  0  0  0  0  0  0  0  0  0  0  0
  143.5162  133.4490  151.6193 H   0  0  0  0  0  0  0  0  0  0  0  0
  142.9385  133.6576  149.9820 H   0  0  0  0  0  0  0  0  0  0  0  0
  143.1335  131.2434  150.5846 H   0  0  0  0  0  0  0  0  0  0  0  0
  144.1799  131.6436  149.2419 H   0  0  0  0  0  0  0  0  0  0  0  0
  145.0410  131.4115  152.1750 H   0  0  0  0  0  0  0  0  0  0  0  0
  145.4019  130.2590  150.9097 H   0  0  0  0  0  0  0  0  0  0  0  0
  147.3292  131.8157  151.2938 H   0  0  0  0  0  0  0  0  0  0  0  0
  146.7110  131.9054  149.6727 H   0  0  0  0  0  0  0  0  0  0  0  0
  147.0561  134.1473  150.2909 H   0  0  0  0  0  0  0  0  0  0  0  0
  145.0781  134.1240  149.2329 H   0  0  0  0  0  0  0  0  0  0  0  0
  1  2  1  0  0  0  0
  1 21  1  0  0  0  0
  1 22  1  0  0  0  0
  1 23  1  0  0  0  0
  2  7  1  0  0  0  0
  2  3  2  0  0  0  0
  3  4  1  0  0  0  0
  4  5  1  0  0  0  0
  5  6  1  0  0  0  0
  5  7  2  0  0  0  0
  6 24  1  0  0  0  0
  6 25  1  0  0  0  0
  6 26  1  0  0  0  0
  7  8  1  0  0  0  0
  8  9  1  0  0  0  0
  8 27  1  0  0  0  0
  8 28  1  0  0  0  0
  9 10  2  0  0  0  0
  9 11  1  0  0  0  0
 11 12  1  0  0  0  0
 11 29  1  0  0  0  0
 12 20  1  0  0  0  0
 12 13  1  0  0  0  0
 12 30  1  0  0  0  0
 13 14  1  0  0  0  0
 13 31  1  0  0  0  0
 13 32  1  0  0  0  0
 14 15  1  0  0  0  0
 14 33  1  0  0  0  0
 14 34  1  0  0  0  0
 15 20  1  0  0  0  0
 15 16  1  0  0  0  0
 15 44  1  0  0  0  0
 16 17  1  0  0  0  0
 16 35  1  0  0  0  0
 16 36  1  0  0  0  0
 17 18  1  0  0  0  0
 17 37  1  0  0  0  0
 17 38  1  0  0  0  0
 18 19  1  0  0  0  0
 18 39  1  0  0  0  0
 18 40  1  0  0  0  0
 19 20  1  0  0  0  0
 19 41  1  0  0  0  0
 19 42  1  0  0  0  0
 20 43  1  0  0  0  0
M  CHG  1  15   1
M  END
> <s_m_source_file>
AV-unprocessed.smi

> <i_m_source_file_index>
311

> <i_lp_mmshare_version>
43012

> <i_f3d_flags>
0

> <s_epik_input>
W0NIM11jMW5vYyhbQ0gzXSljMVtDSDJdQyg9TylbTkhdW0NASF0oW0NIMl1bQ0gyXTIpW0NAQEhdKE4yMylbQ0gyXVtDSDJdW0NIMl1bQ0gyXTM=

> <s_epik_cmdline>
J2VwaWtfcHl0aG9uJywgJy1waCcsICc3LjAnLCAnLXRuJywgJzgnLCAnLW1hJywgJzIwMCcsICctbWV0YWxfYmluZGluZycsICctaW1hZScsICc8aW5maWxlLm1hZT4nLCAnLW9tYWUnLCAnPG91dGZpbGUubWFlPic=

> <r_epik_Ionization_Penalty>
0.00173669

> <r_epik_Ionization_Penalty_Charging>
0.0017366

> <r_epik_Ionization_Penalty_Neutral>
9.2145e-08

> <r_epik_State_Penalty>
0.00117499

> <r_epik_Charging_Adjusted_Penalty>
0.00291159

> <i_epik_Tot_Q>
1

> <i_epik_Tot_abs_Q>
1

> <r_epik_Metal_State_Penalty>
-0

> <b_epik_Metal_Only>
0

> <s_lp_Force_Field>
OPLS_2005

> <r_lp_Energy>
30.3664

> <b_lp_Chiralities_Consistent>
1

> <s_lp_Variant>
AV-unprocessed.smi:311-8

> <Gold.Version>
5.8.1

> <Gold.Id.Protein>
6NUR|6NUR_protein|mol2

> <Gold.PLP.Fitness>
42.0248

> <Gold.PLP.PLP>
-34.1029

> <Gold.PLP.part.hbond>
-2.9777

> <Gold.PLP.part.metal>
0.0000

> <Gold.PLP.part.buried>
-1.3332

> <Gold.PLP.part.nonpolar>
-30.2158

> <Gold.PLP.part.repulsive>
0.1532

> <Gold.PLP.ligand.clash>
0.0000

> <Gold.PLP.ligand.torsion>
0.3056

> <Gold.PLP.Chemscore.Hbond>
2.8400

> <Gold.PLP.Chemscore.CHOScore>
0.0000

> <Gold.PLP.Chemscore.Metal>
0.0000

> <Gold.Chemscore.Hbonds>
donor molecule, donor type, donor heavy atom, donor atom, acceptor molecule, acceptor atom, score
      L1  H    11    29       P1  7948  0.90
      L1  H    15    44       P1  7921  0.92
      P1  H  6896  6909       L1     3  1.00

> <Gold.PLP.Chemscore.Internal.Correction>
0.0131

> <Gold.Rescore>
     Score         DG    S(hbond)    S(metal)    S(lipo)     H(rot)  DE(clash)    DE(int)     intcor
     19.79     -21.62       2.72        0.00      89.86       1.36       1.30       0.52       ----

> <Gold.Chemscore.Fitness>
19.7913

> <Gold.Chemscore.DG>
-21.6168

> <Gold.Chemscore.ZeroCoef>
-5.4800

> <Gold.Chemscore.Hbond>
2.7233

> <Gold.Chemscore.Metal>
0.0000

> <Gold.Chemscore.Lipo>
89.8644

> <Gold.Chemscore.Internal_Hbond>
0.0000

> <Gold.Chemscore.DEClash>
1.3049

> <Gold.Chemscore.DEInternal>
0.5206

> <Gold.Chemscore.Rot>
1.3567

> <Gold.Chemscore.Internal.Correction>
   9.000000E+99

> <Gold.Chemscore.Hbonds>
donor molecule, donor type, donor heavy atom, donor atom, acceptor molecule, acceptor atom, score
      L1  H    11    29       P1  7948  0.86
      L1  H    15    44       P1  7921  0.81
      P1  H  6896  6909       L1     3  0.92

> <Gold.Chemscore.Hbond.Weighted>
-9.0958

> <Gold.Chemscore.Metal.Weighted>
-0.0000

> <Gold.Chemscore.Lipo.Weighted>
-10.5141

> <Gold.Chemscore.Internal_Hbond.Weighted>
0.0000

> <Gold.Chemscore.DEClash.Weighted>
1.3049

> <Gold.Chemscore.DEInternal.Weighted>
0.5206

> <Gold.Chemscore.Rot.Weighted>
3.4731

> <Gold.Chemscore.Internal.Correction.Weighted>
   9.000000E+99

> <Gold.Protein.RotatedTorsions>
[ 6907 6896 6895 6894 ] final  -29.81 input  -60.11 | X-H torsion
[ 7974 7965 7964 7962 ] final  -37.96 input  175.53 | X-H torsion
[ 8008 7997 7996 7995 ] final   18.33 input   59.86 | X-H torsion
[ 10167 10162 10161 10158 ] final  128.85 input  -65.29 | X-H torsion
[ 10718 10713 10712 10709 ] final   32.85 input   66.30 | X-H torsion
[ 10763 10752 10751 10750 ] final  113.05 input  -60.55 | X-H torsion
[ 11005 11000 10999 10996 ] final   46.40 input  -57.11 | X-H torsion

> <Gold.Protein.ActiveResidues>
 VAL166  LYS551  ARG553  GLY616  TRP617  ASP618  TYR619  PRO620  LYS621  CYS622 
 ASP623  PHE694  ASN695  SER759  ASP760  ASP761  ALA762  ILE779  LEU786  VAL792 
 PHE793  MET794  SER795  GLU796  ALA797  LYS798  CYS799  TRP800  GLU811  SER814 

> <Gold.Protein.RotatedAtoms>
  151.1141  135.0043  159.8507 H   0  0  0  0  0  0  0  0  0  0  0  0  # atno 6907 bound_to 6896
  152.5444  134.1801  159.8642 H   0  0  0  0  0  0  0  0  0  0  0  0  # atno 6908 bound_to 6896
  151.1854  133.4655  159.2627 H   0  0  0  0  0  0  0  0  0  0  0  0  # atno 6909 bound_to 6896
  146.0529  140.6456  142.9033 H   0  0  0  0  0  0  0  0  0  0  0  0  # atno 7974 bound_to 7965
  154.9044  140.3005  155.5300 H   0  0  0  0  0  0  0  0  0  0  0  0  # atno 8008 bound_to 7997
  156.3017  140.2401  156.4011 H   0  0  0  0  0  0  0  0  0  0  0  0  # atno 8009 bound_to 7997
  154.8488  140.0410  157.1579 H   0  0  0  0  0  0  0  0  0  0  0  0  # atno 8010 bound_to 7997
  139.5506  144.6810  151.4334 H   0  0  0  0  0  0  0  0  0  0  0  0  # atno 10167 bound_to 10162
  157.2904  130.7300  149.6607 H   0  0  0  0  0  0  0  0  0  0  0  0  # atno 10718 bound_to 10713
  153.4868  135.3667  155.2471 H   0  0  0  0  0  0  0  0  0  0  0  0  # atno 10763 bound_to 10752
  154.8753  135.3967  154.3636 H   0  0  0  0  0  0  0  0  0  0  0  0  # atno 10764 bound_to 10752
  153.4249  135.7081  153.6335 H   0  0  0  0  0  0  0  0  0  0  0  0  # atno 10765 bound_to 10752
  140.1373  134.4629  155.8476 H   0  0  0  0  0  0  0  0  0  0  0  0  # atno 11005 bound_to 11000
  144.7132  140.4116  143.7064 LP  0  0  0  0  0  0  0  0  0  0  0  0  # atno 17320 bound_to 7965
  145.6693  139.1596  143.2763 LP  0  0  0  0  0  0  0  0  0  0  0  0  # atno 17321 bound_to 7965
  140.6768  143.8172  150.7069 LP  0  0  0  0  0  0  0  0  0  0  0  0  # atno 17342 bound_to 10162
  140.1613  143.4273  152.2065 LP  0  0  0  0  0  0  0  0  0  0  0  0  # atno 17343 bound_to 10162
  155.9667  130.4310  150.4903 LP  0  0  0  0  0  0  0  0  0  0  0  0  # atno 17370 bound_to 10713
  157.2865  131.0617  151.2163 LP  0  0  0  0  0  0  0  0  0  0  0  0  # atno 17371 bound_to 10713
  141.2180  133.6819  156.7180 LP  0  0  0  0  0  0  0  0  0  0  0  0  # atno 17394 bound_to 11000
  140.2767  134.8349  157.3896 LP  0  0  0  0  0  0  0  0  0  0  0  0  # atno 17395 bound_to 11000

$$$$
