AV-unprocessed.smi:771|AV-procd|sdf|3681|dock9
  -GOLD-   22720 1 93D 1   1.00000     0.00000
 Structure written by MMmdl.
 41 42  0  0  0  0  0  0  0  0  3 V2000
  150.0756  135.9692  158.5366 O   0  0  0  0  0  0  0  0  0  0  0  0
  149.1030  136.6352  158.1786 C   0  0  0  0  0  0  0  0  0  0  0  0
  147.8768  136.7895  159.0897 C   0  0  0  0  0  0  0  0  0  0  0  0
  147.7590  135.7190  160.0942 N   0  0  0  0  0  0  0  0  0  0  0  0
  147.8880  134.3931  159.6348 C   0  0  0  0  0  0  0  0  0  0  0  0
  147.8067  133.3362  160.4665 C   0  0  0  0  0  0  0  0  0  0  0  0
  147.9484  131.9818  159.9788 N   0  3  0  0  0  0  0  0  0  0  0  0
  147.9109  131.0589  160.7863 O   0  0  0  0  0  0  0  0  0  0  0  0
  148.1008  131.7949  158.7753 O   0  5  0  0  0  0  0  0  0  0  0  0
  147.5756  133.6018  161.8734 C   0  0  0  0  0  0  0  0  0  0  0  0
  147.4559  134.8678  162.3194 C   0  0  0  0  0  0  0  0  0  0  0  0
  147.5513  136.0168  161.4133 C   0  0  0  0  0  0  0  0  0  0  0  0
  147.4508  137.1759  161.8157 O   0  0  0  0  0  0  0  0  0  0  0  0
  149.0253  137.2424  156.9843 N   0  0  0  0  0  0  0  0  0  0  0  0
  150.0601  137.2255  155.9531 C   0  0  0  0  0  0  0  0  0  0  0  0
  150.4845  138.6475  155.5130 C   0  0  2  0  0  0  0  0  0  0  0  0
  151.0465  139.4722  156.6960 C   0  0  0  0  0  0  0  0  0  0  0  0
  151.4303  140.9011  156.2827 C   0  0  0  0  0  0  0  0  0  0  0  0
  150.2406  141.6324  155.6487 C   0  0  0  0  0  0  0  0  0  0  0  0
  149.6961  140.8443  154.4505 C   0  0  0  0  0  0  0  0  0  0  0  0
  149.3081  139.4082  154.8496 C   0  0  1  0  0  0  0  0  0  0  0  0
  148.8837  138.7382  153.6792 O   0  0  0  0  0  0  0  0  0  0  0  0
  147.9100  137.7652  159.5785 H   0  0  0  0  0  0  0  0  0  0  0  0
  146.9877  136.8181  158.4581 H   0  0  0  0  0  0  0  0  0  0  0  0
  148.0651  134.3022  158.5728 H   0  0  0  0  0  0  0  0  0  0  0  0
  147.4971  132.7881  162.5795 H   0  0  0  0  0  0  0  0  0  0  0  0
  147.2845  135.0427  163.3715 H   0  0  0  0  0  0  0  0  0  0  0  0
  148.1859  137.7627  156.7742 H   0  0  0  0  0  0  0  0  0  0  0  0
  150.9129  136.6942  156.3761 H   0  0  0  0  0  0  0  0  0  0  0  0
  149.7446  136.6409  155.0873 H   0  0  0  0  0  0  0  0  0  0  0  0
  151.2803  138.5472  154.7728 H   0  0  0  0  0  0  0  0  0  0  0  0
  150.3075  139.5133  157.4972 H   0  0  0  0  0  0  0  0  0  0  0  0
  151.9269  138.9863  157.1163 H   0  0  0  0  0  0  0  0  0  0  0  0
  151.7860  141.4555  157.1516 H   0  0  0  0  0  0  0  0  0  0  0  0
  152.2602  140.8680  155.5757 H   0  0  0  0  0  0  0  0  0  0  0  0
  149.4524  141.7662  156.3908 H   0  0  0  0  0  0  0  0  0  0  0  0
  150.5427  142.6310  155.3319 H   0  0  0  0  0  0  0  0  0  0  0  0
  148.8321  141.3631  154.0332 H   0  0  0  0  0  0  0  0  0  0  0  0
  150.4518  140.8199  153.6638 H   0  0  0  0  0  0  0  0  0  0  0  0
  148.4648  139.4453  155.5408 H   0  0  0  0  0  0  0  0  0  0  0  0
  149.1210  139.2623  152.9297 H   0  0  0  0  0  0  0  0  0  0  0  0
  1  2  2  0  0  0  0
  2  3  1  0  0  0  0
  2 14  1  0  0  0  0
  3  4  1  0  0  0  0
  3 23  1  0  0  0  0
  3 24  1  0  0  0  0
  4 12  1  0  0  0  0
  4  5  1  0  0  0  0
  5  6  2  0  0  0  0
  5 25  1  0  0  0  0
  6  7  1  0  0  0  0
  6 10  1  0  0  0  0
  7  8  2  0  0  0  0
  7  9  1  0  0  0  0
 10 11  2  0  0  0  0
 10 26  1  0  0  0  0
 11 12  1  0  0  0  0
 11 27  1  0  0  0  0
 12 13  2  0  0  0  0
 14 15  1  0  0  0  0
 14 28  1  0  0  0  0
 15 16  1  0  0  0  0
 15 29  1  0  0  0  0
 15 30  1  0  0  0  0
 16 21  1  0  0  0  0
 16 17  1  0  0  0  0
 16 31  1  0  0  0  0
 17 18  1  0  0  0  0
 17 32  1  0  0  0  0
 17 33  1  0  0  0  0
 18 19  1  0  0  0  0
 18 34  1  0  0  0  0
 18 35  1  0  0  0  0
 19 20  1  0  0  0  0
 19 36  1  0  0  0  0
 19 37  1  0  0  0  0
 20 21  1  0  0  0  0
 20 38  1  0  0  0  0
 20 39  1  0  0  0  0
 21 22  1  0  0  0  0
 21 40  1  0  0  0  0
 22 41  1  0  0  0  0
M  CHG  1   7   1
M  CHG  1   9  -1
M  END
> <s_m_source_file>
AV-unprocessed.smi

> <i_m_source_file_index>
771

> <i_lp_mmshare_version>
43012

> <i_f3d_flags>
0

> <s_epik_input>
Tz1jMVtjSF1bY0hdYyhbTitdKD1PKVtPLV0pW2NIXW4xW0NIMl1DKD1PKVtOSF1bQ0gyXVtDQEBIXTJbQ0gyXVtDSDJdW0NIMl1bQ0gyXVtDQEhdMltPSF0=

> <s_epik_cmdline>
J2VwaWtfcHl0aG9uJywgJy1waCcsICc3LjAnLCAnLXRuJywgJzgnLCAnLW1hJywgJzIwMCcsICctbWV0YWxfYmluZGluZycsICctaW1hZScsICc8aW5maWxlLm1hZT4nLCAnLW9tYWUnLCAnPG91dGZpbGUubWFlPic=

> <r_lp_tautomer_probability>
1

> <r_epik_Ionization_Penalty>
3.77175e-07

> <r_epik_Ionization_Penalty_Charging>
7.70067e-11

> <r_epik_Ionization_Penalty_Neutral>
3.77098e-07

> <r_epik_State_Penalty>
-0

> <r_epik_Charging_Adjusted_Penalty>
7.70067e-11

> <i_epik_Tot_Q>
0

> <i_epik_Tot_abs_Q>
2

> <r_epik_Metal_State_Penalty>
-0

> <b_epik_Metal_Only>
0

> <s_lp_Force_Field>
OPLS_2005

> <r_lp_Energy>
23.4116

> <b_lp_Chiralities_Consistent>
1

> <s_lp_Variant>
AV-unprocessed.smi:771-1

> <Gold.Version>
5.8.1

> <Gold.Id.Protein>
6NUR|6NUR_protein|mol2

> <Gold.PLP.Fitness>
46.0748

> <Gold.PLP.PLP>
-35.8729

> <Gold.PLP.part.hbond>
-5.0000

> <Gold.PLP.part.metal>
0.0000

> <Gold.PLP.part.buried>
-3.6214

> <Gold.PLP.part.nonpolar>
-26.8120

> <Gold.PLP.part.repulsive>
0.0000

> <Gold.PLP.ligand.clash>
0.0000

> <Gold.PLP.ligand.torsion>
0.4512

> <Gold.PLP.Chemscore.Hbond>
3.6960

> <Gold.PLP.Chemscore.CHOScore>
0.0000

> <Gold.PLP.Chemscore.Metal>
0.0000

> <Gold.Chemscore.Hbonds>
donor molecule, donor type, donor heavy atom, donor atom, acceptor molecule, acceptor atom, score
      L1  H    22    41       P1  7957  1.00
      P1  H  6896  6908       L1     1  1.00
      P1  H  6931  6943       L1    13  0.94
      P1  H  6934  6947       L1    13  0.72

> <Gold.PLP.Chemscore.Internal.Correction>
0.0163

> <Gold.Rescore>
     Score         DG    S(hbond)    S(metal)    S(lipo)     H(rot)  DE(clash)    DE(int)     intcor
     17.44     -19.10       3.56        0.00      68.93       2.48       0.06       1.60       ----

> <Gold.Chemscore.Fitness>
17.4418

> <Gold.Chemscore.DG>
-19.0980

> <Gold.Chemscore.ZeroCoef>
-5.4800

> <Gold.Chemscore.Hbond>
3.5598

> <Gold.Chemscore.Metal>
0.0000

> <Gold.Chemscore.Lipo>
68.9336

> <Gold.Chemscore.Internal_Hbond>
0.0000

> <Gold.Chemscore.DEClash>
0.0580

> <Gold.Chemscore.DEInternal>
1.5982

> <Gold.Chemscore.Rot>
2.4753

> <Gold.Chemscore.Internal.Correction>
   9.000000E+99

> <Gold.Chemscore.Hbonds>
donor molecule, donor type, donor heavy atom, donor atom, acceptor molecule, acceptor atom, score
      L1  H    22    41       P1  7957  0.97
      P1  H  6896  6908       L1     1  0.96
      P1  H  6931  6943       L1    13  0.88
      P1  H  6934  6947       L1    13  0.68

> <Gold.Chemscore.Hbond.Weighted>
-11.8896

> <Gold.Chemscore.Metal.Weighted>
-0.0000

> <Gold.Chemscore.Lipo.Weighted>
-8.0652

> <Gold.Chemscore.Internal_Hbond.Weighted>
0.0000

> <Gold.Chemscore.DEClash.Weighted>
0.0580

> <Gold.Chemscore.DEInternal.Weighted>
1.5982

> <Gold.Chemscore.Rot.Weighted>
6.3369

> <Gold.Chemscore.Internal.Correction.Weighted>
   9.000000E+99

> <Gold.Protein.RotatedTorsions>
[ 6907 6896 6895 6894 ] final  177.62 input  -60.11 | X-H torsion
[ 7974 7965 7964 7962 ] final -164.17 input  175.53 | X-H torsion
[ 8008 7997 7996 7995 ] final   72.79 input   59.86 | X-H torsion
[ 10167 10162 10161 10158 ] final    3.84 input  -65.29 | X-H torsion
[ 10718 10713 10712 10709 ] final   64.62 input   66.30 | X-H torsion
[ 10763 10752 10751 10750 ] final   38.47 input  -60.55 | X-H torsion
[ 11005 11000 10999 10996 ] final  -76.56 input  -57.11 | X-H torsion

> <Gold.Protein.ActiveResidues>
 VAL166  LYS551  ARG553  GLY616  TRP617  ASP618  TYR619  PRO620  LYS621  CYS622 
 ASP623  PHE694  ASN695  SER759  ASP760  ASP761  ALA762  ILE779  LEU786  VAL792 
 PHE793  MET794  SER795  GLU796  ALA797  LYS798  CYS799  TRP800  GLU811  SER814 

> <Gold.Protein.RotatedAtoms>
  151.7011  133.3311  159.3266 H   0  0  0  0  0  0  0  0  0  0  0  0  # atno 6907 bound_to 6896
  150.7736  134.6615  159.6351 H   0  0  0  0  0  0  0  0  0  0  0  0  # atno 6908 bound_to 6896
  152.3769  134.6652  160.0208 H   0  0  0  0  0  0  0  0  0  0  0  0  # atno 6909 bound_to 6896
  144.7304  140.3000  143.6206 H   0  0  0  0  0  0  0  0  0  0  0  0  # atno 7974 bound_to 7965
  155.7740  140.3483  155.5262 H   0  0  0  0  0  0  0  0  0  0  0  0  # atno 8008 bound_to 7997
  155.8793  140.0999  157.1517 H   0  0  0  0  0  0  0  0  0  0  0  0  # atno 8009 bound_to 7997
  154.4023  140.1325  156.4164 H   0  0  0  0  0  0  0  0  0  0  0  0  # atno 8010 bound_to 7997
  140.6565  143.7413  150.7663 H   0  0  0  0  0  0  0  0  0  0  0  0  # atno 10167 bound_to 10162
  157.6052  130.9170  149.9869 H   0  0  0  0  0  0  0  0  0  0  0  0  # atno 10718 bound_to 10713
  153.0000  135.6248  154.2311 H   0  0  0  0  0  0  0  0  0  0  0  0  # atno 10763 bound_to 10752
  154.2053  135.2802  155.2979 H   0  0  0  0  0  0  0  0  0  0  0  0  # atno 10764 bound_to 10752
  154.5651  135.5693  153.7102 H   0  0  0  0  0  0  0  0  0  0  0  0  # atno 10765 bound_to 10752
  141.1655  133.6988  156.7688 H   0  0  0  0  0  0  0  0  0  0  0  0  # atno 11005 bound_to 11000
  145.7769  139.1877  143.2180 LP  0  0  0  0  0  0  0  0  0  0  0  0  # atno 17320 bound_to 7965
  146.0865  140.7704  142.9616 LP  0  0  0  0  0  0  0  0  0  0  0  0  # atno 17321 bound_to 7965
  140.1074  143.4731  152.2390 LP  0  0  0  0  0  0  0  0  0  0  0  0  # atno 17342 bound_to 10162
  139.5789  144.7501  151.3691 LP  0  0  0  0  0  0  0  0  0  0  0  0  # atno 17343 bound_to 10162
  156.1136  130.3649  150.0007 LP  0  0  0  0  0  0  0  0  0  0  0  0  # atno 17370 bound_to 10713
  156.8100  130.9321  151.3644 LP  0  0  0  0  0  0  0  0  0  0  0  0  # atno 17371 bound_to 10713
  140.2480  134.8563  157.3639 LP  0  0  0  0  0  0  0  0  0  0  0  0  # atno 17394 bound_to 11000
  140.1731  134.4584  155.7819 LP  0  0  0  0  0  0  0  0  0  0  0  0  # atno 17395 bound_to 11000

$$$$
