AV-unprocessed.smi:2725|AV-procd|sdf|10518|dock4
  -GOLD-   2272014563D 1   1.00000     0.00000
 Structure written by MMmdl.
 45 46  0  0  0  0  0  0  0  0  2 V2000
  150.4223  140.6179  154.9695 O   0  0  0  0  0  0  0  0  0  0  0  0
  150.9797  140.0964  155.9353 C   0  0  0  0  0  0  0  0  0  0  0  0
  151.7612  140.9511  156.9377 C   0  0  0  0  0  0  0  0  0  0  0  0
  151.0153  142.2385  157.3369 C   0  0  0  0  0  0  0  0  0  0  0  0
  151.8976  143.2338  158.1110 C   0  0  0  0  0  0  0  0  0  0  0  0
  152.2427  142.7989  159.5396 C   0  0  0  0  0  0  0  0  0  0  0  0
  152.6033  144.0893  160.2868 C   0  0  0  0  0  0  0  0  0  0  0  0
  152.0327  145.2472  159.4539 C   0  0  0  0  0  0  0  0  0  0  0  0
  151.2393  144.5995  158.3160 C   0  0  0  0  0  0  0  0  0  0  0  0
  150.9436  138.7766  156.1796 N   0  0  0  0  0  0  0  0  0  0  0  0
  150.2493  137.7815  155.3643 C   0  0  1  0  0  0  0  0  0  0  0  0
  150.8029  137.8105  153.9210 C   0  0  0  0  0  0  0  0  0  0  0  0
  152.1357  137.3461  153.8772 O   0  0  0  0  0  0  0  0  0  0  0  0
  150.3689  136.4065  156.0570 C   0  0  0  0  0  0  0  0  0  0  0  0
  149.8495  135.2477  155.2243 C   0  0  0  0  0  0  0  0  0  0  0  0
  150.6571  134.1320  154.9143 C   0  0  0  0  0  0  0  0  0  0  0  0
  150.1145  133.0789  154.1486 C   0  0  0  0  0  0  0  0  0  0  0  0
  148.7770  133.1627  153.7099 C   0  0  0  0  0  0  0  0  0  0  0  0
  148.0147  134.2990  154.0491 C   0  0  0  0  0  0  0  0  0  0  0  0
  148.5705  135.2872  154.7840 N   0  3  0  0  0  0  0  0  0  0  0  0
  151.9591  140.3416  157.8196 H   0  0  0  0  0  0  0  0  0  0  0  0
  152.7317  141.2103  156.5120 H   0  0  0  0  0  0  0  0  0  0  0  0
  150.6420  142.7280  156.4360 H   0  0  0  0  0  0  0  0  0  0  0  0
  150.1367  141.9922  157.9350 H   0  0  0  0  0  0  0  0  0  0  0  0
  152.8281  143.3884  157.5622 H   0  0  0  0  0  0  0  0  0  0  0  0
  151.3703  142.3427  160.0096 H   0  0  0  0  0  0  0  0  0  0  0  0
  153.0501  142.0664  159.5681 H   0  0  0  0  0  0  0  0  0  0  0  0
  152.1943  144.0805  161.2976 H   0  0  0  0  0  0  0  0  0  0  0  0
  153.6855  144.1921  160.3744 H   0  0  0  0  0  0  0  0  0  0  0  0
  151.4122  145.9184  160.0488 H   0  0  0  0  0  0  0  0  0  0  0  0
  152.8514  145.8388  159.0426 H   0  0  0  0  0  0  0  0  0  0  0  0
  151.2418  145.2059  157.4098 H   0  0  0  0  0  0  0  0  0  0  0  0
  150.2006  144.4705  158.6243 H   0  0  0  0  0  0  0  0  0  0  0  0
  151.4307  138.4369  156.9963 H   0  0  0  0  0  0  0  0  0  0  0  0
  149.1922  138.0563  155.3447 H   0  0  0  0  0  0  0  0  0  0  0  0
  150.2234  137.1520  153.2728 H   0  0  0  0  0  0  0  0  0  0  0  0
  150.7399  138.8103  153.4910 H   0  0  0  0  0  0  0  0  0  0  0  0
  152.6874  137.9747  154.3179 H   0  0  0  0  0  0  0  0  0  0  0  0
  151.4075  136.2139  156.3306 H   0  0  0  0  0  0  0  0  0  0  0  0
  149.8100  136.4185  156.9941 H   0  0  0  0  0  0  0  0  0  0  0  0
  151.6787  134.0801  155.2622 H   0  0  0  0  0  0  0  0  0  0  0  0
  150.7169  132.2168  153.9024 H   0  0  0  0  0  0  0  0  0  0  0  0
  148.3422  132.3663  153.1236 H   0  0  0  0  0  0  0  0  0  0  0  0
  146.9845  134.4454  153.7589 H   0  0  0  0  0  0  0  0  0  0  0  0
  147.9981  136.0974  155.0220 H   0  0  0  0  0  0  0  0  0  0  0  0
  1  2  2  0  0  0  0
  2  3  1  0  0  0  0
  2 10  1  0  0  0  0
  3  4  1  0  0  0  0
  3 21  1  0  0  0  0
  3 22  1  0  0  0  0
  4  5  1  0  0  0  0
  4 23  1  0  0  0  0
  4 24  1  0  0  0  0
  5  9  1  0  0  0  0
  5  6  1  0  0  0  0
  5 25  1  0  0  0  0
  6  7  1  0  0  0  0
  6 26  1  0  0  0  0
  6 27  1  0  0  0  0
  7  8  1  0  0  0  0
  7 28  1  0  0  0  0
  7 29  1  0  0  0  0
  8  9  1  0  0  0  0
  8 30  1  0  0  0  0
  8 31  1  0  0  0  0
  9 32  1  0  0  0  0
  9 33  1  0  0  0  0
 10 11  1  0  0  0  0
 10 34  1  0  0  0  0
 11 12  1  0  0  0  0
 11 14  1  0  0  0  0
 11 35  1  0  0  0  0
 12 13  1  0  0  0  0
 12 36  1  0  0  0  0
 12 37  1  0  0  0  0
 13 38  1  0  0  0  0
 14 15  1  0  0  0  0
 14 39  1  0  0  0  0
 14 40  1  0  0  0  0
 15 20  1  0  0  0  0
 15 16  2  0  0  0  0
 16 17  1  0  0  0  0
 16 41  1  0  0  0  0
 17 18  2  0  0  0  0
 17 42  1  0  0  0  0
 18 19  1  0  0  0  0
 18 43  1  0  0  0  0
 19 20  2  0  0  0  0
 19 44  1  0  0  0  0
 20 45  1  0  0  0  0
M  CHG  1  20   1
M  END
> <s_m_source_file>
AV-unprocessed.smi

> <i_m_source_file_index>
2725

> <i_lp_mmshare_version>
43012

> <i_f3d_flags>
0

> <s_epik_input>
W0NIMl0xW0NIMl1bQ0gyXVtDSDJdW0NIXTFbQ0gyXVtDSDJdQyg9TylbTkhdW0NASF0oW0NIMl1bT0hdKVtDSDJdYzJbY0hdW2NIXVtjSF1bY0hdbjI=

> <s_epik_cmdline>
J2VwaWtfcHl0aG9uJywgJy1waCcsICc3LjAnLCAnLXRuJywgJzgnLCAnLW1hJywgJzIwMCcsICctbWV0YWxfYmluZGluZycsICctaW1hZScsICc8aW5maWxlLm1hZT4nLCAnLW9tYWUnLCAnPG91dGZpbGUubWFlPic=

> <r_epik_Ionization_Penalty>
1.87189

> <r_epik_Ionization_Penalty_Charging>
1.87189

> <r_epik_Ionization_Penalty_Neutral>
6.79411e-08

> <r_epik_State_Penalty>
1.99097

> <r_epik_Charging_Adjusted_Penalty>
3.86287

> <i_epik_Tot_Q>
1

> <i_epik_Tot_abs_Q>
1

> <r_epik_Metal_State_Penalty>
2.01578

> <b_epik_Metal_Only>
0

> <s_lp_Force_Field>
OPLS_2005

> <r_lp_Energy>
28.0453

> <b_lp_Chiralities_Consistent>
1

> <s_lp_Variant>
AV-unprocessed.smi:2725-4

> <Gold.Version>
5.8.1

> <Gold.Id.Protein>
6NUR|6NUR_protein|mol2

> <Gold.PLP.Fitness>
46.2282

> <Gold.PLP.PLP>
-41.1081

> <Gold.PLP.part.hbond>
-3.5284

> <Gold.PLP.part.metal>
0.0000

> <Gold.PLP.part.buried>
-3.7052

> <Gold.PLP.part.nonpolar>
-33.5723

> <Gold.PLP.part.repulsive>
0.1058

> <Gold.PLP.ligand.clash>
0.0000

> <Gold.PLP.ligand.torsion>
0.3770

> <Gold.PLP.Chemscore.Hbond>
1.9200

> <Gold.PLP.Chemscore.CHOScore>
0.0000

> <Gold.PLP.Chemscore.Metal>
0.0000

> <Gold.Chemscore.Hbonds>
donor molecule, donor type, donor heavy atom, donor atom, acceptor molecule, acceptor atom, score
      P1  H  7989  7998       L1     1  0.93
      P1  H 10752 10763       L1    13  0.91

> <Gold.PLP.Chemscore.Internal.Correction>
0.1141

> <Gold.Rescore>
     Score         DG    S(hbond)    S(metal)    S(lipo)     H(rot)  DE(clash)    DE(int)     intcor
     17.21     -17.70       1.65        0.00     113.84       2.58       0.07       0.42       ----

> <Gold.Chemscore.Fitness>
17.2070

> <Gold.Chemscore.DG>
-17.7028

> <Gold.Chemscore.ZeroCoef>
-5.4800

> <Gold.Chemscore.Hbond>
1.6472

> <Gold.Chemscore.Metal>
0.0000

> <Gold.Chemscore.Lipo>
113.8380

> <Gold.Chemscore.Internal_Hbond>
0.0000

> <Gold.Chemscore.DEClash>
0.0726

> <Gold.Chemscore.DEInternal>
0.4232

> <Gold.Chemscore.Rot>
2.5773

> <Gold.Chemscore.Internal.Correction>
   9.000000E+99

> <Gold.Chemscore.Hbonds>
donor molecule, donor type, donor heavy atom, donor atom, acceptor molecule, acceptor atom, score
      P1  H  7989  7998       L1     1  0.74
      P1  H 10752 10763       L1    13  0.39

> <Gold.Chemscore.Hbond.Weighted>
-5.5015

> <Gold.Chemscore.Metal.Weighted>
-0.0000

> <Gold.Chemscore.Lipo.Weighted>
-13.3190

> <Gold.Chemscore.Internal_Hbond.Weighted>
0.0000

> <Gold.Chemscore.DEClash.Weighted>
0.0726

> <Gold.Chemscore.DEInternal.Weighted>
0.4232

> <Gold.Chemscore.Rot.Weighted>
6.5978

> <Gold.Chemscore.Internal.Correction.Weighted>
   9.000000E+99

> <Gold.Protein.RotatedTorsions>
[ 6907 6896 6895 6894 ] final  141.56 input  -60.11 | X-H torsion
[ 7974 7965 7964 7962 ] final  -39.18 input  175.53 | X-H torsion
[ 8008 7997 7996 7995 ] final -142.60 input   59.86 | X-H torsion
[ 10167 10162 10161 10158 ] final  138.40 input  -65.29 | X-H torsion
[ 10718 10713 10712 10709 ] final  144.09 input   66.30 | X-H torsion
[ 10763 10752 10751 10750 ] final   35.74 input  -60.55 | X-H torsion
[ 11005 11000 10999 10996 ] final -154.40 input  -57.11 | X-H torsion

> <Gold.Protein.ActiveResidues>
 VAL166  LYS551  ARG553  GLY616  TRP617  ASP618  TYR619  PRO620  LYS621  CYS622 
 ASP623  PHE694  ASN695  SER759  ASP760  ASP761  ALA762  ILE779  LEU786  VAL792 
 PHE793  MET794  SER795  GLU796  ALA797  LYS798  CYS799  TRP800  GLU811  SER814 

> <Gold.Protein.RotatedAtoms>
  152.2294  133.5046  159.5207 H   0  0  0  0  0  0  0  0  0  0  0  0  # atno 6907 bound_to 6896
  150.7033  134.1236  159.4053 H   0  0  0  0  0  0  0  0  0  0  0  0  # atno 6908 bound_to 6896
  151.9157  135.0320  160.0569 H   0  0  0  0  0  0  0  0  0  0  0  0  # atno 6909 bound_to 6896
  146.0420  140.6596  142.9083 H   0  0  0  0  0  0  0  0  0  0  0  0  # atno 7974 bound_to 7965
  155.4969  140.0572  157.2945 H   0  0  0  0  0  0  0  0  0  0  0  0  # atno 8008 bound_to 7997
  154.4602  140.1992  156.0217 H   0  0  0  0  0  0  0  0  0  0  0  0  # atno 8009 bound_to 7997
  156.0875  140.3238  155.7777 H   0  0  0  0  0  0  0  0  0  0  0  0  # atno 8010 bound_to 7997
  139.5112  144.6355  151.5707 H   0  0  0  0  0  0  0  0  0  0  0  0  # atno 10167 bound_to 10162
  157.3613  131.0965  151.0913 H   0  0  0  0  0  0  0  0  0  0  0  0  # atno 10718 bound_to 10713
  153.0106  135.6325  154.1875 H   0  0  0  0  0  0  0  0  0  0  0  0  # atno 10763 bound_to 10752
  154.1617  135.2823  155.3108 H   0  0  0  0  0  0  0  0  0  0  0  0  # atno 10764 bound_to 10752
  154.5976  135.5597  153.7402 H   0  0  0  0  0  0  0  0  0  0  0  0  # atno 10765 bound_to 10752
  140.6978  134.3971  157.5213 H   0  0  0  0  0  0  0  0  0  0  0  0  # atno 11005 bound_to 11000
  144.7079  140.3925  143.7103 LP  0  0  0  0  0  0  0  0  0  0  0  0  # atno 17320 bound_to 7965
  145.6869  139.1630  143.2669 LP  0  0  0  0  0  0  0  0  0  0  0  0  # atno 17321 bound_to 7965
  140.6103  143.9449  150.6448 LP  0  0  0  0  0  0  0  0  0  0  0  0  # atno 17342 bound_to 10162
  140.2689  143.3470  152.1256 LP  0  0  0  0  0  0  0  0  0  0  0  0  # atno 17343 bound_to 10162
  157.2051  130.6412  149.5753 LP  0  0  0  0  0  0  0  0  0  0  0  0  # atno 17370 bound_to 10713
  155.9738  130.4678  150.6337 LP  0  0  0  0  0  0  0  0  0  0  0  0  # atno 17371 bound_to 10713
  139.8905  134.8803  156.2366 LP  0  0  0  0  0  0  0  0  0  0  0  0  # atno 17394 bound_to 11000
  141.0189  133.7053  156.1234 LP  0  0  0  0  0  0  0  0  0  0  0  0  # atno 17395 bound_to 11000

$$$$
