AV-unprocessed.smi:671|AV-procd|sdf|3285|dock5
  -GOLD-   22720 0243D 1   1.00000     0.00000
 Structure written by MMmdl.
 50 51  0  0  0  0  0  0  0  0  2 V2000
  147.8564  141.3820  153.9242 C   0  0  0  0  0  0  0  0  0  0  0  0
  149.0944  141.2663  154.7497 C   0  0  0  0  0  0  0  0  0  0  0  0
  149.6103  142.2731  155.5038 N   0  3  0  0  0  0  0  0  0  0  0  0
  150.7261  141.8635  156.1232 N   0  0  0  0  0  0  0  0  0  0  0  0
  151.4368  142.8070  156.9862 C   0  0  0  0  0  0  0  0  0  0  0  0
  150.9973  140.5667  155.7990 C   0  0  0  0  0  0  0  0  0  0  0  0
  152.1704  139.7971  156.3146 C   0  0  0  0  0  0  0  0  0  0  0  0
  149.9636  140.1844  154.9323 C   0  0  0  0  0  0  0  0  0  0  0  0
  149.7967  138.8369  154.2866 C   0  0  0  0  0  0  0  0  0  0  0  0
  148.8134  137.9163  155.0455 C   0  0  2  0  0  0  0  0  0  0  0  0
  149.4359  137.3010  156.3085 C   0  0  0  0  0  0  0  0  0  0  0  0
  148.3477  136.8352  154.1729 N   0  0  0  0  0  0  0  0  0  0  0  0
  147.2684  136.0458  154.3297 C   0  0  0  0  0  0  0  0  0  0  0  0
  146.5150  136.1604  155.2940 O   0  0  0  0  0  0  0  0  0  0  0  0
  147.0990  135.1355  153.3557 N   0  0  0  0  0  0  0  0  0  0  0  0
  146.0509  134.1179  153.2911 C   0  0  2  0  0  0  0  0  0  0  0  0
  146.6794  132.7180  153.4341 C   0  0  0  0  0  0  0  0  0  0  0  0
  146.5720  132.0360  152.0623 C   0  0  0  0  0  0  0  0  0  0  0  0
  146.1546  133.1305  151.0805 C   0  0  0  0  0  0  0  0  0  0  0  0
  145.3319  134.1027  151.9267 C   0  0  2  0  0  0  0  0  0  0  0  0
  145.0957  135.4674  151.2575 C   0  0  0  0  0  0  0  0  0  0  0  0
  147.2129  140.5163  154.0792 H   0  0  0  0  0  0  0  0  0  0  0  0
  148.1157  141.4371  152.8670 H   0  0  0  0  0  0  0  0  0  0  0  0
  147.2970  142.2786  154.1920 H   0  0  0  0  0  0  0  0  0  0  0  0
  152.0862  142.2615  157.6712 H   0  0  0  0  0  0  0  0  0  0  0  0
  150.7175  143.3898  157.5632 H   0  0  0  0  0  0  0  0  0  0  0  0
  152.0382  143.4731  156.3669 H   0  0  0  0  0  0  0  0  0  0  0  0
  152.2781  138.8460  155.7952 H   0  0  0  0  0  0  0  0  0  0  0  0
  152.0463  139.5952  157.3785 H   0  0  0  0  0  0  0  0  0  0  0  0
  153.0883  140.3684  156.1731 H   0  0  0  0  0  0  0  0  0  0  0  0
  149.4488  138.9839  153.2638 H   0  0  0  0  0  0  0  0  0  0  0  0
  150.7589  138.3362  154.1816 H   0  0  0  0  0  0  0  0  0  0  0  0
  147.9485  138.4996  155.3657 H   0  0  0  0  0  0  0  0  0  0  0  0
  149.7211  138.0689  157.0276 H   0  0  0  0  0  0  0  0  0  0  0  0
  150.3270  136.7194  156.0700 H   0  0  0  0  0  0  0  0  0  0  0  0
  148.7301  136.6374  156.8093 H   0  0  0  0  0  0  0  0  0  0  0  0
  148.9118  136.6616  153.3532 H   0  0  0  0  0  0  0  0  0  0  0  0
  147.7678  135.1345  152.6001 H   0  0  0  0  0  0  0  0  0  0  0  0
  145.3257  134.2793  154.0909 H   0  0  0  0  0  0  0  0  0  0  0  0
  147.7187  132.7720  153.7615 H   0  0  0  0  0  0  0  0  0  0  0  0
  146.1466  132.1318  154.1835 H   0  0  0  0  0  0  0  0  0  0  0  0
  147.5032  131.5529  151.7650 H   0  0  0  0  0  0  0  0  0  0  0  0
  145.8010  131.2653  152.0989 H   0  0  0  0  0  0  0  0  0  0  0  0
  147.0407  133.6327  150.6900 H   0  0  0  0  0  0  0  0  0  0  0  0
  145.5957  132.7362  150.2313 H   0  0  0  0  0  0  0  0  0  0  0  0
  144.3547  133.6435  152.0865 H   0  0  0  0  0  0  0  0  0  0  0  0
  146.0321  135.9623  150.9985 H   0  0  0  0  0  0  0  0  0  0  0  0
  144.5349  136.1321  151.9153 H   0  0  0  0  0  0  0  0  0  0  0  0
  144.5218  135.3523  150.3379 H   0  0  0  0  0  0  0  0  0  0  0  0
  149.2593  143.2146  155.6265 H   0  0  0  0  0  0  0  0  0  0  0  0
  1  2  1  0  0  0  0
  1 22  1  0  0  0  0
  1 23  1  0  0  0  0
  1 24  1  0  0  0  0
  2  8  1  0  0  0  0
  2  3  2  0  0  0  0
  3  4  1  0  0  0  0
  3 50  1  0  0  0  0
  4  5  1  0  0  0  0
  4  6  1  0  0  0  0
  5 25  1  0  0  0  0
  5 26  1  0  0  0  0
  5 27  1  0  0  0  0
  6  7  1  0  0  0  0
  6  8  2  0  0  0  0
  7 28  1  0  0  0  0
  7 29  1  0  0  0  0
  7 30  1  0  0  0  0
  8  9  1  0  0  0  0
  9 10  1  0  0  0  0
  9 31  1  0  0  0  0
  9 32  1  0  0  0  0
 10 11  1  0  0  0  0
 10 12  1  0  0  0  0
 10 33  1  0  0  0  0
 11 34  1  0  0  0  0
 11 35  1  0  0  0  0
 11 36  1  0  0  0  0
 12 13  1  0  0  0  0
 12 37  1  0  0  0  0
 13 14  2  0  0  0  0
 13 15  1  0  0  0  0
 15 16  1  0  0  0  0
 15 38  1  0  0  0  0
 16 20  1  0  0  0  0
 16 17  1  0  0  0  0
 16 39  1  0  0  0  0
 17 18  1  0  0  0  0
 17 40  1  0  0  0  0
 17 41  1  0  0  0  0
 18 19  1  0  0  0  0
 18 42  1  0  0  0  0
 18 43  1  0  0  0  0
 19 20  1  0  0  0  0
 19 44  1  0  0  0  0
 19 45  1  0  0  0  0
 20 21  1  0  0  0  0
 20 46  1  0  0  0  0
 21 47  1  0  0  0  0
 21 48  1  0  0  0  0
 21 49  1  0  0  0  0
M  CHG  1   3   1
M  END
> <s_m_source_file>
AV-unprocessed.smi

> <i_m_source_file_index>
671

> <i_lp_mmshare_version>
43012

> <i_f3d_flags>
0

> <s_epik_input>
W0NIM11jMW5uKFtDSDNdKWMoW0NIM10pYzFbQ0gyXVtDQEhdKFtDSDNdKVtOSF1DKD1PKVtOSF1bQ0BASF0yW0NIMl1bQ0gyXVtDSDJdW0NASF0yW0NIM10=

> <s_epik_cmdline>
J2VwaWtfcHl0aG9uJywgJy1waCcsICc3LjAnLCAnLXRuJywgJzgnLCAnLW1hJywgJzIwMCcsICctbWV0YWxfYmluZGluZycsICctaW1hZScsICc8aW5maWxlLm1hZT4nLCAnLW9tYWUnLCAnPG91dGZpbGUubWFlPic=

> <r_lp_tautomer_probability>
1

> <r_epik_Ionization_Penalty>
2.28705

> <r_epik_Ionization_Penalty_Charging>
2.28698

> <r_epik_Ionization_Penalty_Neutral>
6.23157e-05

> <r_epik_State_Penalty>
2.43671

> <r_epik_Charging_Adjusted_Penalty>
4.72369

> <i_epik_Tot_Q>
1

> <i_epik_Tot_abs_Q>
1

> <r_epik_Metal_State_Penalty>
2.44911

> <b_epik_Metal_Only>
0

> <s_lp_Force_Field>
OPLS_2005

> <r_lp_Energy>
35.629

> <b_lp_Chiralities_Consistent>
1

> <s_lp_Variant>
AV-unprocessed.smi:671-13

> <Gold.Version>
5.8.1

> <Gold.Id.Protein>
6NUR|6NUR_protein|mol2

> <Gold.PLP.Fitness>
46.0760

> <Gold.PLP.PLP>
-36.0628

> <Gold.PLP.part.hbond>
-2.7906

> <Gold.PLP.part.metal>
0.0000

> <Gold.PLP.part.buried>
-5.1325

> <Gold.PLP.part.nonpolar>
-29.9006

> <Gold.PLP.part.repulsive>
0.2128

> <Gold.PLP.ligand.clash>
0.0000

> <Gold.PLP.ligand.torsion>
0.7557

> <Gold.PLP.Chemscore.Hbond>
3.8320

> <Gold.PLP.Chemscore.CHOScore>
0.0000

> <Gold.PLP.Chemscore.Metal>
0.0000

> <Gold.Chemscore.Hbonds>
donor molecule, donor type, donor heavy atom, donor atom, acceptor molecule, acceptor atom, score
      L1  H     3    50       P1  8028  2.00
      L1  H    12    37       P1  7948  0.98
      L1  H    15    38       P1  7948  0.82

> <Gold.PLP.Chemscore.Internal.Correction>
0.0286

> <Gold.Rescore>
     Score         DG    S(hbond)    S(metal)    S(lipo)     H(rot)  DE(clash)    DE(int)     intcor
     19.56     -20.92       2.84        0.00      83.90       1.51       0.42       0.94       ----

> <Gold.Chemscore.Fitness>
19.5647

> <Gold.Chemscore.DG>
-20.9230

> <Gold.Chemscore.ZeroCoef>
-5.4800

> <Gold.Chemscore.Hbond>
2.8388

> <Gold.Chemscore.Metal>
0.0000

> <Gold.Chemscore.Lipo>
83.8985

> <Gold.Chemscore.Internal_Hbond>
0.0000

> <Gold.Chemscore.DEClash>
0.4165

> <Gold.Chemscore.DEInternal>
0.9418

> <Gold.Chemscore.Rot>
1.5057

> <Gold.Chemscore.Internal.Correction>
   9.000000E+99

> <Gold.Chemscore.Hbonds>
donor molecule, donor type, donor heavy atom, donor atom, acceptor molecule, acceptor atom, score
      L1  H     3    50       P1  8028  0.95
      L1  H    12    37       P1  7948  0.88
      L1  H    15    38       P1  7948  0.80

> <Gold.Chemscore.Hbond.Weighted>
-9.4816

> <Gold.Chemscore.Metal.Weighted>
-0.0000

> <Gold.Chemscore.Lipo.Weighted>
-9.8161

> <Gold.Chemscore.Internal_Hbond.Weighted>
0.0000

> <Gold.Chemscore.DEClash.Weighted>
0.4165

> <Gold.Chemscore.DEInternal.Weighted>
0.9418

> <Gold.Chemscore.Rot.Weighted>
3.8547

> <Gold.Chemscore.Internal.Correction.Weighted>
   9.000000E+99

> <Gold.Protein.RotatedTorsions>
[ 6907 6896 6895 6894 ] final  -86.57 input  -60.11 | X-H torsion
[ 7974 7965 7964 7962 ] final -114.49 input  175.53 | X-H torsion
[ 8008 7997 7996 7995 ] final   -0.74 input   59.86 | X-H torsion
[ 10167 10162 10161 10158 ] final -108.79 input  -65.29 | X-H torsion
[ 10718 10713 10712 10709 ] final -134.23 input   66.30 | X-H torsion
[ 10763 10752 10751 10750 ] final  127.11 input  -60.55 | X-H torsion
[ 11005 11000 10999 10996 ] final  154.77 input  -57.11 | X-H torsion

> <Gold.Protein.ActiveResidues>
 VAL166  LYS551  ARG553  GLY616  TRP617  ASP618  TYR619  PRO620  LYS621  CYS622 
 ASP623  PHE694  ASN695  SER759  ASP760  ASP761  ALA762  ILE779  LEU786  VAL792 
 PHE793  MET794  SER795  GLU796  ALA797  LYS798  CYS799  TRP800  GLU811  SER814 

> <Gold.Protein.RotatedAtoms>
  150.6867  134.3029  159.4713 H   0  0  0  0  0  0  0  0  0  0  0  0  # atno 6907 bound_to 6896
  152.0923  134.9396  160.0581 H   0  0  0  0  0  0  0  0  0  0  0  0  # atno 6908 bound_to 6896
  152.0707  133.4070  159.4495 H   0  0  0  0  0  0  0  0  0  0  0  0  # atno 6909 bound_to 6896
  145.1195  140.8660  143.3822 H   0  0  0  0  0  0  0  0  0  0  0  0  # atno 7974 bound_to 7965
  154.6546  140.2576  155.7175 H   0  0  0  0  0  0  0  0  0  0  0  0  # atno 8008 bound_to 7997
  156.2591  140.2861  156.0915 H   0  0  0  0  0  0  0  0  0  0  0  0  # atno 8009 bound_to 7997
  155.1399  140.0380  157.2786 H   0  0  0  0  0  0  0  0  0  0  0  0  # atno 8010 bound_to 7997
  140.1623  143.4110  152.1416 H   0  0  0  0  0  0  0  0  0  0  0  0  # atno 10167 bound_to 10162
  156.2533  130.7166  151.1073 H   0  0  0  0  0  0  0  0  0  0  0  0  # atno 10718 bound_to 10713
  153.7041  135.3279  155.3231 H   0  0  0  0  0  0  0  0  0  0  0  0  # atno 10763 bound_to 10752
  154.8404  135.4461  154.1381 H   0  0  0  0  0  0  0  0  0  0  0  0  # atno 10764 bound_to 10752
  153.2456  135.6976  153.7813 H   0  0  0  0  0  0  0  0  0  0  0  0  # atno 10765 bound_to 10752
  140.1520  134.8668  157.2466 H   0  0  0  0  0  0  0  0  0  0  0  0  # atno 11005 bound_to 11000
  145.0756  139.2998  143.5809 LP  0  0  0  0  0  0  0  0  0  0  0  0  # atno 17320 bound_to 7965
  146.3522  140.0245  142.8655 LP  0  0  0  0  0  0  0  0  0  0  0  0  # atno 17321 bound_to 7965
  139.5375  144.7224  151.4843 LP  0  0  0  0  0  0  0  0  0  0  0  0  # atno 17342 bound_to 10162
  140.6635  143.8448  150.6915 LP  0  0  0  0  0  0  0  0  0  0  0  0  # atno 17343 bound_to 10162
  157.7223  131.0673  150.6084 LP  0  0  0  0  0  0  0  0  0  0  0  0  # atno 17370 bound_to 10713
  156.6166  130.4394  149.5838 LP  0  0  0  0  0  0  0  0  0  0  0  0  # atno 17371 bound_to 10713
  140.2593  134.3589  155.7412 LP  0  0  0  0  0  0  0  0  0  0  0  0  # atno 17394 bound_to 11000
  141.2200  133.7360  156.9056 LP  0  0  0  0  0  0  0  0  0  0  0  0  # atno 17395 bound_to 11000

$$$$
