AV-unprocessed.smi:3205|AV-procd|sdf|12255|dock9
  -GOLD-   2272018 93D 1   1.00000     0.00000
 Structure written by MMmdl.
 38 39  0  0  0  0  0  0  0  0  2 V2000
  148.6568  141.7058  153.9887 C   0  0  0  0  0  0  0  0  0  0  0  0
  149.6379  141.2112  155.0699 C   0  0  1  0  0  0  0  0  0  0  0  0
  149.3143  141.8474  156.3674 N   0  3  0  0  0  0  0  0  0  0  0  0
  150.2209  141.5176  157.4883 C   0  0  0  0  0  0  0  0  0  0  0  0
  151.4771  142.4024  157.4688 C   0  0  0  0  0  0  0  0  0  0  0  0
  151.8866  142.7982  158.8048 N   0  0  0  0  0  0  0  0  0  0  0  0
  151.9469  144.0668  159.3423 C   0  0  0  0  0  0  0  0  0  0  0  0
  152.4016  143.9432  160.6239 C   0  0  0  0  0  0  0  0  0  0  0  0
  152.5928  142.5423  160.7823 C   0  0  0  0  0  0  0  0  0  0  0  0
  152.2857  141.8597  159.6908 N   0  0  0  0  0  0  0  0  0  0  0  0
  149.6321  139.6681  155.2321 C   0  0  0  0  0  0  0  0  0  0  0  0
  151.0449  139.1163  155.5261 C   0  0  0  0  0  0  0  0  0  0  0  0
  151.0409  137.5821  155.6151 C   0  0  0  0  0  0  0  0  0  0  0  0
  150.5353  137.0303  154.4066 O   0  0  0  0  0  0  0  0  0  0  0  0
  149.1873  137.4058  154.1551 C   0  0  0  0  0  0  0  0  0  0  0  0
  149.0854  138.9311  153.9912 C   0  0  0  0  0  0  0  0  0  0  0  0
  148.9294  141.3423  152.9985 H   0  0  0  0  0  0  0  0  0  0  0  0
  148.6464  142.7933  153.9207 H   0  0  0  0  0  0  0  0  0  0  0  0
  147.6378  141.3780  154.1974 H   0  0  0  0  0  0  0  0  0  0  0  0
  150.6471  141.5121  154.7845 H   0  0  0  0  0  0  0  0  0  0  0  0
  149.2716  142.8495  156.2492 H   0  0  0  0  0  0  0  0  0  0  0  0
  149.6996  141.6435  158.4384 H   0  0  0  0  0  0  0  0  0  0  0  0
  150.5131  140.4699  157.4203 H   0  0  0  0  0  0  0  0  0  0  0  0
  152.3036  141.8604  157.0074 H   0  0  0  0  0  0  0  0  0  0  0  0
  151.3138  143.2959  156.8641 H   0  0  0  0  0  0  0  0  0  0  0  0
  151.6663  144.9421  158.7750 H   0  0  0  0  0  0  0  0  0  0  0  0
  152.5710  144.7336  161.3401 H   0  0  0  0  0  0  0  0  0  0  0  0
  152.9442  142.0051  161.6508 H   0  0  0  0  0  0  0  0  0  0  0  0
  148.9895  139.4162  156.0775 H   0  0  0  0  0  0  0  0  0  0  0  0
  151.7349  139.4279  154.7408 H   0  0  0  0  0  0  0  0  0  0  0  0
  151.4356  139.5214  156.4597 H   0  0  0  0  0  0  0  0  0  0  0  0
  152.0551  137.2144  155.7713 H   0  0  0  0  0  0  0  0  0  0  0  0
  150.4450  137.2415  156.4635 H   0  0  0  0  0  0  0  0  0  0  0  0
  148.8493  136.9091  153.2455 H   0  0  0  0  0  0  0  0  0  0  0  0
  148.5439  137.0578  154.9647 H   0  0  0  0  0  0  0  0  0  0  0  0
  148.0415  139.1883  153.8147 H   0  0  0  0  0  0  0  0  0  0  0  0
  149.6396  139.2378  153.1031 H   0  0  0  0  0  0  0  0  0  0  0  0
  148.3957  141.5229  156.6364 H   0  0  0  0  0  0  0  0  0  0  0  0
  1  2  1  0  0  0  0
  1 17  1  0  0  0  0
  1 18  1  0  0  0  0
  1 19  1  0  0  0  0
  2  3  1  0  0  0  0
  2 11  1  0  0  0  0
  2 20  1  0  0  0  0
  3  4  1  0  0  0  0
  3 21  1  0  0  0  0
  3 38  1  0  0  0  0
  4  5  1  0  0  0  0
  4 22  1  0  0  0  0
  4 23  1  0  0  0  0
  5  6  1  0  0  0  0
  5 24  1  0  0  0  0
  5 25  1  0  0  0  0
  6 10  1  0  0  0  0
  6  7  1  0  0  0  0
  7  8  2  0  0  0  0
  7 26  1  0  0  0  0
  8  9  1  0  0  0  0
  8 27  1  0  0  0  0
  9 10  2  0  0  0  0
  9 28  1  0  0  0  0
 11 16  1  0  0  0  0
 11 12  1  0  0  0  0
 11 29  1  0  0  0  0
 12 13  1  0  0  0  0
 12 30  1  0  0  0  0
 12 31  1  0  0  0  0
 13 14  1  0  0  0  0
 13 32  1  0  0  0  0
 13 33  1  0  0  0  0
 14 15  1  0  0  0  0
 15 16  1  0  0  0  0
 15 34  1  0  0  0  0
 15 35  1  0  0  0  0
 16 36  1  0  0  0  0
 16 37  1  0  0  0  0
M  CHG  1   3   1
M  END
> <s_m_source_file>
AV-unprocessed.smi

> <i_m_source_file_index>
3205

> <i_lp_mmshare_version>
43012

> <i_f3d_flags>
0

> <s_epik_input>
W0NIMl0xW0NIMl1PW0NIMl1bQ0gyXVtDSF0xW0NASF0oW0NIM10pW05IXVtDSDJdW0NIMl1uMltjSF1bY0hdW2NIXW4y

> <s_epik_cmdline>
J2VwaWtfcHl0aG9uJywgJy1waCcsICc3LjAnLCAnLXRuJywgJzgnLCAnLW1hJywgJzIwMCcsICctbWV0YWxfYmluZGluZycsICctaW1hZScsICc8aW5maWxlLm1hZT4nLCAnLW9tYWUnLCAnPG91dGZpbGUubWFlPic=

> <r_lp_tautomer_probability>
1

> <r_epik_Ionization_Penalty>
0.00310903

> <r_epik_Ionization_Penalty_Charging>
0.00310601

> <r_epik_Ionization_Penalty_Neutral>
3.02836e-06

> <r_epik_State_Penalty>
-0

> <r_epik_Charging_Adjusted_Penalty>
0.00310601

> <i_epik_Tot_Q>
1

> <i_epik_Tot_abs_Q>
1

> <r_epik_Metal_State_Penalty>
-0

> <b_epik_Metal_Only>
0

> <s_lp_Force_Field>
OPLS_2005

> <r_lp_Energy>
14.7607

> <b_lp_Chiralities_Consistent>
1

> <s_lp_Variant>
AV-unprocessed.smi:3205-2

> <Gold.Version>
5.8.1

> <Gold.Id.Protein>
6NUR|6NUR_protein|mol2

> <Gold.PLP.Fitness>
47.3208

> <Gold.PLP.PLP>
-40.0552

> <Gold.PLP.part.hbond>
-2.0000

> <Gold.PLP.part.metal>
0.0000

> <Gold.PLP.part.buried>
-1.4549

> <Gold.PLP.part.nonpolar>
-36.4868

> <Gold.PLP.part.repulsive>
0.1351

> <Gold.PLP.ligand.clash>
0.0000

> <Gold.PLP.ligand.torsion>
1.4037

> <Gold.PLP.Chemscore.Hbond>
2.4919

> <Gold.PLP.Chemscore.CHOScore>
0.8524

> <Gold.PLP.Chemscore.Metal>
0.0000

> <Gold.Chemscore.Hbonds>
donor molecule, donor type, donor heavy atom, donor atom, acceptor molecule, acceptor atom, score
      L1  H     3    21       P1  8028  2.00

> <Gold.PLP.Chemscore.Internal.Correction>
0.0399

> <Gold.Rescore>
     Score         DG    S(hbond)    S(metal)    S(lipo)     H(rot)  DE(clash)    DE(int)     intcor
     17.00     -18.63       1.71        0.00      99.90       1.66       0.05       1.57       ----

> <Gold.Chemscore.Fitness>
17.0045

> <Gold.Chemscore.DG>
-18.6275

> <Gold.Chemscore.ZeroCoef>
-5.4800

> <Gold.Chemscore.Hbond>
1.7088

> <Gold.Chemscore.Metal>
0.0000

> <Gold.Chemscore.Lipo>
99.8987

> <Gold.Chemscore.Internal_Hbond>
0.0000

> <Gold.Chemscore.DEClash>
0.0484

> <Gold.Chemscore.DEInternal>
1.5746

> <Gold.Chemscore.Rot>
1.6594

> <Gold.Chemscore.Internal.Correction>
   9.000000E+99

> <Gold.Chemscore.Hbonds>
donor molecule, donor type, donor heavy atom, donor atom, acceptor molecule, acceptor atom, score
      L1  H     3    21       P1  8028  0.96

> <Gold.Chemscore.Hbond.Weighted>
-5.7075

> <Gold.Chemscore.Metal.Weighted>
-0.0000

> <Gold.Chemscore.Lipo.Weighted>
-11.6882

> <Gold.Chemscore.Internal_Hbond.Weighted>
0.0000

> <Gold.Chemscore.DEClash.Weighted>
0.0484

> <Gold.Chemscore.DEInternal.Weighted>
1.5746

> <Gold.Chemscore.Rot.Weighted>
4.2482

> <Gold.Chemscore.Internal.Correction.Weighted>
   9.000000E+99

> <Gold.Protein.RotatedTorsions>
[ 6907 6896 6895 6894 ] final    1.97 input  -60.11 | X-H torsion
[ 7974 7965 7964 7962 ] final -173.98 input  175.53 | X-H torsion
[ 8008 7997 7996 7995 ] final  118.96 input   59.86 | X-H torsion
[ 10167 10162 10161 10158 ] final -119.36 input  -65.29 | X-H torsion
[ 10718 10713 10712 10709 ] final  -55.60 input   66.30 | X-H torsion
[ 10763 10752 10751 10750 ] final  168.72 input  -60.55 | X-H torsion
[ 11005 11000 10999 10996 ] final   27.36 input  -57.11 | X-H torsion

> <Gold.Protein.ActiveResidues>
 VAL166  LYS551  ARG553  GLY616  TRP617  ASP618  TYR619  PRO620  LYS621  CYS622 
 ASP623  PHE694  ASN695  SER759  ASP760  ASP761  ALA762  ILE779  LEU786  VAL792 
 PHE793  MET794  SER795  GLU796  ALA797  LYS798  CYS799  TRP800  GLU811  SER814 

> <Gold.Protein.RotatedAtoms>
  151.6013  135.1047  160.0060 H   0  0  0  0  0  0  0  0  0  0  0  0  # atno 6907 bound_to 6896
  152.4256  133.7186  159.6531 H   0  0  0  0  0  0  0  0  0  0  0  0  # atno 6908 bound_to 6896
  150.8145  133.8290  159.3189 H   0  0  0  0  0  0  0  0  0  0  0  0  # atno 6909 bound_to 6896
  144.7134  140.1541  143.6381 H   0  0  0  0  0  0  0  0  0  0  0  0  # atno 7974 bound_to 7965
  156.2572  140.2863  156.0917 H   0  0  0  0  0  0  0  0  0  0  0  0  # atno 8008 bound_to 7997
  155.1456  140.0396  157.2826 H   0  0  0  0  0  0  0  0  0  0  0  0  # atno 8009 bound_to 7997
  154.6498  140.2542  155.7233 H   0  0  0  0  0  0  0  0  0  0  0  0  # atno 8010 bound_to 7997
  140.0475  143.5093  152.2099 H   0  0  0  0  0  0  0  0  0  0  0  0  # atno 10167 bound_to 10162
  156.1356  130.4157  150.0192 H   0  0  0  0  0  0  0  0  0  0  0  0  # atno 10718 bound_to 10713
  154.3727  135.2753  155.2257 H   0  0  0  0  0  0  0  0  0  0  0  0  # atno 10763 bound_to 10752
  154.4398  135.5957  153.6125 H   0  0  0  0  0  0  0  0  0  0  0  0  # atno 10764 bound_to 10752
  152.9837  135.6016  154.3960 H   0  0  0  0  0  0  0  0  0  0  0  0  # atno 10765 bound_to 10752
  140.3272  134.2478  155.7708 H   0  0  0  0  0  0  0  0  0  0  0  0  # atno 11005 bound_to 11000
  145.9090  139.2475  143.1449 LP  0  0  0  0  0  0  0  0  0  0  0  0  # atno 17320 bound_to 7965
  145.9735  140.8741  143.0150 LP  0  0  0  0  0  0  0  0  0  0  0  0  # atno 17321 bound_to 7965
  139.5974  144.7571  151.3252 LP  0  0  0  0  0  0  0  0  0  0  0  0  # atno 17342 bound_to 10162
  140.7232  143.7077  150.7794 LP  0  0  0  0  0  0  0  0  0  0  0  0  # atno 17343 bound_to 10162
  156.8092  130.9319  151.3644 LP  0  0  0  0  0  0  0  0  0  0  0  0  # atno 17370 bound_to 10713
  157.6529  130.8899  149.9669 LP  0  0  0  0  0  0  0  0  0  0  0  0  # atno 17371 bound_to 10713
  141.2072  133.7811  157.0131 LP  0  0  0  0  0  0  0  0  0  0  0  0  # atno 17394 bound_to 11000
  140.0892  134.9603  157.1748 LP  0  0  0  0  0  0  0  0  0  0  0  0  # atno 17395 bound_to 11000

$$$$
