#       Name:                AV-unprocessed.smi:1240
#       Creating user name   scv26
#       Creation time:       Fri Mar 27 04:30:06 2020


#       File generated by GOLD software.
#

@<TRIPOS>MOLECULE
AV-unprocessed.smi:1240
    55    57     1
SMALL
NO_CHARGES


@<TRIPOS>ATOM
      1 ****        -3.0557  -0.4690   0.3479 O.2            1 S1                 0.0000
      2 ****        -2.0793   0.2797   0.3535 C.2            1 S1                 0.0000
      3 ****        -0.8197  -0.1552   0.2160 N.am           1 S1                 0.0000
      4 ****        -0.4494  -1.5613   0.0828 C.3            1 S1                 0.0000
      5 ****         1.0814  -1.7445  -0.0803 C.3            1 S1                 0.0000
      6 ****         1.8561  -1.2303   1.1784 C.3            1 S1                 0.0000
      7 ****         1.2687  -1.6909   2.5084 C.3            1 S1                 0.0000
      8 ****         2.4472  -1.5587   3.4582 C.3            1 S1                 0.0000
      9 ****         3.5274  -2.0538   2.6891 O.3            1 S1                 0.0000
     10 ****         3.3078  -1.7378   1.3184 C.3            1 S1                 0.0000
     11 ****         1.4867  -1.1346  -1.3927 N.4            1 S1                 1.0000
     12 ****         2.8258  -0.4959  -1.4856 C.3            1 S1                 0.0000
     13 ****         3.0110   0.1739  -2.8584 C.3            1 S1                 0.0000
     14 ****         2.8346  -0.7863  -3.8905 O.3            1 S1                 0.0000
     15 ****         1.5292  -1.3470  -3.8717 C.3            1 S1                 0.0000
     16 ****         1.3009  -2.0690  -2.5338 C.3            1 S1                 0.0000
     17 ****        -2.1276   1.6176   0.4758 N.am           1 S1                 0.0000
     18 ****        -3.2699   2.4421   0.6664 C.ar           1 S1                 0.0000
     19 ****        -3.1746   3.7967   0.2774 C.ar           1 S1                 0.0000
     20 ****        -4.2791   4.6531   0.4636 C.ar           1 S1                 0.0000
     21 ****        -5.4128   4.1767   1.0214 N.pl3          1 S1                 1.0000
     22 ****        -5.5456   2.8946   1.4238 C.ar           1 S1                 0.0000
     23 ****        -4.4752   1.9913   1.2626 C.ar           1 S1                 0.0000
     24 ****        -0.0708   0.5214   0.2362 H              1 S1                 0.0000
     25 ****        -0.8190  -2.1144   0.9469 H              1 S1                 0.0000
     26 ****        -0.9796  -1.9828  -0.7713 H              1 S1                 0.0000
     27 ****         1.2712  -2.8177  -0.1400 H              1 S1                 0.0000
     28 ****         1.8560  -0.1395   1.1991 H              1 S1                 0.0000
     29 ****         0.4112  -1.0981   2.8287 H              1 S1                 0.0000
     30 ****         0.9615  -2.7364   2.4534 H              1 S1                 0.0000
     31 ****         2.6277  -0.5133   3.7132 H              1 S1                 0.0000
     32 ****         2.3158  -2.1243   4.3809 H              1 S1                 0.0000
     33 ****         3.4871  -2.6350   0.7253 H              1 S1                 0.0000
     34 ****         4.0276  -0.9808   1.0076 H              1 S1                 0.0000
     35 ****         2.9464   0.2704  -0.7213 H              1 S1                 0.0000
     36 ****         3.6056  -1.2443  -1.3420 H              1 S1                 0.0000
     37 ****         2.3086   0.9989  -2.9883 H              1 S1                 0.0000
     38 ****         4.0134   0.5947  -2.9379 H              1 S1                 0.0000
     39 ****         0.7805  -0.5686  -4.0293 H              1 S1                 0.0000
     40 ****         1.4364  -2.0510  -4.6988 H              1 S1                 0.0000
     41 ****         1.9991  -2.9024  -2.4390 H              1 S1                 0.0000
     42 ****         0.2988  -2.4962  -2.5260 H              1 S1                 0.0000
     43 ****        -1.2519   2.1079   0.3681 H              1 S1                 0.0000
     44 ****        -2.2672   4.1795  -0.1671 H              1 S1                 0.0000
     45 ****        -4.2889   5.6972   0.1866 H              1 S1                 0.0000
     46 ****        -6.4959   2.6322   1.8654 H              1 S1                 0.0000
     47 ****        -4.5953   0.9764   1.6100 H              1 S1                 0.0000
     48 ****         0.8321  -0.3799  -1.5404 H              1 S1                 0.0000
     49 ****        -6.2003   4.8131   1.1486 H              1 S1                 0.0000
     50 ****        -2.9292  -1.4547   0.2368 LP             1 S1                 0.0000
     51 ****        -3.9756  -0.0917   0.4545 LP             1 S1                 0.0000
     52 ****         3.5890  -3.0459   2.7982 LP             1 S1                 0.0000
     53 ****         4.3795  -1.6310   2.9977 LP             1 S1                 0.0000
     54 ****         3.5037  -1.5194  -3.7684 LP             1 S1                 0.0000
     55 ****         2.9838  -0.3427  -4.7742 LP             1 S1                 0.0000
@<TRIPOS>BOND
    1    1    2 2     
    2    2    3 am    
    3    2   17 am    
    4    3    4 1     
    5    3   24 1     
    6    4    5 1     
    7    4   25 1     
    8    4   26 1     
    9    5    6 1     
   10    5   11 1     
   11    5   27 1     
   12    6   10 1     
   13    6    7 1     
   14    6   28 1     
   15    7    8 1     
   16    7   29 1     
   17    7   30 1     
   18    8    9 1     
   19    8   31 1     
   20    8   32 1     
   21    9   10 1     
   22   10   33 1     
   23   10   34 1     
   24   11   16 1     
   25   11   12 1     
   26   11   48 1     
   27   12   13 1     
   28   12   35 1     
   29   12   36 1     
   30   13   14 1     
   31   13   37 1     
   32   13   38 1     
   33   14   15 1     
   34   15   16 1     
   35   15   39 1     
   36   15   40 1     
   37   16   41 1     
   38   16   42 1     
   39   17   18 1     
   40   17   43 1     
   41   18   23 ar    
   42   18   19 ar    
   43   19   20 ar    
   44   19   44 1     
   45   20   21 ar    
   46   20   45 1     
   47   21   22 ar    
   48   21   49 1     
   49   22   23 ar    
   50   22   46 1     
   51   23   47 1     
   52    1   50 1     
   53    1   51 1     
   54    9   52 1     
   55    9   53 1     
   56   14   54 1     
   57   14   55 1     
@<TRIPOS>SUBSTRUCTURE
      1 S1             1
@<TRIPOS>SET
LONE_PAIRS      STATIC     ATOMS    <user>   **** ""
6 50 51 52 53 54 55
DONOR_HYDROGENS      STATIC     ATOMS    <user>   **** ""
4 24 48 43 49
ATOM$BLUE        STATIC     ATOMS    COLORGROUP SYSTEM
6 50 51 52 53 54 55
ATOM$RED        STATIC     ATOMS    COLORGROUP SYSTEM
4 24 48 43 49
