AV-unprocessed.smi:226|AV-procd|sdf|1725|dock4
  -GOLD-   2262020213D 1   1.00000     0.00000
 Structure written by MMmdl.
 54 58  0  0  0  0  0  0  0  0  1 V2000
  150.2877  139.7672  154.1474 O   0  0  0  0  0  0  0  0  0  0  0  0
  149.3001  140.2597  154.6951 C   0  0  0  0  0  0  0  0  0  0  0  0
  149.3166  140.7479  155.9438 N   0  0  0  0  0  0  0  0  0  0  0  0
  150.4540  140.7888  156.8038 C   0  0  0  0  0  0  0  0  0  0  0  0
  150.2566  141.3148  158.2090 C   0  0  0  0  0  0  0  0  0  0  0  0
  150.9862  142.1505  157.1938 C   0  0  0  0  0  0  0  0  0  0  0  0
  147.9493  140.3411  153.9606 C   0  0  2  0  0  0  0  0  0  0  0  0
  147.3768  141.7693  153.9825 C   0  0  0  0  0  0  0  0  0  0  0  0
  146.5113  141.8152  155.2405 C   0  0  0  0  0  0  0  0  0  0  0  0
  145.9450  140.3981  155.3226 C   0  0  0  0  0  0  0  0  0  0  0  0
  146.9092  139.5541  154.6235 N   0  0  0  0  0  0  0  0  0  0  0  0
  146.7777  138.2000  154.5498 C   0  0  0  0  0  0  0  0  0  0  0  0
  147.1624  137.4682  155.6294 N   0  0  0  0  0  0  0  0  0  0  0  0
  147.0624  136.1371  155.6260 C   0  0  0  0  0  0  0  0  0  0  0  0
  146.6131  135.3391  154.6583 N   0  0  0  0  0  0  0  0  0  0  0  0
  146.2240  136.0575  153.5673 C   0  0  0  0  0  0  0  0  0  0  0  0
  146.2630  137.4768  153.4294 C   0  0  0  0  0  0  0  0  0  0  0  0
  145.7601  137.8282  152.1803 N   0  0  0  0  0  0  0  0  0  0  0  0
  145.4457  136.6938  151.6195 C   0  0  0  0  0  0  0  0  0  0  0  0
  145.7190  135.5760  152.3719 N   0  0  0  0  0  0  0  0  0  0  0  0
  145.4396  134.2137  152.0213 C   0  0  0  0  0  0  0  0  0  0  0  0
  145.9285  133.6253  150.6948 C   0  0  0  0  0  0  0  0  0  0  0  0
  144.6331  132.7933  150.5702 C   0  0  0  0  0  0  0  0  0  0  0  0
  143.9601  132.8375  149.1896 C   0  0  0  0  0  0  0  0  0  0  0  0
  142.7500  132.1075  149.1824 O   0  0  0  0  0  0  0  0  0  0  0  0
  144.7047  131.3088  150.9928 C   0  0  0  0  0  0  0  0  0  0  0  0
  145.4509  131.0986  152.1746 O   0  0  0  0  0  0  0  0  0  0  0  0
  144.0326  133.7715  151.6051 C   0  0  0  0  0  0  0  0  0  0  0  0
  148.4573  141.1320  156.3094 H   0  0  0  0  0  0  0  0  0  0  0  0
  151.1976  140.0014  156.6885 H   0  0  0  0  0  0  0  0  0  0  0  0
  149.2570  141.6340  158.4981 H   0  0  0  0  0  0  0  0  0  0  0  0
  150.8464  140.8591  159.0019 H   0  0  0  0  0  0  0  0  0  0  0  0
  152.0635  142.2530  157.3071 H   0  0  0  0  0  0  0  0  0  0  0  0
  150.4738  143.0281  156.8036 H   0  0  0  0  0  0  0  0  0  0  0  0
  148.0693  140.0266  152.9233 H   0  0  0  0  0  0  0  0  0  0  0  0
  148.1418  142.5472  153.9747 H   0  0  0  0  0  0  0  0  0  0  0  0
  146.7490  141.9236  153.1037 H   0  0  0  0  0  0  0  0  0  0  0  0
  147.1372  142.0163  156.1110 H   0  0  0  0  0  0  0  0  0  0  0  0
  145.7360  142.5807  155.1990 H   0  0  0  0  0  0  0  0  0  0  0  0
  145.8067  140.0903  156.3600 H   0  0  0  0  0  0  0  0  0  0  0  0
  144.9818  140.3397  154.8138 H   0  0  0  0  0  0  0  0  0  0  0  0
  147.3910  135.6408  156.5272 H   0  0  0  0  0  0  0  0  0  0  0  0
  145.0086  136.6437  150.6328 H   0  0  0  0  0  0  0  0  0  0  0  0
  145.7983  133.6153  152.8594 H   0  0  0  0  0  0  0  0  0  0  0  0
  146.0208  134.3845  149.9161 H   0  0  0  0  0  0  0  0  0  0  0  0
  146.8440  133.0382  150.7752 H   0  0  0  0  0  0  0  0  0  0  0  0
  143.7563  133.8635  148.8813 H   0  0  0  0  0  0  0  0  0  0  0  0
  144.6094  132.4097  148.4251 H   0  0  0  0  0  0  0  0  0  0  0  0
  142.0305  132.7206  149.1863 H   0  0  0  0  0  0  0  0  0  0  0  0
  143.7048  130.9065  151.1588 H   0  0  0  0  0  0  0  0  0  0  0  0
  145.1592  130.7009  150.2098 H   0  0  0  0  0  0  0  0  0  0  0  0
  144.8615  131.1350  152.9126 H   0  0  0  0  0  0  0  0  0  0  0  0
  143.4575  133.3001  152.4025 H   0  0  0  0  0  0  0  0  0  0  0  0
  143.4629  134.5799  151.1437 H   0  0  0  0  0  0  0  0  0  0  0  0
  1  2  2  0  0  0  0
  2  3  1  0  0  0  0
  2  7  1  0  0  0  0
  3  4  1  0  0  0  0
  3 29  1  0  0  0  0
  4  6  1  0  0  0  0
  4  5  1  0  0  0  0
  4 30  1  0  0  0  0
  5  6  1  0  0  0  0
  5 31  1  0  0  0  0
  5 32  1  0  0  0  0
  6 33  1  0  0  0  0
  6 34  1  0  0  0  0
  7 11  1  0  0  0  0
  7  8  1  0  0  0  0
  7 35  1  0  0  0  0
  8  9  1  0  0  0  0
  8 36  1  0  0  0  0
  8 37  1  0  0  0  0
  9 10  1  0  0  0  0
  9 38  1  0  0  0  0
  9 39  1  0  0  0  0
 10 11  1  0  0  0  0
 10 40  1  0  0  0  0
 10 41  1  0  0  0  0
 11 12  1  0  0  0  0
 12 17  1  0  0  0  0
 12 13  2  0  0  0  0
 13 14  1  0  0  0  0
 14 15  2  0  0  0  0
 14 42  1  0  0  0  0
 15 16  1  0  0  0  0
 16 20  1  0  0  0  0
 16 17  2  0  0  0  0
 17 18  1  0  0  0  0
 18 19  2  0  0  0  0
 19 20  1  0  0  0  0
 19 43  1  0  0  0  0
 20 21  1  0  0  0  0
 21 28  1  0  0  0  0
 21 22  1  0  0  0  0
 21 44  1  0  0  0  0
 22 23  1  0  0  0  0
 22 45  1  0  0  0  0
 22 46  1  0  0  0  0
 23 24  1  0  0  0  0
 23 26  1  0  0  0  0
 23 28  1  0  0  0  0
 24 25  1  0  0  0  0
 24 47  1  0  0  0  0
 24 48  1  0  0  0  0
 25 49  1  0  0  0  0
 26 27  1  0  0  0  0
 26 50  1  0  0  0  0
 26 51  1  0  0  0  0
 27 52  1  0  0  0  0
 28 53  1  0  0  0  0
 28 54  1  0  0  0  0
M  END
> <s_m_source_file>
AV-unprocessed.smi

> <i_m_source_file_index>
226

> <i_lp_mmshare_version>
43012

> <i_f3d_flags>
0

> <s_epik_input>
W0NIMl0xW0NIMl1bQ0hdMVtOSF1DKD1PKVtDQEBIXTJbQ0gyXVtDSDJdW0NIMl1OMmMobltjSF1uMyljKGMzNCluW2NIXW40W0NIXShbQ0gyXTUpW0NIMl1DNShbQ0gyXVtPSF0pW0NIMl1bT0hd

> <s_epik_cmdline>
J2VwaWtfcHl0aG9uJywgJy1waCcsICc3LjAnLCAnLXRuJywgJzgnLCAnLW1hJywgJzIwMCcsICctbWV0YWxfYmluZGluZycsICctaW1hZScsICc8aW5maWxlLm1hZT4nLCAnLW9tYWUnLCAnPG91dGZpbGUubWFlPic=

> <r_lp_tautomer_probability>
1

> <r_epik_Ionization_Penalty>
0.000818715

> <r_epik_Ionization_Penalty_Charging>
0

> <r_epik_Ionization_Penalty_Neutral>
0.000818715

> <r_epik_State_Penalty>
0.000426447

> <r_epik_Charging_Adjusted_Penalty>
0.000426447

> <i_epik_Tot_Q>
0

> <i_epik_Tot_abs_Q>
0

> <r_epik_Metal_State_Penalty>
-0

> <b_epik_Metal_Only>
0

> <s_lp_Force_Field>
OPLS_2005

> <r_lp_Energy>
61.6174

> <b_lp_Chiralities_Consistent>
1

> <s_lp_Variant>
AV-unprocessed.smi:226-1

> <Gold.Version>
5.8.1

> <Gold.Id.Protein>
6NUR|6NUR_protein|mol2

> <Gold.PLP.Fitness>
50.2358

> <Gold.PLP.PLP>
-42.3989

> <Gold.PLP.part.hbond>
-4.0000

> <Gold.PLP.part.metal>
0.0000

> <Gold.PLP.part.buried>
-5.3441

> <Gold.PLP.part.nonpolar>
-33.3633

> <Gold.PLP.part.repulsive>
1.1630

> <Gold.PLP.ligand.clash>
0.0000

> <Gold.PLP.ligand.torsion>
1.8239

> <Gold.PLP.Chemscore.Hbond>
2.9263

> <Gold.PLP.Chemscore.CHOScore>
0.7084

> <Gold.PLP.Chemscore.Metal>
0.0000

> <Gold.Chemscore.Hbonds>
donor molecule, donor type, donor heavy atom, donor atom, acceptor molecule, acceptor atom, score
      L1  H    25    49       P1 10186  1.00
      P1  H  7989  7998       L1     1  1.00
      P1  H 10785 10796       L1    25  0.93
      L1  C    19    43       P1 10171  0.77

> <Gold.PLP.Chemscore.Internal.Correction>
0.5807

> <Gold.Rescore>
     Score         DG    S(hbond)    S(metal)    S(lipo)     H(rot)  DE(clash)    DE(int)     intcor
     13.10     -15.33       2.66        0.00      85.50       3.52       0.34       1.90       ----

> <Gold.Chemscore.Fitness>
13.0998

> <Gold.Chemscore.DG>
-15.3321

> <Gold.Chemscore.ZeroCoef>
-5.4800

> <Gold.Chemscore.Hbond>
2.6561

> <Gold.Chemscore.Metal>
0.0000

> <Gold.Chemscore.Lipo>
85.4967

> <Gold.Chemscore.Internal_Hbond>
0.0000

> <Gold.Chemscore.DEClash>
0.3371

> <Gold.Chemscore.DEInternal>
1.8952

> <Gold.Chemscore.Rot>
3.5244

> <Gold.Chemscore.Internal.Correction>
   9.000000E+99

> <Gold.Chemscore.Hbonds>
donor molecule, donor type, donor heavy atom, donor atom, acceptor molecule, acceptor atom, score
      L1  H    25    49       P1 10186  0.96
      P1  H  7989  7998       L1     1  0.96
      P1  H 10785 10796       L1    25  0.58

> <Gold.Chemscore.Hbond.Weighted>
-8.8715

> <Gold.Chemscore.Metal.Weighted>
-0.0000

> <Gold.Chemscore.Lipo.Weighted>
-10.0031

> <Gold.Chemscore.Internal_Hbond.Weighted>
0.0000

> <Gold.Chemscore.DEClash.Weighted>
0.3371

> <Gold.Chemscore.DEInternal.Weighted>
1.8952

> <Gold.Chemscore.Rot.Weighted>
9.0225

> <Gold.Chemscore.Internal.Correction.Weighted>
   9.000000E+99

> <Gold.Protein.RotatedTorsions>
[ 6907 6896 6895 6894 ] final -145.70 input  -60.11 | X-H torsion
[ 7974 7965 7964 7962 ] final   45.75 input  175.53 | X-H torsion
[ 8008 7997 7996 7995 ] final  106.58 input   59.86 | X-H torsion
[ 10167 10162 10161 10158 ] final -144.83 input  -65.29 | X-H torsion
[ 10718 10713 10712 10709 ] final   42.94 input   66.30 | X-H torsion
[ 10763 10752 10751 10750 ] final   11.10 input  -60.55 | X-H torsion
[ 11005 11000 10999 10996 ] final -120.20 input  -57.11 | X-H torsion

> <Gold.Protein.ActiveResidues>
 VAL166  LYS551  ARG553  GLY616  TRP617  ASP618  TYR619  PRO620  LYS621  CYS622 
 ASP623  PHE694  ASN695  SER759  ASP760  ASP761  ALA762  ILE779  LEU786  VAL792 
 PHE793  MET794  SER795  GLU796  ALA797  LYS798  CYS799  TRP800  GLU811  SER814 

> <Gold.Protein.RotatedAtoms>
  151.1314  133.5034  159.2598 H   0  0  0  0  0  0  0  0  0  0  0  0  # atno 6907 bound_to 6896
  151.1753  135.0336  159.8779 H   0  0  0  0  0  0  0  0  0  0  0  0  # atno 6908 bound_to 6896
  152.5460  134.1173  159.8437 H   0  0  0  0  0  0  0  0  0  0  0  0  # atno 6909 bound_to 6896
  146.0452  139.4931  142.9753 H   0  0  0  0  0  0  0  0  0  0  0  0  # atno 7974 bound_to 7965
  156.1754  140.3110  155.9050 H   0  0  0  0  0  0  0  0  0  0  0  0  # atno 8008 bound_to 7997
  155.3498  140.0470  157.3063 H   0  0  0  0  0  0  0  0  0  0  0  0  # atno 8009 bound_to 7997
  154.5285  140.2222  155.8857 H   0  0  0  0  0  0  0  0  0  0  0  0  # atno 8010 bound_to 7997
  139.7862  143.8030  152.2645 H   0  0  0  0  0  0  0  0  0  0  0  0  # atno 10167 bound_to 10162
  157.4104  130.7911  149.7426 H   0  0  0  0  0  0  0  0  0  0  0  0  # atno 10718 bound_to 10713
  153.1962  135.6849  153.8289 H   0  0  0  0  0  0  0  0  0  0  0  0  # atno 10763 bound_to 10752
  153.7571  135.3215  155.3332 H   0  0  0  0  0  0  0  0  0  0  0  0  # atno 10764 bound_to 10752
  154.8146  135.4694  154.0708 H   0  0  0  0  0  0  0  0  0  0  0  0  # atno 10765 bound_to 10752
  141.0160  134.0194  157.3348 H   0  0  0  0  0  0  0  0  0  0  0  0  # atno 11005 bound_to 11000
  145.6817  141.0189  143.1603 LP  0  0  0  0  0  0  0  0  0  0  0  0  # atno 17320 bound_to 7965
  144.7094  139.8429  143.7419 LP  0  0  0  0  0  0  0  0  0  0  0  0  # atno 17321 bound_to 7965
  139.8108  144.7336  150.9700 LP  0  0  0  0  0  0  0  0  0  0  0  0  # atno 17342 bound_to 10162
  140.7819  143.4253  151.0778 LP  0  0  0  0  0  0  0  0  0  0  0  0  # atno 17343 bound_to 10162
  155.9849  130.3987  150.3288 LP  0  0  0  0  0  0  0  0  0  0  0  0  # atno 17370 bound_to 10713
  157.1426  131.0300  151.2921 LP  0  0  0  0  0  0  0  0  0  0  0  0  # atno 17371 bound_to 10713
  139.9117  135.0191  156.7720 LP  0  0  0  0  0  0  0  0  0  0  0  0  # atno 17394 bound_to 11000
  140.6653  133.9608  155.7827 LP  0  0  0  0  0  0  0  0  0  0  0  0  # atno 17395 bound_to 11000

$$$$
