AV-unprocessed.smi:1431|AV-procd|sdf|5829|dock7
  -GOLD-   22720 5493D 1   1.00000     0.00000
 Structure written by MMmdl.
 33 34  0  0  0  0  0  0  0  0  1 V2000
  144.8027  137.2520  151.7208 O   0  0  0  0  0  0  0  0  0  0  0  0
  145.9924  136.9354  151.6936 C   0  0  0  0  0  0  0  0  0  0  0  0
  146.9923  137.8094  151.8784 N   0  0  0  0  0  0  0  0  0  0  0  0
  146.8181  139.2286  152.1708 C   0  0  0  0  0  0  0  0  0  0  0  0
  147.4154  139.6155  153.5383 C   0  0  2  0  0  0  0  0  0  0  0  0
  147.7266  141.1206  153.6445 C   0  0  0  0  0  0  0  0  0  0  0  0
  148.5475  141.3601  154.9159 C   0  0  0  0  0  0  0  0  0  0  0  0
  149.5881  139.8664  155.1206 S   0  0  0  0  0  0  0  0  0  0  0  0
  150.9455  140.1408  154.6260 O   0  0  0  0  0  0  0  0  0  0  0  0
  149.3697  139.3113  156.4648 O   0  0  0  0  0  0  0  0  0  0  0  0
  148.7012  138.8455  153.8842 C   0  0  0  0  0  0  0  0  0  0  0  0
  146.4634  135.6928  151.4880 N   0  0  0  0  0  0  0  0  0  0  0  0
  145.7240  134.4960  151.2923 C   0  0  0  0  0  0  0  0  0  0  0  0
  146.5053  133.3305  151.1220 C   0  0  0  0  0  0  0  0  0  0  0  0
  145.8665  132.0911  150.9243 C   0  0  0  0  0  0  0  0  0  0  0  0
  144.4612  132.0490  150.9007 C   0  0  0  0  0  0  0  0  0  0  0  0
  143.7587  133.2552  151.0776 C   0  0  0  0  0  0  0  0  0  0  0  0
  144.3689  134.4440  151.2680 N   0  0  0  0  0  0  0  0  0  0  0  0
  147.9408  137.4665  151.8351 H   0  0  0  0  0  0  0  0  0  0  0  0
  147.3022  139.7977  151.3765 H   0  0  0  0  0  0  0  0  0  0  0  0
  145.7585  139.4867  152.1324 H   0  0  0  0  0  0  0  0  0  0  0  0
  146.6830  139.3908  154.3151 H   0  0  0  0  0  0  0  0  0  0  0  0
  148.3173  141.4275  152.7805 H   0  0  0  0  0  0  0  0  0  0  0  0
  146.8177  141.7229  153.6395 H   0  0  0  0  0  0  0  0  0  0  0  0
  149.1709  142.2528  154.8625 H   0  0  0  0  0  0  0  0  0  0  0  0
  147.8962  141.4390  155.7866 H   0  0  0  0  0  0  0  0  0  0  0  0
  148.5066  137.8520  154.2887 H   0  0  0  0  0  0  0  0  0  0  0  0
  149.3470  138.7456  153.0115 H   0  0  0  0  0  0  0  0  0  0  0  0
  147.4668  135.5868  151.4908 H   0  0  0  0  0  0  0  0  0  0  0  0
  147.5843  133.3809  151.1436 H   0  0  0  0  0  0  0  0  0  0  0  0
  146.4453  131.1886  150.7936 H   0  0  0  0  0  0  0  0  0  0  0  0
  143.9353  131.1176  150.7513 H   0  0  0  0  0  0  0  0  0  0  0  0
  142.6789  133.2668  151.0660 H   0  0  0  0  0  0  0  0  0  0  0  0
  1  2  2  0  0  0  0
  2  3  1  0  0  0  0
  2 12  1  0  0  0  0
  3  4  1  0  0  0  0
  3 19  1  0  0  0  0
  4  5  1  0  0  0  0
  4 20  1  0  0  0  0
  4 21  1  0  0  0  0
  5 11  1  0  0  0  0
  5  6  1  0  0  0  0
  5 22  1  0  0  0  0
  6  7  1  0  0  0  0
  6 23  1  0  0  0  0
  6 24  1  0  0  0  0
  7  8  1  0  0  0  0
  7 25  1  0  0  0  0
  7 26  1  0  0  0  0
  8  9  2  0  0  0  0
  8 10  2  0  0  0  0
  8 11  1  0  0  0  0
 11 27  1  0  0  0  0
 11 28  1  0  0  0  0
 12 13  1  0  0  0  0
 12 29  1  0  0  0  0
 13 18  1  0  0  0  0
 13 14  2  0  0  0  0
 14 15  1  0  0  0  0
 14 30  1  0  0  0  0
 15 16  2  0  0  0  0
 15 31  1  0  0  0  0
 16 17  1  0  0  0  0
 16 32  1  0  0  0  0
 17 18  2  0  0  0  0
 17 33  1  0  0  0  0
M  END
> <s_m_source_file>
AV-unprocessed.smi

> <i_m_source_file_index>
1431

> <i_lp_mmshare_version>
43012

> <i_f3d_flags>
0

> <s_epik_input>
bjFbY0hdW2NIXVtjSF1bY0hdYzFbTkhdQyg9TylbTkhdW0NIMl1bQ0BASF0oW0NIMl0yKVtDSDJdW0NIMl1TMig9Tyk9Tw==

> <s_epik_cmdline>
J2VwaWtfcHl0aG9uJywgJy1waCcsICc3LjAnLCAnLXRuJywgJzgnLCAnLW1hJywgJzIwMCcsICctbWV0YWxfYmluZGluZycsICctaW1hZScsICc8aW5maWxlLm1hZT4nLCAnLW9tYWUnLCAnPG91dGZpbGUubWFlPic=

> <r_lp_tautomer_probability>
1

> <r_epik_Ionization_Penalty>
4.47006e-05

> <r_epik_Ionization_Penalty_Charging>
0

> <r_epik_Ionization_Penalty_Neutral>
4.47006e-05

> <r_epik_State_Penalty>
-0

> <r_epik_Charging_Adjusted_Penalty>
0

> <i_epik_Tot_Q>
0

> <i_epik_Tot_abs_Q>
0

> <r_epik_Metal_State_Penalty>
-0

> <b_epik_Metal_Only>
0

> <s_lp_Force_Field>
OPLS_2005

> <r_lp_Energy>
3.66515

> <b_lp_Chiralities_Consistent>
1

> <s_lp_Variant>
AV-unprocessed.smi:1431-1

> <Gold.Version>
5.8.1

> <Gold.Id.Protein>
6NUR|6NUR_protein|mol2

> <Gold.PLP.Fitness>
40.6034

> <Gold.PLP.PLP>
-29.0905

> <Gold.PLP.part.hbond>
-2.8947

> <Gold.PLP.part.metal>
0.0000

> <Gold.PLP.part.buried>
-2.4382

> <Gold.PLP.part.nonpolar>
-27.8663

> <Gold.PLP.part.repulsive>
4.4806

> <Gold.PLP.ligand.clash>
0.0000

> <Gold.PLP.ligand.torsion>
0.2441

> <Gold.PLP.Chemscore.Hbond>
3.0000

> <Gold.PLP.Chemscore.CHOScore>
0.9994

> <Gold.PLP.Chemscore.Metal>
0.0000

> <Gold.Chemscore.Hbonds>
donor molecule, donor type, donor heavy atom, donor atom, acceptor molecule, acceptor atom, score
      L1  H     3    19       P1  7948  1.00
      L1  H    12    29       P1  7948  0.99
      P1  H  7989  7998       L1     9  0.94
      L1  C    17    33       P1 10186  1.00

> <Gold.PLP.Chemscore.Internal.Correction>
0.0030

> <Gold.Rescore>
     Score         DG    S(hbond)    S(metal)    S(lipo)     H(rot)  DE(clash)    DE(int)     intcor
     16.46     -19.93       2.93        0.00      68.86       1.33       1.92       1.55       ----

> <Gold.Chemscore.Fitness>
16.4567

> <Gold.Chemscore.DG>
-19.9261

> <Gold.Chemscore.ZeroCoef>
-5.4800

> <Gold.Chemscore.Hbond>
2.9307

> <Gold.Chemscore.Metal>
0.0000

> <Gold.Chemscore.Lipo>
68.8643

> <Gold.Chemscore.Internal_Hbond>
0.0000

> <Gold.Chemscore.DEClash>
1.9219

> <Gold.Chemscore.DEInternal>
1.5475

> <Gold.Chemscore.Rot>
1.3280

> <Gold.Chemscore.Internal.Correction>
   9.000000E+99

> <Gold.Chemscore.Hbonds>
donor molecule, donor type, donor heavy atom, donor atom, acceptor molecule, acceptor atom, score
      L1  H     3    19       P1  7948  0.91
      L1  H    12    29       P1  7948  0.89
      P1  H  7989  7998       L1     9  0.90

> <Gold.Chemscore.Hbond.Weighted>
-9.7886

> <Gold.Chemscore.Metal.Weighted>
-0.0000

> <Gold.Chemscore.Lipo.Weighted>
-8.0571

> <Gold.Chemscore.Internal_Hbond.Weighted>
0.0000

> <Gold.Chemscore.DEClash.Weighted>
1.9219

> <Gold.Chemscore.DEInternal.Weighted>
1.5475

> <Gold.Chemscore.Rot.Weighted>
3.3996

> <Gold.Chemscore.Internal.Correction.Weighted>
   9.000000E+99

> <Gold.Protein.RotatedTorsions>
[ 6907 6896 6895 6894 ] final  -59.76 input  -60.11 | X-H torsion
[ 7974 7965 7964 7962 ] final  -70.88 input  175.53 | X-H torsion
[ 8008 7997 7996 7995 ] final   31.26 input   59.86 | X-H torsion
[ 10167 10162 10161 10158 ] final  -29.12 input  -65.29 | X-H torsion
[ 10718 10713 10712 10709 ] final   46.55 input   66.30 | X-H torsion
[ 10763 10752 10751 10750 ] final  120.89 input  -60.55 | X-H torsion
[ 11005 11000 10999 10996 ] final  135.46 input  -57.11 | X-H torsion

> <Gold.Protein.ActiveResidues>
 VAL166  LYS551  ARG553  GLY616  TRP617  ASP618  TYR619  PRO620  LYS621  CYS622 
 ASP623  PHE694  ASN695  SER759  ASP760  ASP761  ALA762  ILE779  LEU786  VAL792 
 PHE793  MET794  SER795  GLU796  ALA797  LYS798  CYS799  TRP800  GLU811  SER814 

> <Gold.Protein.RotatedAtoms>
  150.7906  134.6927  159.6505 H   0  0  0  0  0  0  0  0  0  0  0  0  # atno 6907 bound_to 6896
  152.4011  134.6281  160.0078 H   0  0  0  0  0  0  0  0  0  0  0  0  # atno 6908 bound_to 6896
  151.6552  133.3282  159.3197 H   0  0  0  0  0  0  0  0  0  0  0  0  # atno 6909 bound_to 6896
  145.6852  140.9173  143.0811 H   0  0  0  0  0  0  0  0  0  0  0  0  # atno 7974 bound_to 7965
  155.1036  140.3232  155.4540 H   0  0  0  0  0  0  0  0  0  0  0  0  # atno 8008 bound_to 7997
  156.2710  140.2056  156.6109 H   0  0  0  0  0  0  0  0  0  0  0  0  # atno 8009 bound_to 7997
  154.6810  140.0526  157.0253 H   0  0  0  0  0  0  0  0  0  0  0  0  # atno 8010 bound_to 7997
  140.7263  143.3954  151.1356 H   0  0  0  0  0  0  0  0  0  0  0  0  # atno 10167 bound_to 10162
  157.4493  130.8128  149.7772 H   0  0  0  0  0  0  0  0  0  0  0  0  # atno 10718 bound_to 10713
  153.6055  135.3440  155.2960 H   0  0  0  0  0  0  0  0  0  0  0  0  # atno 10763 bound_to 10752
  154.8628  135.4237  154.2366 H   0  0  0  0  0  0  0  0  0  0  0  0  # atno 10764 bound_to 10752
  153.3205  135.7038  153.7107 H   0  0  0  0  0  0  0  0  0  0  0  0  # atno 10765 bound_to 10752
  139.9981  134.9489  157.0010 H   0  0  0  0  0  0  0  0  0  0  0  0  # atno 11005 bound_to 11000
  144.7013  139.8749  143.7443 LP  0  0  0  0  0  0  0  0  0  0  0  0  # atno 17320 bound_to 7965
  146.0929  139.3920  143.0394 LP  0  0  0  0  0  0  0  0  0  0  0  0  # atno 17321 bound_to 7965
  139.7566  143.8698  152.3090 LP  0  0  0  0  0  0  0  0  0  0  0  0  # atno 17342 bound_to 10162
  139.8570  144.7136  150.9145 LP  0  0  0  0  0  0  0  0  0  0  0  0  # atno 17343 bound_to 10162
  155.9980  130.3896  150.2717 LP  0  0  0  0  0  0  0  0  0  0  0  0  # atno 17370 bound_to 10713
  157.0888  131.0164  151.3129 LP  0  0  0  0  0  0  0  0  0  0  0  0  # atno 17371 bound_to 10713
  140.4780  134.1319  155.7212 LP  0  0  0  0  0  0  0  0  0  0  0  0  # atno 17394 bound_to 11000
  141.1620  133.8774  157.1821 LP  0  0  0  0  0  0  0  0  0  0  0  0  # atno 17395 bound_to 11000

$$$$
