AV-unprocessed.smi:523|AV-procd|sdf|2803|dock10
  -GOLD-   2262023283D 1   1.00000     0.00000
 Structure written by MMmdl.
 41 43  0  0  0  0  0  0  0  0  1 V2000
  152.3427  138.3547  159.2516 C   0  0  0  0  0  0  0  0  0  0  0  0
  152.7292  137.8902  157.9710 O   0  0  0  0  0  0  0  0  0  0  0  0
  151.8446  138.3155  156.9470 C   0  0  0  0  0  0  0  0  0  0  0  0
  152.2110  139.7373  156.4998 C   0  0  0  0  0  0  0  0  0  0  0  0
  151.0378  140.4822  156.0457 N   0  0  0  0  0  0  0  0  0  0  0  0
  150.5387  141.6531  156.5292 C   0  0  0  0  0  0  0  0  0  0  0  0
  151.1551  142.3542  157.5660 N   0  0  0  0  0  0  0  0  0  0  0  0
  151.1473  143.7996  157.7732 C   0  0  0  0  0  0  0  0  0  0  0  0
  152.5656  144.3162  158.0742 C   0  0  0  0  0  0  0  0  0  0  0  0
  153.0603  143.6670  159.2401 O   0  0  0  0  0  0  0  0  0  0  0  0
  153.0948  142.2524  159.0857 C   0  0  0  0  0  0  0  0  0  0  0  0
  151.6781  141.7335  158.7780 C   0  0  0  0  0  0  0  0  0  0  0  0
  149.3912  142.0432  155.9681 N   0  0  0  0  0  0  0  0  0  0  0  0
  149.1485  141.0542  155.0280 C   0  0  0  0  0  0  0  0  0  0  0  0
  150.1189  140.1053  155.0626 C   0  0  0  0  0  0  0  0  0  0  0  0
  150.0833  138.9149  154.1998 C   0  0  0  0  0  0  0  0  0  0  0  0
  150.9385  138.0326  154.2194 O   0  0  0  0  0  0  0  0  0  0  0  0
  149.0041  138.8827  153.3811 N   0  0  0  0  0  0  0  0  0  0  0  0
  147.9982  139.8049  153.2938 C   0  0  0  0  0  0  0  0  0  0  0  0
  147.0735  139.6334  152.4996 O   0  0  0  0  0  0  0  0  0  0  0  0
  148.0661  140.9009  154.1151 N   0  0  0  0  0  0  0  0  0  0  0  0
  147.0128  141.9167  154.0683 C   0  0  0  0  0  0  0  0  0  0  0  0
  148.9316  138.0835  152.7683 H   0  0  0  0  0  0  0  0  0  0  0  0
  153.0537  138.0017  159.9984 H   0  0  0  0  0  0  0  0  0  0  0  0
  151.3547  137.9815  159.5244 H   0  0  0  0  0  0  0  0  0  0  0  0
  152.3287  139.4446  159.2879 H   0  0  0  0  0  0  0  0  0  0  0  0
  151.9052  137.6334  156.0975 H   0  0  0  0  0  0  0  0  0  0  0  0
  150.8157  138.2949  157.3081 H   0  0  0  0  0  0  0  0  0  0  0  0
  152.6997  140.2656  157.3130 H   0  0  0  0  0  0  0  0  0  0  0  0
  152.9549  139.7043  155.7071 H   0  0  0  0  0  0  0  0  0  0  0  0
  150.7194  144.3107  156.9120 H   0  0  0  0  0  0  0  0  0  0  0  0
  150.4869  144.0311  158.6101 H   0  0  0  0  0  0  0  0  0  0  0  0
  153.2366  144.1408  157.2321 H   0  0  0  0  0  0  0  0  0  0  0  0
  152.5464  145.3917  158.2501 H   0  0  0  0  0  0  0  0  0  0  0  0
  153.7904  141.9791  158.2906 H   0  0  0  0  0  0  0  0  0  0  0  0
  153.4690  141.8043  160.0060 H   0  0  0  0  0  0  0  0  0  0  0  0
  151.0062  141.9388  159.6125 H   0  0  0  0  0  0  0  0  0  0  0  0
  151.7039  140.6505  158.6535 H   0  0  0  0  0  0  0  0  0  0  0  0
  146.8702  142.2811  153.0499 H   0  0  0  0  0  0  0  0  0  0  0  0
  147.2375  142.7825  154.6906 H   0  0  0  0  0  0  0  0  0  0  0  0
  146.0674  141.4974  154.4154 H   0  0  0  0  0  0  0  0  0  0  0  0
  1  2  1  0  0  0  0
  1 24  1  0  0  0  0
  1 25  1  0  0  0  0
  1 26  1  0  0  0  0
  2  3  1  0  0  0  0
  3  4  1  0  0  0  0
  3 27  1  0  0  0  0
  3 28  1  0  0  0  0
  4  5  1  0  0  0  0
  4 29  1  0  0  0  0
  4 30  1  0  0  0  0
  5 15  1  0  0  0  0
  5  6  1  0  0  0  0
  6  7  1  0  0  0  0
  6 13  2  0  0  0  0
  7 12  1  0  0  0  0
  7  8  1  0  0  0  0
  8  9  1  0  0  0  0
  8 31  1  0  0  0  0
  8 32  1  0  0  0  0
  9 10  1  0  0  0  0
  9 33  1  0  0  0  0
  9 34  1  0  0  0  0
 10 11  1  0  0  0  0
 11 12  1  0  0  0  0
 11 35  1  0  0  0  0
 11 36  1  0  0  0  0
 12 37  1  0  0  0  0
 12 38  1  0  0  0  0
 13 14  1  0  0  0  0
 14 21  1  0  0  0  0
 14 15  2  0  0  0  0
 15 16  1  0  0  0  0
 16 17  2  0  0  0  0
 16 18  1  0  0  0  0
 18 23  1  0  0  0  0
 18 19  1  0  0  0  0
 19 20  2  0  0  0  0
 19 21  1  0  0  0  0
 21 22  1  0  0  0  0
 22 39  1  0  0  0  0
 22 40  1  0  0  0  0
 22 41  1  0  0  0  0
M  END
> <s_m_source_file>
AV-unprocessed.smi

> <i_m_source_file_index>
523

> <i_lp_mmshare_version>
43012

> <i_f3d_flags>
0

> <s_epik_input>
W0NIM11uMWMoPU8pW25IXWMoPU8pYyhjMTIpbihbQ0gyXVtDSDJdT1tDSDNdKWMobjIpTjNbQ0gyXVtDSDJdT1tDSDJdW0NIMl0z

> <s_epik_cmdline>
J2VwaWtfcHl0aG9uJywgJy1waCcsICc3LjAnLCAnLXRuJywgJzgnLCAnLW1hJywgJzIwMCcsICctbWV0YWxfYmluZGluZycsICctaW1hZScsICc8aW5maWxlLm1hZT4nLCAnLW9tYWUnLCAnPG91dGZpbGUubWFlPic=

> <r_lp_tautomer_probability>
1

> <r_epik_Ionization_Penalty>
0.000208431

> <r_epik_Ionization_Penalty_Charging>
0.000208146

> <r_epik_Ionization_Penalty_Neutral>
2.85359e-07

> <r_epik_State_Penalty>
-0

> <r_epik_Charging_Adjusted_Penalty>
0.000208146

> <i_epik_Tot_Q>
0

> <i_epik_Tot_abs_Q>
0

> <r_epik_Metal_State_Penalty>
0.136977

> <b_epik_Metal_Only>
0

> <s_lp_Force_Field>
OPLS_2005

> <r_lp_Energy>
38.6509

> <b_lp_Chiralities_Consistent>
1

> <s_lp_Variant>
AV-unprocessed.smi:523-1

> <Gold.Version>
5.8.1

> <Gold.Id.Protein>
6NUR|6NUR_protein|mol2

> <Gold.PLP.Fitness>
40.6236

> <Gold.PLP.PLP>
-39.0060

> <Gold.PLP.part.hbond>
-2.0000

> <Gold.PLP.part.metal>
0.0000

> <Gold.PLP.part.buried>
-3.3439

> <Gold.PLP.part.nonpolar>
-37.9220

> <Gold.PLP.part.repulsive>
4.4796

> <Gold.PLP.ligand.clash>
0.0000

> <Gold.PLP.ligand.torsion>
0.9203

> <Gold.PLP.Chemscore.Hbond>
1.0000

> <Gold.PLP.Chemscore.CHOScore>
0.0000

> <Gold.PLP.Chemscore.Metal>
0.0000

> <Gold.Chemscore.Hbonds>
donor molecule, donor type, donor heavy atom, donor atom, acceptor molecule, acceptor atom, score
      L1  H    18    23       P1  7948  0.99

> <Gold.PLP.Chemscore.Internal.Correction>
0.4583

> <Gold.Rescore>
     Score         DG    S(hbond)    S(metal)    S(lipo)     H(rot)  DE(clash)    DE(int)     intcor
     11.40     -13.10       0.99        0.00      70.35       1.53       0.00       1.70       ----

> <Gold.Chemscore.Fitness>
11.3996

> <Gold.Chemscore.DG>
-13.0997

> <Gold.Chemscore.ZeroCoef>
-5.4800

> <Gold.Chemscore.Hbond>
0.9932

> <Gold.Chemscore.Metal>
0.0000

> <Gold.Chemscore.Lipo>
70.3540

> <Gold.Chemscore.Internal_Hbond>
0.0000

> <Gold.Chemscore.DEClash>
0.0015

> <Gold.Chemscore.DEInternal>
1.6986

> <Gold.Chemscore.Rot>
1.5348

> <Gold.Chemscore.Internal.Correction>
   9.000000E+99

> <Gold.Chemscore.Hbonds>
donor molecule, donor type, donor heavy atom, donor atom, acceptor molecule, acceptor atom, score
      L1  H    18    23       P1  7948  0.93

> <Gold.Chemscore.Hbond.Weighted>
-3.3173

> <Gold.Chemscore.Metal.Weighted>
-0.0000

> <Gold.Chemscore.Lipo.Weighted>
-8.2314

> <Gold.Chemscore.Internal_Hbond.Weighted>
0.0000

> <Gold.Chemscore.DEClash.Weighted>
0.0015

> <Gold.Chemscore.DEInternal.Weighted>
1.6986

> <Gold.Chemscore.Rot.Weighted>
3.9290

> <Gold.Chemscore.Internal.Correction.Weighted>
   9.000000E+99

> <Gold.Protein.RotatedTorsions>
[ 6907 6896 6895 6894 ] final  153.47 input  -60.11 | X-H torsion
[ 7974 7965 7964 7962 ] final  -84.66 input  175.53 | X-H torsion
[ 8008 7997 7996 7995 ] final   18.87 input   59.86 | X-H torsion
[ 10167 10162 10161 10158 ] final  115.78 input  -65.29 | X-H torsion
[ 10718 10713 10712 10709 ] final  136.54 input   66.30 | X-H torsion
[ 10763 10752 10751 10750 ] final  -98.75 input  -60.55 | X-H torsion
[ 11005 11000 10999 10996 ] final -153.25 input  -57.11 | X-H torsion

> <Gold.Protein.ActiveResidues>
 VAL166  LYS551  ARG553  GLY616  TRP617  ASP618  TYR619  PRO620  LYS621  CYS622 
 ASP623  PHE694  ASN695  SER759  ASP760  ASP761  ALA762  ILE779  LEU786  VAL792 
 PHE793  MET794  SER795  GLU796  ALA797  LYS798  CYS799  TRP800  GLU811  SER814 

> <Gold.Protein.RotatedAtoms>
  152.0722  133.4112  159.4464 H   0  0  0  0  0  0  0  0  0  0  0  0  # atno 6907 bound_to 6896
  150.6863  134.3078  159.4743 H   0  0  0  0  0  0  0  0  0  0  0  0  # atno 6908 bound_to 6896
  152.0911  134.9406  160.0622 H   0  0  0  0  0  0  0  0  0  0  0  0  # atno 6909 bound_to 6896
  145.5036  140.9545  143.1746 H   0  0  0  0  0  0  0  0  0  0  0  0  # atno 7974 bound_to 7965
  154.9124  140.3016  155.5259 H   0  0  0  0  0  0  0  0  0  0  0  0  # atno 8008 bound_to 7997
  156.3014  140.2386  156.4101 H   0  0  0  0  0  0  0  0  0  0  0  0  # atno 8009 bound_to 7997
  154.8412  140.0413  157.1531 H   0  0  0  0  0  0  0  0  0  0  0  0  # atno 8010 bound_to 7997
  139.6293  144.7112  151.2467 H   0  0  0  0  0  0  0  0  0  0  0  0  # atno 10167 bound_to 10162
  157.4455  131.1061  151.0094 H   0  0  0  0  0  0  0  0  0  0  0  0  # atno 10718 bound_to 10713
  154.7440  135.4998  153.9172 H   0  0  0  0  0  0  0  0  0  0  0  0  # atno 10763 bound_to 10752
  153.1073  135.6700  153.9572 H   0  0  0  0  0  0  0  0  0  0  0  0  # atno 10764 bound_to 10752
  153.9341  135.3074  155.3424 H   0  0  0  0  0  0  0  0  0  0  0  0  # atno 10765 bound_to 10752
  140.7102  134.3841  157.5198 H   0  0  0  0  0  0  0  0  0  0  0  0  # atno 11005 bound_to 11000
  144.7766  139.6616  143.7172 LP  0  0  0  0  0  0  0  0  0  0  0  0  # atno 17320 bound_to 7965
  146.2210  139.5636  142.9618 LP  0  0  0  0  0  0  0  0  0  0  0  0  # atno 17321 bound_to 7965
  140.7429  143.6510  150.8248 LP  0  0  0  0  0  0  0  0  0  0  0  0  # atno 17342 bound_to 10162
  140.0133  143.5620  152.2830 LP  0  0  0  0  0  0  0  0  0  0  0  0  # atno 17343 bound_to 10162
  157.0942  130.5955  149.5446 LP  0  0  0  0  0  0  0  0  0  0  0  0  # atno 17370 bound_to 10713
  155.9966  130.5035  150.7502 LP  0  0  0  0  0  0  0  0  0  0  0  0  # atno 17371 bound_to 10713
  139.8874  134.8885  156.2533 LP  0  0  0  0  0  0  0  0  0  0  0  0  # atno 17394 bound_to 11000
  141.0091  133.7106  156.1082 LP  0  0  0  0  0  0  0  0  0  0  0  0  # atno 17395 bound_to 11000

$$$$
