#       Name:                AV-unprocessed.smi:2252
#       Creating user name   scv26
#       Creation time:       Fri Mar 27 12:30:43 2020


#       File generated by GOLD software.
#

@<TRIPOS>MOLECULE
AV-unprocessed.smi:2252
    48    50     1
SMALL
NO_CHARGES


@<TRIPOS>ATOM
      1 ****        -4.3838   0.5495  -2.8576 C.3            1 S1                 0.0000
      2 ****        -4.8367   0.4889  -1.4812 N.pl3          1 S1                 0.0000
      3 ****        -6.1588   0.4466  -1.0588 C.2            1 S1                 0.0000
      4 ****        -6.1326   0.3905   0.3138 C.2            1 S1                 0.0000
      5 ****        -4.8122   0.3971   0.7502 N.2            1 S1                 0.0000
      6 ****        -4.0871   0.4627  -0.3623 C.2            1 S1                 0.0000
      7 ****        -2.5904   0.4743  -0.3748 C.3            1 S1                 0.0000
      8 ****        -1.9940  -0.9418  -0.3107 C.3            1 S1                 0.0000
      9 ****        -0.5370  -0.9187  -0.3599 N.am           1 S1                 0.0000
     10 ****         0.2629  -0.5958   0.6682 C.2            1 S1                 0.0000
     11 ****        -0.1601  -0.2859   1.7823 O.2            1 S1                 0.0000
     12 ****         1.7755  -0.6406   0.4054 C.3            1 S1                 0.0000
     13 ****         2.3326  -1.9721   0.9528 C.3            1 S1                 0.0000
     14 ****         3.4215  -2.7273   0.2219 C.3            1 S1                 0.0000
     15 ****         2.0220  -3.2848   0.2651 C.3            1 S1                 0.0000
     16 ****         2.4717   0.5316   1.0084 N.4            1 S1                 1.0000
     17 ****         3.9474   0.5029   0.9229 C.3            1 S1                 0.0000
     18 ****         4.4149   1.9479   1.1245 C.3            1 S1                 0.0000
     19 ****         3.1777   2.8189   0.8849 C.3            1 S1                 0.0000
     20 ****         2.0752   1.8475   0.4610 C.3            1 S1                 0.0000
     21 ****        -5.2295   0.4421  -3.5373 H              1 S1                 0.0000
     22 ****        -3.6728  -0.2541  -3.0512 H              1 S1                 0.0000
     23 ****        -3.9019   1.5096  -3.0441 H              1 S1                 0.0000
     24 ****        -6.9877   0.4577  -1.7512 H              1 S1                 0.0000
     25 ****        -6.9533   0.3455   1.0144 H              1 S1                 0.0000
     26 ****        -2.2344   0.9964  -1.2631 H              1 S1                 0.0000
     27 ****        -2.2508   1.0637   0.4778 H              1 S1                 0.0000
     28 ****        -2.3279  -1.4582   0.5911 H              1 S1                 0.0000
     29 ****        -2.3494  -1.5323  -1.1556 H              1 S1                 0.0000
     30 ****        -0.1075  -1.1729  -1.2379 H              1 S1                 0.0000
     31 ****         1.9395  -0.6095  -0.6737 H              1 S1                 0.0000
     32 ****         2.3683  -2.0167   2.0403 H              1 S1                 0.0000
     33 ****         3.7709  -2.3275  -0.7280 H              1 S1                 0.0000
     34 ****         4.1796  -3.2213   0.8262 H              1 S1                 0.0000
     35 ****         1.8458  -4.1534   0.8963 H              1 S1                 0.0000
     36 ****         1.4434  -3.2541  -0.6562 H              1 S1                 0.0000
     37 ****         4.3827  -0.1750   1.6579 H              1 S1                 0.0000
     38 ****         4.2471   0.1619  -0.0693 H              1 S1                 0.0000
     39 ****         4.7833   2.0944   2.1405 H              1 S1                 0.0000
     40 ****         5.2278   2.1975   0.4414 H              1 S1                 0.0000
     41 ****         2.8966   3.3213   1.8112 H              1 S1                 0.0000
     42 ****         3.3509   3.5891   0.1326 H              1 S1                 0.0000
     43 ****         2.0365   1.7928  -0.6283 H              1 S1                 0.0000
     44 ****         1.0939   2.1641   0.8163 H              1 S1                 0.0000
     45 ****         2.2398   0.5469   1.9916 H              1 S1                 0.0000
     46 ****        -4.4810   0.3606   1.6931 LP             1 S1                 0.0000
     47 ****        -1.1448  -0.2662   1.9556 LP             1 S1                 0.0000
     48 ****         0.4811  -0.0539   2.5139 LP             1 S1                 0.0000
@<TRIPOS>BOND
    1    1    2 1     
    2    1   21 1     
    3    1   22 1     
    4    1   23 1     
    5    2    6 1     
    6    2    3 1     
    7    3    4 2     
    8    3   24 1     
    9    4    5 1     
   10    4   25 1     
   11    5    6 2     
   12    6    7 1     
   13    7    8 1     
   14    7   26 1     
   15    7   27 1     
   16    8    9 1     
   17    8   28 1     
   18    8   29 1     
   19    9   10 am    
   20    9   30 1     
   21   10   11 2     
   22   10   12 1     
   23   12   13 1     
   24   12   16 1     
   25   12   31 1     
   26   13   15 1     
   27   13   14 1     
   28   13   32 1     
   29   14   15 1     
   30   14   33 1     
   31   14   34 1     
   32   15   35 1     
   33   15   36 1     
   34   16   20 1     
   35   16   17 1     
   36   16   45 1     
   37   17   18 1     
   38   17   37 1     
   39   17   38 1     
   40   18   19 1     
   41   18   39 1     
   42   18   40 1     
   43   19   20 1     
   44   19   41 1     
   45   19   42 1     
   46   20   43 1     
   47   20   44 1     
   48    5   46 1     
   49   11   47 1     
   50   11   48 1     
@<TRIPOS>SUBSTRUCTURE
      1 S1             1
@<TRIPOS>SET
LONE_PAIRS      STATIC     ATOMS    <user>   **** ""
3 46 47 48
DONOR_HYDROGENS      STATIC     ATOMS    <user>   **** ""
2 30 45
ATOM$BLUE        STATIC     ATOMS    COLORGROUP SYSTEM
3 46 47 48
ATOM$RED        STATIC     ATOMS    COLORGROUP SYSTEM
2 30 45
