AV-unprocessed.smi:1436|AV-procd|sdf|5862|dock10
  -GOLD-   22720 5533D 1   1.00000     0.00000
 Structure written by MMmdl.
 44 45  0  0  0  0  0  0  0  0  2 V2000
  146.7529  137.2735  158.2247 C   0  0  0  0  0  0  0  0  0  0  0  0
  146.7992  136.8931  159.6768 C   0  0  0  0  0  0  0  0  0  0  0  0
  146.2907  137.7087  160.5847 N   0  0  0  0  0  0  0  0  0  0  0  0
  146.4740  137.0737  161.8166 O   0  0  0  0  0  0  0  0  0  0  0  0
  147.0879  135.8833  161.5991 C   0  0  0  0  0  0  0  0  0  0  0  0
  147.3551  135.0375  162.7976 C   0  0  0  0  0  0  0  0  0  0  0  0
  147.3237  135.7059  160.2635 C   0  0  0  0  0  0  0  0  0  0  0  0
  147.9612  134.5322  159.5653 C   0  0  0  0  0  0  0  0  0  0  0  0
  148.8333  135.0613  158.4302 C   0  0  0  0  0  0  0  0  0  0  0  0
  149.6373  135.9678  158.6440 O   0  0  0  0  0  0  0  0  0  0  0  0
  148.6151  134.5260  157.2187 N   0  0  0  0  0  0  0  0  0  0  0  0
  149.1702  135.0099  155.9554 C   0  0  1  0  0  0  0  0  0  0  0  0
  149.1700  133.8719  154.9259 C   0  0  0  0  0  0  0  0  0  0  0  0
  148.3747  136.2371  155.4540 C   0  0  0  0  0  0  0  0  0  0  0  0
  149.2127  137.2192  154.7171 N   0  3  0  0  0  0  0  0  0  0  0  0
  148.6539  138.5927  154.7108 C   0  0  0  0  0  0  0  0  0  0  0  0
  149.5409  139.5208  153.8650 C   0  0  0  0  0  0  0  0  0  0  0  0
  150.8640  139.5142  154.3868 O   0  0  0  0  0  0  0  0  0  0  0  0
  151.4507  138.2195  154.3348 C   0  0  0  0  0  0  0  0  0  0  0  0
  150.6210  137.2357  155.1779 C   0  0  0  0  0  0  0  0  0  0  0  0
  146.1135  136.5909  157.6645 H   0  0  0  0  0  0  0  0  0  0  0  0
  147.7476  137.2356  157.7803 H   0  0  0  0  0  0  0  0  0  0  0  0
  146.3649  138.2829  158.0817 H   0  0  0  0  0  0  0  0  0  0  0  0
  146.7625  134.1232  162.7633 H   0  0  0  0  0  0  0  0  0  0  0  0
  147.1045  135.5673  163.7170 H   0  0  0  0  0  0  0  0  0  0  0  0
  148.4078  134.7583  162.8464 H   0  0  0  0  0  0  0  0  0  0  0  0
  148.5773  133.9461  160.2482 H   0  0  0  0  0  0  0  0  0  0  0  0
  147.2135  133.8468  159.1636 H   0  0  0  0  0  0  0  0  0  0  0  0
  147.9479  133.7702  157.1569 H   0  0  0  0  0  0  0  0  0  0  0  0
  150.2104  135.3061  156.0973 H   0  0  0  0  0  0  0  0  0  0  0  0
  149.5987  134.2010  153.9789 H   0  0  0  0  0  0  0  0  0  0  0  0
  148.1596  133.5128  154.7268 H   0  0  0  0  0  0  0  0  0  0  0  0
  149.7612  133.0252  155.2771 H   0  0  0  0  0  0  0  0  0  0  0  0
  147.5326  135.9266  154.8340 H   0  0  0  0  0  0  0  0  0  0  0  0
  147.9444  136.7365  156.3237 H   0  0  0  0  0  0  0  0  0  0  0  0
  147.6430  138.5932  154.3053 H   0  0  0  0  0  0  0  0  0  0  0  0
  148.5876  138.9677  155.7330 H   0  0  0  0  0  0  0  0  0  0  0  0
  149.5451  139.2101  152.8190 H   0  0  0  0  0  0  0  0  0  0  0  0
  149.1545  140.5395  153.8936 H   0  0  0  0  0  0  0  0  0  0  0  0
  151.5205  137.8827  153.3007 H   0  0  0  0  0  0  0  0  0  0  0  0
  152.4693  138.2773  154.7188 H   0  0  0  0  0  0  0  0  0  0  0  0
  150.6581  137.5199  156.2308 H   0  0  0  0  0  0  0  0  0  0  0  0
  151.0499  136.2362  155.0980 H   0  0  0  0  0  0  0  0  0  0  0  0
  149.2350  136.9092  153.7558 H   0  0  0  0  0  0  0  0  0  0  0  0
  1  2  1  0  0  0  0
  1 21  1  0  0  0  0
  1 22  1  0  0  0  0
  1 23  1  0  0  0  0
  2  7  1  0  0  0  0
  2  3  2  0  0  0  0
  3  4  1  0  0  0  0
  4  5  1  0  0  0  0
  5  6  1  0  0  0  0
  5  7  2  0  0  0  0
  6 24  1  0  0  0  0
  6 25  1  0  0  0  0
  6 26  1  0  0  0  0
  7  8  1  0  0  0  0
  8  9  1  0  0  0  0
  8 27  1  0  0  0  0
  8 28  1  0  0  0  0
  9 10  2  0  0  0  0
  9 11  1  0  0  0  0
 11 12  1  0  0  0  0
 11 29  1  0  0  0  0
 12 13  1  0  0  0  0
 12 14  1  0  0  0  0
 12 30  1  0  0  0  0
 13 31  1  0  0  0  0
 13 32  1  0  0  0  0
 13 33  1  0  0  0  0
 14 15  1  0  0  0  0
 14 34  1  0  0  0  0
 14 35  1  0  0  0  0
 15 20  1  0  0  0  0
 15 16  1  0  0  0  0
 15 44  1  0  0  0  0
 16 17  1  0  0  0  0
 16 36  1  0  0  0  0
 16 37  1  0  0  0  0
 17 18  1  0  0  0  0
 17 38  1  0  0  0  0
 17 39  1  0  0  0  0
 18 19  1  0  0  0  0
 19 20  1  0  0  0  0
 19 40  1  0  0  0  0
 19 41  1  0  0  0  0
 20 42  1  0  0  0  0
 20 43  1  0  0  0  0
M  CHG  1  15   1
M  END
> <s_m_source_file>
AV-unprocessed.smi

> <i_m_source_file_index>
1436

> <i_lp_mmshare_version>
43012

> <i_f3d_flags>
0

> <s_epik_input>
W0NIM11jMW5vYyhbQ0gzXSljMVtDSDJdQyg9TylbTkhdW0NASF0oW0NIM10pW0NIMl1OMltDSDJdW0NIMl1PW0NIMl1bQ0gyXTI=

> <s_epik_cmdline>
J2VwaWtfcHl0aG9uJywgJy1waCcsICc3LjAnLCAnLXRuJywgJzgnLCAnLW1hJywgJzIwMCcsICctbWV0YWxfYmluZGluZycsICctaW1hZScsICc8aW5maWxlLm1hZT4nLCAnLW9tYWUnLCAnPG91dGZpbGUubWFlPic=

> <r_epik_Ionization_Penalty>
0.663207

> <r_epik_Ionization_Penalty_Charging>
0.663207

> <r_epik_Ionization_Penalty_Neutral>
1.07515e-07

> <r_epik_State_Penalty>
0.682743

> <r_epik_Charging_Adjusted_Penalty>
1.34595

> <i_epik_Tot_Q>
1

> <i_epik_Tot_abs_Q>
1

> <r_epik_Metal_State_Penalty>
0.682743

> <b_epik_Metal_Only>
0

> <s_lp_Force_Field>
OPLS_2005

> <r_lp_Energy>
13.3676

> <b_lp_Chiralities_Consistent>
1

> <s_lp_Variant>
AV-unprocessed.smi:1436-4

> <Gold.Version>
5.8.1

> <Gold.Id.Protein>
6NUR|6NUR_protein|mol2

> <Gold.PLP.Fitness>
38.6178

> <Gold.PLP.PLP>
-26.3771

> <Gold.PLP.part.hbond>
-4.6143

> <Gold.PLP.part.metal>
0.0000

> <Gold.PLP.part.buried>
-1.2442

> <Gold.PLP.part.nonpolar>
-20.9532

> <Gold.PLP.part.repulsive>
0.1812

> <Gold.PLP.ligand.clash>
0.0000

> <Gold.PLP.ligand.torsion>
1.3988

> <Gold.PLP.Chemscore.Hbond>
5.0000

> <Gold.PLP.Chemscore.CHOScore>
0.0000

> <Gold.PLP.Chemscore.Metal>
0.0000

> <Gold.Chemscore.Hbonds>
donor molecule, donor type, donor heavy atom, donor atom, acceptor molecule, acceptor atom, score
      L1  H    15    44       P1  7948  2.00
      P1  H  6896  6907       L1    10  0.95
      P1  H  6934  6947       L1     3  0.85
      P1  H  7989  7998       L1    18  1.00

> <Gold.PLP.Chemscore.Internal.Correction>
0.0382

> <Gold.Rescore>
     Score         DG    S(hbond)    S(metal)    S(lipo)     H(rot)  DE(clash)    DE(int)     intcor
     16.58     -20.36       3.46        0.00      67.56       1.79       1.68       2.10       ----

> <Gold.Chemscore.Fitness>
16.5803

> <Gold.Chemscore.DG>
-20.3627

> <Gold.Chemscore.ZeroCoef>
-5.4800

> <Gold.Chemscore.Hbond>
3.4639

> <Gold.Chemscore.Metal>
0.0000

> <Gold.Chemscore.Lipo>
67.5637

> <Gold.Chemscore.Internal_Hbond>
0.0000

> <Gold.Chemscore.DEClash>
1.6834

> <Gold.Chemscore.DEInternal>
2.0990

> <Gold.Chemscore.Rot>
1.7936

> <Gold.Chemscore.Internal.Correction>
   9.000000E+99

> <Gold.Chemscore.Hbonds>
donor molecule, donor type, donor heavy atom, donor atom, acceptor molecule, acceptor atom, score
      L1  H    15    44       P1  7948  0.94
      P1  H  6896  6907       L1    10  0.20
      P1  H  6934  6947       L1     3  0.13
      P1  H  7989  7998       L1    18  0.34

> <Gold.Chemscore.Hbond.Weighted>
-11.5693

> <Gold.Chemscore.Metal.Weighted>
-0.0000

> <Gold.Chemscore.Lipo.Weighted>
-7.9050

> <Gold.Chemscore.Internal_Hbond.Weighted>
0.0000

> <Gold.Chemscore.DEClash.Weighted>
1.6834

> <Gold.Chemscore.DEInternal.Weighted>
2.0990

> <Gold.Chemscore.Rot.Weighted>
4.5916

> <Gold.Chemscore.Internal.Correction.Weighted>
   9.000000E+99

> <Gold.Protein.RotatedTorsions>
[ 6907 6896 6895 6894 ] final  -39.97 input  -60.11 | X-H torsion
[ 7974 7965 7964 7962 ] final -117.40 input  175.53 | X-H torsion
[ 8008 7997 7996 7995 ] final -149.05 input   59.86 | X-H torsion
[ 10167 10162 10161 10158 ] final   15.65 input  -65.29 | X-H torsion
[ 10718 10713 10712 10709 ] final  157.17 input   66.30 | X-H torsion
[ 10763 10752 10751 10750 ] final   -2.84 input  -60.55 | X-H torsion
[ 11005 11000 10999 10996 ] final  109.12 input  -57.11 | X-H torsion

> <Gold.Protein.ActiveResidues>
 VAL166  LYS551  ARG553  GLY616  TRP617  ASP618  TYR619  PRO620  LYS621  CYS622 
 ASP623  PHE694  ASN695  SER759  ASP760  ASP761  ALA762  ILE779  LEU786  VAL792 
 PHE793  MET794  SER795  GLU796  ALA797  LYS798  CYS799  TRP800  GLU811  SER814 

> <Gold.Protein.RotatedAtoms>
  150.9840  134.9189  159.7860 H   0  0  0  0  0  0  0  0  0  0  0  0  # atno 6907 bound_to 6896
  152.5231  134.3372  159.9214 H   0  0  0  0  0  0  0  0  0  0  0  0  # atno 6908 bound_to 6896
  151.3378  133.3933  159.2703 H   0  0  0  0  0  0  0  0  0  0  0  0  # atno 6909 bound_to 6896
  145.0856  140.8455  143.4013 H   0  0  0  0  0  0  0  0  0  0  0  0  # atno 7974 bound_to 7965
  155.6015  140.0662  157.2732 H   0  0  0  0  0  0  0  0  0  0  0  0  # atno 8008 bound_to 7997
  154.4278  140.1817  156.1225 H   0  0  0  0  0  0  0  0  0  0  0  0  # atno 8009 bound_to 7997
  156.0156  140.3322  155.6989 H   0  0  0  0  0  0  0  0  0  0  0  0  # atno 8010 bound_to 7997
  140.5852  143.8903  150.6824 H   0  0  0  0  0  0  0  0  0  0  0  0  # atno 10167 bound_to 10162
  157.1951  131.0663  151.2057 H   0  0  0  0  0  0  0  0  0  0  0  0  # atno 10718 bound_to 10713
  153.3634  135.6991  153.6694 H   0  0  0  0  0  0  0  0  0  0  0  0  # atno 10763 bound_to 10752
  153.5373  135.3580  155.2703 H   0  0  0  0  0  0  0  0  0  0  0  0  # atno 10764 bound_to 10752
  154.8671  135.4195  154.2897 H   0  0  0  0  0  0  0  0  0  0  0  0  # atno 10765 bound_to 10752
  139.8856  134.9449  156.6077 H   0  0  0  0  0  0  0  0  0  0  0  0  # atno 11005 bound_to 11000
  145.1126  139.2747  143.5629 LP  0  0  0  0  0  0  0  0  0  0  0  0  # atno 17320 bound_to 7965
  146.3531  140.0726  142.8622 LP  0  0  0  0  0  0  0  0  0  0  0  0  # atno 17321 bound_to 7965
  140.2412  143.3662  152.1485 LP  0  0  0  0  0  0  0  0  0  0  0  0  # atno 17342 bound_to 10162
  139.5193  144.7018  151.5471 LP  0  0  0  0  0  0  0  0  0  0  0  0  # atno 17343 bound_to 10162
  157.3822  130.7237  149.6638 LP  0  0  0  0  0  0  0  0  0  0  0  0  # atno 17370 bound_to 10713
  155.9707  130.4169  150.4254 LP  0  0  0  0  0  0  0  0  0  0  0  0  # atno 17371 bound_to 10713
  140.7836  133.8640  155.8587 LP  0  0  0  0  0  0  0  0  0  0  0  0  # atno 17394 bound_to 11000
  140.9739  134.1495  157.4553 LP  0  0  0  0  0  0  0  0  0  0  0  0  # atno 17395 bound_to 11000

$$$$
