AV-unprocessed.smi:2679|AV-procd|sdf|10371|dock1
  -GOLD-   2272014403D 1   1.00000     0.00000
 Structure written by MMmdl.
 39 40  0  0  0  0  0  0  0  0  1 V2000
  149.1704  135.1622  156.1713 C   0  0  0  0  0  0  0  0  0  0  0  0
  149.4122  136.3621  157.0293 C   0  0  0  0  0  0  0  0  0  0  0  0
  149.7911  136.2891  158.3065 N   0  0  0  0  0  0  0  0  0  0  0  0
  149.9006  137.5945  158.7293 N   0  0  0  0  0  0  0  0  0  0  0  0
  149.5740  138.3447  157.6733 C   0  0  0  0  0  0  0  0  0  0  0  0
  149.5448  140.1111  157.6797 S   0  0  0  0  0  0  0  0  0  0  0  0
  151.0124  140.4701  158.7021 C   0  0  1  0  0  0  0  0  0  0  0  0
  152.1512  139.7743  158.0801 C   0  0  0  0  0  0  0  0  0  0  0  0
  153.0465  139.2271  157.5922 N   0  0  0  0  0  0  0  0  0  0  0  0
  151.2631  141.9899  158.8824 C   0  0  0  0  0  0  0  0  0  0  0  0
  151.3586  142.7205  157.5220 C   0  0  0  0  0  0  0  0  0  0  0  0
  151.6059  144.2287  157.6867 C   0  0  0  0  0  0  0  0  0  0  0  0
  152.8650  144.4997  158.5202 C   0  0  0  0  0  0  0  0  0  0  0  0
  152.7755  143.7992  159.8817 C   0  0  0  0  0  0  0  0  0  0  0  0
  152.5284  142.2917  159.7185 C   0  0  0  0  0  0  0  0  0  0  0  0
  149.2655  137.6239  156.5746 N   0  0  0  0  0  0  0  0  0  0  0  0
  148.8623  138.0868  155.2526 C   0  0  0  0  0  0  0  0  0  0  0  0
  150.0347  138.7334  154.5109 C   0  0  0  0  0  0  0  0  0  0  0  0
  150.3915  138.1926  153.3436 N   0  0  0  0  0  0  0  0  0  0  0  0
  150.6194  139.7018  154.9910 O   0  0  0  0  0  0  0  0  0  0  0  0
  149.2737  134.2480  156.7564 H   0  0  0  0  0  0  0  0  0  0  0  0
  149.8916  135.1330  155.3545 H   0  0  0  0  0  0  0  0  0  0  0  0
  148.1639  135.1915  155.7537 H   0  0  0  0  0  0  0  0  0  0  0  0
  150.9050  140.0031  159.6800 H   0  0  0  0  0  0  0  0  0  0  0  0
  150.4045  142.4037  159.4135 H   0  0  0  0  0  0  0  0  0  0  0  0
  152.1619  142.2831  156.9280 H   0  0  0  0  0  0  0  0  0  0  0  0
  150.4425  142.5834  156.9476 H   0  0  0  0  0  0  0  0  0  0  0  0
  151.7016  144.6983  156.7074 H   0  0  0  0  0  0  0  0  0  0  0  0
  150.7423  144.6900  158.1675 H   0  0  0  0  0  0  0  0  0  0  0  0
  153.7457  144.1463  157.9825 H   0  0  0  0  0  0  0  0  0  0  0  0
  152.9963  145.5730  158.6605 H   0  0  0  0  0  0  0  0  0  0  0  0
  153.6934  143.9651  160.4464 H   0  0  0  0  0  0  0  0  0  0  0  0
  151.9683  144.2397  160.4682 H   0  0  0  0  0  0  0  0  0  0  0  0
  152.4428  141.8589  160.7120 H   0  0  0  0  0  0  0  0  0  0  0  0
  153.3976  141.8257  159.2521 H   0  0  0  0  0  0  0  0  0  0  0  0
  148.4577  137.2468  154.6865 H   0  0  0  0  0  0  0  0  0  0  0  0
  148.0532  138.8108  155.3507 H   0  0  0  0  0  0  0  0  0  0  0  0
  151.1592  138.5842  152.8175 H   0  0  0  0  0  0  0  0  0  0  0  0
  149.8899  137.3905  152.9899 H   0  0  0  0  0  0  0  0  0  0  0  0
  1  2  1  0  0  0  0
  1 21  1  0  0  0  0
  1 22  1  0  0  0  0
  1 23  1  0  0  0  0
  2 16  1  0  0  0  0
  2  3  2  0  0  0  0
  3  4  1  0  0  0  0
  4  5  2  0  0  0  0
  5  6  1  0  0  0  0
  5 16  1  0  0  0  0
  6  7  1  0  0  0  0
  7  8  1  0  0  0  0
  7 10  1  0  0  0  0
  7 24  1  0  0  0  0
  8  9  3  0  0  0  0
 10 15  1  0  0  0  0
 10 11  1  0  0  0  0
 10 25  1  0  0  0  0
 11 12  1  0  0  0  0
 11 26  1  0  0  0  0
 11 27  1  0  0  0  0
 12 13  1  0  0  0  0
 12 28  1  0  0  0  0
 12 29  1  0  0  0  0
 13 14  1  0  0  0  0
 13 30  1  0  0  0  0
 13 31  1  0  0  0  0
 14 15  1  0  0  0  0
 14 32  1  0  0  0  0
 14 33  1  0  0  0  0
 15 34  1  0  0  0  0
 15 35  1  0  0  0  0
 16 17  1  0  0  0  0
 17 18  1  0  0  0  0
 17 36  1  0  0  0  0
 17 37  1  0  0  0  0
 18 19  1  0  0  0  0
 18 20  2  0  0  0  0
 19 38  1  0  0  0  0
 19 39  1  0  0  0  0
M  END
> <s_m_source_file>
AV-unprocessed.smi

> <i_m_source_file_index>
2679

> <i_lp_mmshare_version>
43012

> <i_f3d_flags>
0

> <s_epik_input>
W0NIM11jMW5uYyhuMVtDSDJdQyg9TylbTkgyXSlTW0NASF0oQyNOKVtDSF0yW0NIMl1bQ0gyXVtDSDJdW0NIMl1bQ0gyXTI=

> <s_epik_cmdline>
J2VwaWtfcHl0aG9uJywgJy1waCcsICc3LjAnLCAnLXRuJywgJzgnLCAnLW1hJywgJzIwMCcsICctbWV0YWxfYmluZGluZycsICctaW1hZScsICc8aW5maWxlLm1hZT4nLCAnLW9tYWUnLCAnPG91dGZpbGUubWFlPic=

> <r_lp_tautomer_probability>
1

> <r_epik_Ionization_Penalty>
1.94949e-07

> <r_epik_Ionization_Penalty_Charging>
0

> <r_epik_Ionization_Penalty_Neutral>
1.94949e-07

> <r_epik_State_Penalty>
-0

> <r_epik_Charging_Adjusted_Penalty>
0

> <i_epik_Tot_Q>
0

> <i_epik_Tot_abs_Q>
0

> <r_epik_Metal_State_Penalty>
-0

> <b_epik_Metal_Only>
0

> <s_lp_Force_Field>
OPLS_2005

> <r_lp_Energy>
6.13609

> <b_lp_Chiralities_Consistent>
1

> <s_lp_Variant>
AV-unprocessed.smi:2679-2

> <Gold.Version>
5.8.1

> <Gold.Id.Protein>
6NUR|6NUR_protein|mol2

> <Gold.PLP.Fitness>
44.5739

> <Gold.PLP.PLP>
-34.5552

> <Gold.PLP.part.hbond>
-5.4175

> <Gold.PLP.part.metal>
0.0000

> <Gold.PLP.part.buried>
-3.5570

> <Gold.PLP.part.nonpolar>
-25.6954

> <Gold.PLP.part.repulsive>
0.1524

> <Gold.PLP.ligand.clash>
0.0000

> <Gold.PLP.ligand.torsion>
0.4297

> <Gold.PLP.Chemscore.Hbond>
3.5925

> <Gold.PLP.Chemscore.CHOScore>
0.0000

> <Gold.PLP.Chemscore.Metal>
0.0000

> <Gold.Chemscore.Hbonds>
donor molecule, donor type, donor heavy atom, donor atom, acceptor molecule, acceptor atom, score
      L1  H    19    39       P1  7948  1.00
      P1  H  6896  6909       L1     3  0.46
      P1  H  7989  7998       L1    20  0.70
      P1  H  7997  8008       L1     9  1.00

> <Gold.PLP.Chemscore.Internal.Correction>
0.1007

> <Gold.Rescore>
     Score         DG    S(hbond)    S(metal)    S(lipo)     H(rot)  DE(clash)    DE(int)     intcor
     17.53     -18.88       3.07        0.00      83.27       2.57       0.20       1.15       ----

> <Gold.Chemscore.Fitness>
17.5346

> <Gold.Chemscore.DG>
-18.8849

> <Gold.Chemscore.ZeroCoef>
-5.4800

> <Gold.Chemscore.Hbond>
3.0684

> <Gold.Chemscore.Metal>
0.0000

> <Gold.Chemscore.Lipo>
83.2729

> <Gold.Chemscore.Internal_Hbond>
0.0000

> <Gold.Chemscore.DEClash>
0.1978

> <Gold.Chemscore.DEInternal>
1.1525

> <Gold.Chemscore.Rot>
2.5728

> <Gold.Chemscore.Internal.Correction>
   9.000000E+99

> <Gold.Chemscore.Hbonds>
donor molecule, donor type, donor heavy atom, donor atom, acceptor molecule, acceptor atom, score
      L1  H    19    39       P1  7948  0.30
      P1  H  6896  6909       L1     3  0.35
      P1  H  7989  7998       L1    20  0.58
      P1  H  7997  8008       L1     9  1.00

> <Gold.Chemscore.Hbond.Weighted>
-10.2485

> <Gold.Chemscore.Metal.Weighted>
-0.0000

> <Gold.Chemscore.Lipo.Weighted>
-9.7429

> <Gold.Chemscore.Internal_Hbond.Weighted>
0.0000

> <Gold.Chemscore.DEClash.Weighted>
0.1978

> <Gold.Chemscore.DEInternal.Weighted>
1.1525

> <Gold.Chemscore.Rot.Weighted>
6.5865

> <Gold.Chemscore.Internal.Correction.Weighted>
   9.000000E+99

> <Gold.Protein.RotatedTorsions>
[ 6907 6896 6895 6894 ] final   72.29 input  -60.11 | X-H torsion
[ 7974 7965 7964 7962 ] final   32.58 input  175.53 | X-H torsion
[ 8008 7997 7996 7995 ] final  -67.64 input   59.86 | X-H torsion
[ 10167 10162 10161 10158 ] final  116.75 input  -65.29 | X-H torsion
[ 10718 10713 10712 10709 ] final   -1.50 input   66.30 | X-H torsion
[ 10763 10752 10751 10750 ] final   73.35 input  -60.55 | X-H torsion
[ 11005 11000 10999 10996 ] final  162.12 input  -57.11 | X-H torsion

> <Gold.Protein.ActiveResidues>
 VAL166  LYS551  ARG553  GLY616  TRP617  ASP618  TYR619  PRO620  LYS621  CYS622 
 ASP623  PHE694  ASN695  SER759  ASP760  ASP761  ALA762  ILE779  LEU786  VAL792 
 PHE793  MET794  SER795  GLU796  ALA797  LYS798  CYS799  TRP800  GLU811  SER814 

> <Gold.Protein.RotatedAtoms>
  152.4859  134.4593  159.9599 H   0  0  0  0  0  0  0  0  0  0  0  0  # atno 6907 bound_to 6896
  151.4589  133.3592  159.2814 H   0  0  0  0  0  0  0  0  0  0  0  0  # atno 6908 bound_to 6896
  150.8970  134.8404  159.7394 H   0  0  0  0  0  0  0  0  0  0  0  0  # atno 6909 bound_to 6896
  146.1477  139.6507  142.9120 H   0  0  0  0  0  0  0  0  0  0  0  0  # atno 7974 bound_to 7965
  154.4813  140.0888  156.7385 H   0  0  0  0  0  0  0  0  0  0  0  0  # atno 8008 bound_to 7997
  155.4462  140.3455  155.4277 H   0  0  0  0  0  0  0  0  0  0  0  0  # atno 8009 bound_to 7997
  156.1196  140.1470  156.9212 H   0  0  0  0  0  0  0  0  0  0  0  0  # atno 8010 bound_to 7997
  139.6226  144.7103  151.2602 H   0  0  0  0  0  0  0  0  0  0  0  0  # atno 10167 bound_to 10162
  156.8047  130.5404  149.5717 H   0  0  0  0  0  0  0  0  0  0  0  0  # atno 10718 bound_to 10713
  153.0516  135.5066  154.7881 H   0  0  0  0  0  0  0  0  0  0  0  0  # atno 10763 bound_to 10752
  154.6738  135.2957  154.9708 H   0  0  0  0  0  0  0  0  0  0  0  0  # atno 10764 bound_to 10752
  154.0517  135.6703  153.4854 H   0  0  0  0  0  0  0  0  0  0  0  0  # atno 10765 bound_to 10752
  140.2226  134.8184  157.3236 H   0  0  0  0  0  0  0  0  0  0  0  0  # atno 11005 bound_to 11000
  145.4899  141.0438  143.2599 LP  0  0  0  0  0  0  0  0  0  0  0  0  # atno 17320 bound_to 7965
  144.7866  139.6415  143.7131 LP  0  0  0  0  0  0  0  0  0  0  0  0  # atno 17321 bound_to 7965
  140.7391  143.6628  150.8149 LP  0  0  0  0  0  0  0  0  0  0  0  0  # atno 17342 bound_to 10162
  140.0241  143.5512  152.2788 LP  0  0  0  0  0  0  0  0  0  0  0  0  # atno 17343 bound_to 10162
  156.1080  130.6019  151.0002 LP  0  0  0  0  0  0  0  0  0  0  0  0  # atno 17370 bound_to 10713
  157.6536  131.0893  150.7997 LP  0  0  0  0  0  0  0  0  0  0  0  0  # atno 17371 bound_to 10713
  140.1834  134.4462  155.7758 LP  0  0  0  0  0  0  0  0  0  0  0  0  # atno 17394 bound_to 11000
  141.2222  133.6994  156.7906 LP  0  0  0  0  0  0  0  0  0  0  0  0  # atno 17395 bound_to 11000

$$$$
