AV-unprocessed.smi:869|AV-procd|sdf|4004|dock10
  -GOLD-   22720 1493D 1   1.00000     0.00000
 Structure written by MMmdl.
 46 48  0  0  0  0  0  0  0  0  1 V2000
  153.5085  137.1969  161.3744 C   0  0  0  0  0  0  0  0  0  0  0  0
  152.7184  136.9077  160.2349 O   0  0  0  0  0  0  0  0  0  0  0  0
  153.2529  137.4711  159.0473 C   0  0  0  0  0  0  0  0  0  0  0  0
  152.8780  138.9258  159.0287 C   0  0  0  0  0  0  0  0  0  0  0  0
  153.4041  139.7977  159.8918 N   0  0  0  0  0  0  0  0  0  0  0  0
  152.8042  140.9877  159.5320 C   0  0  0  0  0  0  0  0  0  0  0  0
  152.9508  142.2885  160.0647 C   0  0  0  0  0  0  0  0  0  0  0  0
  152.2212  143.3675  159.5241 C   0  0  0  0  0  0  0  0  0  0  0  0
  151.3362  143.1615  158.4459 C   0  0  0  0  0  0  0  0  0  0  0  0
  151.1746  141.8729  157.9015 C   0  0  0  0  0  0  0  0  0  0  0  0
  151.9057  140.7994  158.4450 C   0  0  0  0  0  0  0  0  0  0  0  0
  151.9766  139.4410  158.1519 N   0  0  0  0  0  0  0  0  0  0  0  0
  151.2200  138.7598  157.1096 C   0  0  0  0  0  0  0  0  0  0  0  0
  152.0886  138.4091  155.8835 C   0  0  1  0  0  0  0  0  0  0  0  0
  152.2676  137.0139  155.7420 O   0  0  0  0  0  0  0  0  0  0  0  0
  151.5524  138.9835  154.5623 C   0  0  0  0  0  0  0  0  0  0  0  0
  150.2113  138.5550  154.3581 O   0  0  0  0  0  0  0  0  0  0  0  0
  149.2376  139.5138  154.1790 C   0  0  0  0  0  0  0  0  0  0  0  0
  149.4832  140.7858  154.7356 C   0  0  0  0  0  0  0  0  0  0  0  0
  148.5436  141.8258  154.6015 C   0  0  0  0  0  0  0  0  0  0  0  0
  147.3398  141.6051  153.9044 C   0  0  0  0  0  0  0  0  0  0  0  0
  146.3301  142.7256  153.7656 C   0  0  0  0  0  0  0  0  0  0  0  0
  147.0830  140.3376  153.3444 C   0  0  0  0  0  0  0  0  0  0  0  0
  148.0239  139.2978  153.4789 C   0  0  0  0  0  0  0  0  0  0  0  0
  153.0510  136.7528  162.2586 H   0  0  0  0  0  0  0  0  0  0  0  0
  153.5859  138.2724  161.5399 H   0  0  0  0  0  0  0  0  0  0  0  0
  154.5132  136.7845  161.2715 H   0  0  0  0  0  0  0  0  0  0  0  0
  154.3338  137.3376  159.0391 H   0  0  0  0  0  0  0  0  0  0  0  0
  152.8388  136.9838  158.1633 H   0  0  0  0  0  0  0  0  0  0  0  0
  153.6268  142.4558  160.8901 H   0  0  0  0  0  0  0  0  0  0  0  0
  152.3418  144.3578  159.9383 H   0  0  0  0  0  0  0  0  0  0  0  0
  150.7816  143.9934  158.0370 H   0  0  0  0  0  0  0  0  0  0  0  0
  150.4977  141.7115  157.0756 H   0  0  0  0  0  0  0  0  0  0  0  0
  150.7397  137.8756  157.5271 H   0  0  0  0  0  0  0  0  0  0  0  0
  150.4051  139.4159  156.8016 H   0  0  0  0  0  0  0  0  0  0  0  0
  153.0859  138.8218  156.0408 H   0  0  0  0  0  0  0  0  0  0  0  0
  152.0675  136.6012  156.5683 H   0  0  0  0  0  0  0  0  0  0  0  0
  151.5727  140.0730  154.6198 H   0  0  0  0  0  0  0  0  0  0  0  0
  152.1930  138.6826  153.7313 H   0  0  0  0  0  0  0  0  0  0  0  0
  150.4031  140.9666  155.2722 H   0  0  0  0  0  0  0  0  0  0  0  0
  148.7494  142.7933  155.0356 H   0  0  0  0  0  0  0  0  0  0  0  0
  145.5487  142.4697  153.0494 H   0  0  0  0  0  0  0  0  0  0  0  0
  146.8187  143.6378  153.4219 H   0  0  0  0  0  0  0  0  0  0  0  0
  145.8594  142.9289  154.7277 H   0  0  0  0  0  0  0  0  0  0  0  0
  146.1624  140.1562  152.8092 H   0  0  0  0  0  0  0  0  0  0  0  0
  147.7891  138.3420  153.0358 H   0  0  0  0  0  0  0  0  0  0  0  0
  1  2  1  0  0  0  0
  1 25  1  0  0  0  0
  1 26  1  0  0  0  0
  1 27  1  0  0  0  0
  2  3  1  0  0  0  0
  3  4  1  0  0  0  0
  3 28  1  0  0  0  0
  3 29  1  0  0  0  0
  4 12  1  0  0  0  0
  4  5  2  0  0  0  0
  5  6  1  0  0  0  0
  6 11  2  0  0  0  0
  6  7  1  0  0  0  0
  7  8  2  0  0  0  0
  7 30  1  0  0  0  0
  8  9  1  0  0  0  0
  8 31  1  0  0  0  0
  9 10  2  0  0  0  0
  9 32  1  0  0  0  0
 10 11  1  0  0  0  0
 10 33  1  0  0  0  0
 11 12  1  0  0  0  0
 12 13  1  0  0  0  0
 13 14  1  0  0  0  0
 13 34  1  0  0  0  0
 13 35  1  0  0  0  0
 14 15  1  0  0  0  0
 14 16  1  0  0  0  0
 14 36  1  0  0  0  0
 15 37  1  0  0  0  0
 16 17  1  0  0  0  0
 16 38  1  0  0  0  0
 16 39  1  0  0  0  0
 17 18  1  0  0  0  0
 18 24  1  0  0  0  0
 18 19  2  0  0  0  0
 19 20  1  0  0  0  0
 19 40  1  0  0  0  0
 20 21  2  0  0  0  0
 20 41  1  0  0  0  0
 21 22  1  0  0  0  0
 21 23  1  0  0  0  0
 22 42  1  0  0  0  0
 22 43  1  0  0  0  0
 22 44  1  0  0  0  0
 23 24  2  0  0  0  0
 23 45  1  0  0  0  0
 24 46  1  0  0  0  0
M  END
> <s_m_source_file>
AV-unprocessed.smi

> <i_m_source_file_index>
869

> <i_lp_mmshare_version>
43012

> <i_f3d_flags>
0

> <s_epik_input>
W2NIXTFbY0hdW2NIXVtjSF1jKGMxMiluKGMobjIpW0NIMl1PW0NIM10pW0NIMl1bQ0BIXShbT0hdKVtDSDJdT2MzW2NIXVtjSF1jKFtDSDNdKVtjSF1bY0hdMw==

> <s_epik_cmdline>
J2VwaWtfcHl0aG9uJywgJy1waCcsICc3LjAnLCAnLXRuJywgJzgnLCAnLW1hJywgJzIwMCcsICctbWV0YWxfYmluZGluZycsICctaW1hZScsICc8aW5maWxlLm1hZT4nLCAnLW9tYWUnLCAnPG91dGZpbGUubWFlPic=

> <r_lp_tautomer_probability>
1

> <r_epik_Ionization_Penalty>
0.0446698

> <r_epik_Ionization_Penalty_Charging>
0

> <r_epik_Ionization_Penalty_Neutral>
0.0446698

> <r_epik_State_Penalty>
0.0378721

> <r_epik_Charging_Adjusted_Penalty>
0.0378721

> <i_epik_Tot_Q>
0

> <i_epik_Tot_abs_Q>
0

> <r_epik_Metal_State_Penalty>
3.91074e-05

> <b_epik_Metal_Only>
0

> <s_lp_Force_Field>
OPLS_2005

> <r_lp_Energy>
18.5204

> <b_lp_Chiralities_Consistent>
1

> <s_lp_Variant>
AV-unprocessed.smi:869-2

> <Gold.Version>
5.8.1

> <Gold.Id.Protein>
6NUR|6NUR_protein|mol2

> <Gold.PLP.Fitness>
49.9759

> <Gold.PLP.PLP>
-48.2670

> <Gold.PLP.part.hbond>
-1.9684

> <Gold.PLP.part.metal>
0.0000

> <Gold.PLP.part.buried>
-2.5516

> <Gold.PLP.part.nonpolar>
-43.6361

> <Gold.PLP.part.repulsive>
0.2030

> <Gold.PLP.ligand.clash>
0.0153

> <Gold.PLP.ligand.torsion>
1.8449

> <Gold.PLP.Chemscore.Hbond>
1.7840

> <Gold.PLP.Chemscore.CHOScore>
0.0000

> <Gold.PLP.Chemscore.Metal>
0.0000

> <Gold.Chemscore.Hbonds>
donor molecule, donor type, donor heavy atom, donor atom, acceptor molecule, acceptor atom, score
      P1  H  6896  6908       L1     2  1.00
      P1  H 10752 10763       L1    15  0.85

> <Gold.PLP.Chemscore.Internal.Correction>
0.0620

> <Gold.Rescore>
     Score         DG    S(hbond)    S(metal)    S(lipo)     H(rot)  DE(clash)    DE(int)     intcor
     18.96     -20.97       1.71        0.00     135.11       2.36       0.03       1.98       ----

> <Gold.Chemscore.Fitness>
18.9607

> <Gold.Chemscore.DG>
-20.9739

> <Gold.Chemscore.ZeroCoef>
-5.4800

> <Gold.Chemscore.Hbond>
1.7138

> <Gold.Chemscore.Metal>
0.0000

> <Gold.Chemscore.Lipo>
135.1063

> <Gold.Chemscore.Internal_Hbond>
0.0000

> <Gold.Chemscore.DEClash>
0.0323

> <Gold.Chemscore.DEInternal>
1.9809

> <Gold.Chemscore.Rot>
2.3585

> <Gold.Chemscore.Internal.Correction>
   9.000000E+99

> <Gold.Chemscore.Hbonds>
donor molecule, donor type, donor heavy atom, donor atom, acceptor molecule, acceptor atom, score
      P1  H  6896  6908       L1     2  0.87
      P1  H 10752 10763       L1    15  0.29

> <Gold.Chemscore.Hbond.Weighted>
-5.7242

> <Gold.Chemscore.Metal.Weighted>
-0.0000

> <Gold.Chemscore.Lipo.Weighted>
-15.8074

> <Gold.Chemscore.Internal_Hbond.Weighted>
0.0000

> <Gold.Chemscore.DEClash.Weighted>
0.0323

> <Gold.Chemscore.DEInternal.Weighted>
1.9809

> <Gold.Chemscore.Rot.Weighted>
6.0378

> <Gold.Chemscore.Internal.Correction.Weighted>
   9.000000E+99

> <Gold.Protein.RotatedTorsions>
[ 6907 6896 6895 6894 ] final  -96.44 input  -60.11 | X-H torsion
[ 7974 7965 7964 7962 ] final -133.20 input  175.53 | X-H torsion
[ 8008 7997 7996 7995 ] final  -41.69 input   59.86 | X-H torsion
[ 10167 10162 10161 10158 ] final  139.86 input  -65.29 | X-H torsion
[ 10718 10713 10712 10709 ] final  -15.48 input   66.30 | X-H torsion
[ 10763 10752 10751 10750 ] final   67.37 input  -60.55 | X-H torsion
[ 11005 11000 10999 10996 ] final   20.07 input  -57.11 | X-H torsion

> <Gold.Protein.ActiveResidues>
 VAL166  LYS551  ARG553  GLY616  TRP617  ASP618  TYR619  PRO620  LYS621  CYS622 
 ASP623  PHE694  ASN695  SER759  ASP760  ASP761  ALA762  ILE779  LEU786  VAL792 
 PHE793  MET794  SER795  GLU796  ALA797  LYS798  CYS799  TRP800  GLU811  SER814 

> <Gold.Protein.RotatedAtoms>
  150.6989  134.1503  159.4137 H   0  0  0  0  0  0  0  0  0  0  0  0  # atno 6907 bound_to 6896
  151.9486  135.0177  160.0550 H   0  0  0  0  0  0  0  0  0  0  0  0  # atno 6908 bound_to 6896
  152.2031  133.4820  159.5106 H   0  0  0  0  0  0  0  0  0  0  0  0  # atno 6909 bound_to 6896
  144.9215  140.7019  143.4962 H   0  0  0  0  0  0  0  0  0  0  0  0  # atno 7974 bound_to 7965
  154.4002  140.1493  156.3232 H   0  0  0  0  0  0  0  0  0  0  0  0  # atno 8008 bound_to 7997
  155.8511  140.3458  155.5672 H   0  0  0  0  0  0  0  0  0  0  0  0  # atno 8009 bound_to 7997
  155.7983  140.0866  157.1961 H   0  0  0  0  0  0  0  0  0  0  0  0  # atno 8010 bound_to 7997
  139.5066  144.6269  151.5915 H   0  0  0  0  0  0  0  0  0  0  0  0  # atno 10167 bound_to 10162
  156.6012  130.4824  149.6239 H   0  0  0  0  0  0  0  0  0  0  0  0  # atno 10718 bound_to 10713
  153.0183  135.5286  154.6968 H   0  0  0  0  0  0  0  0  0  0  0  0  # atno 10763 bound_to 10752
  154.6088  135.2876  155.0457 H   0  0  0  0  0  0  0  0  0  0  0  0  # atno 10764 bound_to 10752
  154.1487  135.6566  153.5011 H   0  0  0  0  0  0  0  0  0  0  0  0  # atno 10765 bound_to 10752
  140.4067  134.1661  155.7665 H   0  0  0  0  0  0  0  0  0  0  0  0  # atno 11005 bound_to 11000
  145.3289  139.1765  143.4548 LP  0  0  0  0  0  0  0  0  0  0  0  0  # atno 17320 bound_to 7965
  146.3207  140.3316  142.8641 LP  0  0  0  0  0  0  0  0  0  0  0  0  # atno 17321 bound_to 7965
  140.5989  143.9646  150.6372 LP  0  0  0  0  0  0  0  0  0  0  0  0  # atno 17342 bound_to 10162
  140.2851  143.3362  152.1115 LP  0  0  0  0  0  0  0  0  0  0  0  0  # atno 17343 bound_to 10162
  156.2467  130.6883  151.1607 LP  0  0  0  0  0  0  0  0  0  0  0  0  # atno 17370 bound_to 10713
  157.7279  131.0636  150.5845 LP  0  0  0  0  0  0  0  0  0  0  0  0  # atno 17371 bound_to 10713
  141.1836  133.8360  157.1168 LP  0  0  0  0  0  0  0  0  0  0  0  0  # atno 17394 bound_to 11000
  140.0297  134.9907  157.0755 LP  0  0  0  0  0  0  0  0  0  0  0  0  # atno 17395 bound_to 11000

$$$$
