AV-unprocessed.smi:994|AV-procd|sdf|4341|dock5
  -GOLD-   22720 2243D 1   1.00000     0.00000
 Structure written by MMmdl.
 37 38  0  0  0  0  0  0  0  0  2 V2000
  151.4183  138.7639  157.6472 O   0  0  0  0  0  0  0  0  0  0  0  0
  151.4669  139.9522  157.3272 C   0  0  0  0  0  0  0  0  0  0  0  0
  151.4542  140.3776  156.0548 N   0  0  0  0  0  0  0  0  0  0  0  0
  151.3562  139.5285  154.8683 C   0  0  2  0  0  0  0  0  0  0  0  0
  149.8974  139.0443  154.7225 C   0  0  0  0  0  0  0  0  0  0  0  0
  148.9182  140.1312  154.3480 C   0  0  0  0  0  0  0  0  0  0  0  0
  148.8961  141.4801  154.6279 C   0  0  0  0  0  0  0  0  0  0  0  0
  147.7774  142.0701  154.0339 N   0  0  0  0  0  0  0  0  0  0  0  0
  147.1685  141.0623  153.4196 C   0  0  0  0  0  0  0  0  0  0  0  0
  147.7956  139.8932  153.5735 N   0  0  0  0  0  0  0  0  0  0  0  0
  152.2792  138.3117  155.0326 C   0  0  0  0  0  0  0  0  0  0  0  0
  151.7465  137.1826  154.9619 O   0  0  0  0  0  0  0  0  0  0  0  0
  153.4973  138.5252  155.2294 O   0  5  0  0  0  0  0  0  0  0  0  0
  151.5601  141.0403  158.4046 C   0  0  0  0  0  0  0  0  0  0  0  0
  151.4604  142.4461  157.7752 C   0  0  0  0  0  0  0  0  0  0  0  0
  151.5639  143.5462  158.8445 C   0  0  0  0  0  0  0  0  0  0  0  0
  152.8564  143.4060  159.6646 C   0  0  0  0  0  0  0  0  0  0  0  0
  152.9695  142.0064  160.2894 C   0  0  0  0  0  0  0  0  0  0  0  0
  152.8652  140.9082  159.2184 C   0  0  0  0  0  0  0  0  0  0  0  0
  147.5134  139.0037  153.1866 H   0  0  0  0  0  0  0  0  0  0  0  0
  151.4802  141.3729  155.8892 H   0  0  0  0  0  0  0  0  0  0  0  0
  151.6433  140.0797  153.9705 H   0  0  0  0  0  0  0  0  0  0  0  0
  149.8412  138.2666  153.9595 H   0  0  0  0  0  0  0  0  0  0  0  0
  149.5507  138.5881  155.6514 H   0  0  0  0  0  0  0  0  0  0  0  0
  149.5973  142.0681  155.2016 H   0  0  0  0  0  0  0  0  0  0  0  0
  146.2576  141.1766  152.8507 H   0  0  0  0  0  0  0  0  0  0  0  0
  150.7203  140.9151  159.0908 H   0  0  0  0  0  0  0  0  0  0  0  0
  152.2535  142.5861  157.0388 H   0  0  0  0  0  0  0  0  0  0  0  0
  150.5176  142.5498  157.2358 H   0  0  0  0  0  0  0  0  0  0  0  0
  151.5283  144.5284  158.3722 H   0  0  0  0  0  0  0  0  0  0  0  0
  150.7009  143.4912  159.5091 H   0  0  0  0  0  0  0  0  0  0  0  0
  153.7184  143.5893  159.0218 H   0  0  0  0  0  0  0  0  0  0  0  0
  152.8858  144.1656  160.4461 H   0  0  0  0  0  0  0  0  0  0  0  0
  153.9144  141.9138  160.8252 H   0  0  0  0  0  0  0  0  0  0  0  0
  152.1797  141.8709  161.0292 H   0  0  0  0  0  0  0  0  0  0  0  0
  152.9126  139.9281  159.6954 H   0  0  0  0  0  0  0  0  0  0  0  0
  153.7306  140.9707  158.5567 H   0  0  0  0  0  0  0  0  0  0  0  0
  1  2  2  0  0  0  0
  2  3  1  0  0  0  0
  2 14  1  0  0  0  0
  3  4  1  0  0  0  0
  3 21  1  0  0  0  0
  4  5  1  0  0  0  0
  4 11  1  0  0  0  0
  4 22  1  0  0  0  0
  5 23  1  0  0  0  0
  5 24  1  0  0  0  0
  5  6  1  0  0  0  0
  6  7  2  0  0  0  0
  6 10  1  0  0  0  0
  7 25  1  0  0  0  0
  7  8  1  0  0  0  0
  8  9  2  0  0  0  0
  9 10  1  0  0  0  0
  9 26  1  0  0  0  0
 10 20  1  0  0  0  0
 11 12  2  0  0  0  0
 11 13  1  0  0  0  0
 14 19  1  0  0  0  0
 14 15  1  0  0  0  0
 14 27  1  0  0  0  0
 15 16  1  0  0  0  0
 15 28  1  0  0  0  0
 15 29  1  0  0  0  0
 16 17  1  0  0  0  0
 16 30  1  0  0  0  0
 16 31  1  0  0  0  0
 17 18  1  0  0  0  0
 17 32  1  0  0  0  0
 17 33  1  0  0  0  0
 18 19  1  0  0  0  0
 18 34  1  0  0  0  0
 18 35  1  0  0  0  0
 19 36  1  0  0  0  0
 19 37  1  0  0  0  0
M  CHG  1  13  -1
M  END
> <s_m_source_file>
AV-unprocessed.smi

> <i_m_source_file_index>
994

> <i_lp_mmshare_version>
43012

> <i_f3d_flags>
0

> <s_epik_input>
W0NIMl0xW0NIMl1bQ0gyXVtDSDJdW0NIMl1bQ0hdMUMoPU8pW05IXVtDQEBIXShDKD1PKVtPSF0pW0NIMl1jMltjSF1bbkhdW2NIXW4y

> <s_epik_cmdline>
J2VwaWtfcHl0aG9uJywgJy1waCcsICc3LjAnLCAnLXRuJywgJzgnLCAnLW1hJywgJzIwMCcsICctbWV0YWxfYmluZGluZycsICctaW1hZScsICc8aW5maWxlLm1hZT4nLCAnLW9tYWUnLCAnPG91dGZpbGUubWFlPic=

> <r_lp_tautomer_probability>
0.5

> <r_epik_Ionization_Penalty>
0.540742

> <r_epik_Ionization_Penalty_Charging>
0.540742

> <r_epik_Ionization_Penalty_Neutral>
4.77468e-08

> <r_epik_State_Penalty>
0.78427

> <r_epik_Charging_Adjusted_Penalty>
1.32501

> <i_epik_Tot_Q>
-1

> <i_epik_Tot_abs_Q>
1

> <r_epik_Metal_State_Penalty>
0.663709

> <b_epik_Metal_Only>
0

> <s_lp_Force_Field>
OPLS_2005

> <r_lp_Energy>
10.7007

> <b_lp_Chiralities_Consistent>
1

> <s_lp_Variant>
AV-unprocessed.smi:994-3

> <Gold.Version>
5.8.1

> <Gold.Id.Protein>
6NUR|6NUR_protein|mol2

> <Gold.PLP.Fitness>
51.0731

> <Gold.PLP.PLP>
-38.8959

> <Gold.PLP.part.hbond>
-3.0000

> <Gold.PLP.part.metal>
0.0000

> <Gold.PLP.part.buried>
-4.2845

> <Gold.PLP.part.nonpolar>
-33.4565

> <Gold.PLP.part.repulsive>
0.4741

> <Gold.PLP.ligand.clash>
2.1431

> <Gold.PLP.ligand.torsion>
0.6815

> <Gold.PLP.Chemscore.Hbond>
3.8720

> <Gold.PLP.Chemscore.CHOScore>
1.3370

> <Gold.PLP.Chemscore.Metal>
0.0000

> <Gold.Chemscore.Hbonds>
donor molecule, donor type, donor heavy atom, donor atom, acceptor molecule, acceptor atom, score
      P1  H  7997  8008       L1    13  1.73
      P1  H 10752 10765       L1    12  2.00
      L1  C     7    25       P1  8028  0.27
      L1  C     9    26       P1 10175  0.54

> <Gold.PLP.Chemscore.Internal.Correction>
0.0563

> <Gold.Rescore>
     Score         DG    S(hbond)    S(metal)    S(lipo)     H(rot)  DE(clash)    DE(int)     intcor
     12.87     -14.81       1.72        0.00      88.82       2.66       0.08       1.86       ----

> <Gold.Chemscore.Fitness>
12.8725

> <Gold.Chemscore.DG>
-14.8147

> <Gold.Chemscore.ZeroCoef>
-5.4800

> <Gold.Chemscore.Hbond>
1.7207

> <Gold.Chemscore.Metal>
0.0000

> <Gold.Chemscore.Lipo>
88.8240

> <Gold.Chemscore.Internal_Hbond>
0.0000

> <Gold.Chemscore.DEClash>
0.0799

> <Gold.Chemscore.DEInternal>
1.8623

> <Gold.Chemscore.Rot>
2.6581

> <Gold.Chemscore.Internal.Correction>
   9.000000E+99

> <Gold.Chemscore.Hbonds>
donor molecule, donor type, donor heavy atom, donor atom, acceptor molecule, acceptor atom, score
      P1  H  7997  8008       L1    13  0.79
      P1  H 10752 10765       L1    12  0.82

> <Gold.Chemscore.Hbond.Weighted>
-5.7471

> <Gold.Chemscore.Metal.Weighted>
-0.0000

> <Gold.Chemscore.Lipo.Weighted>
-10.3924

> <Gold.Chemscore.Internal_Hbond.Weighted>
0.0000

> <Gold.Chemscore.DEClash.Weighted>
0.0799

> <Gold.Chemscore.DEInternal.Weighted>
1.8623

> <Gold.Chemscore.Rot.Weighted>
6.8048

> <Gold.Chemscore.Internal.Correction.Weighted>
   9.000000E+99

> <Gold.Protein.RotatedTorsions>
[ 6907 6896 6895 6894 ] final -168.58 input  -60.11 | X-H torsion
[ 7974 7965 7964 7962 ] final -104.87 input  175.53 | X-H torsion
[ 8008 7997 7996 7995 ] final  -13.66 input   59.86 | X-H torsion
[ 10167 10162 10161 10158 ] final   90.16 input  -65.29 | X-H torsion
[ 10718 10713 10712 10709 ] final   20.92 input   66.30 | X-H torsion
[ 10763 10752 10751 10750 ] final  166.20 input  -60.55 | X-H torsion
[ 11005 11000 10999 10996 ] final   -9.84 input  -57.11 | X-H torsion

> <Gold.Protein.ActiveResidues>
 VAL166  LYS551  ARG553  GLY616  TRP617  ASP618  TYR619  PRO620  LYS621  CYS622 
 ASP623  PHE694  ASN695  SER759  ASP760  ASP761  ALA762  ILE779  LEU786  VAL792 
 PHE793  MET794  SER795  GLU796  ALA797  LYS798  CYS799  TRP800  GLU811  SER814 

> <Gold.Protein.RotatedAtoms>
  151.4779  133.3553  159.2833 H   0  0  0  0  0  0  0  0  0  0  0  0  # atno 6907 bound_to 6896
  150.8917  134.8323  159.7309 H   0  0  0  0  0  0  0  0  0  0  0  0  # atno 6908 bound_to 6896
  152.4827  134.4689  159.9681 H   0  0  0  0  0  0  0  0  0  0  0  0  # atno 6909 bound_to 6896
  145.2377  140.9194  143.3168 H   0  0  0  0  0  0  0  0  0  0  0  0  # atno 7974 bound_to 7965
  154.5274  140.2244  155.8865 H   0  0  0  0  0  0  0  0  0  0  0  0  # atno 8008 bound_to 7997
  156.1728  140.3118  155.8968 H   0  0  0  0  0  0  0  0  0  0  0  0  # atno 8009 bound_to 7997
  155.3523  140.0456  157.3037 H   0  0  0  0  0  0  0  0  0  0  0  0  # atno 8010 bound_to 7997
  139.8501  144.6598  150.9180 H   0  0  0  0  0  0  0  0  0  0  0  0  # atno 10167 bound_to 10162
  157.1312  130.6592  149.5952 H   0  0  0  0  0  0  0  0  0  0  0  0  # atno 10718 bound_to 10713
  154.3355  135.2754  155.2450 H   0  0  0  0  0  0  0  0  0  0  0  0  # atno 10763 bound_to 10752
  154.4743  135.5875  153.6347 H   0  0  0  0  0  0  0  0  0  0  0  0  # atno 10764 bound_to 10752
  152.9862  135.6096  154.3551 H   0  0  0  0  0  0  0  0  0  0  0  0  # atno 10765 bound_to 10752
  140.7384  133.8691  155.8948 H   0  0  0  0  0  0  0  0  0  0  0  0  # atno 11005 bound_to 11000
  144.9618  139.3972  143.6352 LP  0  0  0  0  0  0  0  0  0  0  0  0  # atno 17320 bound_to 7965
  146.3336  139.8674  142.8846 LP  0  0  0  0  0  0  0  0  0  0  0  0  # atno 17321 bound_to 7965
  140.7788  143.3835  151.1434 LP  0  0  0  0  0  0  0  0  0  0  0  0  # atno 17342 bound_to 10162
  139.7474  143.8831  152.3067 LP  0  0  0  0  0  0  0  0  0  0  0  0  # atno 17343 bound_to 10162
  155.9807  130.4810  150.6790 LP  0  0  0  0  0  0  0  0  0  0  0  0  # atno 17370 bound_to 10713
  157.4390  131.0859  151.0962 LP  0  0  0  0  0  0  0  0  0  0  0  0  # atno 17371 bound_to 10713
  140.9859  134.1344  157.4453 LP  0  0  0  0  0  0  0  0  0  0  0  0  # atno 17394 bound_to 11000
  139.8811  135.0025  156.6131 LP  0  0  0  0  0  0  0  0  0  0  0  0  # atno 17395 bound_to 11000

$$$$
