AV-unprocessed.smi:2758|AV-procd|sdf|10622|dock7
  -GOLD-   2272015 73D 1   1.00000     0.00000
 Structure written by MMmdl.
 32 33  0  0  0  0  0  0  0  0  1 V2000
  146.3065  142.8016  153.9920 C   0  0  0  0  0  0  0  0  0  0  0  0
  147.6548  142.3662  154.0083 O   0  0  0  0  0  0  0  0  0  0  0  0
  147.9509  141.5595  155.1366 C   0  0  0  0  0  0  0  0  0  0  0  0
  149.3691  140.9865  154.9903 C   0  0  1  0  0  0  0  0  0  0  0  0
  149.6447  140.8283  153.6124 O   0  0  0  0  0  0  0  0  0  0  0  0
  150.4300  141.9154  155.6144 C   0  0  0  0  0  0  0  0  0  0  0  0
  151.2496  141.2416  156.6131 N   0  0  0  0  0  0  0  0  0  0  0  0
  151.8564  140.0314  156.5284 C   0  0  0  0  0  0  0  0  0  0  0  0
  151.7520  139.1758  155.3060 C   0  0  0  0  0  0  0  0  0  0  0  0
  152.5543  139.6543  157.6000 N   0  0  0  0  0  0  0  0  0  0  0  0
  152.3877  140.7218  158.4608 C   0  0  0  0  0  0  0  0  0  0  0  0
  152.8847  140.9348  159.7666 C   0  0  0  0  0  0  0  0  0  0  0  0
  152.5810  142.1245  160.4606 C   0  0  0  0  0  0  0  0  0  0  0  0
  151.7769  143.1155  159.8609 C   0  0  0  0  0  0  0  0  0  0  0  0
  151.2706  142.9229  158.5610 C   0  0  0  0  0  0  0  0  0  0  0  0
  151.5774  141.7339  157.8725 C   0  0  0  0  0  0  0  0  0  0  0  0
  149.4206  140.0105  155.4747 H   0  0  0  0  0  0  0  0  0  0  0  0
  146.1269  143.4051  153.1025 H   0  0  0  0  0  0  0  0  0  0  0  0
  146.0807  143.4147  154.8654 H   0  0  0  0  0  0  0  0  0  0  0  0
  145.6175  141.9565  153.9697 H   0  0  0  0  0  0  0  0  0  0  0  0
  147.8479  142.1207  156.0674 H   0  0  0  0  0  0  0  0  0  0  0  0
  147.2269  140.7436  155.1703 H   0  0  0  0  0  0  0  0  0  0  0  0
  149.0367  140.1970  153.2583 H   0  0  0  0  0  0  0  0  0  0  0  0
  151.0688  142.3400  154.8398 H   0  0  0  0  0  0  0  0  0  0  0  0
  149.9424  142.7617  156.1000 H   0  0  0  0  0  0  0  0  0  0  0  0
  152.2492  138.2184  155.4654 H   0  0  0  0  0  0  0  0  0  0  0  0
  152.2266  139.6713  154.4589 H   0  0  0  0  0  0  0  0  0  0  0  0
  150.7071  138.9826  155.0644 H   0  0  0  0  0  0  0  0  0  0  0  0
  153.5023  140.1821  160.2339 H   0  0  0  0  0  0  0  0  0  0  0  0
  152.9674  142.2774  161.4578 H   0  0  0  0  0  0  0  0  0  0  0  0
  151.5495  144.0240  160.3994 H   0  0  0  0  0  0  0  0  0  0  0  0
  150.6546  143.6795  158.0984 H   0  0  0  0  0  0  0  0  0  0  0  0
  1  2  1  0  0  0  0
  1 18  1  0  0  0  0
  1 19  1  0  0  0  0
  1 20  1  0  0  0  0
  2  3  1  0  0  0  0
  3  4  1  0  0  0  0
  3 21  1  0  0  0  0
  3 22  1  0  0  0  0
  4 17  1  0  0  0  0
  4  5  1  0  0  0  0
  4  6  1  0  0  0  0
  5 23  1  0  0  0  0
  6  7  1  0  0  0  0
  6 24  1  0  0  0  0
  6 25  1  0  0  0  0
  7 16  1  0  0  0  0
  7  8  1  0  0  0  0
  8  9  1  0  0  0  0
  8 10  2  0  0  0  0
  9 26  1  0  0  0  0
  9 27  1  0  0  0  0
  9 28  1  0  0  0  0
 10 11  1  0  0  0  0
 11 16  2  0  0  0  0
 11 12  1  0  0  0  0
 12 13  2  0  0  0  0
 12 29  1  0  0  0  0
 13 14  1  0  0  0  0
 13 30  1  0  0  0  0
 14 15  2  0  0  0  0
 14 31  1  0  0  0  0
 15 16  1  0  0  0  0
 15 32  1  0  0  0  0
M  END
> <s_m_source_file>
AV-unprocessed.smi

> <i_m_source_file_index>
2758

> <i_lp_mmshare_version>
43012

> <i_f3d_flags>
0

> <s_epik_input>
W0NIM11PW0NIMl1bQ0BASF0oW09IXSlbQ0gyXW4oYyhuMSlbQ0gzXSljKGMxMilbY0hdW2NIXVtjSF1bY0hdMg==

> <s_epik_cmdline>
J2VwaWtfcHl0aG9uJywgJy1waCcsICc3LjAnLCAnLXRuJywgJzgnLCAnLW1hJywgJzIwMCcsICctbWV0YWxfYmluZGluZycsICctaW1hZScsICc8aW5maWxlLm1hZT4nLCAnLW9tYWUnLCAnPG91dGZpbGUubWFlPic=

> <r_epik_Ionization_Penalty>
0.126985

> <r_epik_Ionization_Penalty_Charging>
0

> <r_epik_Ionization_Penalty_Neutral>
0.126985

> <r_epik_State_Penalty>
0.116428

> <r_epik_Charging_Adjusted_Penalty>
0.116428

> <i_epik_Tot_Q>
0

> <i_epik_Tot_abs_Q>
0

> <r_epik_Metal_State_Penalty>
0.000128642

> <b_epik_Metal_Only>
0

> <s_lp_Force_Field>
OPLS_2005

> <r_lp_Energy>
8.80871

> <b_lp_Chiralities_Consistent>
1

> <s_lp_Variant>
AV-unprocessed.smi:2758-1

> <Gold.Version>
5.8.1

> <Gold.Id.Protein>
6NUR|6NUR_protein|mol2

> <Gold.PLP.Fitness>
41.6115

> <Gold.PLP.PLP>
-37.0289

> <Gold.PLP.part.hbond>
-4.1274

> <Gold.PLP.part.metal>
0.0000

> <Gold.PLP.part.buried>
-3.3561

> <Gold.PLP.part.nonpolar>
-28.9475

> <Gold.PLP.part.repulsive>
0.4924

> <Gold.PLP.ligand.clash>
0.0000

> <Gold.PLP.ligand.torsion>
1.2852

> <Gold.PLP.Chemscore.Hbond>
2.3827

> <Gold.PLP.Chemscore.CHOScore>
0.0000

> <Gold.PLP.Chemscore.Metal>
0.0000

> <Gold.Chemscore.Hbonds>
donor molecule, donor type, donor heavy atom, donor atom, acceptor molecule, acceptor atom, score
      L1  H     5    23       P1  7957  0.05
      P1  H  7989  7998       L1     5  0.38
      P1  H  7997  8008       L1    10  0.79
      P1  H  8011  8017       L1     5  0.98

> <Gold.PLP.Chemscore.Internal.Correction>
0.0050

> <Gold.Rescore>
     Score         DG    S(hbond)    S(metal)    S(lipo)     H(rot)  DE(clash)    DE(int)     intcor
     12.44     -14.08       1.07        0.00      87.72       2.05       0.48       1.16       ----

> <Gold.Chemscore.Fitness>
12.4430

> <Gold.Chemscore.DG>
-14.0813

> <Gold.Chemscore.ZeroCoef>
-5.4800

> <Gold.Chemscore.Hbond>
1.0747

> <Gold.Chemscore.Metal>
0.0000

> <Gold.Chemscore.Lipo>
87.7183

> <Gold.Chemscore.Internal_Hbond>
0.0000

> <Gold.Chemscore.DEClash>
0.4773

> <Gold.Chemscore.DEInternal>
1.1610

> <Gold.Chemscore.Rot>
2.0513

> <Gold.Chemscore.Internal.Correction>
   9.000000E+99

> <Gold.Chemscore.Hbonds>
donor molecule, donor type, donor heavy atom, donor atom, acceptor molecule, acceptor atom, score
      L1  H     5    23       P1  7957  0.07
      P1  H  7989  7998       L1     5  0.21
      P1  H  7997  8008       L1    10  0.04
      P1  H  8011  8017       L1     5  0.62

> <Gold.Chemscore.Hbond.Weighted>
-3.5896

> <Gold.Chemscore.Metal.Weighted>
-0.0000

> <Gold.Chemscore.Lipo.Weighted>
-10.2630

> <Gold.Chemscore.Internal_Hbond.Weighted>
0.0000

> <Gold.Chemscore.DEClash.Weighted>
0.4773

> <Gold.Chemscore.DEInternal.Weighted>
1.1610

> <Gold.Chemscore.Rot.Weighted>
5.2514

> <Gold.Chemscore.Internal.Correction.Weighted>
   9.000000E+99

> <Gold.Protein.RotatedTorsions>
[ 6907 6896 6895 6894 ] final   62.44 input  -60.11 | X-H torsion
[ 7974 7965 7964 7962 ] final  -62.90 input  175.53 | X-H torsion
[ 8008 7997 7996 7995 ] final  -77.22 input   59.86 | X-H torsion
[ 10167 10162 10161 10158 ] final  118.85 input  -65.29 | X-H torsion
[ 10718 10713 10712 10709 ] final    2.14 input   66.30 | X-H torsion
[ 10763 10752 10751 10750 ] final -178.44 input  -60.55 | X-H torsion
[ 11005 11000 10999 10996 ] final   75.95 input  -57.11 | X-H torsion

> <Gold.Protein.ActiveResidues>
 VAL166  LYS551  ARG553  GLY616  TRP617  ASP618  TYR619  PRO620  LYS621  CYS622 
 ASP623  PHE694  ASN695  SER759  ASP760  ASP761  ALA762  ILE779  LEU786  VAL792 
 PHE793  MET794  SER795  GLU796  ALA797  LYS798  CYS799  TRP800  GLU811  SER814 

> <Gold.Protein.RotatedAtoms>
  152.4172  134.6019  160.0002 H   0  0  0  0  0  0  0  0  0  0  0  0  # atno 6907 bound_to 6896
  151.6179  133.3336  159.3089 H   0  0  0  0  0  0  0  0  0  0  0  0  # atno 6908 bound_to 6896
  150.8061  134.7226  159.6711 H   0  0  0  0  0  0  0  0  0  0  0  0  # atno 6909 bound_to 6896
  145.7856  140.8738  143.0307 H   0  0  0  0  0  0  0  0  0  0  0  0  # atno 7974 bound_to 7965
  154.5576  140.0714  156.8768 H   0  0  0  0  0  0  0  0  0  0  0  0  # atno 8008 bound_to 7997
  155.2872  140.3375  155.4236 H   0  0  0  0  0  0  0  0  0  0  0  0  # atno 8009 bound_to 7997
  156.2015  140.1723  156.7874 H   0  0  0  0  0  0  0  0  0  0  0  0  # atno 8010 bound_to 7997
  139.6084  144.7076  151.2900 H   0  0  0  0  0  0  0  0  0  0  0  0  # atno 10167 bound_to 10162
  156.8586  130.5579  149.5664 H   0  0  0  0  0  0  0  0  0  0  0  0  # atno 10718 bound_to 10713
  154.5476  135.2810  155.1038 H   0  0  0  0  0  0  0  0  0  0  0  0  # atno 10763 bound_to 10752
  154.2496  135.6342  153.5239 H   0  0  0  0  0  0  0  0  0  0  0  0  # atno 10764 bound_to 10752
  152.9994  135.5579  154.6034 H   0  0  0  0  0  0  0  0  0  0  0  0  # atno 10765 bound_to 10752
  139.9320  134.7560  156.1335 H   0  0  0  0  0  0  0  0  0  0  0  0  # atno 11005 bound_to 11000
  144.6789  140.0050  143.7484 LP  0  0  0  0  0  0  0  0  0  0  0  0  # atno 17320 bound_to 7965
  146.0029  139.3106  143.0916 LP  0  0  0  0  0  0  0  0  0  0  0  0  # atno 17321 bound_to 7965
  140.7301  143.6888  150.7939 LP  0  0  0  0  0  0  0  0  0  0  0  0  # atno 17342 bound_to 10162
  140.0478  143.5280  152.2688 LP  0  0  0  0  0  0  0  0  0  0  0  0  # atno 17343 bound_to 10162
  156.0789  130.5804  150.9525 LP  0  0  0  0  0  0  0  0  0  0  0  0  # atno 17370 bound_to 10713
  157.6263  131.0925  150.8528 LP  0  0  0  0  0  0  0  0  0  0  0  0  # atno 17371 bound_to 10713
  141.0914  133.6713  156.2549 LP  0  0  0  0  0  0  0  0  0  0  0  0  # atno 17394 bound_to 11000
  140.6176  134.5395  157.5543 LP  0  0  0  0  0  0  0  0  0  0  0  0  # atno 17395 bound_to 11000

$$$$
