#       Name:                AV-unprocessed.smi:2411
#       Creating user name   scv26
#       Creation time:       Fri Mar 27 13:16:28 2020


#       File generated by GOLD software.
#

@<TRIPOS>MOLECULE
AV-unprocessed.smi:2411
    46    48     1
SMALL
NO_CHARGES


@<TRIPOS>ATOM
      1 ****        -1.4980  -3.0337  -0.3660 C.3            1 S1                 0.0000
      2 ****        -2.3098  -2.4991  -1.4512 N.3            1 S1                 0.0000
      3 ****        -2.8580  -3.4764  -2.3841 C.3            1 S1                 0.0000
      4 ****        -3.1716  -1.4582  -1.0499 C.ar           1 S1                 0.0000
      5 ****        -4.4904  -1.7351  -0.9260 N.ar           1 S1                 0.0000
      6 ****        -5.3366  -0.7795  -0.5281 C.ar           1 S1                 0.0000
      7 ****        -4.9430   0.4687  -0.2437 N.pl3          1 S1                 1.0000
      8 ****        -3.6347   0.7993  -0.3547 C.ar           1 S1                 0.0000
      9 ****        -2.6796  -0.1630  -0.7592 C.ar           1 S1                 0.0000
     10 ****        -1.2998   0.1375  -0.9368 N.am           1 S1                 0.0000
     11 ****        -0.5760   1.0882  -0.3243 C.2            1 S1                 0.0000
     12 ****        -1.0175   1.8979   0.4907 O.2            1 S1                 0.0000
     13 ****         0.7107   1.0300  -0.6936 N.am           1 S1                 0.0000
     14 ****         1.7773   1.8915  -0.1882 C.3            1 S1                 0.0000
     15 ****         2.6474   1.3505   0.9459 C.3            1 S1                 0.0000
     16 ****         3.7129   2.3388   1.4084 C.3            1 S1                 0.0000
     17 ****         5.0456   2.3968   0.7002 C.3            1 S1                 0.0000
     18 ****         4.9808   1.9558   2.1440 C.3            1 S1                 0.0000
     19 ****         2.0269   0.4793   2.0243 C.3            1 S1                 0.0000
     20 ****         2.9148  -0.1488   0.9836 C.3            1 S1                 0.0000
     21 ****        -0.9409  -2.2515   0.1494 H              1 S1                 0.0000
     22 ****        -0.7768  -3.7551  -0.7511 H              1 S1                 0.0000
     23 ****        -2.1273  -3.5417   0.3658 H              1 S1                 0.0000
     24 ****        -3.3998  -2.9836  -3.1925 H              1 S1                 0.0000
     25 ****        -3.5378  -4.1618  -1.8763 H              1 S1                 0.0000
     26 ****        -2.0549  -4.0634  -2.8304 H              1 S1                 0.0000
     27 ****        -6.3909  -0.9923  -0.4282 H              1 S1                 0.0000
     28 ****        -3.4123   1.8319  -0.1316 H              1 S1                 0.0000
     29 ****        -0.7867  -0.5081  -1.5199 H              1 S1                 0.0000
     30 ****         0.9805   0.3275  -1.3668 H              1 S1                 0.0000
     31 ****         2.4315   2.1115  -1.0323 H              1 S1                 0.0000
     32 ****         1.3657   2.8541   0.1202 H              1 S1                 0.0000
     33 ****         3.3071   3.3039   1.7066 H              1 S1                 0.0000
     34 ****         5.2556   1.6339  -0.0470 H              1 S1                 0.0000
     35 ****         5.4593   3.3810   0.4906 H              1 S1                 0.0000
     36 ****         5.3495   2.6530   2.8936 H              1 S1                 0.0000
     37 ****         5.1819   0.9098   2.3578 H              1 S1                 0.0000
     38 ****         2.4274   0.5616   3.0327 H              1 S1                 0.0000
     39 ****         0.9631   0.2607   1.9737 H              1 S1                 0.0000
     40 ****         2.4332  -0.7805   0.2403 H              1 S1                 0.0000
     41 ****         3.8883  -0.5066   1.3063 H              1 S1                 0.0000
     42 ****        -5.6185   1.1752   0.0487 H              1 S1                 0.0000
     43 ****        -1.6509  -2.0413  -2.0482 LP             1 S1                 0.0000
     44 ****        -4.8313  -2.6524  -1.1316 LP             1 S1                 0.0000
     45 ****        -1.9852   1.8776   0.7417 LP             1 S1                 0.0000
     46 ****        -0.4084   2.5761   0.9019 LP             1 S1                 0.0000
@<TRIPOS>BOND
    1    1    2 1     
    2    1   21 1     
    3    1   22 1     
    4    1   23 1     
    5    2    3 1     
    6    2    4 1     
    7    3   24 1     
    8    3   25 1     
    9    3   26 1     
   10    4    9 ar    
   11    4    5 ar    
   12    5    6 ar    
   13    6    7 ar    
   14    6   27 1     
   15    7    8 ar    
   16    7   42 1     
   17    8    9 ar    
   18    8   28 1     
   19    9   10 1     
   20   10   11 am    
   21   10   29 1     
   22   11   12 2     
   23   11   13 am    
   24   13   14 1     
   25   13   30 1     
   26   14   15 1     
   27   14   31 1     
   28   14   32 1     
   29   15   20 1     
   30   15   16 1     
   31   15   19 1     
   32   16   18 1     
   33   16   17 1     
   34   16   33 1     
   35   17   18 1     
   36   17   34 1     
   37   17   35 1     
   38   18   36 1     
   39   18   37 1     
   40   19   20 1     
   41   19   38 1     
   42   19   39 1     
   43   20   40 1     
   44   20   41 1     
   45    2   43 1     
   46    5   44 1     
   47   12   45 1     
   48   12   46 1     
@<TRIPOS>SUBSTRUCTURE
      1 S1             1
@<TRIPOS>SET
LONE_PAIRS      STATIC     ATOMS    <user>   **** ""
4 43 44 45 46
DONOR_HYDROGENS      STATIC     ATOMS    <user>   **** ""
3 42 29 30
ATOM$BLUE        STATIC     ATOMS    COLORGROUP SYSTEM
4 43 44 45 46
ATOM$RED        STATIC     ATOMS    COLORGROUP SYSTEM
3 42 29 30
