#       Name:                AV-unprocessed.smi:3156
#       Creating user name   scv26
#       Creation time:       Fri Mar 27 17:45:40 2020


#       File generated by GOLD software.
#

@<TRIPOS>MOLECULE
AV-unprocessed.smi:3156
    44    45     1
SMALL
NO_CHARGES


@<TRIPOS>ATOM
      1 ****        -2.5205  -1.2710   2.3874 C.3            1 S1                 0.0000
      2 ****        -1.9880  -0.5807   1.1210 C.3            1 S1                 0.0000
      3 ****        -0.5089  -0.5375   1.1945 N.4            1 S1                 1.0000
      4 ****         0.0835   0.8121   1.0875 C.3            1 S1                 0.0000
      5 ****         1.6131   0.7464   0.9704 C.3            1 S1                 0.0000
      6 ****         2.0755   0.1546  -0.3783 C.3            1 S1                 0.0000
      7 ****         3.6020   0.2131  -0.5009 C.3            1 S1                 0.0000
      8 ****         4.0845   1.6442  -0.2458 C.3            1 S1                 0.0000
      9 ****         3.5275   2.1641   1.0884 C.3            1 S1                 0.0000
     10 ****         2.1056   2.0791   1.0864 O.3            1 S1                 0.0000
     11 ****        -2.4415  -1.2882  -0.1855 C.3            1 S1                 0.0000
     12 ****        -3.9731  -1.3673  -0.3373 C.3            1 S1                 0.0000
     13 ****        -1.8583  -0.6583  -1.3653 N.pl3          1 S1                 0.0000
     14 ****        -0.9316  -1.1828  -2.2434 C.2            1 S1                 0.0000
     15 ****        -0.6683  -0.2253  -3.1803 C.2            1 S1                 0.0000
     16 ****        -1.4939   0.8656  -2.7908 C.2            1 S1                 0.0000
     17 ****        -2.2016   0.6051  -1.7040 N.2            1 S1                 0.0000
     18 ****        -3.6079  -1.2287   2.4432 H              1 S1                 0.0000
     19 ****        -2.1396  -0.7846   3.2861 H              1 S1                 0.0000
     20 ****        -2.2228  -2.3193   2.4253 H              1 S1                 0.0000
     21 ****        -2.3759   0.4397   1.1216 H              1 S1                 0.0000
     22 ****        -0.2172  -0.9428   2.0724 H              1 S1                 0.0000
     23 ****        -0.3283   1.3408   0.2273 H              1 S1                 0.0000
     24 ****        -0.1988   1.3808   1.9745 H              1 S1                 0.0000
     25 ****         2.0100   0.1529   1.7963 H              1 S1                 0.0000
     26 ****         1.7369  -0.8765  -0.4824 H              1 S1                 0.0000
     27 ****         1.6245   0.7139  -1.1994 H              1 S1                 0.0000
     28 ****         4.0569  -0.4634   0.2239 H              1 S1                 0.0000
     29 ****         3.9185  -0.1250  -1.4880 H              1 S1                 0.0000
     30 ****         5.1742   1.6812  -0.2412 H              1 S1                 0.0000
     31 ****         3.7524   2.2938  -1.0567 H              1 S1                 0.0000
     32 ****         3.9355   1.5987   1.9275 H              1 S1                 0.0000
     33 ****         3.8174   3.2047   1.2345 H              1 S1                 0.0000
     34 ****        -2.0671  -2.3127  -0.1602 H              1 S1                 0.0000
     35 ****        -4.4233  -1.9940   0.4319 H              1 S1                 0.0000
     36 ****        -4.2468  -1.8014  -1.2996 H              1 S1                 0.0000
     37 ****        -4.4341  -0.3810  -0.2767 H              1 S1                 0.0000
     38 ****        -0.5374  -2.1820  -2.1292 H              1 S1                 0.0000
     39 ****         0.0095  -0.2939  -4.0183 H              1 S1                 0.0000
     40 ****        -1.5978   1.8327  -3.2604 H              1 S1                 0.0000
     41 ****        -0.1444  -1.1054   0.4431 H              1 S1                 0.0000
     42 ****         1.7645   2.4687   1.9419 LP             1 S1                 0.0000
     43 ****         1.7582   2.6126   0.3153 LP             1 S1                 0.0000
     44 ****        -2.8474   1.2087  -1.2364 LP             1 S1                 0.0000
@<TRIPOS>BOND
    1    1    2 1     
    2    1   18 1     
    3    1   19 1     
    4    1   20 1     
    5    2    3 1     
    6    2   11 1     
    7    2   21 1     
    8    3    4 1     
    9    3   22 1     
   10    3   41 1     
   11    4    5 1     
   12    4   23 1     
   13    4   24 1     
   14    5   10 1     
   15    5    6 1     
   16    5   25 1     
   17    6    7 1     
   18    6   26 1     
   19    6   27 1     
   20    7    8 1     
   21    7   28 1     
   22    7   29 1     
   23    8    9 1     
   24    8   30 1     
   25    8   31 1     
   26    9   10 1     
   27    9   32 1     
   28    9   33 1     
   29   11   12 1     
   30   11   13 1     
   31   11   34 1     
   32   12   35 1     
   33   12   36 1     
   34   12   37 1     
   35   13   17 1     
   36   13   14 1     
   37   14   15 2     
   38   14   38 1     
   39   15   16 1     
   40   15   39 1     
   41   16   17 2     
   42   16   40 1     
   43   10   42 1     
   44   10   43 1     
   45   17   44 1     
@<TRIPOS>SUBSTRUCTURE
      1 S1             1
@<TRIPOS>SET
LONE_PAIRS      STATIC     ATOMS    <user>   **** ""
3 42 43 44
DONOR_HYDROGENS      STATIC     ATOMS    <user>   **** ""
2 22 41
ATOM$BLUE        STATIC     ATOMS    COLORGROUP SYSTEM
3 42 43 44
ATOM$RED        STATIC     ATOMS    COLORGROUP SYSTEM
2 22 41
