#       Name:                AV-unprocessed.smi:2661
#       Creating user name   scv26
#       Creation time:       Fri Mar 27 14:33:38 2020


#       File generated by GOLD software.
#

@<TRIPOS>MOLECULE
AV-unprocessed.smi:2661
    52    54     1
SMALL
NO_CHARGES


@<TRIPOS>ATOM
      1 ****        -6.0919   4.1064   2.4787 C.3            1 S1                 0.0000
      2 ****        -5.4011   2.9306   1.9673 N.am           1 S1                 0.0000
      3 ****        -5.4063   1.6766   2.6999 C.3            1 S1                 0.0000
      4 ****        -4.3526   0.8105   1.9958 C.3            1 S1                 0.0000
      5 ****        -4.1314   1.4706   0.6211 C.3            1 S1                 0.0000
      6 ****        -2.7235   1.5232   0.2324 N.am           1 S1                 0.0000
      7 ****        -1.9233   0.4623   0.0552 C.2            1 S1                 0.0000
      8 ****        -2.3047  -0.7019   0.1737 O.2            1 S1                 0.0000
      9 ****        -0.6800   0.8449  -0.2831 N.am           1 S1                 0.0000
     10 ****         0.4605   0.0376  -0.5451 C.ar           1 S1                 0.0000
     11 ****         0.6030  -1.3082  -0.1345 C.ar           1 S1                 0.0000
     12 ****         1.7930  -1.9941  -0.4444 C.ar           1 S1                 0.0000
     13 ****         2.8195  -1.3210  -1.1483 C.ar           1 S1                 0.0000
     14 ****         4.0210  -1.9902  -1.4693 N.3            1 S1                 0.0000
     15 ****         4.6931  -2.6599  -0.3583 C.3            1 S1                 0.0000
     16 ****         5.7944  -3.5969  -0.8840 C.3            1 S1                 0.0000
     17 ****         6.6924  -2.8691  -1.7151 O.3            1 S1                 0.0000
     18 ****         6.0339  -2.3218  -2.8524 C.3            1 S1                 0.0000
     19 ****         4.9443  -1.3368  -2.3959 C.3            1 S1                 0.0000
     20 ****         2.6807  -0.0290  -1.5347 N.ar           1 S1                 0.0000
     21 ****         1.5393   0.6250  -1.2349 C.ar           1 S1                 0.0000
     22 ****        -4.6941   2.8694   0.8342 C.2            1 S1                 0.0000
     23 ****        -4.5171   3.7952   0.0426 O.2            1 S1                 0.0000
     24 ****        -5.3808   4.9074   2.6842 H              1 S1                 0.0000
     25 ****        -6.6240   3.8788   3.4029 H              1 S1                 0.0000
     26 ****        -6.8187   4.4700   1.7513 H              1 S1                 0.0000
     27 ****        -5.1710   1.8242   3.7546 H              1 S1                 0.0000
     28 ****        -6.3964   1.2243   2.6282 H              1 S1                 0.0000
     29 ****        -3.4331   0.8221   2.5838 H              1 S1                 0.0000
     30 ****        -4.6694  -0.2292   1.9079 H              1 S1                 0.0000
     31 ****        -4.7205   0.9728  -0.1508 H              1 S1                 0.0000
     32 ****        -2.3297   2.4433   0.0987 H              1 S1                 0.0000
     33 ****        -0.5437   1.8366  -0.4144 H              1 S1                 0.0000
     34 ****        -0.1651  -1.8269   0.4170 H              1 S1                 0.0000
     35 ****         1.8972  -3.0274  -0.1490 H              1 S1                 0.0000
     36 ****         5.1289  -1.9033   0.2955 H              1 S1                 0.0000
     37 ****         3.9975  -3.2387   0.2475 H              1 S1                 0.0000
     38 ****         6.3513  -4.0248  -0.0504 H              1 S1                 0.0000
     39 ****         5.3624  -4.4311  -1.4395 H              1 S1                 0.0000
     40 ****         6.7668  -1.8083  -3.4748 H              1 S1                 0.0000
     41 ****         5.6061  -3.1221  -3.4585 H              1 S1                 0.0000
     42 ****         4.4054  -0.9664  -3.2689 H              1 S1                 0.0000
     43 ****         5.4010  -0.4768  -1.9042 H              1 S1                 0.0000
     44 ****         1.4858   1.6529  -1.5628 H              1 S1                 0.0000
     45 ****        -3.2561  -0.8944   0.4140 LP             1 S1                 0.0000
     46 ****        -1.6631  -1.4554   0.0297 LP             1 S1                 0.0000
     47 ****         3.6390  -2.7240  -2.0311 LP             1 S1                 0.0000
     48 ****         7.4171  -3.4844  -2.0255 LP             1 S1                 0.0000
     49 ****         7.0935  -2.1233  -1.1832 LP             1 S1                 0.0000
     50 ****         3.4136   0.4325  -2.0346 LP             1 S1                 0.0000
     51 ****        -4.9205   4.6921   0.2239 LP             1 S1                 0.0000
     52 ****        -3.9699   3.6504  -0.7818 LP             1 S1                 0.0000
@<TRIPOS>BOND
    1    1    2 1     
    2    1   24 1     
    3    1   25 1     
    4    1   26 1     
    5    2   22 am    
    6    2    3 1     
    7    3    4 1     
    8    3   27 1     
    9    3   28 1     
   10    4    5 1     
   11    4   29 1     
   12    4   30 1     
   13    5    6 1     
   14    5   22 1     
   15    5   31 1     
   16    6    7 am    
   17    6   32 1     
   18    7    8 2     
   19    7    9 am    
   20    9   10 1     
   21    9   33 1     
   22   10   21 ar    
   23   10   11 ar    
   24   11   12 ar    
   25   11   34 1     
   26   12   13 ar    
   27   12   35 1     
   28   13   14 1     
   29   13   20 ar    
   30   14   19 1     
   31   14   15 1     
   32   15   16 1     
   33   15   36 1     
   34   15   37 1     
   35   16   17 1     
   36   16   38 1     
   37   16   39 1     
   38   17   18 1     
   39   18   19 1     
   40   18   40 1     
   41   18   41 1     
   42   19   42 1     
   43   19   43 1     
   44   20   21 ar    
   45   21   44 1     
   46   22   23 2     
   47    8   45 1     
   48    8   46 1     
   49   14   47 1     
   50   17   48 1     
   51   17   49 1     
   52   20   50 1     
   53   23   51 1     
   54   23   52 1     
@<TRIPOS>SUBSTRUCTURE
      1 S1             1
@<TRIPOS>SET
LONE_PAIRS      STATIC     ATOMS    <user>   **** ""
8 45 46 47 48 49 50 51 52
DONOR_HYDROGENS      STATIC     ATOMS    <user>   **** ""
2 32 33
ATOM$BLUE        STATIC     ATOMS    COLORGROUP SYSTEM
8 45 46 47 48 49 50 51 52
ATOM$RED        STATIC     ATOMS    COLORGROUP SYSTEM
2 32 33
