AV-unprocessed.smi:2442|AV-procd|sdf|9627|dock1
  -GOLD-   2272013263D 1   1.00000     0.00000
 Structure written by MMmdl.
 47 48  0  0  0  0  0  0  0  0  2 V2000
  151.8032  136.6624  156.7430 C   0  0  0  0  0  0  0  0  0  0  0  0
  151.8781  137.0548  155.3817 O   0  0  0  0  0  0  0  0  0  0  0  0
  151.1241  138.2194  155.0640 C   0  0  2  0  0  0  0  0  0  0  0  0
  151.6687  139.4263  155.8577 C   0  0  0  0  0  0  0  0  0  0  0  0
  150.7973  140.6758  155.6626 C   0  0  0  0  0  0  0  0  0  0  0  0
  149.3379  140.3934  156.0439 C   0  0  0  0  0  0  0  0  0  0  0  0
  148.7809  139.2074  155.2432 C   0  0  0  0  0  0  0  0  0  0  0  0
  149.6447  137.9432  155.4202 C   0  0  1  0  0  0  0  0  0  0  0  0
  149.1112  136.8862  154.5639 N   0  0  0  0  0  0  0  0  0  0  0  0
  148.1761  135.9940  154.9186 C   0  0  0  0  0  0  0  0  0  0  0  0
  147.6250  135.9646  156.0193 O   0  0  0  0  0  0  0  0  0  0  0  0
  147.9161  135.1282  153.9292 N   0  0  0  0  0  0  0  0  0  0  0  0
  146.9467  134.0423  154.0119 C   0  0  0  0  0  0  0  0  0  0  0  0
  146.9511  133.1774  152.7392 C   0  0  0  0  0  0  0  0  0  0  0  0
  145.7539  133.4642  151.8466 C   0  0  0  0  0  0  0  0  0  0  0  0
  145.4051  134.8056  151.5712 C   0  0  0  0  0  0  0  0  0  0  0  0
  144.2944  135.0798  150.7490 C   0  0  0  0  0  0  0  0  0  0  0  0
  143.5742  134.0616  150.2332 N   0  3  0  0  0  0  0  0  0  0  0  0
  143.8683  132.7652  150.4693 C   0  0  0  0  0  0  0  0  0  0  0  0
  144.9686  132.4228  151.2857 C   0  0  0  0  0  0  0  0  0  0  0  0
  145.2809  130.9578  151.5364 C   0  0  0  0  0  0  0  0  0  0  0  0
  152.4222  135.7792  156.8993 H   0  0  0  0  0  0  0  0  0  0  0  0
  150.7854  136.4098  157.0397 H   0  0  0  0  0  0  0  0  0  0  0  0
  152.1746  137.4498  157.4001 H   0  0  0  0  0  0  0  0  0  0  0  0
  151.1887  138.4293  153.9943 H   0  0  0  0  0  0  0  0  0  0  0  0
  151.7087  139.1759  156.9187 H   0  0  0  0  0  0  0  0  0  0  0  0
  152.6906  139.6546  155.5566 H   0  0  0  0  0  0  0  0  0  0  0  0
  151.1864  141.4975  156.2643 H   0  0  0  0  0  0  0  0  0  0  0  0
  150.8491  141.0008  154.6226 H   0  0  0  0  0  0  0  0  0  0  0  0
  149.2723  140.1788  157.1113 H   0  0  0  0  0  0  0  0  0  0  0  0
  148.7284  141.2801  155.8674 H   0  0  0  0  0  0  0  0  0  0  0  0
  147.7555  139.0052  155.5557 H   0  0  0  0  0  0  0  0  0  0  0  0
  148.7336  139.4789  154.1875 H   0  0  0  0  0  0  0  0  0  0  0  0
  149.5854  137.6440  156.4687 H   0  0  0  0  0  0  0  0  0  0  0  0
  149.4991  136.8208  153.6344 H   0  0  0  0  0  0  0  0  0  0  0  0
  148.4189  135.2304  153.0596 H   0  0  0  0  0  0  0  0  0  0  0  0
  147.1539  133.4348  154.8939 H   0  0  0  0  0  0  0  0  0  0  0  0
  145.9583  134.4774  154.1629 H   0  0  0  0  0  0  0  0  0  0  0  0
  147.8659  133.3628  152.1745 H   0  0  0  0  0  0  0  0  0  0  0  0
  146.9744  132.1171  152.9914 H   0  0  0  0  0  0  0  0  0  0  0  0
  145.9823  135.6192  151.9864 H   0  0  0  0  0  0  0  0  0  0  0  0
  143.9630  136.0749  150.4906 H   0  0  0  0  0  0  0  0  0  0  0  0
  143.2155  132.0440  149.9992 H   0  0  0  0  0  0  0  0  0  0  0  0
  144.5002  130.3138  151.1303 H   0  0  0  0  0  0  0  0  0  0  0  0
  145.3583  130.7519  152.6039 H   0  0  0  0  0  0  0  0  0  0  0  0
  146.2231  130.6831  151.0616 H   0  0  0  0  0  0  0  0  0  0  0  0
  142.7735  134.2807  149.6397 H   0  0  0  0  0  0  0  0  0  0  0  0
  1  2  1  0  0  0  0
  1 22  1  0  0  0  0
  1 23  1  0  0  0  0
  1 24  1  0  0  0  0
  2  3  1  0  0  0  0
  3  8  1  0  0  0  0
  3  4  1  0  0  0  0
  3 25  1  0  0  0  0
  4  5  1  0  0  0  0
  4 26  1  0  0  0  0
  4 27  1  0  0  0  0
  5  6  1  0  0  0  0
  5 28  1  0  0  0  0
  5 29  1  0  0  0  0
  6  7  1  0  0  0  0
  6 30  1  0  0  0  0
  6 31  1  0  0  0  0
  7  8  1  0  0  0  0
  7 32  1  0  0  0  0
  7 33  1  0  0  0  0
  8  9  1  0  0  0  0
  8 34  1  0  0  0  0
  9 10  1  0  0  0  0
  9 35  1  0  0  0  0
 10 11  2  0  0  0  0
 10 12  1  0  0  0  0
 12 13  1  0  0  0  0
 12 36  1  0  0  0  0
 13 14  1  0  0  0  0
 13 37  1  0  0  0  0
 13 38  1  0  0  0  0
 14 15  1  0  0  0  0
 14 39  1  0  0  0  0
 14 40  1  0  0  0  0
 15 20  1  0  0  0  0
 15 16  2  0  0  0  0
 16 17  1  0  0  0  0
 16 41  1  0  0  0  0
 17 18  2  0  0  0  0
 17 42  1  0  0  0  0
 18 19  1  0  0  0  0
 18 47  1  0  0  0  0
 19 20  2  0  0  0  0
 19 43  1  0  0  0  0
 20 21  1  0  0  0  0
 21 44  1  0  0  0  0
 21 45  1  0  0  0  0
 21 46  1  0  0  0  0
M  CHG  1  18   1
M  END
> <s_m_source_file>
AV-unprocessed.smi

> <i_m_source_file_index>
2442

> <i_lp_mmshare_version>
43012

> <i_f3d_flags>
0

> <s_epik_input>
W0NIM11PW0NAQEhdMVtDSDJdW0NIMl1bQ0gyXVtDSDJdW0NASF0xW05IXUMoPU8pW05IXVtDSDJdW0NIMl1jMltjSF1bY0hdbltjSF1jMltDSDNd

> <s_epik_cmdline>
J2VwaWtfcHl0aG9uJywgJy1waCcsICc3LjAnLCAnLXRuJywgJzgnLCAnLW1hJywgJzIwMCcsICctbWV0YWxfYmluZGluZycsICctaW1hZScsICc8aW5maWxlLm1hZT4nLCAnLW9tYWUnLCAnPG91dGZpbGUubWFlPic=

> <r_epik_Ionization_Penalty>
1.07145

> <r_epik_Ionization_Penalty_Charging>
1.0714

> <r_epik_Ionization_Penalty_Neutral>
4.9109e-05

> <r_epik_State_Penalty>
1.12601

> <r_epik_Charging_Adjusted_Penalty>
2.19741

> <i_epik_Tot_Q>
1

> <i_epik_Tot_abs_Q>
1

> <r_epik_Metal_State_Penalty>
1.2173

> <b_epik_Metal_Only>
0

> <s_lp_Force_Field>
OPLS_2005

> <r_lp_Energy>
14.7728

> <b_lp_Chiralities_Consistent>
1

> <s_lp_Variant>
AV-unprocessed.smi:2442-5

> <Gold.Version>
5.8.1

> <Gold.Id.Protein>
6NUR|6NUR_protein|mol2

> <Gold.PLP.Fitness>
45.2489

> <Gold.PLP.PLP>
-32.6507

> <Gold.PLP.part.hbond>
-4.0000

> <Gold.PLP.part.metal>
0.0000

> <Gold.PLP.part.buried>
-5.0999

> <Gold.PLP.part.nonpolar>
-24.4196

> <Gold.PLP.part.repulsive>
0.1166

> <Gold.PLP.ligand.clash>
0.0000

> <Gold.PLP.ligand.torsion>
0.8521

> <Gold.PLP.Chemscore.Hbond>
4.7280

> <Gold.PLP.Chemscore.CHOScore>
0.0000

> <Gold.PLP.Chemscore.Metal>
0.0000

> <Gold.Chemscore.Hbonds>
donor molecule, donor type, donor heavy atom, donor atom, acceptor molecule, acceptor atom, score
      L1  H     9    35       P1  7948  0.80
      L1  H    12    36       P1  7948  0.99
      L1  H    18    47       P1 10186  1.86
      P1  H 10752 10765       L1     2  1.00

> <Gold.PLP.Chemscore.Internal.Correction>
0.1183

> <Gold.Rescore>
     Score         DG    S(hbond)    S(metal)    S(lipo)     H(rot)  DE(clash)    DE(int)     intcor
     21.46     -22.10       3.47        0.00      80.82       1.72       0.00       0.64       ----

> <Gold.Chemscore.Fitness>
21.4553

> <Gold.Chemscore.DG>
-22.1024

> <Gold.Chemscore.ZeroCoef>
-5.4800

> <Gold.Chemscore.Hbond>
3.4674

> <Gold.Chemscore.Metal>
0.0000

> <Gold.Chemscore.Lipo>
80.8192

> <Gold.Chemscore.Internal_Hbond>
0.0000

> <Gold.Chemscore.DEClash>
0.0021

> <Gold.Chemscore.DEInternal>
0.6450

> <Gold.Chemscore.Rot>
1.7244

> <Gold.Chemscore.Internal.Correction>
   9.000000E+99

> <Gold.Chemscore.Hbonds>
donor molecule, donor type, donor heavy atom, donor atom, acceptor molecule, acceptor atom, score
      L1  H     9    35       P1  7948  0.68
      L1  H    12    36       P1  7948  0.87
      L1  H    18    47       P1 10186  0.89
      P1  H 10752 10765       L1     2  0.28

> <Gold.Chemscore.Hbond.Weighted>
-11.5810

> <Gold.Chemscore.Metal.Weighted>
-0.0000

> <Gold.Chemscore.Lipo.Weighted>
-9.4558

> <Gold.Chemscore.Internal_Hbond.Weighted>
0.0000

> <Gold.Chemscore.DEClash.Weighted>
0.0021

> <Gold.Chemscore.DEInternal.Weighted>
0.6450

> <Gold.Chemscore.Rot.Weighted>
4.4145

> <Gold.Chemscore.Internal.Correction.Weighted>
   9.000000E+99

> <Gold.Protein.RotatedTorsions>
[ 6907 6896 6895 6894 ] final   -3.34 input  -60.11 | X-H torsion
[ 7974 7965 7964 7962 ] final  167.59 input  175.53 | X-H torsion
[ 8008 7997 7996 7995 ] final  -60.49 input   59.86 | X-H torsion
[ 10167 10162 10161 10158 ] final -179.01 input  -65.29 | X-H torsion
[ 10718 10713 10712 10709 ] final  175.51 input   66.30 | X-H torsion
[ 10763 10752 10751 10750 ] final -178.92 input  -60.55 | X-H torsion
[ 11005 11000 10999 10996 ] final  -52.43 input  -57.11 | X-H torsion

> <Gold.Protein.ActiveResidues>
 VAL166  LYS551  ARG553  GLY616  TRP617  ASP618  TYR619  PRO620  LYS621  CYS622 
 ASP623  PHE694  ASN695  SER759  ASP760  ASP761  ALA762  ILE779  LEU786  VAL792 
 PHE793  MET794  SER795  GLU796  ALA797  LYS798  CYS799  TRP800  GLU811  SER814 

> <Gold.Protein.RotatedAtoms>
  151.5153  135.1066  159.9864 H   0  0  0  0  0  0  0  0  0  0  0  0  # atno 6907 bound_to 6896
  152.4644  133.7887  159.6900 H   0  0  0  0  0  0  0  0  0  0  0  0  # atno 6908 bound_to 6896
  150.8621  133.7565  159.3014 H   0  0  0  0  0  0  0  0  0  0  0  0  # atno 6909 bound_to 6896
  144.7419  139.8784  143.6394 H   0  0  0  0  0  0  0  0  0  0  0  0  # atno 7974 bound_to 7965
  154.4401  140.1038  156.6281 H   0  0  0  0  0  0  0  0  0  0  0  0  # atno 8008 bound_to 7997
  155.5634  140.3488  155.4478 H   0  0  0  0  0  0  0  0  0  0  0  0  # atno 8009 bound_to 7997
  156.0443  140.1289  157.0111 H   0  0  0  0  0  0  0  0  0  0  0  0  # atno 8010 bound_to 7997
  139.5406  144.2375  152.0886 H   0  0  0  0  0  0  0  0  0  0  0  0  # atno 10167 bound_to 10162
  156.9337  130.9979  151.2982 H   0  0  0  0  0  0  0  0  0  0  0  0  # atno 10718 bound_to 10713
  154.5416  135.2806  155.1090 H   0  0  0  0  0  0  0  0  0  0  0  0  # atno 10763 bound_to 10752
  154.2570  135.6329  153.5264 H   0  0  0  0  0  0  0  0  0  0  0  0  # atno 10764 bound_to 10752
  152.9980  135.5596  154.5957 H   0  0  0  0  0  0  0  0  0  0  0  0  # atno 10765 bound_to 10752
  141.0924  133.6630  156.4023 H   0  0  0  0  0  0  0  0  0  0  0  0  # atno 11005 bound_to 11000
  146.1229  139.4251  143.0217 LP  0  0  0  0  0  0  0  0  0  0  0  0  # atno 17320 bound_to 7965
  145.7277  141.0053  143.1368 LP  0  0  0  0  0  0  0  0  0  0  0  0  # atno 17321 bound_to 7965
  140.1853  144.4805  150.6507 LP  0  0  0  0  0  0  0  0  0  0  0  0  # atno 17342 bound_to 10162
  140.6633  143.2259  151.5803 LP  0  0  0  0  0  0  0  0  0  0  0  0  # atno 17343 bound_to 10162
  157.5830  130.8390  149.8549 LP  0  0  0  0  0  0  0  0  0  0  0  0  # atno 17370 bound_to 10713
  156.0435  130.3733  150.1375 LP  0  0  0  0  0  0  0  0  0  0  0  0  # atno 17371 bound_to 10713
  140.5221  134.6294  157.5321 LP  0  0  0  0  0  0  0  0  0  0  0  0  # atno 17394 bound_to 11000
  139.9752  134.7226  155.9963 LP  0  0  0  0  0  0  0  0  0  0  0  0  # atno 17395 bound_to 11000

$$$$
