AV-unprocessed.smi:597|AV-procd|sdf|3020|dock9
  -GOLD-   2262023533D 1   1.00000     0.00000
 Structure written by MMmdl.
 37 38  0  0  0  0  0  0  0  0  3 V2000
  150.2424  141.6255  158.1654 O   0  0  0  0  0  0  0  0  0  0  0  0
  150.6558  142.2891  157.2136 C   0  0  0  0  0  0  0  0  0  0  0  0
  150.1190  142.0535  155.7943 C   0  0  0  0  0  0  0  0  0  0  0  0
  150.3789  140.6946  155.2891 N   0  0  0  0  0  0  0  0  0  0  0  0
  151.5084  140.0265  155.8020 C   0  0  0  0  0  0  0  0  0  0  0  0
  151.8462  138.7836  155.4060 C   0  0  0  0  0  0  0  0  0  0  0  0
  153.0125  138.1147  155.9395 N   0  3  0  0  0  0  0  0  0  0  0  0
  153.1527  136.9149  155.7245 O   0  0  0  0  0  0  0  0  0  0  0  0
  153.8253  138.7639  156.5912 O   0  5  0  0  0  0  0  0  0  0  0  0
  151.0006  138.1368  154.4213 C   0  0  0  0  0  0  0  0  0  0  0  0
  149.9216  138.7723  153.9237 C   0  0  0  0  0  0  0  0  0  0  0  0
  149.5588  140.1271  154.3523 C   0  0  0  0  0  0  0  0  0  0  0  0
  148.5778  140.7154  153.8968 O   0  0  0  0  0  0  0  0  0  0  0  0
  151.5726  143.2607  157.3386 N   0  0  0  0  0  0  0  0  0  0  0  0
  152.2157  143.6595  158.5870 C   0  0  0  0  0  0  0  0  0  0  0  0
  152.6177  142.4208  159.4153 C   0  0  0  0  0  0  0  0  0  0  0  0
  153.2261  142.8221  160.7690 C   0  0  0  0  0  0  0  0  0  0  0  0
  152.2741  143.7308  161.5623 C   0  0  0  0  0  0  0  0  0  0  0  0
  151.8771  144.9681  160.7418 C   0  0  0  0  0  0  0  0  0  0  0  0
  151.2645  144.5670  159.3902 C   0  0  0  0  0  0  0  0  0  0  0  0
  149.0478  142.2604  155.7975 H   0  0  0  0  0  0  0  0  0  0  0  0
  150.5494  142.7959  155.1193 H   0  0  0  0  0  0  0  0  0  0  0  0
  152.0754  140.5957  156.5246 H   0  0  0  0  0  0  0  0  0  0  0  0
  151.2265  137.1388  154.0750 H   0  0  0  0  0  0  0  0  0  0  0  0
  149.3061  138.2724  153.1903 H   0  0  0  0  0  0  0  0  0  0  0  0
  151.8507  143.7589  156.5055 H   0  0  0  0  0  0  0  0  0  0  0  0
  153.1139  144.2346  158.3532 H   0  0  0  0  0  0  0  0  0  0  0  0
  151.7433  141.7907  159.5854 H   0  0  0  0  0  0  0  0  0  0  0  0
  153.3338  141.8118  158.8623 H   0  0  0  0  0  0  0  0  0  0  0  0
  153.4589  141.9297  161.3506 H   0  0  0  0  0  0  0  0  0  0  0  0
  154.1724  143.3392  160.6040 H   0  0  0  0  0  0  0  0  0  0  0  0
  151.3789  143.1714  161.8369 H   0  0  0  0  0  0  0  0  0  0  0  0
  152.7450  144.0389  162.4961 H   0  0  0  0  0  0  0  0  0  0  0  0
  151.1686  145.5760  161.3049 H   0  0  0  0  0  0  0  0  0  0  0  0
  152.7553  145.5927  160.5735 H   0  0  0  0  0  0  0  0  0  0  0  0
  151.0273  145.4633  158.8157 H   0  0  0  0  0  0  0  0  0  0  0  0
  150.3186  144.0514  159.5630 H   0  0  0  0  0  0  0  0  0  0  0  0
  1  2  2  0  0  0  0
  2  3  1  0  0  0  0
  2 14  1  0  0  0  0
  3  4  1  0  0  0  0
  3 21  1  0  0  0  0
  3 22  1  0  0  0  0
  4 12  1  0  0  0  0
  4  5  1  0  0  0  0
  5  6  2  0  0  0  0
  5 23  1  0  0  0  0
  6  7  1  0  0  0  0
  6 10  1  0  0  0  0
  7  8  2  0  0  0  0
  7  9  1  0  0  0  0
 10 11  2  0  0  0  0
 10 24  1  0  0  0  0
 11 12  1  0  0  0  0
 11 25  1  0  0  0  0
 12 13  2  0  0  0  0
 14 15  1  0  0  0  0
 14 26  1  0  0  0  0
 15 20  1  0  0  0  0
 15 16  1  0  0  0  0
 15 27  1  0  0  0  0
 16 17  1  0  0  0  0
 16 28  1  0  0  0  0
 16 29  1  0  0  0  0
 17 18  1  0  0  0  0
 17 30  1  0  0  0  0
 17 31  1  0  0  0  0
 18 19  1  0  0  0  0
 18 32  1  0  0  0  0
 18 33  1  0  0  0  0
 19 20  1  0  0  0  0
 19 34  1  0  0  0  0
 19 35  1  0  0  0  0
 20 36  1  0  0  0  0
 20 37  1  0  0  0  0
M  CHG  1   7   1
M  CHG  1   9  -1
M  END
> <s_m_source_file>
AV-unprocessed.smi

> <i_m_source_file_index>
597

> <i_lp_mmshare_version>
43012

> <i_f3d_flags>
0

> <s_epik_input>
W0NIMl0xW0NIMl1bQ0gyXVtDSDJdW0NIMl1bQ0hdMVtOSF1DKD1PKVtDSDJdbjJbY0hdYyhbTitdKD1PKVtPLV0pW2NIXVtjSF1jMj1P

> <s_epik_cmdline>
J2VwaWtfcHl0aG9uJywgJy1waCcsICc3LjAnLCAnLXRuJywgJzgnLCAnLW1hJywgJzIwMCcsICctbWV0YWxfYmluZGluZycsICctaW1hZScsICc8aW5maWxlLm1hZT4nLCAnLW9tYWUnLCAnPG91dGZpbGUubWFlPic=

> <r_lp_tautomer_probability>
1

> <r_epik_Ionization_Penalty>
1.91289e-08

> <r_epik_Ionization_Penalty_Charging>
8.20451e-11

> <r_epik_Ionization_Penalty_Neutral>
1.90469e-08

> <r_epik_State_Penalty>
-0

> <r_epik_Charging_Adjusted_Penalty>
8.20451e-11

> <i_epik_Tot_Q>
0

> <i_epik_Tot_abs_Q>
2

> <r_epik_Metal_State_Penalty>
-0

> <b_epik_Metal_Only>
0

> <s_lp_Force_Field>
OPLS_2005

> <r_lp_Energy>
19.9817

> <b_lp_Chiralities_Consistent>
1

> <s_lp_Variant>
AV-unprocessed.smi:597-1

> <Gold.Version>
5.8.1

> <Gold.Id.Protein>
6NUR|6NUR_protein|mol2

> <Gold.PLP.Fitness>
48.2235

> <Gold.PLP.PLP>
-44.0620

> <Gold.PLP.part.hbond>
-1.9972

> <Gold.PLP.part.metal>
0.0000

> <Gold.PLP.part.buried>
-1.8451

> <Gold.PLP.part.nonpolar>
-41.2033

> <Gold.PLP.part.repulsive>
0.8043

> <Gold.PLP.ligand.clash>
0.0000

> <Gold.PLP.ligand.torsion>
0.6857

> <Gold.PLP.Chemscore.Hbond>
1.8400

> <Gold.PLP.Chemscore.CHOScore>
0.0000

> <Gold.PLP.Chemscore.Metal>
0.0000

> <Gold.Chemscore.Hbonds>
donor molecule, donor type, donor heavy atom, donor atom, acceptor molecule, acceptor atom, score
      P1  H  7997  8009       L1     9  0.51
      P1  H 10752 10765       L1     8  0.50

> <Gold.PLP.Chemscore.Internal.Correction>
0.0129

> <Gold.Rescore>
     Score         DG    S(hbond)    S(metal)    S(lipo)     H(rot)  DE(clash)    DE(int)     intcor
     17.82     -19.71       1.89        0.00     101.82       1.56       0.25       1.65       ----

> <Gold.Chemscore.Fitness>
17.8198

> <Gold.Chemscore.DG>
-19.7143

> <Gold.Chemscore.ZeroCoef>
-5.4800

> <Gold.Chemscore.Hbond>
1.8943

> <Gold.Chemscore.Metal>
0.0000

> <Gold.Chemscore.Lipo>
101.8183

> <Gold.Chemscore.Internal_Hbond>
0.0000

> <Gold.Chemscore.DEClash>
0.2454

> <Gold.Chemscore.DEInternal>
1.6492

> <Gold.Chemscore.Rot>
1.5646

> <Gold.Chemscore.Internal.Correction>
   9.000000E+99

> <Gold.Chemscore.Hbonds>
donor molecule, donor type, donor heavy atom, donor atom, acceptor molecule, acceptor atom, score
      P1  H  7997  8009       L1     9  0.51
      P1  H 10752 10765       L1     8  0.48

> <Gold.Chemscore.Hbond.Weighted>
-6.3269

> <Gold.Chemscore.Metal.Weighted>
-0.0000

> <Gold.Chemscore.Lipo.Weighted>
-11.9127

> <Gold.Chemscore.Internal_Hbond.Weighted>
0.0000

> <Gold.Chemscore.DEClash.Weighted>
0.2454

> <Gold.Chemscore.DEInternal.Weighted>
1.6492

> <Gold.Chemscore.Rot.Weighted>
4.0053

> <Gold.Chemscore.Internal.Correction.Weighted>
   9.000000E+99

> <Gold.Protein.RotatedTorsions>
[ 6907 6896 6895 6894 ] final -101.83 input  -60.11 | X-H torsion
[ 7974 7965 7964 7962 ] final  -49.78 input  175.53 | X-H torsion
[ 8008 7997 7996 7995 ] final  169.60 input   59.86 | X-H torsion
[ 10167 10162 10161 10158 ] final  115.38 input  -65.29 | X-H torsion
[ 10718 10713 10712 10709 ] final   77.08 input   66.30 | X-H torsion
[ 10763 10752 10751 10750 ] final -142.87 input  -60.55 | X-H torsion
[ 11005 11000 10999 10996 ] final  -48.13 input  -57.11 | X-H torsion

> <Gold.Protein.ActiveResidues>
 VAL166  LYS551  ARG553  GLY616  TRP617  ASP618  TYR619  PRO620  LYS621  CYS622 
 ASP623  PHE694  ASN695  SER759  ASP760  ASP761  ALA762  ILE779  LEU786  VAL792 
 PHE793  MET794  SER795  GLU796  ALA797  LYS798  CYS799  TRP800  GLU811  SER814 

> <Gold.Protein.RotatedAtoms>
  150.7171  134.0674  159.3852 H   0  0  0  0  0  0  0  0  0  0  0  0  # atno 6907 bound_to 6896
  151.8655  135.0506  160.0483 H   0  0  0  0  0  0  0  0  0  0  0  0  # atno 6908 bound_to 6896
  152.2684  133.5324  159.5460 H   0  0  0  0  0  0  0  0  0  0  0  0  # atno 6909 bound_to 6896
  145.9369  140.7698  142.9571 H   0  0  0  0  0  0  0  0  0  0  0  0  # atno 7974 bound_to 7965
  156.1442  140.1560  156.8873 H   0  0  0  0  0  0  0  0  0  0  0  0  # atno 8008 bound_to 7997
  154.5014  140.0824  156.7842 H   0  0  0  0  0  0  0  0  0  0  0  0  # atno 8009 bound_to 7997
  155.4021  140.3415  155.4260 H   0  0  0  0  0  0  0  0  0  0  0  0  # atno 8010 bound_to 7997
  139.6321  144.7116  151.2410 H   0  0  0  0  0  0  0  0  0  0  0  0  # atno 10167 bound_to 10162
  157.6697  130.9805  150.1589 H   0  0  0  0  0  0  0  0  0  0  0  0  # atno 10718 bound_to 10713
  154.8492  135.3484  154.6097 H   0  0  0  0  0  0  0  0  0  0  0  0  # atno 10763 bound_to 10752
  153.6706  135.6985  153.5153 H   0  0  0  0  0  0  0  0  0  0  0  0  # atno 10764 bound_to 10752
  153.2746  135.4282  155.0977 H   0  0  0  0  0  0  0  0  0  0  0  0  # atno 10765 bound_to 10752
  141.0682  133.6687  156.3396 H   0  0  0  0  0  0  0  0  0  0  0  0  # atno 11005 bound_to 11000
  144.6773  140.2218  143.7365 LP  0  0  0  0  0  0  0  0  0  0  0  0  # atno 17320 bound_to 7965
  145.8351  139.2104  143.1860 LP  0  0  0  0  0  0  0  0  0  0  0  0  # atno 17321 bound_to 7965
  140.7445  143.6461  150.8291 LP  0  0  0  0  0  0  0  0  0  0  0  0  # atno 17342 bound_to 10162
  140.0087  143.5665  152.2847 LP  0  0  0  0  0  0  0  0  0  0  0  0  # atno 17343 bound_to 10162
  156.2370  130.3687  149.8379 LP  0  0  0  0  0  0  0  0  0  0  0  0  # atno 17370 bound_to 10713
  156.6190  130.8618  151.3471 LP  0  0  0  0  0  0  0  0  0  0  0  0  # atno 17371 bound_to 10713
  140.5729  134.5822  157.5462 LP  0  0  0  0  0  0  0  0  0  0  0  0  # atno 17394 bound_to 11000
  139.9497  134.7639  156.0477 LP  0  0  0  0  0  0  0  0  0  0  0  0  # atno 17395 bound_to 11000

$$$$
