AV-unprocessed.smi:1303|AV-procd|sdf|5428|dock10
  -GOLD-   22720 4593D 1   1.00000     0.00000
 Structure written by MMmdl.
 40 41  0  0  0  0  0  0  0  0  1 V2000
  150.3023  133.9293  153.8883 C   0  0  0  0  0  0  0  0  0  0  0  0
  149.7981  134.8278  155.0299 C   0  0  0  0  0  0  0  0  0  0  0  0
  148.3384  135.2545  154.8029 C   0  0  0  0  0  0  0  0  0  0  0  0
  150.6972  136.0595  155.1947 C   0  0  0  0  0  0  0  0  0  0  0  0
  151.3350  136.2285  156.2346 O   0  0  0  0  0  0  0  0  0  0  0  0
  150.7509  136.9060  154.1546 N   0  0  0  0  0  0  0  0  0  0  0  0
  151.5921  138.0974  154.0906 C   0  0  0  0  0  0  0  0  0  0  0  0
  150.9868  139.3340  154.7432 C   0  0  0  0  0  0  0  0  0  0  0  0
  149.7405  139.8185  154.3009 C   0  0  0  0  0  0  0  0  0  0  0  0
  149.2081  140.9647  154.9193 C   0  0  0  0  0  0  0  0  0  0  0  0
  149.8313  141.6242  155.9179 N   0  0  0  0  0  0  0  0  0  0  0  0
  151.0313  141.1689  156.3548 C   0  0  0  0  0  0  0  0  0  0  0  0
  151.6690  141.8599  157.4079 N   0  0  0  0  0  0  0  0  0  0  0  0
  151.1620  143.1837  157.7646 C   0  0  0  0  0  0  0  0  0  0  0  0
  152.1371  143.8910  158.7208 C   0  0  0  0  0  0  0  0  0  0  0  0
  152.3739  143.0689  159.8587 O   0  0  0  0  0  0  0  0  0  0  0  0
  152.9692  141.8265  159.4994 C   0  0  0  0  0  0  0  0  0  0  0  0
  152.0261  141.0463  158.5678 C   0  0  0  0  0  0  0  0  0  0  0  0
  151.6464  140.0315  155.7801 C   0  0  0  0  0  0  0  0  0  0  0  0
  151.3428  133.6400  154.0406 H   0  0  0  0  0  0  0  0  0  0  0  0
  150.2332  134.4304  152.9219 H   0  0  0  0  0  0  0  0  0  0  0  0
  149.7147  133.0131  153.8265 H   0  0  0  0  0  0  0  0  0  0  0  0
  149.8385  134.2477  155.9534 H   0  0  0  0  0  0  0  0  0  0  0  0
  147.9831  135.8987  155.6087 H   0  0  0  0  0  0  0  0  0  0  0  0
  147.6804  134.3861  154.7655 H   0  0  0  0  0  0  0  0  0  0  0  0
  148.2198  135.7988  153.8650 H   0  0  0  0  0  0  0  0  0  0  0  0
  150.1956  136.6940  153.3386 H   0  0  0  0  0  0  0  0  0  0  0  0
  152.5348  137.8750  154.5902 H   0  0  0  0  0  0  0  0  0  0  0  0
  151.8375  138.3147  153.0496 H   0  0  0  0  0  0  0  0  0  0  0  0
  149.2013  139.3242  153.5062 H   0  0  0  0  0  0  0  0  0  0  0  0
  148.2544  141.3622  154.6050 H   0  0  0  0  0  0  0  0  0  0  0  0
  151.0299  143.7913  156.8687 H   0  0  0  0  0  0  0  0  0  0  0  0
  150.1844  143.0813  158.2376 H   0  0  0  0  0  0  0  0  0  0  0  0
  153.0791  144.1171  158.2187 H   0  0  0  0  0  0  0  0  0  0  0  0
  151.7162  144.8411  159.0501 H   0  0  0  0  0  0  0  0  0  0  0  0
  153.9345  141.9981  159.0202 H   0  0  0  0  0  0  0  0  0  0  0  0
  153.1618  141.2506  160.4045 H   0  0  0  0  0  0  0  0  0  0  0  0
  151.1141  140.7772  159.1021 H   0  0  0  0  0  0  0  0  0  0  0  0
  152.5083  140.1142  158.2770 H   0  0  0  0  0  0  0  0  0  0  0  0
  152.6153  139.7015  156.1232 H   0  0  0  0  0  0  0  0  0  0  0  0
  1  2  1  0  0  0  0
  1 20  1  0  0  0  0
  1 21  1  0  0  0  0
  1 22  1  0  0  0  0
  2  3  1  0  0  0  0
  2  4  1  0  0  0  0
  2 23  1  0  0  0  0
  3 24  1  0  0  0  0
  3 25  1  0  0  0  0
  3 26  1  0  0  0  0
  4  5  2  0  0  0  0
  4  6  1  0  0  0  0
  6  7  1  0  0  0  0
  6 27  1  0  0  0  0
  7  8  1  0  0  0  0
  7 28  1  0  0  0  0
  7 29  1  0  0  0  0
  8 19  1  0  0  0  0
  8  9  2  0  0  0  0
  9 10  1  0  0  0  0
  9 30  1  0  0  0  0
 10 11  2  0  0  0  0
 10 31  1  0  0  0  0
 11 12  1  0  0  0  0
 12 13  1  0  0  0  0
 12 19  2  0  0  0  0
 13 18  1  0  0  0  0
 13 14  1  0  0  0  0
 14 15  1  0  0  0  0
 14 32  1  0  0  0  0
 14 33  1  0  0  0  0
 15 16  1  0  0  0  0
 15 34  1  0  0  0  0
 15 35  1  0  0  0  0
 16 17  1  0  0  0  0
 17 18  1  0  0  0  0
 17 36  1  0  0  0  0
 17 37  1  0  0  0  0
 18 38  1  0  0  0  0
 18 39  1  0  0  0  0
 19 40  1  0  0  0  0
M  END
> <s_m_source_file>
AV-unprocessed.smi

> <i_m_source_file_index>
1303

> <i_lp_mmshare_version>
43012

> <i_f3d_flags>
0

> <s_epik_input>
W0NIM11bQ0hdKFtDSDNdKUMoPU8pW05IXVtDSDJdYzFbY0hdW2NIXW5jKFtjSF0xKU4yW0NIMl1bQ0gyXU9bQ0gyXVtDSDJdMg==

> <s_epik_cmdline>
J2VwaWtfcHl0aG9uJywgJy1waCcsICc3LjAnLCAnLXRuJywgJzgnLCAnLW1hJywgJzIwMCcsICctbWV0YWxfYmluZGluZycsICctaW1hZScsICc8aW5maWxlLm1hZT4nLCAnLW9tYWUnLCAnPG91dGZpbGUubWFlPic=

> <r_lp_tautomer_probability>
1

> <r_epik_Ionization_Penalty>
0.00576177

> <r_epik_Ionization_Penalty_Charging>
0

> <r_epik_Ionization_Penalty_Neutral>
0.00576177

> <r_epik_State_Penalty>
0.00422935

> <r_epik_Charging_Adjusted_Penalty>
0.00422935

> <i_epik_Tot_Q>
0

> <i_epik_Tot_abs_Q>
0

> <r_epik_Metal_State_Penalty>
-0

> <b_epik_Metal_Only>
0

> <s_lp_Force_Field>
OPLS_2005

> <r_lp_Energy>
14.5519

> <b_lp_Chiralities_Consistent>
1

> <s_lp_Variant>
AV-unprocessed.smi:1303-1

> <Gold.Version>
5.8.1

> <Gold.Id.Protein>
6NUR|6NUR_protein|mol2

> <Gold.PLP.Fitness>
40.4495

> <Gold.PLP.PLP>
-37.8570

> <Gold.PLP.part.hbond>
-1.7309

> <Gold.PLP.part.metal>
0.0000

> <Gold.PLP.part.buried>
-4.1852

> <Gold.PLP.part.nonpolar>
-32.6549

> <Gold.PLP.part.repulsive>
0.1973

> <Gold.PLP.ligand.clash>
0.0000

> <Gold.PLP.ligand.torsion>
0.3745

> <Gold.PLP.Chemscore.Hbond>
1.0000

> <Gold.PLP.Chemscore.CHOScore>
0.0000

> <Gold.PLP.Chemscore.Metal>
0.0000

> <Gold.Chemscore.Hbonds>
donor molecule, donor type, donor heavy atom, donor atom, acceptor molecule, acceptor atom, score
      L1  H     6    27       P1  7948  0.55

> <Gold.PLP.Chemscore.Internal.Correction>
0.3415

> <Gold.Rescore>
     Score         DG    S(hbond)    S(metal)    S(lipo)     H(rot)  DE(clash)    DE(int)     intcor
     13.11     -14.93       0.82        0.00      91.57       1.56       1.42       0.41       ----

> <Gold.Chemscore.Fitness>
13.1053

> <Gold.Chemscore.DG>
-14.9297

> <Gold.Chemscore.ZeroCoef>
-5.4800

> <Gold.Chemscore.Hbond>
0.8160

> <Gold.Chemscore.Metal>
0.0000

> <Gold.Chemscore.Lipo>
91.5709

> <Gold.Chemscore.Internal_Hbond>
0.0000

> <Gold.Chemscore.DEClash>
1.4176

> <Gold.Chemscore.DEInternal>
0.4068

> <Gold.Chemscore.Rot>
1.5584

> <Gold.Chemscore.Internal.Correction>
   9.000000E+99

> <Gold.Chemscore.Hbonds>
donor molecule, donor type, donor heavy atom, donor atom, acceptor molecule, acceptor atom, score
      L1  H     6    27       P1  7948  0.03

> <Gold.Chemscore.Hbond.Weighted>
-2.7254

> <Gold.Chemscore.Metal.Weighted>
-0.0000

> <Gold.Chemscore.Lipo.Weighted>
-10.7138

> <Gold.Chemscore.Internal_Hbond.Weighted>
0.0000

> <Gold.Chemscore.DEClash.Weighted>
1.4176

> <Gold.Chemscore.DEInternal.Weighted>
0.4068

> <Gold.Chemscore.Rot.Weighted>
3.9895

> <Gold.Chemscore.Internal.Correction.Weighted>
   9.000000E+99

> <Gold.Protein.RotatedTorsions>
[ 6907 6896 6895 6894 ] final  -83.41 input  -60.11 | X-H torsion
[ 7974 7965 7964 7962 ] final -176.45 input  175.53 | X-H torsion
[ 8008 7997 7996 7995 ] final  -45.50 input   59.86 | X-H torsion
[ 10167 10162 10161 10158 ] final -109.37 input  -65.29 | X-H torsion
[ 10718 10713 10712 10709 ] final   70.78 input   66.30 | X-H torsion
[ 10763 10752 10751 10750 ] final   54.00 input  -60.55 | X-H torsion
[ 11005 11000 10999 10996 ] final   17.57 input  -57.11 | X-H torsion

> <Gold.Protein.ActiveResidues>
 VAL166  LYS551  ARG553  GLY616  TRP617  ASP618  TYR619  PRO620  LYS621  CYS622 
 ASP623  PHE694  ASN695  SER759  ASP760  ASP761  ALA762  ILE779  LEU786  VAL792 
 PHE793  MET794  SER795  GLU796  ALA797  LYS798  CYS799  TRP800  GLU811  SER814 

> <Gold.Protein.RotatedAtoms>
  150.6886  134.3516  159.4911 H   0  0  0  0  0  0  0  0  0  0  0  0  # atno 6907 bound_to 6896
  152.1356  134.9099  160.0565 H   0  0  0  0  0  0  0  0  0  0  0  0  # atno 6908 bound_to 6896
  152.0252  133.3880  159.4311 H   0  0  0  0  0  0  0  0  0  0  0  0  # atno 6909 bound_to 6896
  144.7127  140.1169  143.6407 H   0  0  0  0  0  0  0  0  0  0  0  0  # atno 7974 bound_to 7965
  154.4001  140.1395  156.3858 H   0  0  0  0  0  0  0  0  0  0  0  0  # atno 8008 bound_to 7997
  155.7961  140.3477  155.5356 H   0  0  0  0  0  0  0  0  0  0  0  0  # atno 8009 bound_to 7997
  155.8531  140.0944  157.1652 H   0  0  0  0  0  0  0  0  0  0  0  0  # atno 8010 bound_to 7997
  140.1560  143.4159  152.1460 H   0  0  0  0  0  0  0  0  0  0  0  0  # atno 10167 bound_to 10162
  157.6418  130.9494  150.0698 H   0  0  0  0  0  0  0  0  0  0  0  0  # atno 10718 bound_to 10713
  152.9800  135.5760  154.4832 H   0  0  0  0  0  0  0  0  0  0  0  0  # atno 10763 bound_to 10752
  154.4378  135.2775  155.1870 H   0  0  0  0  0  0  0  0  0  0  0  0  # atno 10764 bound_to 10752
  154.3551  135.6201  153.5716 H   0  0  0  0  0  0  0  0  0  0  0  0  # atno 10765 bound_to 10752
  140.4345  134.1386  155.7684 H   0  0  0  0  0  0  0  0  0  0  0  0  # atno 11005 bound_to 11000
  145.9406  139.2666  143.1271 LP  0  0  0  0  0  0  0  0  0  0  0  0  # atno 17320 bound_to 7965
  145.9428  140.8967  143.0299 LP  0  0  0  0  0  0  0  0  0  0  0  0  # atno 17321 bound_to 7965
  139.5403  144.7250  151.4755 LP  0  0  0  0  0  0  0  0  0  0  0  0  # atno 17342 bound_to 10162
  140.6673  143.8371  150.6956 LP  0  0  0  0  0  0  0  0  0  0  0  0  # atno 17343 bound_to 10162
  156.1705  130.3646  149.9171 LP  0  0  0  0  0  0  0  0  0  0  0  0  # atno 17370 bound_to 10713
  156.7148  130.8984  151.3613 LP  0  0  0  0  0  0  0  0  0  0  0  0  # atno 17371 bound_to 10713
  141.1732  133.8567  157.1506 LP  0  0  0  0  0  0  0  0  0  0  0  0  # atno 17394 bound_to 11000
  140.0112  134.9987  157.0398 LP  0  0  0  0  0  0  0  0  0  0  0  0  # atno 17395 bound_to 11000

$$$$
