#       Name:                AV-unprocessed.smi:1997
#       Creating user name   scv26
#       Creation time:       Fri Mar 27 10:30:19 2020


#       File generated by GOLD software.
#

@<TRIPOS>MOLECULE
AV-unprocessed.smi:1997
    43    45     1
SMALL
NO_CHARGES


@<TRIPOS>ATOM
      1 ****         0.5254   1.3621  -0.4784 O.2            1 S1                 0.0000
      2 ****         0.1493   0.2398  -0.1385 C.2            1 S1                 0.0000
      3 ****         0.9410  -0.8382  -0.0016 N.am           1 S1                 0.0000
      4 ****         2.3427  -0.9329  -0.2087 C.2            1 S1                 0.0000
      5 ****         3.1163   0.1039  -0.5586 N.2            1 S1                 0.0000
      6 ****         4.4474  -0.2656  -0.6930 N.2            1 S1                 0.0000
      7 ****         4.6424  -1.5652  -0.4403 C.2            1 S1                 0.0000
      8 ****         5.9916  -2.1986  -0.5192 C.3            1 S1                 0.0000
      9 ****         6.4033  -3.3069   0.4254 C.3            1 S1                 0.0000
     10 ****         7.0304  -1.9418   0.5484 C.3            1 S1                 0.0000
     11 ****         3.1870  -2.4589  -0.0117 S.3            1 S1                 0.0000
     12 ****        -1.1289  -0.0589   0.1405 N.am           1 S1                 0.0000
     13 ****        -2.2560   0.8724   0.0519 C.3            1 S1                 0.0000
     14 ****        -3.3615   0.3617   1.0043 C.3            1 S1                 0.0000
     15 ****        -4.3540   1.4527   1.4427 C.3            1 S1                 0.0000
     16 ****        -5.2124   2.0425   0.3131 C.3            1 S1                 0.0000
     17 ****        -4.3957   2.7601  -0.7752 C.3            1 S1                 0.0000
     18 ****        -3.7593   1.8223  -1.6908 N.am           1 S1                 0.0000
     19 ****        -2.8115   0.9214  -1.3907 C.2            1 S1                 0.0000
     20 ****        -2.3975   0.1444  -2.2513 O.2            1 S1                 0.0000
     21 ****         0.4860  -1.6950   0.2770 H              1 S1                 0.0000
     22 ****         6.3273  -2.2603  -1.5525 H              1 S1                 0.0000
     23 ****         5.7066  -3.6050   1.2064 H              1 S1                 0.0000
     24 ****         7.0189  -4.1078   0.0209 H              1 S1                 0.0000
     25 ****         8.0635  -1.8311   0.2257 H              1 S1                 0.0000
     26 ****         6.7395  -1.3311   1.4009 H              1 S1                 0.0000
     27 ****        -1.3479  -1.0074   0.4071 H              1 S1                 0.0000
     28 ****        -1.9229   1.8653   0.3601 H              1 S1                 0.0000
     29 ****        -3.8973  -0.4823   0.5662 H              1 S1                 0.0000
     30 ****        -2.8966  -0.0285   1.9111 H              1 S1                 0.0000
     31 ****        -5.0196   1.0328   2.1975 H              1 S1                 0.0000
     32 ****        -3.8106   2.2559   1.9419 H              1 S1                 0.0000
     33 ****        -5.8345   1.2656  -0.1336 H              1 S1                 0.0000
     34 ****        -5.9038   2.7608   0.7547 H              1 S1                 0.0000
     35 ****        -5.0630   3.3852  -1.3689 H              1 S1                 0.0000
     36 ****        -3.6552   3.4313  -0.3377 H              1 S1                 0.0000
     37 ****        -4.0910   1.8368  -2.6445 H              1 S1                 0.0000
     38 ****         1.4914   1.5265  -0.6780 LP             1 S1                 0.0000
     39 ****        -0.1352   2.1089  -0.5548 LP             1 S1                 0.0000
     40 ****         2.7754   1.0324  -0.7053 LP             1 S1                 0.0000
     41 ****         5.1778   0.3674  -0.9496 LP             1 S1                 0.0000
     42 ****        -1.6942  -0.5282  -2.0210 LP             1 S1                 0.0000
     43 ****        -2.7645   0.1858  -3.1806 LP             1 S1                 0.0000
@<TRIPOS>BOND
    1    1    2 2     
    2    2    3 am    
    3    2   12 am    
    4    3    4 1     
    5    3   21 1     
    6    4   11 1     
    7    4    5 2     
    8    5    6 1     
    9    6    7 2     
   10    7    8 1     
   11    7   11 1     
   12    8   10 1     
   13    8    9 1     
   14    8   22 1     
   15    9   10 1     
   16    9   23 1     
   17    9   24 1     
   18   10   25 1     
   19   10   26 1     
   20   12   13 1     
   21   12   27 1     
   22   13   19 1     
   23   13   14 1     
   24   13   28 1     
   25   14   15 1     
   26   14   29 1     
   27   14   30 1     
   28   15   16 1     
   29   15   31 1     
   30   15   32 1     
   31   16   17 1     
   32   16   33 1     
   33   16   34 1     
   34   17   18 1     
   35   17   35 1     
   36   17   36 1     
   37   18   19 am    
   38   18   37 1     
   39   19   20 2     
   40    1   38 1     
   41    1   39 1     
   42    5   40 1     
   43    6   41 1     
   44   20   42 1     
   45   20   43 1     
@<TRIPOS>SUBSTRUCTURE
      1 S1             1
@<TRIPOS>SET
LONE_PAIRS      STATIC     ATOMS    <user>   **** ""
6 38 39 40 41 42 43
DONOR_HYDROGENS      STATIC     ATOMS    <user>   **** ""
3 21 27 37
ATOM$BLUE        STATIC     ATOMS    COLORGROUP SYSTEM
6 38 39 40 41 42 43
ATOM$RED        STATIC     ATOMS    COLORGROUP SYSTEM
3 21 27 37
