#       Name:                AV-unprocessed.smi:1066
#       Creating user name   scv26
#       Creation time:       Fri Mar 27 03:18:30 2020


#       File generated by GOLD software.
#

@<TRIPOS>MOLECULE
AV-unprocessed.smi:1066
    43    45     1
SMALL
NO_CHARGES


@<TRIPOS>ATOM
      1 ****        -2.7038  -1.0399  -4.6345 C.3            1 S1                 0.0000
      2 ****        -3.2713  -0.5646  -3.3280 C.2            1 S1                 0.0000
      3 ****        -4.1409   0.4375  -3.3203 N.2            1 S1                 0.0000
      4 ****        -4.4840   0.6521  -1.9804 O.3            1 S1                 0.0000
      5 ****        -3.7930  -0.2490  -1.2458 C.2            1 S1                 0.0000
      6 ****        -3.9129  -0.3239   0.4678 Cl             1 S1                 0.0000
      7 ****        -3.0039  -1.0543  -2.0160 C.2            1 S1                 0.0000
      8 ****        -2.0797  -2.1721  -1.6050 C.3            1 S1                 0.0000
      9 ****        -0.6860  -1.6082  -1.3312 C.2            1 S1                 0.0000
     10 ****         0.1989  -1.7093  -2.1802 O.2            1 S1                 0.0000
     11 ****        -0.5071  -1.0069  -0.1455 N.am           1 S1                 0.0000
     12 ****         0.7302  -0.3704   0.2889 C.3            1 S1                 0.0000
     13 ****         1.0357   0.9580  -0.3967 C.3            1 S1                 0.0000
     14 ****         2.0164   1.6183   0.5785 C.3            1 S1                 0.0000
     15 ****         1.7019   1.0847   1.9275 N.4            1 S1                 1.0000
     16 ****         2.8938   0.6305   2.6769 C.3            1 S1                 0.0000
     17 ****         2.7515   0.7627   4.1745 C.3            1 S1                 0.0000
     18 ****         3.6100   1.7429   3.4048 C.3            1 S1                 0.0000
     19 ****         0.6724   0.0351   1.7610 C.3            1 S1                 0.0000
     20 ****        -1.6685  -1.3619  -4.5199 H              1 S1                 0.0000
     21 ****        -2.7208  -0.2529  -5.3894 H              1 S1                 0.0000
     22 ****        -3.2731  -1.8851  -5.0214 H              1 S1                 0.0000
     23 ****        -2.4417  -2.6854  -0.7132 H              1 S1                 0.0000
     24 ****        -2.0095  -2.9339  -2.3825 H              1 S1                 0.0000
     25 ****        -1.2912  -0.9732   0.4903 H              1 S1                 0.0000
     26 ****         1.5668  -1.0571   0.1424 H              1 S1                 0.0000
     27 ****         1.4528   0.8370  -1.3970 H              1 S1                 0.0000
     28 ****         0.1290   1.5598  -0.4788 H              1 S1                 0.0000
     29 ****         3.0378   1.3551   0.2983 H              1 S1                 0.0000
     30 ****         1.9419   2.7058   0.5604 H              1 S1                 0.0000
     31 ****         3.4524  -0.1985   2.2451 H              1 S1                 0.0000
     32 ****         1.8056   1.1267   4.5722 H              1 S1                 0.0000
     33 ****         3.2652   0.0307   4.7946 H              1 S1                 0.0000
     34 ****         4.6888   1.6558   3.5183 H              1 S1                 0.0000
     35 ****         3.2351   2.7587   3.2913 H              1 S1                 0.0000
     36 ****        -0.2967   0.4787   1.9954 H              1 S1                 0.0000
     37 ****         0.8165  -0.8121   2.4333 H              1 S1                 0.0000
     38 ****         1.2796   1.8294   2.4638 H              1 S1                 0.0000
     39 ****        -4.4832   0.9398  -4.1143 LP             1 S1                 0.0000
     40 ****        -5.4667   0.5185  -1.8520 LP             1 S1                 0.0000
     41 ****        -4.2354   1.5812  -1.7068 LP             1 S1                 0.0000
     42 ****         0.0068  -2.1612  -3.0513 LP             1 S1                 0.0000
     43 ****         1.1103  -1.3396  -1.9990 LP             1 S1                 0.0000
@<TRIPOS>BOND
    1    1    2 1     
    2    1   20 1     
    3    1   21 1     
    4    1   22 1     
    5    2    7 1     
    6    2    3 2     
    7    3    4 1     
    8    4    5 1     
    9    5    6 1     
   10    5    7 2     
   11    7    8 1     
   12    8    9 1     
   13    8   23 1     
   14    8   24 1     
   15    9   10 2     
   16    9   11 am    
   17   11   12 1     
   18   11   25 1     
   19   12   19 1     
   20   12   13 1     
   21   12   26 1     
   22   13   14 1     
   23   13   27 1     
   24   13   28 1     
   25   14   15 1     
   26   14   29 1     
   27   14   30 1     
   28   15   16 1     
   29   15   19 1     
   30   15   38 1     
   31   16   18 1     
   32   16   17 1     
   33   16   31 1     
   34   17   18 1     
   35   17   32 1     
   36   17   33 1     
   37   18   34 1     
   38   18   35 1     
   39   19   36 1     
   40   19   37 1     
   41    3   39 1     
   42    4   40 1     
   43    4   41 1     
   44   10   42 1     
   45   10   43 1     
@<TRIPOS>SUBSTRUCTURE
      1 S1             1
@<TRIPOS>SET
LONE_PAIRS      STATIC     ATOMS    <user>   **** ""
5 39 40 41 42 43
DONOR_HYDROGENS      STATIC     ATOMS    <user>   **** ""
2 25 38
ATOM$BLUE        STATIC     ATOMS    COLORGROUP SYSTEM
5 39 40 41 42 43
ATOM$RED        STATIC     ATOMS    COLORGROUP SYSTEM
2 25 38
