AV-unprocessed.smi:1000|AV-procd|sdf|4355|dock4
  -GOLD-   22720 2253D 1   1.00000     0.00000
 Structure written by MMmdl.
 40 41  0  0  0  0  0  0  0  0  1 V2000
  156.2254  139.6986  165.7578 C   0  0  0  0  0  0  0  0  0  0  0  0
  156.9870  139.3060  164.1131 S   0  0  2  0  0  0  0  0  0  0  0  0
  156.7890  140.5315  163.2189 O   0  0  0  0  0  0  0  0  0  0  0  0
  155.6632  138.1552  163.6008 C   0  0  0  0  0  0  0  0  0  0  0  0
  154.7167  137.6956  164.4244 N   0  0  0  0  0  0  0  0  0  0  0  0
  153.9340  136.8685  163.6413 N   0  0  0  0  0  0  0  0  0  0  0  0
  154.4933  136.9188  162.4307 C   0  0  0  0  0  0  0  0  0  0  0  0
  155.5765  137.7060  162.3344 N   0  0  0  0  0  0  0  0  0  0  0  0
  156.4040  137.9787  161.1705 C   0  0  0  0  0  0  0  0  0  0  0  0
  155.7340  138.9793  160.2267 C   0  0  0  0  0  0  0  0  0  0  0  0
  155.5603  138.6832  159.0450 O   0  0  0  0  0  0  0  0  0  0  0  0
  155.3763  140.1608  160.7536 N   0  0  0  0  0  0  0  0  0  0  0  0
  154.8041  141.2714  160.0033 C   0  0  0  0  0  0  0  0  0  0  0  0
  153.3104  141.4484  160.3277 C   0  0  0  0  0  0  0  0  0  0  0  0
  152.6092  142.4022  159.3752 C   0  0  0  0  0  0  0  0  0  0  0  0
  151.6036  141.9983  158.5745 C   0  0  0  0  0  0  0  0  0  0  0  0
  150.8579  142.9091  157.6150 C   0  0  0  0  0  0  0  0  0  0  0  0
  151.1275  144.3980  157.8900 C   0  0  0  0  0  0  0  0  0  0  0  0
  152.6157  144.6503  158.1629 C   0  0  0  0  0  0  0  0  0  0  0  0
  153.1076  143.8431  159.3778 C   0  0  0  0  0  0  0  0  0  0  0  0
  155.6655  138.8469  166.1447 H   0  0  0  0  0  0  0  0  0  0  0  0
  155.5481  140.5476  165.6662 H   0  0  0  0  0  0  0  0  0  0  0  0
  157.0034  139.9524  166.4774 H   0  0  0  0  0  0  0  0  0  0  0  0
  154.0981  136.3677  161.5899 H   0  0  0  0  0  0  0  0  0  0  0  0
  157.3693  138.3602  161.5062 H   0  0  0  0  0  0  0  0  0  0  0  0
  156.5935  137.0454  160.6387 H   0  0  0  0  0  0  0  0  0  0  0  0
  155.5524  140.3170  161.7356 H   0  0  0  0  0  0  0  0  0  0  0  0
  155.3538  142.1910  160.2116 H   0  0  0  0  0  0  0  0  0  0  0  0
  154.9396  141.0608  158.9424 H   0  0  0  0  0  0  0  0  0  0  0  0
  152.8013  140.4843  160.2944 H   0  0  0  0  0  0  0  0  0  0  0  0
  153.1979  141.8167  161.3486 H   0  0  0  0  0  0  0  0  0  0  0  0
  151.2895  140.9649  158.5866 H   0  0  0  0  0  0  0  0  0  0  0  0
  151.1642  142.6516  156.6008 H   0  0  0  0  0  0  0  0  0  0  0  0
  149.7890  142.7069  157.6848 H   0  0  0  0  0  0  0  0  0  0  0  0
  150.7868  145.0004  157.0475 H   0  0  0  0  0  0  0  0  0  0  0  0
  150.5467  144.7201  158.7552 H   0  0  0  0  0  0  0  0  0  0  0  0
  153.1937  144.3697  157.2814 H   0  0  0  0  0  0  0  0  0  0  0  0
  152.7971  145.7133  158.3248 H   0  0  0  0  0  0  0  0  0  0  0  0
  152.7651  144.3197  160.2967 H   0  0  0  0  0  0  0  0  0  0  0  0
  154.1978  143.8530  159.4036 H   0  0  0  0  0  0  0  0  0  0  0  0
  1  2  1  0  0  0  0
  1 21  1  0  0  0  0
  1 22  1  0  0  0  0
  1 23  1  0  0  0  0
  2  3  2  0  0  0  0
  2  4  1  0  0  0  0
  4  8  1  0  0  0  0
  4  5  2  0  0  0  0
  5  6  1  0  0  0  0
  6  7  2  0  0  0  0
  7  8  1  0  0  0  0
  7 24  1  0  0  0  0
  8  9  1  0  0  0  0
  9 10  1  0  0  0  0
  9 25  1  0  0  0  0
  9 26  1  0  0  0  0
 10 11  2  0  0  0  0
 10 12  1  0  0  0  0
 12 13  1  0  0  0  0
 12 27  1  0  0  0  0
 13 14  1  0  0  0  0
 13 28  1  0  0  0  0
 13 29  1  0  0  0  0
 14 15  1  0  0  0  0
 14 30  1  0  0  0  0
 14 31  1  0  0  0  0
 15 20  1  0  0  0  0
 15 16  2  0  0  0  0
 16 17  1  0  0  0  0
 16 32  1  0  0  0  0
 17 18  1  0  0  0  0
 17 33  1  0  0  0  0
 17 34  1  0  0  0  0
 18 19  1  0  0  0  0
 18 35  1  0  0  0  0
 18 36  1  0  0  0  0
 19 20  1  0  0  0  0
 19 37  1  0  0  0  0
 19 38  1  0  0  0  0
 20 39  1  0  0  0  0
 20 40  1  0  0  0  0
M  END
> <s_m_source_file>
AV-unprocessed.smi

> <i_m_source_file_index>
1000

> <i_lp_mmshare_version>
43012

> <i_f3d_flags>
0

> <s_epik_input>
W0NIM11bU0BdKD1PKWMxbm5bY0hdbjFbQ0gyXUMoPU8pW05IXVtDSDJdW0NIMl1DMj1bQ0hdW0NIMl1bQ0gyXVtDSDJdW0NIMl0y

> <s_epik_cmdline>
J2VwaWtfcHl0aG9uJywgJy1waCcsICc3LjAnLCAnLXRuJywgJzgnLCAnLW1hJywgJzIwMCcsICctbWV0YWxfYmluZGluZycsICctaW1hZScsICc8aW5maWxlLm1hZT4nLCAnLW9tYWUnLCAnPG91dGZpbGUubWFlPic=

> <r_lp_tautomer_probability>
1

> <r_epik_Ionization_Penalty>
9.22166e-08

> <r_epik_Ionization_Penalty_Charging>
0

> <r_epik_Ionization_Penalty_Neutral>
9.22166e-08

> <r_epik_State_Penalty>
-0

> <r_epik_Charging_Adjusted_Penalty>
0

> <i_epik_Tot_Q>
0

> <i_epik_Tot_abs_Q>
0

> <r_epik_Metal_State_Penalty>
-0

> <b_epik_Metal_Only>
0

> <s_lp_Force_Field>
OPLS_2005

> <r_lp_Energy>
5.87902

> <b_lp_Chiralities_Consistent>
1

> <s_lp_Variant>
AV-unprocessed.smi:1000-1

> <Gold.Version>
5.8.1

> <Gold.Id.Protein>
6NUR|6NUR_protein|mol2

> <Gold.PLP.Fitness>
39.5117

> <Gold.PLP.PLP>
-37.2514

> <Gold.PLP.part.hbond>
-2.0000

> <Gold.PLP.part.metal>
0.0000

> <Gold.PLP.part.buried>
-3.9140

> <Gold.PLP.part.nonpolar>
-30.8846

> <Gold.PLP.part.repulsive>
0.1339

> <Gold.PLP.ligand.clash>
0.0000

> <Gold.PLP.ligand.torsion>
0.9506

> <Gold.PLP.Chemscore.Hbond>
1.0000

> <Gold.PLP.Chemscore.CHOScore>
0.0000

> <Gold.PLP.Chemscore.Metal>
0.0000

> <Gold.Chemscore.Hbonds>
donor molecule, donor type, donor heavy atom, donor atom, acceptor molecule, acceptor atom, score
      P1  H  7997  8009       L1    11  0.63

> <Gold.PLP.Chemscore.Internal.Correction>
1.1615

> <Gold.Rescore>
     Score         DG    S(hbond)    S(metal)    S(lipo)     H(rot)  DE(clash)    DE(int)     intcor
     13.70     -14.48       0.97        0.00      98.71       2.26       0.01       0.77       ----

> <Gold.Chemscore.Fitness>
13.6996

> <Gold.Chemscore.DG>
-14.4842

> <Gold.Chemscore.ZeroCoef>
-5.4800

> <Gold.Chemscore.Hbond>
0.9734

> <Gold.Chemscore.Metal>
0.0000

> <Gold.Chemscore.Lipo>
98.7081

> <Gold.Chemscore.Internal_Hbond>
0.0000

> <Gold.Chemscore.DEClash>
0.0150

> <Gold.Chemscore.DEInternal>
0.7696

> <Gold.Chemscore.Rot>
2.2640

> <Gold.Chemscore.Internal.Correction>
   9.000000E+99

> <Gold.Chemscore.Hbonds>
donor molecule, donor type, donor heavy atom, donor atom, acceptor molecule, acceptor atom, score
      P1  H  7997  8009       L1    11  0.62

> <Gold.Chemscore.Hbond.Weighted>
-3.2511

> <Gold.Chemscore.Metal.Weighted>
-0.0000

> <Gold.Chemscore.Lipo.Weighted>
-11.5488

> <Gold.Chemscore.Internal_Hbond.Weighted>
0.0000

> <Gold.Chemscore.DEClash.Weighted>
0.0150

> <Gold.Chemscore.DEInternal.Weighted>
0.7696

> <Gold.Chemscore.Rot.Weighted>
5.7957

> <Gold.Chemscore.Internal.Correction.Weighted>
   9.000000E+99

> <Gold.Protein.RotatedTorsions>
[ 6907 6896 6895 6894 ] final -179.33 input  -60.11 | X-H torsion
[ 7974 7965 7964 7962 ] final   25.00 input  175.53 | X-H torsion
[ 8008 7997 7996 7995 ] final   90.97 input   59.86 | X-H torsion
[ 10167 10162 10161 10158 ] final -171.91 input  -65.29 | X-H torsion
[ 10718 10713 10712 10709 ] final -119.70 input   66.30 | X-H torsion
[ 10763 10752 10751 10750 ] final  170.26 input  -60.55 | X-H torsion
[ 11005 11000 10999 10996 ] final  123.96 input  -57.11 | X-H torsion

> <Gold.Protein.ActiveResidues>
 VAL166  LYS551  ARG553  GLY616  TRP617  ASP618  TYR619  PRO620  LYS621  CYS622 
 ASP623  PHE694  ASN695  SER759  ASP760  ASP761  ALA762  ILE779  LEU786  VAL792 
 PHE793  MET794  SER795  GLU796  ALA797  LYS798  CYS799  TRP800  GLU811  SER814 

> <Gold.Protein.RotatedAtoms>
  151.6517  133.3320  159.3153 H   0  0  0  0  0  0  0  0  0  0  0  0  # atno 6907 bound_to 6896
  150.7957  134.7018  159.6564 H   0  0  0  0  0  0  0  0  0  0  0  0  # atno 6908 bound_to 6896
  152.4043  134.6237  160.0109 H   0  0  0  0  0  0  0  0  0  0  0  0  # atno 6909 bound_to 6896
  146.1910  139.7526  142.8832 H   0  0  0  0  0  0  0  0  0  0  0  0  # atno 7974 bound_to 7965
  156.0182  140.3343  155.7011 H   0  0  0  0  0  0  0  0  0  0  0  0  # atno 8008 bound_to 7997
  155.6060  140.0660  157.2737 H   0  0  0  0  0  0  0  0  0  0  0  0  # atno 8009 bound_to 7997
  154.4306  140.1802  156.1210 H   0  0  0  0  0  0  0  0  0  0  0  0  # atno 8010 bound_to 7997
  139.5775  144.1500  152.1470 H   0  0  0  0  0  0  0  0  0  0  0  0  # atno 10167 bound_to 10162
  156.1201  130.6317  150.9449 H   0  0  0  0  0  0  0  0  0  0  0  0  # atno 10718 bound_to 10713
  154.3950  135.2754  155.2131 H   0  0  0  0  0  0  0  0  0  0  0  0  # atno 10763 bound_to 10752
  154.4181  135.6006  153.5997 H   0  0  0  0  0  0  0  0  0  0  0  0  # atno 10764 bound_to 10752
  152.9831  135.5966  154.4210 H   0  0  0  0  0  0  0  0  0  0  0  0  # atno 10765 bound_to 10752
  139.9336  134.9640  156.8337 H   0  0  0  0  0  0  0  0  0  0  0  0  # atno 11005 bound_to 11000
  145.3793  141.0355  143.3187 LP  0  0  0  0  0  0  0  0  0  0  0  0  # atno 17320 bound_to 7965
  144.8487  139.5356  143.6867 LP  0  0  0  0  0  0  0  0  0  0  0  0  # atno 17321 bound_to 7965
  140.1045  144.5510  150.6966 LP  0  0  0  0  0  0  0  0  0  0  0  0  # atno 17342 bound_to 10162
  140.7056  143.2466  151.4736 LP  0  0  0  0  0  0  0  0  0  0  0  0  # atno 17343 bound_to 10162
  157.6385  131.0913  150.8300 LP  0  0  0  0  0  0  0  0  0  0  0  0  # atno 17370 bound_to 10713
  156.8398  130.5044  149.5322 LP  0  0  0  0  0  0  0  0  0  0  0  0  # atno 17371 bound_to 10713
  140.6134  134.0061  155.7587 LP  0  0  0  0  0  0  0  0  0  0  0  0  # atno 17394 bound_to 11000
  141.0939  133.9874  157.3193 LP  0  0  0  0  0  0  0  0  0  0  0  0  # atno 17395 bound_to 11000

$$$$
