AV-unprocessed.smi:2389|AV-procd|sdf|9472|dock9
  -GOLD-   2272013103D 1   1.00000     0.00000
 Structure written by MMmdl.
 34 35  0  0  0  0  0  0  0  0  1 V2000
  154.8019  140.0805  161.6743 C   0  0  0  0  0  0  0  0  0  0  0  0
  153.9924  141.3295  161.3179 C   0  0  0  0  0  0  0  0  0  0  0  0
  153.4662  141.1751  160.0029 O   0  0  0  0  0  0  0  0  0  0  0  0
  152.7888  142.2361  159.4374 C   0  0  0  0  0  0  0  0  0  0  0  0
  152.9360  143.5142  160.0085 C   0  0  0  0  0  0  0  0  0  0  0  0
  152.2400  144.5913  159.4314 C   0  0  0  0  0  0  0  0  0  0  0  0
  151.4255  144.3512  158.3084 C   0  0  0  0  0  0  0  0  0  0  0  0
  151.3285  143.0410  157.7898 C   0  0  0  0  0  0  0  0  0  0  0  0
  150.4834  142.8997  156.6569 N   0  0  0  0  0  0  0  0  0  0  0  0
  150.1518  141.7712  156.0045 C   0  0  0  0  0  0  0  0  0  0  0  0
  150.5386  140.6392  156.2975 O   0  0  0  0  0  0  0  0  0  0  0  0
  149.3351  142.0292  154.9732 N   0  0  0  0  0  0  0  0  0  0  0  0
  148.7955  141.0253  154.0654 C   0  0  0  0  0  0  0  0  0  0  0  0
  147.3213  141.1786  153.7431 C   0  0  0  0  0  0  0  0  0  0  0  0
  146.6498  142.5325  153.7745 C   0  0  0  0  0  0  0  0  0  0  0  0
  146.3333  141.5091  154.8373 C   0  0  0  0  0  0  0  0  0  0  0  0
  152.0045  142.0108  158.3549 N   0  0  0  0  0  0  0  0  0  0  0  0
  155.2182  140.1602  162.6786 H   0  0  0  0  0  0  0  0  0  0  0  0
  155.6301  139.9400  160.9795 H   0  0  0  0  0  0  0  0  0  0  0  0
  154.1789  139.1864  161.6397 H   0  0  0  0  0  0  0  0  0  0  0  0
  153.1832  141.4604  162.0383 H   0  0  0  0  0  0  0  0  0  0  0  0
  154.6369  142.2086  161.3707 H   0  0  0  0  0  0  0  0  0  0  0  0
  153.5679  143.6644  160.8714 H   0  0  0  0  0  0  0  0  0  0  0  0
  152.3282  145.5857  159.8434 H   0  0  0  0  0  0  0  0  0  0  0  0
  150.8836  145.1675  157.8533 H   0  0  0  0  0  0  0  0  0  0  0  0
  150.0900  143.7572  156.2989 H   0  0  0  0  0  0  0  0  0  0  0  0
  149.0677  142.9876  154.8032 H   0  0  0  0  0  0  0  0  0  0  0  0
  149.3543  141.0937  153.1319 H   0  0  0  0  0  0  0  0  0  0  0  0
  148.9836  140.0255  154.4607 H   0  0  0  0  0  0  0  0  0  0  0  0
  146.9629  140.4801  152.9889 H   0  0  0  0  0  0  0  0  0  0  0  0
  147.2519  143.3908  154.0662 H   0  0  0  0  0  0  0  0  0  0  0  0
  145.8890  142.7316  153.0226 H   0  0  0  0  0  0  0  0  0  0  0  0
  145.3589  141.0268  154.7970 H   0  0  0  0  0  0  0  0  0  0  0  0
  146.7242  141.6883  155.8372 H   0  0  0  0  0  0  0  0  0  0  0  0
  1  2  1  0  0  0  0
  1 18  1  0  0  0  0
  1 19  1  0  0  0  0
  1 20  1  0  0  0  0
  2  3  1  0  0  0  0
  2 21  1  0  0  0  0
  2 22  1  0  0  0  0
  3  4  1  0  0  0  0
  4 17  1  0  0  0  0
  4  5  2  0  0  0  0
  5  6  1  0  0  0  0
  5 23  1  0  0  0  0
  6  7  2  0  0  0  0
  6 24  1  0  0  0  0
  7  8  1  0  0  0  0
  7 25  1  0  0  0  0
  8  9  1  0  0  0  0
  8 17  2  0  0  0  0
  9 10  1  0  0  0  0
  9 26  1  0  0  0  0
 10 11  2  0  0  0  0
 10 12  1  0  0  0  0
 12 13  1  0  0  0  0
 12 27  1  0  0  0  0
 13 14  1  0  0  0  0
 13 28  1  0  0  0  0
 13 29  1  0  0  0  0
 14 16  1  0  0  0  0
 14 15  1  0  0  0  0
 14 30  1  0  0  0  0
 15 16  1  0  0  0  0
 15 31  1  0  0  0  0
 15 32  1  0  0  0  0
 16 33  1  0  0  0  0
 16 34  1  0  0  0  0
M  END
> <s_m_source_file>
AV-unprocessed.smi

> <i_m_source_file_index>
2389

> <i_lp_mmshare_version>
43012

> <i_f3d_flags>
0

> <s_epik_input>
W0NIM11bQ0gyXU9jMVtjSF1bY0hdW2NIXWMobjEpW05IXUMoPU8pW05IXVtDSDJdW0NIXTJbQ0gyXVtDSDJdMg==

> <s_epik_cmdline>
J2VwaWtfcHl0aG9uJywgJy1waCcsICc3LjAnLCAnLXRuJywgJzgnLCAnLW1hJywgJzIwMCcsICctbWV0YWxfYmluZGluZycsICctaW1hZScsICc8aW5maWxlLm1hZT4nLCAnLW9tYWUnLCAnPG91dGZpbGUubWFlPic=

> <r_lp_tautomer_probability>
1

> <r_epik_Ionization_Penalty>
4.07356e-05

> <r_epik_Ionization_Penalty_Charging>
0

> <r_epik_Ionization_Penalty_Neutral>
4.07356e-05

> <r_epik_State_Penalty>
-0

> <r_epik_Charging_Adjusted_Penalty>
0

> <i_epik_Tot_Q>
0

> <i_epik_Tot_abs_Q>
0

> <r_epik_Metal_State_Penalty>
-0

> <b_epik_Metal_Only>
0

> <s_lp_Force_Field>
OPLS_2005

> <r_lp_Energy>
13.6513

> <b_lp_Chiralities_Consistent>
1

> <s_lp_Variant>
AV-unprocessed.smi:2389-1

> <Gold.Version>
5.8.1

> <Gold.Id.Protein>
6NUR|6NUR_protein|mol2

> <Gold.PLP.Fitness>
46.8287

> <Gold.PLP.PLP>
-41.7877

> <Gold.PLP.part.hbond>
-2.0000

> <Gold.PLP.part.metal>
0.0000

> <Gold.PLP.part.buried>
-6.1705

> <Gold.PLP.part.nonpolar>
-34.3127

> <Gold.PLP.part.repulsive>
0.2964

> <Gold.PLP.ligand.clash>
0.0000

> <Gold.PLP.ligand.torsion>
0.6022

> <Gold.PLP.Chemscore.Hbond>
1.8960

> <Gold.PLP.Chemscore.CHOScore>
0.0000

> <Gold.PLP.Chemscore.Metal>
0.0000

> <Gold.Chemscore.Hbonds>
donor molecule, donor type, donor heavy atom, donor atom, acceptor molecule, acceptor atom, score
      L1  H     9    26       P1  8028  1.00
      L1  H    12    27       P1  8028  0.88

> <Gold.PLP.Chemscore.Internal.Correction>
0.5574

> <Gold.Rescore>
     Score         DG    S(hbond)    S(metal)    S(lipo)     H(rot)  DE(clash)    DE(int)     intcor
     15.56     -17.50       1.95        0.00      82.55       1.62       0.03       1.90       ----

> <Gold.Chemscore.Fitness>
15.5627

> <Gold.Chemscore.DG>
-17.4961

> <Gold.Chemscore.ZeroCoef>
-5.4800

> <Gold.Chemscore.Hbond>
1.9499

> <Gold.Chemscore.Metal>
0.0000

> <Gold.Chemscore.Lipo>
82.5463

> <Gold.Chemscore.Internal_Hbond>
0.0000

> <Gold.Chemscore.DEClash>
0.0310

> <Gold.Chemscore.DEInternal>
1.9024

> <Gold.Chemscore.Rot>
1.6228

> <Gold.Chemscore.Internal.Correction>
   9.000000E+99

> <Gold.Chemscore.Hbonds>
donor molecule, donor type, donor heavy atom, donor atom, acceptor molecule, acceptor atom, score
      L1  H     9    26       P1  8028  0.98
      L1  H    12    27       P1  8028  0.86

> <Gold.Chemscore.Hbond.Weighted>
-6.5127

> <Gold.Chemscore.Metal.Weighted>
-0.0000

> <Gold.Chemscore.Lipo.Weighted>
-9.6579

> <Gold.Chemscore.Internal_Hbond.Weighted>
0.0000

> <Gold.Chemscore.DEClash.Weighted>
0.0310

> <Gold.Chemscore.DEInternal.Weighted>
1.9024

> <Gold.Chemscore.Rot.Weighted>
4.1545

> <Gold.Chemscore.Internal.Correction.Weighted>
   9.000000E+99

> <Gold.Protein.RotatedTorsions>
[ 6907 6896 6895 6894 ] final  -76.86 input  -60.11 | X-H torsion
[ 7974 7965 7964 7962 ] final   70.66 input  175.53 | X-H torsion
[ 8008 7997 7996 7995 ] final  -87.74 input   59.86 | X-H torsion
[ 10167 10162 10161 10158 ] final -171.12 input  -65.29 | X-H torsion
[ 10718 10713 10712 10709 ] final -112.22 input   66.30 | X-H torsion
[ 10763 10752 10751 10750 ] final  -58.50 input  -60.55 | X-H torsion
[ 11005 11000 10999 10996 ] final -150.51 input  -57.11 | X-H torsion

> <Gold.Protein.ActiveResidues>
 VAL166  LYS551  ARG553  GLY616  TRP617  ASP618  TYR619  PRO620  LYS621  CYS622 
 ASP623  PHE694  ASN695  SER759  ASP760  ASP761  ALA762  ILE779  LEU786  VAL792 
 PHE793  MET794  SER795  GLU796  ALA797  LYS798  CYS799  TRP800  GLU811  SER814 

> <Gold.Protein.RotatedAtoms>
  150.7015  134.4508  159.5335 H   0  0  0  0  0  0  0  0  0  0  0  0  # atno 6907 bound_to 6896
  152.2201  134.8418  160.0496 H   0  0  0  0  0  0  0  0  0  0  0  0  # atno 6908 bound_to 6896
  151.9272  133.3566  159.3954 H   0  0  0  0  0  0  0  0  0  0  0  0  # atno 6909 bound_to 6896
  145.7754  139.2863  143.1296 H   0  0  0  0  0  0  0  0  0  0  0  0  # atno 7974 bound_to 7965
  154.6667  140.0562  157.0122 H   0  0  0  0  0  0  0  0  0  0  0  0  # atno 8008 bound_to 7997
  155.1148  140.3242  155.4493 H   0  0  0  0  0  0  0  0  0  0  0  0  # atno 8009 bound_to 7997
  156.2641  140.2008  156.6271 H   0  0  0  0  0  0  0  0  0  0  0  0  # atno 8010 bound_to 7997
  139.5821  144.1400  152.1528 H   0  0  0  0  0  0  0  0  0  0  0  0  # atno 10167 bound_to 10162
  156.0693  130.5908  150.8479 H   0  0  0  0  0  0  0  0  0  0  0  0  # atno 10718 bound_to 10713
  154.2391  135.6347  153.5201 H   0  0  0  0  0  0  0  0  0  0  0  0  # atno 10763 bound_to 10752
  152.9933  135.5537  154.5930 H   0  0  0  0  0  0  0  0  0  0  0  0  # atno 10764 bound_to 10752
  154.5431  135.2896  155.1052 H   0  0  0  0  0  0  0  0  0  0  0  0  # atno 10765 bound_to 10752
  140.7394  134.3531  157.5150 H   0  0  0  0  0  0  0  0  0  0  0  0  # atno 11005 bound_to 11000
  146.0127  140.8420  142.9962 LP  0  0  0  0  0  0  0  0  0  0  0  0  # atno 17320 bound_to 7965
  144.6805  140.2514  143.7331 LP  0  0  0  0  0  0  0  0  0  0  0  0  # atno 17321 bound_to 7965
  140.0956  144.5584  150.7024 LP  0  0  0  0  0  0  0  0  0  0  0  0  # atno 17342 bound_to 10162
  140.7098  143.2496  151.4616 LP  0  0  0  0  0  0  0  0  0  0  0  0  # atno 17343 bound_to 10162
  157.5754  131.0946  150.9354 LP  0  0  0  0  0  0  0  0  0  0  0  0  # atno 17370 bound_to 10713
  156.9561  130.5438  149.5284 LP  0  0  0  0  0  0  0  0  0  0  0  0  # atno 17371 bound_to 10713
  139.8809  134.9071  156.2937 LP  0  0  0  0  0  0  0  0  0  0  0  0  # atno 17394 bound_to 11000
  140.9850  133.7244  156.0728 LP  0  0  0  0  0  0  0  0  0  0  0  0  # atno 17395 bound_to 11000

$$$$
