AV-unprocessed.smi:1123|AV-procd|sdf|4831|dock1
  -GOLD-   22720 3393D 1   1.00000     0.00000
 Structure written by MMmdl.
 38 39  0  0  0  0  0  0  0  0  2 V2000
  149.0067  140.8966  155.7250 C   0  0  0  0  0  0  0  0  0  0  0  0
  149.0678  140.2963  154.3056 C   0  0  2  0  0  0  0  0  0  0  0  0
  147.7435  139.6446  153.8685 C   0  0  0  0  0  0  0  0  0  0  0  0
  146.8062  139.5263  154.6590 O   0  0  0  0  0  0  0  0  0  0  0  0
  147.6704  139.2376  152.5907 N   0  0  0  0  0  0  0  0  0  0  0  0
  146.5053  138.6100  151.9787 C   0  0  0  0  0  0  0  0  0  0  0  0
  145.9323  137.4985  152.8786 C   0  0  0  0  0  0  0  0  0  0  0  0
  146.1236  136.1413  152.3084 N   0  3  0  0  0  0  0  0  0  0  0  0
  146.0568  135.0842  153.3462 C   0  0  0  0  0  0  0  0  0  0  0  0
  146.3094  133.6996  152.7265 C   0  0  0  0  0  0  0  0  0  0  0  0
  145.3609  133.4623  151.6943 O   0  0  0  0  0  0  0  0  0  0  0  0
  145.4711  134.4145  150.6442 C   0  0  0  0  0  0  0  0  0  0  0  0
  145.1985  135.8269  151.1908 C   0  0  0  0  0  0  0  0  0  0  0  0
  150.1793  139.3629  154.1647 N   0  0  0  0  0  0  0  0  0  0  0  0
  150.1789  138.0720  153.8258 C   0  0  0  0  0  0  0  0  0  0  0  0
  151.3819  137.5155  153.8236 N   0  0  0  0  0  0  0  0  0  0  0  0
  152.1324  138.5925  154.2016 C   0  0  0  0  0  0  0  0  0  0  0  0
  151.4610  139.7217  154.4266 N   0  0  0  0  0  0  0  0  0  0  0  0
  148.2190  141.6465  155.8032 H   0  0  0  0  0  0  0  0  0  0  0  0
  149.9472  141.3859  155.9800 H   0  0  0  0  0  0  0  0  0  0  0  0
  148.8157  140.1352  156.4823 H   0  0  0  0  0  0  0  0  0  0  0  0
  149.2527  141.1202  153.6144 H   0  0  0  0  0  0  0  0  0  0  0  0
  148.4822  139.3668  152.0039 H   0  0  0  0  0  0  0  0  0  0  0  0
  145.7685  139.3947  151.8124 H   0  0  0  0  0  0  0  0  0  0  0  0
  146.7651  138.2132  150.9955 H   0  0  0  0  0  0  0  0  0  0  0  0
  146.4372  137.5429  153.8449 H   0  0  0  0  0  0  0  0  0  0  0  0
  144.8730  137.6708  153.0760 H   0  0  0  0  0  0  0  0  0  0  0  0
  146.7986  135.2773  154.1220 H   0  0  0  0  0  0  0  0  0  0  0  0
  145.0772  135.1045  153.8266 H   0  0  0  0  0  0  0  0  0  0  0  0
  147.3237  133.6270  152.3309 H   0  0  0  0  0  0  0  0  0  0  0  0
  146.2072  132.9238  153.4855 H   0  0  0  0  0  0  0  0  0  0  0  0
  146.4607  134.3580  150.1879 H   0  0  0  0  0  0  0  0  0  0  0  0
  144.7476  134.1672  149.8671 H   0  0  0  0  0  0  0  0  0  0  0  0
  144.1664  135.8981  151.5380 H   0  0  0  0  0  0  0  0  0  0  0  0
  145.3150  136.5480  150.3830 H   0  0  0  0  0  0  0  0  0  0  0  0
  149.2799  137.5272  153.5771 H   0  0  0  0  0  0  0  0  0  0  0  0
  153.2049  138.5416  154.3189 H   0  0  0  0  0  0  0  0  0  0  0  0
  147.0619  136.1127  151.9353 H   0  0  0  0  0  0  0  0  0  0  0  0
  1  2  1  0  0  0  0
  1 19  1  0  0  0  0
  1 20  1  0  0  0  0
  1 21  1  0  0  0  0
  2  3  1  0  0  0  0
  2 14  1  0  0  0  0
  2 22  1  0  0  0  0
  3  4  2  0  0  0  0
  3  5  1  0  0  0  0
  5  6  1  0  0  0  0
  5 23  1  0  0  0  0
  6  7  1  0  0  0  0
  6 24  1  0  0  0  0
  6 25  1  0  0  0  0
  7  8  1  0  0  0  0
  7 26  1  0  0  0  0
  7 27  1  0  0  0  0
  8 13  1  0  0  0  0
  8  9  1  0  0  0  0
  8 38  1  0  0  0  0
  9 10  1  0  0  0  0
  9 28  1  0  0  0  0
  9 29  1  0  0  0  0
 10 11  1  0  0  0  0
 10 30  1  0  0  0  0
 10 31  1  0  0  0  0
 11 12  1  0  0  0  0
 12 13  1  0  0  0  0
 12 32  1  0  0  0  0
 12 33  1  0  0  0  0
 13 34  1  0  0  0  0
 13 35  1  0  0  0  0
 14 18  1  0  0  0  0
 14 15  1  0  0  0  0
 15 16  2  0  0  0  0
 15 36  1  0  0  0  0
 16 17  1  0  0  0  0
 17 18  2  0  0  0  0
 17 37  1  0  0  0  0
M  CHG  1   8   1
M  END
> <s_m_source_file>
AV-unprocessed.smi

> <i_m_source_file_index>
1123

> <i_lp_mmshare_version>
43012

> <i_f3d_flags>
0

> <s_epik_input>
bjFbY0hdbltjSF1uMVtDQEhdKFtDSDNdKUMoPU8pW05IXVtDSDJdW0NIMl1OMltDSDJdW0NIMl1PW0NIMl1bQ0gyXTI=

> <s_epik_cmdline>
J2VwaWtfcHl0aG9uJywgJy1waCcsICc3LjAnLCAnLXRuJywgJzgnLCAnLW1hJywgJzIwMCcsICctbWV0YWxfYmluZGluZycsICctaW1hZScsICc8aW5maWxlLm1hZT4nLCAnLW9tYWUnLCAnPG91dGZpbGUubWFlPic=

> <r_lp_tautomer_probability>
1

> <r_epik_Ionization_Penalty>
0.71326

> <r_epik_Ionization_Penalty_Charging>
0.713252

> <r_epik_Ionization_Penalty_Neutral>
7.98515e-06

> <r_epik_State_Penalty>
0.737017

> <r_epik_Charging_Adjusted_Penalty>
1.45027

> <i_epik_Tot_Q>
1

> <i_epik_Tot_abs_Q>
1

> <r_epik_Metal_State_Penalty>
0.73702

> <b_epik_Metal_Only>
0

> <s_lp_Force_Field>
OPLS_2005

> <r_lp_Energy>
21.5068

> <b_lp_Chiralities_Consistent>
1

> <s_lp_Variant>
AV-unprocessed.smi:1123-3

> <Gold.Version>
5.8.1

> <Gold.Id.Protein>
6NUR|6NUR_protein|mol2

> <Gold.PLP.Fitness>
45.1288

> <Gold.PLP.PLP>
-31.3980

> <Gold.PLP.part.hbond>
-2.8867

> <Gold.PLP.part.metal>
0.0000

> <Gold.PLP.part.buried>
-4.7698

> <Gold.PLP.part.nonpolar>
-25.4739

> <Gold.PLP.part.repulsive>
0.5544

> <Gold.PLP.ligand.clash>
0.0000

> <Gold.PLP.ligand.torsion>
0.6790

> <Gold.PLP.Chemscore.Hbond>
4.0000

> <Gold.PLP.Chemscore.CHOScore>
0.9800

> <Gold.PLP.Chemscore.Metal>
0.0000

> <Gold.Chemscore.Hbonds>
donor molecule, donor type, donor heavy atom, donor atom, acceptor molecule, acceptor atom, score
      L1  H     5    23       P1  7957  1.00
      L1  H     8    38       P1  7948  2.00
      P1  H  7989  7998       L1    18  0.88
      L1  C    15    36       P1  7948  0.92

> <Gold.PLP.Chemscore.Internal.Correction>
0.1487

> <Gold.Rescore>
     Score         DG    S(hbond)    S(metal)    S(lipo)     H(rot)  DE(clash)    DE(int)     intcor
     10.81     -13.33       2.86        0.00      44.24       2.69       0.14       2.38       ----

> <Gold.Chemscore.Fitness>
10.8130

> <Gold.Chemscore.DG>
-13.3292

> <Gold.Chemscore.ZeroCoef>
-5.4800

> <Gold.Chemscore.Hbond>
2.8635

> <Gold.Chemscore.Metal>
0.0000

> <Gold.Chemscore.Lipo>
44.2369

> <Gold.Chemscore.Internal_Hbond>
0.0000

> <Gold.Chemscore.DEClash>
0.1406

> <Gold.Chemscore.DEInternal>
2.3756

> <Gold.Chemscore.Rot>
2.6916

> <Gold.Chemscore.Internal.Correction>
   9.000000E+99

> <Gold.Chemscore.Hbonds>
donor molecule, donor type, donor heavy atom, donor atom, acceptor molecule, acceptor atom, score
      L1  H     5    23       P1  7957  0.94
      L1  H     8    38       P1  7948  1.00
      P1  H  7989  7998       L1    18  0.28

> <Gold.Chemscore.Hbond.Weighted>
-9.5641

> <Gold.Chemscore.Metal.Weighted>
-0.0000

> <Gold.Chemscore.Lipo.Weighted>
-5.1757

> <Gold.Chemscore.Internal_Hbond.Weighted>
0.0000

> <Gold.Chemscore.DEClash.Weighted>
0.1406

> <Gold.Chemscore.DEInternal.Weighted>
2.3756

> <Gold.Chemscore.Rot.Weighted>
6.8906

> <Gold.Chemscore.Internal.Correction.Weighted>
   9.000000E+99

> <Gold.Protein.RotatedTorsions>
[ 6907 6896 6895 6894 ] final  164.16 input  -60.11 | X-H torsion
[ 7974 7965 7964 7962 ] final   65.84 input  175.53 | X-H torsion
[ 8008 7997 7996 7995 ] final  129.06 input   59.86 | X-H torsion
[ 10167 10162 10161 10158 ] final  130.18 input  -65.29 | X-H torsion
[ 10718 10713 10712 10709 ] final -171.93 input   66.30 | X-H torsion
[ 10763 10752 10751 10750 ] final  -39.18 input  -60.55 | X-H torsion
[ 11005 11000 10999 10996 ] final   39.61 input  -57.11 | X-H torsion

> <Gold.Protein.ActiveResidues>
 VAL166  LYS551  ARG553  GLY616  TRP617  ASP618  TYR619  PRO620  LYS621  CYS622 
 ASP623  PHE694  ASN695  SER759  ASP760  ASP761  ALA762  ILE779  LEU786  VAL792 
 PHE793  MET794  SER795  GLU796  ALA797  LYS798  CYS799  TRP800  GLU811  SER814 

> <Gold.Protein.RotatedAtoms>
  151.9141  133.3568  159.3873 H   0  0  0  0  0  0  0  0  0  0  0  0  # atno 6907 bound_to 6896
  150.7051  134.4702  159.5431 H   0  0  0  0  0  0  0  0  0  0  0  0  # atno 6908 bound_to 6896
  152.2314  134.8318  160.0524 H   0  0  0  0  0  0  0  0  0  0  0  0  # atno 6909 bound_to 6896
  145.8337  139.3154  143.0972 H   0  0  0  0  0  0  0  0  0  0  0  0  # atno 7974 bound_to 7965
  156.2928  140.2629  156.2537 H   0  0  0  0  0  0  0  0  0  0  0  0  # atno 8008 bound_to 7997
  154.9857  140.0389  157.2316 H   0  0  0  0  0  0  0  0  0  0  0  0  # atno 8009 bound_to 7997
  154.7731  140.2782  155.6126 H   0  0  0  0  0  0  0  0  0  0  0  0  # atno 8010 bound_to 7997
  139.5442  144.6758  151.4526 H   0  0  0  0  0  0  0  0  0  0  0  0  # atno 10167 bound_to 10162
  156.7481  130.9367  151.3113 H   0  0  0  0  0  0  0  0  0  0  0  0  # atno 10718 bound_to 10713
  153.9252  135.6778  153.4747 H   0  0  0  0  0  0  0  0  0  0  0  0  # atno 10763 bound_to 10752
  153.1008  135.4829  154.8860 H   0  0  0  0  0  0  0  0  0  0  0  0  # atno 10764 bound_to 10752
  154.7457  135.3172  154.8606 H   0  0  0  0  0  0  0  0  0  0  0  0  # atno 10765 bound_to 10752
  140.2011  134.3869  155.8095 H   0  0  0  0  0  0  0  0  0  0  0  0  # atno 11005 bound_to 11000
  145.9543  140.8885  143.0243 LP  0  0  0  0  0  0  0  0  0  0  0  0  # atno 17320 bound_to 7965
  144.6738  140.1723  143.7413 LP  0  0  0  0  0  0  0  0  0  0  0  0  # atno 17321 bound_to 7965
  140.6684  143.8347  150.6970 LP  0  0  0  0  0  0  0  0  0  0  0  0  # atno 17342 bound_to 10162
  140.1764  143.4151  152.1964 LP  0  0  0  0  0  0  0  0  0  0  0  0  # atno 17343 bound_to 10162
  157.6789  130.9121  150.0219 LP  0  0  0  0  0  0  0  0  0  0  0  0  # atno 17370 bound_to 10713
  156.1420  130.3642  149.9568 LP  0  0  0  0  0  0  0  0  0  0  0  0  # atno 17371 bound_to 10713
  141.2227  133.7095  156.8260 LP  0  0  0  0  0  0  0  0  0  0  0  0  # atno 17394 bound_to 11000
  140.2053  134.8867  157.3214 LP  0  0  0  0  0  0  0  0  0  0  0  0  # atno 17395 bound_to 11000

$$$$
