AV-unprocessed.smi:2862|AV-procd|sdf|11011|dock2
  -GOLD-   2272015473D 1   1.00000     0.00000
 Structure written by MMmdl.
 52 54  0  0  0  0  0  0  0  0  1 V2000
  152.3498  140.4457  158.6629 C   0  0  0  0  0  0  0  0  0  0  0  0
  151.5508  141.3547  157.7127 C   0  0  1  0  0  0  0  0  0  0  0  0
  150.3622  140.6738  157.2002 N   0  0  0  0  0  0  0  0  0  0  0  0
  150.1942  140.1548  155.9727 C   0  0  0  0  0  0  0  0  0  0  0  0
  151.0352  140.2378  155.0766 O   0  0  0  0  0  0  0  0  0  0  0  0
  148.8592  139.4373  155.7241 C   0  0  0  0  0  0  0  0  0  0  0  0
  148.7734  138.1353  156.4078 N   0  0  0  0  0  0  0  0  0  0  0  0
  148.6672  136.9896  155.5934 C   0  0  0  0  0  0  0  0  0  0  0  0
  148.6003  135.7513  156.1071 C   0  0  0  0  0  0  0  0  0  0  0  0
  148.6648  135.5994  157.5405 C   0  0  0  0  0  0  0  0  0  0  0  0
  148.7903  136.6881  158.3279 C   0  0  0  0  0  0  0  0  0  0  0  0
  148.8556  136.5532  159.7856 C   0  0  0  0  0  0  0  0  0  0  0  0
  149.9244  136.6424  160.3907 O   0  0  0  0  0  0  0  0  0  0  0  0
  147.6741  136.3289  160.4326 N   0  0  0  0  0  0  0  0  0  0  0  0
  146.3566  136.6494  159.8561 C   0  0  0  0  0  0  0  0  0  0  0  0
  147.6035  135.8789  161.8395 C   0  0  1  0  0  0  0  0  0  0  0  0
  147.0865  136.9948  162.7697 C   0  0  0  0  0  0  0  0  0  0  0  0
  146.8389  134.5796  162.0560 C   0  0  0  0  0  0  0  0  0  0  0  0
  147.5026  133.2416  161.8322 C   0  0  0  0  0  0  0  0  0  0  0  0
  146.4188  133.7168  160.8905 C   0  0  0  0  0  0  0  0  0  0  0  0
  148.7925  138.0632  157.7756 C   0  0  0  0  0  0  0  0  0  0  0  0
  148.8077  139.0861  158.4670 O   0  0  0  0  0  0  0  0  0  0  0  0
  151.2813  142.7177  158.3331 C   0  0  0  0  0  0  0  0  0  0  0  0
  151.8337  143.9790  157.7143 C   0  0  0  0  0  0  0  0  0  0  0  0
  152.3764  143.4827  159.0367 C   0  0  0  0  0  0  0  0  0  0  0  0
  153.3019  140.9048  158.9296 H   0  0  0  0  0  0  0  0  0  0  0  0
  152.5692  139.4845  158.1972 H   0  0  0  0  0  0  0  0  0  0  0  0
  151.8099  140.2526  159.5901 H   0  0  0  0  0  0  0  0  0  0  0  0
  152.1775  141.5217  156.8356 H   0  0  0  0  0  0  0  0  0  0  0  0
  149.6032  140.5569  157.8559 H   0  0  0  0  0  0  0  0  0  0  0  0
  148.0328  140.0752  156.0443 H   0  0  0  0  0  0  0  0  0  0  0  0
  148.7338  139.3248  154.6465 H   0  0  0  0  0  0  0  0  0  0  0  0
  148.6410  137.1801  154.5304 H   0  0  0  0  0  0  0  0  0  0  0  0
  148.5165  134.8885  155.4629 H   0  0  0  0  0  0  0  0  0  0  0  0
  148.6378  134.6086  157.9714 H   0  0  0  0  0  0  0  0  0  0  0  0
  146.4057  137.3930  159.0598 H   0  0  0  0  0  0  0  0  0  0  0  0
  145.6849  137.0669  160.6067 H   0  0  0  0  0  0  0  0  0  0  0  0
  145.8880  135.7498  159.4561 H   0  0  0  0  0  0  0  0  0  0  0  0
  148.6240  135.6936  162.1794 H   0  0  0  0  0  0  0  0  0  0  0  0
  147.2084  136.7131  163.8159 H   0  0  0  0  0  0  0  0  0  0  0  0
  146.0287  137.2075  162.6161 H   0  0  0  0  0  0  0  0  0  0  0  0
  147.6399  137.9219  162.6152 H   0  0  0  0  0  0  0  0  0  0  0  0
  146.1454  134.6086  162.8935 H   0  0  0  0  0  0  0  0  0  0  0  0
  148.5250  133.2371  161.4593 H   0  0  0  0  0  0  0  0  0  0  0  0
  147.2540  132.4371  162.5213 H   0  0  0  0  0  0  0  0  0  0  0  0
  145.4473  133.2310  160.9523 H   0  0  0  0  0  0  0  0  0  0  0  0
  146.7229  134.0260  159.8925 H   0  0  0  0  0  0  0  0  0  0  0  0
  150.2947  142.8082  158.7837 H   0  0  0  0  0  0  0  0  0  0  0  0
  152.4716  143.8766  156.8385 H   0  0  0  0  0  0  0  0  0  0  0  0
  151.1984  144.8623  157.7279 H   0  0  0  0  0  0  0  0  0  0  0  0
  152.1049  144.0380  159.9322 H   0  0  0  0  0  0  0  0  0  0  0  0
  153.3757  143.0515  159.0393 H   0  0  0  0  0  0  0  0  0  0  0  0
  1  2  1  0  0  0  0
  1 26  1  0  0  0  0
  1 27  1  0  0  0  0
  1 28  1  0  0  0  0
  2  3  1  0  0  0  0
  2 23  1  0  0  0  0
  2 29  1  0  0  0  0
  3  4  1  0  0  0  0
  3 30  1  0  0  0  0
  4  5  2  0  0  0  0
  4  6  1  0  0  0  0
  6  7  1  0  0  0  0
  6 31  1  0  0  0  0
  6 32  1  0  0  0  0
  7 21  1  0  0  0  0
  7  8  1  0  0  0  0
  8  9  2  0  0  0  0
  8 33  1  0  0  0  0
  9 10  1  0  0  0  0
  9 34  1  0  0  0  0
 10 11  2  0  0  0  0
 10 35  1  0  0  0  0
 11 12  1  0  0  0  0
 11 21  1  0  0  0  0
 12 13  2  0  0  0  0
 12 14  1  0  0  0  0
 14 15  1  0  0  0  0
 14 16  1  0  0  0  0
 15 36  1  0  0  0  0
 15 37  1  0  0  0  0
 15 38  1  0  0  0  0
 16 17  1  0  0  0  0
 16 18  1  0  0  0  0
 16 39  1  0  0  0  0
 17 40  1  0  0  0  0
 17 41  1  0  0  0  0
 17 42  1  0  0  0  0
 18 20  1  0  0  0  0
 18 19  1  0  0  0  0
 18 43  1  0  0  0  0
 19 20  1  0  0  0  0
 19 44  1  0  0  0  0
 19 45  1  0  0  0  0
 20 46  1  0  0  0  0
 20 47  1  0  0  0  0
 21 22  2  0  0  0  0
 23 25  1  0  0  0  0
 23 24  1  0  0  0  0
 23 48  1  0  0  0  0
 24 25  1  0  0  0  0
 24 49  1  0  0  0  0
 24 50  1  0  0  0  0
 25 51  1  0  0  0  0
 25 52  1  0  0  0  0
M  END
> <s_m_source_file>
AV-unprocessed.smi

> <i_m_source_file_index>
2862

> <i_lp_mmshare_version>
43012

> <i_f3d_flags>
0

> <s_epik_input>
W0NIMl0xW0NIMl1bQ0hdMVtDQEhdKFtDSDNdKVtOSF1DKD1PKVtDSDJdbjJbY0hdW2NIXVtjSF1jKGMyPU8pQyg9TylOKFtDSDNdKVtDQEhdKFtDSDNdKVtDSF0zW0NIMl1bQ0gyXTM=

> <s_epik_cmdline>
J2VwaWtfcHl0aG9uJywgJy1waCcsICc3LjAnLCAnLXRuJywgJzgnLCAnLW1hJywgJzIwMCcsICctbWV0YWxfYmluZGluZycsICctaW1hZScsICc8aW5maWxlLm1hZT4nLCAnLW9tYWUnLCAnPG91dGZpbGUubWFlPic=

> <r_lp_tautomer_probability>
1

> <r_epik_Ionization_Penalty>
4.00841e-08

> <r_epik_Ionization_Penalty_Charging>
2.07773e-08

> <r_epik_Ionization_Penalty_Neutral>
1.93069e-08

> <r_epik_State_Penalty>
-0

> <r_epik_Charging_Adjusted_Penalty>
2.07773e-08

> <i_epik_Tot_Q>
0

> <i_epik_Tot_abs_Q>
0

> <r_epik_Metal_State_Penalty>
-0

> <b_epik_Metal_Only>
0

> <s_lp_Force_Field>
OPLS_2005

> <r_lp_Energy>
59.5746

> <b_lp_Chiralities_Consistent>
1

> <s_lp_Variant>
AV-unprocessed.smi:2862-4

> <Gold.Version>
5.8.1

> <Gold.Id.Protein>
6NUR|6NUR_protein|mol2

> <Gold.PLP.Fitness>
45.7908

> <Gold.PLP.PLP>
-40.6398

> <Gold.PLP.part.hbond>
-3.5222

> <Gold.PLP.part.metal>
0.0000

> <Gold.PLP.part.buried>
-3.2918

> <Gold.PLP.part.nonpolar>
-34.4628

> <Gold.PLP.part.repulsive>
0.0797

> <Gold.PLP.ligand.clash>
0.0000

> <Gold.PLP.ligand.torsion>
3.6905

> <Gold.PLP.Chemscore.Hbond>
1.9474

> <Gold.PLP.Chemscore.CHOScore>
0.6014

> <Gold.PLP.Chemscore.Metal>
0.0000

> <Gold.Chemscore.Hbonds>
donor molecule, donor type, donor heavy atom, donor atom, acceptor molecule, acceptor atom, score
      P1  H  6896  6908       L1    13  1.00
      P1  H  6931  6943       L1    13  0.07
      P1  H  7989  7998       L1     5  1.00
      L1  C     8    33       P1  7948  0.23

> <Gold.PLP.Chemscore.Internal.Correction>
4.8858

> <Gold.Rescore>
     Score         DG    S(hbond)    S(metal)    S(lipo)     H(rot)  DE(clash)    DE(int)     intcor
     13.41     -19.35       1.92        0.00     101.67       1.73       0.45       5.50       ----

> <Gold.Chemscore.Fitness>
13.4088

> <Gold.Chemscore.DG>
-19.3528

> <Gold.Chemscore.ZeroCoef>
-5.4800

> <Gold.Chemscore.Hbond>
1.9217

> <Gold.Chemscore.Metal>
0.0000

> <Gold.Chemscore.Lipo>
101.6701

> <Gold.Chemscore.Internal_Hbond>
0.0000

> <Gold.Chemscore.DEClash>
0.4487

> <Gold.Chemscore.DEInternal>
5.4952

> <Gold.Chemscore.Rot>
1.7348

> <Gold.Chemscore.Internal.Correction>
   9.000000E+99

> <Gold.Chemscore.Hbonds>
donor molecule, donor type, donor heavy atom, donor atom, acceptor molecule, acceptor atom, score
      P1  H  6896  6908       L1    13  0.60
      P1  H  6931  6943       L1    13  0.01
      P1  H  7989  7998       L1     5  0.99

> <Gold.Chemscore.Hbond.Weighted>
-6.4185

> <Gold.Chemscore.Metal.Weighted>
-0.0000

> <Gold.Chemscore.Lipo.Weighted>
-11.8954

> <Gold.Chemscore.Internal_Hbond.Weighted>
0.0000

> <Gold.Chemscore.DEClash.Weighted>
0.4487

> <Gold.Chemscore.DEInternal.Weighted>
5.4952

> <Gold.Chemscore.Rot.Weighted>
4.4412

> <Gold.Chemscore.Internal.Correction.Weighted>
   9.000000E+99

> <Gold.Protein.RotatedTorsions>
[ 6907 6896 6895 6894 ] final -150.56 input  -60.11 | X-H torsion
[ 7974 7965 7964 7962 ] final  -74.76 input  175.53 | X-H torsion
[ 8008 7997 7996 7995 ] final  124.91 input   59.86 | X-H torsion
[ 10167 10162 10161 10158 ] final   -1.06 input  -65.29 | X-H torsion
[ 10718 10713 10712 10709 ] final  -31.36 input   66.30 | X-H torsion
[ 10763 10752 10751 10750 ] final  -47.45 input  -60.55 | X-H torsion
[ 11005 11000 10999 10996 ] final   59.17 input  -57.11 | X-H torsion

> <Gold.Protein.ActiveResidues>
 VAL166  LYS551  ARG553  GLY616  TRP617  ASP618  TYR619  PRO620  LYS621  CYS622 
 ASP623  PHE694  ASN695  SER759  ASP760  ASP761  ALA762  ILE779  LEU786  VAL792 
 PHE793  MET794  SER795  GLU796  ALA797  LYS798  CYS799  TRP800  GLU811  SER814 

> <Gold.Protein.RotatedAtoms>
  151.2003  133.4615  159.2595 H   0  0  0  0  0  0  0  0  0  0  0  0  # atno 6907 bound_to 6896
  151.1076  135.0008  159.8488 H   0  0  0  0  0  0  0  0  0  0  0  0  # atno 6908 bound_to 6896
  152.5448  134.1925  159.8732 H   0  0  0  0  0  0  0  0  0  0  0  0  # atno 6909 bound_to 6896
  145.6349  140.9327  143.1067 H   0  0  0  0  0  0  0  0  0  0  0  0  # atno 7974 bound_to 7965
  156.2817  140.2729  156.1864 H   0  0  0  0  0  0  0  0  0  0  0  0  # atno 8008 bound_to 7997
  155.0504  140.0386  157.2559 H   0  0  0  0  0  0  0  0  0  0  0  0  # atno 8009 bound_to 7997
  154.7200  140.2686  155.6555 H   0  0  0  0  0  0  0  0  0  0  0  0  # atno 8010 bound_to 7997
  140.6794  143.6820  150.8098 H   0  0  0  0  0  0  0  0  0  0  0  0  # atno 10167 bound_to 10162
  156.3882  130.4368  149.7415 H   0  0  0  0  0  0  0  0  0  0  0  0  # atno 10718 bound_to 10713
  154.0615  135.6617  153.4812 H   0  0  0  0  0  0  0  0  0  0  0  0  # atno 10763 bound_to 10752
  153.0425  135.5136  154.7654 H   0  0  0  0  0  0  0  0  0  0  0  0  # atno 10764 bound_to 10752
  154.6692  135.3027  154.9732 H   0  0  0  0  0  0  0  0  0  0  0  0  # atno 10765 bound_to 10752
  140.0323  134.5993  155.9490 H   0  0  0  0  0  0  0  0  0  0  0  0  # atno 11005 bound_to 11000
  144.7179  139.8131  143.7392 LP  0  0  0  0  0  0  0  0  0  0  0  0  # atno 17320 bound_to 7965
  146.1327  139.4366  143.0158 LP  0  0  0  0  0  0  0  0  0  0  0  0  # atno 17321 bound_to 7965
  140.0518  143.5242  152.2670 LP  0  0  0  0  0  0  0  0  0  0  0  0  # atno 17342 bound_to 10162
  139.6107  144.7608  151.2959 LP  0  0  0  0  0  0  0  0  0  0  0  0  # atno 17343 bound_to 10162
  156.4479  130.7892  151.2914 LP  0  0  0  0  0  0  0  0  0  0  0  0  # atno 17370 bound_to 10713
  157.7497  131.0104  150.3307 LP  0  0  0  0  0  0  0  0  0  0  0  0  # atno 17371 bound_to 10713
  141.1838  133.6551  156.5131 LP  0  0  0  0  0  0  0  0  0  0  0  0  # atno 17394 bound_to 11000
  140.4204  134.7192  157.4887 LP  0  0  0  0  0  0  0  0  0  0  0  0  # atno 17395 bound_to 11000

$$$$
