AV-unprocessed.smi:1020|AV-procd|sdf|4453|dock9
  -GOLD-   22720 2423D 1   1.00000     0.00000
 Structure written by MMmdl.
 46 47  0  0  0  0  0  0  0  0  1 V2000
  145.6344  134.4623  163.8178 C   0  0  0  0  0  0  0  0  0  0  0  0
  146.9775  134.3915  163.0827 C   0  0  0  0  0  0  0  0  0  0  0  0
  147.9919  135.3886  163.6642 C   0  0  0  0  0  0  0  0  0  0  0  0
  146.7209  134.6869  161.7162 O   0  0  0  0  0  0  0  0  0  0  0  0
  147.8789  134.9806  160.9468 C   0  0  0  0  0  0  0  0  0  0  0  0
  147.5160  135.9792  159.8404 C   0  0  0  0  0  0  0  0  0  0  0  0
  148.6730  136.8236  159.4192 C   0  0  0  0  0  0  0  0  0  0  0  0
  149.9068  136.4124  159.1376 N   0  0  0  0  0  0  0  0  0  0  0  0
  150.5318  137.5993  158.9022 C   0  0  0  0  0  0  0  0  0  0  0  0
  151.9798  137.6971  158.5392 C   0  0  0  0  0  0  0  0  0  0  0  0
  152.3083  139.0874  157.9914 C   0  0  0  0  0  0  0  0  0  0  0  0
  152.8309  139.2042  156.8829 O   0  0  0  0  0  0  0  0  0  0  0  0
  151.9968  140.1316  158.7763 N   0  0  0  0  0  0  0  0  0  0  0  0
  152.2553  141.5326  158.4607 C   0  0  0  0  0  0  0  0  0  0  0  0
  152.9106  142.2448  159.6622 C   0  0  0  0  0  0  0  0  0  0  0  0
  153.1166  143.7429  159.3879 C   0  0  0  0  0  0  0  0  0  0  0  0
  151.7966  144.4250  158.9966 C   0  0  0  0  0  0  0  0  0  0  0  0
  151.1452  143.7230  157.7946 C   0  0  0  0  0  0  0  0  0  0  0  0
  150.9359  142.2249  158.0696 C   0  0  0  0  0  0  0  0  0  0  0  0
  149.7747  138.6848  159.0183 N   0  0  0  0  0  0  0  0  0  0  0  0
  148.5221  138.1694  159.3809 O   0  0  0  0  0  0  0  0  0  0  0  0
  145.7516  134.2370  164.8779 H   0  0  0  0  0  0  0  0  0  0  0  0
  144.9305  133.7418  163.4028 H   0  0  0  0  0  0  0  0  0  0  0  0
  145.1862  135.4526  163.7320 H   0  0  0  0  0  0  0  0  0  0  0  0
  147.3625  133.3752  163.1827 H   0  0  0  0  0  0  0  0  0  0  0  0
  148.1557  135.2023  164.7259 H   0  0  0  0  0  0  0  0  0  0  0  0
  147.6394  136.4150  163.5575 H   0  0  0  0  0  0  0  0  0  0  0  0
  148.9600  135.3160  163.1696 H   0  0  0  0  0  0  0  0  0  0  0  0
  148.6636  135.4014  161.5754 H   0  0  0  0  0  0  0  0  0  0  0  0
  148.2719  134.0648  160.5021 H   0  0  0  0  0  0  0  0  0  0  0  0
  147.1385  135.4444  158.9681 H   0  0  0  0  0  0  0  0  0  0  0  0
  146.7112  136.6326  160.1782 H   0  0  0  0  0  0  0  0  0  0  0  0
  152.5892  137.4918  159.4203 H   0  0  0  0  0  0  0  0  0  0  0  0
  152.2319  136.9400  157.7952 H   0  0  0  0  0  0  0  0  0  0  0  0
  151.5677  139.9395  159.6703 H   0  0  0  0  0  0  0  0  0  0  0  0
  152.9329  141.5848  157.6061 H   0  0  0  0  0  0  0  0  0  0  0  0
  152.2847  142.1231  160.5475 H   0  0  0  0  0  0  0  0  0  0  0  0
  153.8709  141.7838  159.8965 H   0  0  0  0  0  0  0  0  0  0  0  0
  153.5387  144.2265  160.2693 H   0  0  0  0  0  0  0  0  0  0  0  0
  153.8457  143.8699  158.5864 H   0  0  0  0  0  0  0  0  0  0  0  0
  151.1112  144.4088  159.8449 H   0  0  0  0  0  0  0  0  0  0  0  0
  151.9750  145.4749  158.7625 H   0  0  0  0  0  0  0  0  0  0  0  0
  150.1901  144.1949  157.5615 H   0  0  0  0  0  0  0  0  0  0  0  0
  151.7751  143.8478  156.9128 H   0  0  0  0  0  0  0  0  0  0  0  0
  150.5095  141.7465  157.1871 H   0  0  0  0  0  0  0  0  0  0  0  0
  150.2038  142.1051  158.8699 H   0  0  0  0  0  0  0  0  0  0  0  0
  1  2  1  0  0  0  0
  1 22  1  0  0  0  0
  1 23  1  0  0  0  0
  1 24  1  0  0  0  0
  2  3  1  0  0  0  0
  2  4  1  0  0  0  0
  2 25  1  0  0  0  0
  3 26  1  0  0  0  0
  3 27  1  0  0  0  0
  3 28  1  0  0  0  0
  4  5  1  0  0  0  0
  5  6  1  0  0  0  0
  5 29  1  0  0  0  0
  5 30  1  0  0  0  0
  6  7  1  0  0  0  0
  6 31  1  0  0  0  0
  6 32  1  0  0  0  0
  7 21  1  0  0  0  0
  7  8  2  0  0  0  0
  8  9  1  0  0  0  0
  9 10  1  0  0  0  0
  9 20  2  0  0  0  0
 10 11  1  0  0  0  0
 10 33  1  0  0  0  0
 10 34  1  0  0  0  0
 11 12  2  0  0  0  0
 11 13  1  0  0  0  0
 13 14  1  0  0  0  0
 13 35  1  0  0  0  0
 14 19  1  0  0  0  0
 14 15  1  0  0  0  0
 14 36  1  0  0  0  0
 15 16  1  0  0  0  0
 15 37  1  0  0  0  0
 15 38  1  0  0  0  0
 16 17  1  0  0  0  0
 16 39  1  0  0  0  0
 16 40  1  0  0  0  0
 17 18  1  0  0  0  0
 17 41  1  0  0  0  0
 17 42  1  0  0  0  0
 18 19  1  0  0  0  0
 18 43  1  0  0  0  0
 18 44  1  0  0  0  0
 19 45  1  0  0  0  0
 19 46  1  0  0  0  0
 20 21  1  0  0  0  0
M  END
> <s_m_source_file>
AV-unprocessed.smi

> <i_m_source_file_index>
1020

> <i_lp_mmshare_version>
43012

> <i_f3d_flags>
0

> <s_epik_input>
W0NIM11bQ0hdKFtDSDNdKU9bQ0gyXVtDSDJdYzFuYyhubzEpW0NIMl1DKD1PKVtOSF1bQ0hdMltDSDJdW0NIMl1bQ0gyXVtDSDJdW0NIMl0y

> <s_epik_cmdline>
J2VwaWtfcHl0aG9uJywgJy1waCcsICc3LjAnLCAnLXRuJywgJzgnLCAnLW1hJywgJzIwMCcsICctbWV0YWxfYmluZGluZycsICctaW1hZScsICc8aW5maWxlLm1hZT4nLCAnLW9tYWUnLCAnPG91dGZpbGUubWFlPic=

> <r_lp_tautomer_probability>
1

> <r_epik_Ionization_Penalty>
6.23671e-08

> <r_epik_Ionization_Penalty_Charging>
0

> <r_epik_Ionization_Penalty_Neutral>
6.23671e-08

> <r_epik_State_Penalty>
-0

> <r_epik_Charging_Adjusted_Penalty>
0

> <i_epik_Tot_Q>
0

> <i_epik_Tot_abs_Q>
0

> <r_epik_Metal_State_Penalty>
-0

> <b_epik_Metal_Only>
0

> <s_lp_Force_Field>
OPLS_2005

> <r_lp_Energy>
5.58856

> <b_lp_Chiralities_Consistent>
1

> <s_lp_Variant>
AV-unprocessed.smi:1020-1

> <Gold.Version>
5.8.1

> <Gold.Id.Protein>
6NUR|6NUR_protein|mol2

> <Gold.PLP.Fitness>
47.5420

> <Gold.PLP.PLP>
-43.2706

> <Gold.PLP.part.hbond>
-2.9208

> <Gold.PLP.part.metal>
0.0000

> <Gold.PLP.part.buried>
-6.0382

> <Gold.PLP.part.nonpolar>
-34.5429

> <Gold.PLP.part.repulsive>
0.1280

> <Gold.PLP.ligand.clash>
0.0000

> <Gold.PLP.ligand.torsion>
0.9405

> <Gold.PLP.Chemscore.Hbond>
2.0000

> <Gold.PLP.Chemscore.CHOScore>
0.0000

> <Gold.PLP.Chemscore.Metal>
0.0000

> <Gold.Chemscore.Hbonds>
donor molecule, donor type, donor heavy atom, donor atom, acceptor molecule, acceptor atom, score
      P1  H  6896  6909       L1     8  1.00
      P1  H  6934  6947       L1    21  0.08
      P1  H  7997  8010       L1    12  0.80

> <Gold.PLP.Chemscore.Internal.Correction>
0.1524

> <Gold.Rescore>
     Score         DG    S(hbond)    S(metal)    S(lipo)     H(rot)  DE(clash)    DE(int)     intcor
     16.86     -19.16       1.96        0.00     106.98       2.10       0.03       2.27       ----

> <Gold.Chemscore.Fitness>
16.8579

> <Gold.Chemscore.DG>
-19.1605

> <Gold.Chemscore.ZeroCoef>
-5.4800

> <Gold.Chemscore.Hbond>
1.9567

> <Gold.Chemscore.Metal>
0.0000

> <Gold.Chemscore.Lipo>
106.9776

> <Gold.Chemscore.Internal_Hbond>
0.0000

> <Gold.Chemscore.DEClash>
0.0285

> <Gold.Chemscore.DEInternal>
2.2741

> <Gold.Chemscore.Rot>
2.0982

> <Gold.Chemscore.Internal.Correction>
   9.000000E+99

> <Gold.Chemscore.Hbonds>
donor molecule, donor type, donor heavy atom, donor atom, acceptor molecule, acceptor atom, score
      P1  H  6896  6909       L1     8  0.98
      P1  H  6934  6947       L1    21  0.09
      P1  H  7997  8010       L1    12  0.65

> <Gold.Chemscore.Hbond.Weighted>
-6.5354

> <Gold.Chemscore.Metal.Weighted>
-0.0000

> <Gold.Chemscore.Lipo.Weighted>
-12.5164

> <Gold.Chemscore.Internal_Hbond.Weighted>
0.0000

> <Gold.Chemscore.DEClash.Weighted>
0.0285

> <Gold.Chemscore.DEInternal.Weighted>
2.2741

> <Gold.Chemscore.Rot.Weighted>
5.3713

> <Gold.Chemscore.Internal.Correction.Weighted>
   9.000000E+99

> <Gold.Protein.RotatedTorsions>
[ 6907 6896 6895 6894 ] final   60.81 input  -60.11 | X-H torsion
[ 7974 7965 7964 7962 ] final   49.84 input  175.53 | X-H torsion
[ 8008 7997 7996 7995 ] final   33.44 input   59.86 | X-H torsion
[ 10167 10162 10161 10158 ] final   85.38 input  -65.29 | X-H torsion
[ 10718 10713 10712 10709 ] final  123.14 input   66.30 | X-H torsion
[ 10763 10752 10751 10750 ] final  -14.69 input  -60.55 | X-H torsion
[ 11005 11000 10999 10996 ] final  138.55 input  -57.11 | X-H torsion

> <Gold.Protein.ActiveResidues>
 VAL166  LYS551  ARG553  GLY616  TRP617  ASP618  TYR619  PRO620  LYS621  CYS622 
 ASP623  PHE694  ASN695  SER759  ASP760  ASP761  ALA762  ILE779  LEU786  VAL792 
 PHE793  MET794  SER795  GLU796  ALA797  LYS798  CYS799  TRP800  GLU811  SER814 

> <Gold.Protein.RotatedAtoms>
  152.4035  134.6246  160.0059 H   0  0  0  0  0  0  0  0  0  0  0  0  # atno 6907 bound_to 6896
  151.6444  133.3318  159.3145 H   0  0  0  0  0  0  0  0  0  0  0  0  # atno 6908 bound_to 6896
  150.7933  134.7015  159.6597 H   0  0  0  0  0  0  0  0  0  0  0  0  # atno 6909 bound_to 6896
  146.0070  139.4501  142.9979 H   0  0  0  0  0  0  0  0  0  0  0  0  # atno 7974 bound_to 7965
  155.1386  140.3264  155.4457 H   0  0  0  0  0  0  0  0  0  0  0  0  # atno 8008 bound_to 7997
  156.2612  140.1997  156.6452 H   0  0  0  0  0  0  0  0  0  0  0  0  # atno 8009 bound_to 7997
  154.6559  140.0553  156.9995 H   0  0  0  0  0  0  0  0  0  0  0  0  # atno 8010 bound_to 7997
  139.8983  144.6344  150.8664 H   0  0  0  0  0  0  0  0  0  0  0  0  # atno 10167 bound_to 10162
  157.5688  131.1085  150.8405 H   0  0  0  0  0  0  0  0  0  0  0  0  # atno 10718 bound_to 10713
  153.5321  135.7014  153.5678 H   0  0  0  0  0  0  0  0  0  0  0  0  # atno 10763 bound_to 10752
  153.3681  135.3952  155.1768 H   0  0  0  0  0  0  0  0  0  0  0  0  # atno 10764 bound_to 10752
  154.8683  135.3805  154.4818 H   0  0  0  0  0  0  0  0  0  0  0  0  # atno 10765 bound_to 10752
  140.0191  134.9405  157.0438 H   0  0  0  0  0  0  0  0  0  0  0  0  # atno 11005 bound_to 11000
  145.7400  141.0011  143.1306 LP  0  0  0  0  0  0  0  0  0  0  0  0  # atno 17320 bound_to 7965
  144.6939  139.9087  143.7462 LP  0  0  0  0  0  0  0  0  0  0  0  0  # atno 17321 bound_to 7965
  140.7712  143.3456  151.2118 LP  0  0  0  0  0  0  0  0  0  0  0  0  # atno 17342 bound_to 10162
  139.7048  143.9474  152.2922 LP  0  0  0  0  0  0  0  0  0  0  0  0  # atno 17343 bound_to 10162
  156.8883  130.5203  149.5287 LP  0  0  0  0  0  0  0  0  0  0  0  0  # atno 17370 bound_to 10713
  156.0734  130.5762  150.9428 LP  0  0  0  0  0  0  0  0  0  0  0  0  # atno 17371 bound_to 10713
  140.4418  134.1673  155.7174 LP  0  0  0  0  0  0  0  0  0  0  0  0  # atno 17394 bound_to 11000
  141.1762  133.8508  157.1412 LP  0  0  0  0  0  0  0  0  0  0  0  0  # atno 17395 bound_to 11000

$$$$
