#       Name:                AV-unprocessed.smi:2124
#       Creating user name   scv26
#       Creation time:       Fri Mar 27 11:41:42 2020


#       File generated by GOLD software.
#

@<TRIPOS>MOLECULE
AV-unprocessed.smi:2124
    52    54     1
SMALL
NO_CHARGES


@<TRIPOS>ATOM
      1 ****        -4.2249   4.9981  -1.4315 C.3            1 S1                 0.0000
      2 ****        -3.7562   3.5594  -1.3896 C.2            1 S1                 0.0000
      3 ****        -3.2669   3.0929  -0.3046 N.2            1 S1                 0.0000
      4 ****        -2.8385   1.7554  -0.2580 C.2            1 S1                 0.0000
      5 ****        -2.2805   1.2870   1.0744 C.3            1 S1                 0.0000
      6 ****        -2.9315   0.9453  -1.3516 C.2            1 S1                 0.0000
      7 ****        -2.4891  -0.5175  -1.3496 C.3            1 S1                 0.0000
      8 ****        -0.9904  -0.7505  -1.5497 C.2            1 S1                 0.0000
      9 ****        -0.4352  -0.3518  -2.5732 O.2            1 S1                 0.0000
     10 ****        -0.3488  -1.3984  -0.5646 N.am           1 S1                 0.0000
     11 ****         1.0760  -1.7218  -0.5435 C.3            1 S1                 0.0000
     12 ****         1.3153  -3.0465  -1.2886 C.3            1 S1                 0.0000
     13 ****         1.5644  -1.7746   0.9230 C.3            1 S1                 0.0000
     14 ****         1.4182  -0.4480   1.7040 C.3            1 S1                 0.0000
     15 ****         2.8058  -0.2692   2.3475 C.3            1 S1                 0.0000
     16 ****         3.8088   0.1608   1.2617 C.3            1 S1                 0.0000
     17 ****         4.0014  -1.1328   0.4497 C.3            1 S1                 0.0000
     18 ****         3.0551  -2.1260   1.1564 C.3            1 S1                 0.0000
     19 ****         3.2278  -1.7095   2.6137 C.3            1 S1                 0.0000
     20 ****        -3.4950   1.5243  -2.5849 C.2            1 S1                 0.0000
     21 ****        -3.5924   0.8420  -3.6042 O.2            1 S1                 0.0000
     22 ****        -3.8939   2.8278  -2.5475 N.pl3          1 S1                -1.0000
     23 ****        -3.9543   5.5268  -0.5164 H              1 S1                 0.0000
     24 ****        -5.3087   5.0371  -1.5418 H              1 S1                 0.0000
     25 ****        -3.7716   5.5215  -2.2740 H              1 S1                 0.0000
     26 ****        -2.8730   0.4626   1.4711 H              1 S1                 0.0000
     27 ****        -2.2917   2.0909   1.8112 H              1 S1                 0.0000
     28 ****        -1.2497   0.9536   0.9614 H              1 S1                 0.0000
     29 ****        -2.8010  -0.9711  -0.4082 H              1 S1                 0.0000
     30 ****        -3.0254  -1.0842  -2.1113 H              1 S1                 0.0000
     31 ****        -0.8898  -1.6835   0.2387 H              1 S1                 0.0000
     32 ****         1.6117  -0.9279  -1.0651 H              1 S1                 0.0000
     33 ****         2.3765  -3.2901  -1.3347 H              1 S1                 0.0000
     34 ****         0.9531  -2.9927  -2.3156 H              1 S1                 0.0000
     35 ****         0.8038  -3.8757  -0.7986 H              1 S1                 0.0000
     36 ****         0.9710  -2.5325   1.4384 H              1 S1                 0.0000
     37 ****         1.1625   0.3978   1.0644 H              1 S1                 0.0000
     38 ****         0.6394  -0.5349   2.4627 H              1 S1                 0.0000
     39 ****         2.8027   0.3822   3.2219 H              1 S1                 0.0000
     40 ****         3.4322   0.9828   0.6520 H              1 S1                 0.0000
     41 ****         4.7530   0.4791   1.7055 H              1 S1                 0.0000
     42 ****         3.7860  -1.0041  -0.6102 H              1 S1                 0.0000
     43 ****         5.0345  -1.4741   0.5280 H              1 S1                 0.0000
     44 ****         3.2937  -3.1712   0.9582 H              1 S1                 0.0000
     45 ****         4.2544  -1.8011   2.9727 H              1 S1                 0.0000
     46 ****         2.5614  -2.2359   3.2993 H              1 S1                 0.0000
     47 ****        -3.1896   3.6752   0.5047 LP             1 S1                 0.0000
     48 ****        -0.9638   0.1251  -3.2754 LP             1 S1                 0.0000
     49 ****         0.5445  -0.5049  -2.7026 LP             1 S1                 0.0000
     50 ****        -3.2885  -0.1107  -3.5991 LP             1 S1                 0.0000
     51 ****        -3.9754   1.2401  -4.4377 LP             1 S1                 0.0000
     52 ****        -4.2872   3.2529  -3.3627 LP             1 S1                 0.0000
@<TRIPOS>BOND
    1    1    2 1     
    2    1   23 1     
    3    1   24 1     
    4    1   25 1     
    5    2   22 1     
    6    2    3 2     
    7    3    4 1     
    8    4    5 1     
    9    4    6 2     
   10    5   26 1     
   11    5   27 1     
   12    5   28 1     
   13    6    7 1     
   14    6   20 1     
   15    7    8 1     
   16    7   29 1     
   17    7   30 1     
   18    8    9 2     
   19    8   10 am    
   20   10   11 1     
   21   10   31 1     
   22   11   12 1     
   23   11   13 1     
   24   11   32 1     
   25   12   33 1     
   26   12   34 1     
   27   12   35 1     
   28   13   18 1     
   29   13   14 1     
   30   13   36 1     
   31   14   15 1     
   32   14   37 1     
   33   14   38 1     
   34   15   19 1     
   35   15   16 1     
   36   15   39 1     
   37   16   17 1     
   38   16   40 1     
   39   16   41 1     
   40   17   18 1     
   41   17   42 1     
   42   17   43 1     
   43   18   19 1     
   44   18   44 1     
   45   19   45 1     
   46   19   46 1     
   47   20   21 2     
   48   20   22 1     
   49    3   47 1     
   50    9   48 1     
   51    9   49 1     
   52   21   50 1     
   53   21   51 1     
   54   22   52 1     
@<TRIPOS>SUBSTRUCTURE
      1 S1             1
@<TRIPOS>SET
LONE_PAIRS      STATIC     ATOMS    <user>   **** ""
6 47 48 49 50 51 52
DONOR_HYDROGENS      STATIC     ATOMS    <user>   **** ""
1 31
ATOM$BLUE        STATIC     ATOMS    COLORGROUP SYSTEM
6 47 48 49 50 51 52
ATOM$RED        STATIC     ATOMS    COLORGROUP SYSTEM
1 31
