AV-unprocessed.smi:1965|AV-procd|sdf|7932|dock2
  -GOLD-   2272010103D 1   1.00000     0.00000
 Structure written by MMmdl.
 37 39  0  0  0  0  0  0  0  0  2 V2000
  150.2591  134.3323  155.7304 O   0  0  0  0  0  0  0  0  0  0  0  0
  149.8296  134.8545  154.7034 C   0  0  0  0  0  0  0  0  0  0  0  0
  150.1909  136.1082  154.3560 N   0  0  0  0  0  0  0  0  0  0  0  0
  151.0472  137.0555  154.9897 C   0  0  0  0  0  0  0  0  0  0  0  0
  151.9774  136.7639  155.9085 N   0  0  0  0  0  0  0  0  0  0  0  0
  152.6704  137.8986  156.3376 C   0  0  0  0  0  0  0  0  0  0  0  0
  152.2573  139.0561  155.7270 C   0  0  0  0  0  0  0  0  0  0  0  0
  150.9750  138.7644  154.5827 S   0  0  0  0  0  0  0  0  0  0  0  0
  148.9894  134.2239  153.8664 N   0  0  0  0  0  0  0  0  0  0  0  0
  148.4699  132.8714  154.0400 C   0  0  2  0  0  0  0  0  0  0  0  0
  149.5679  131.8307  154.2233 C   0  0  0  0  0  0  0  0  0  0  0  0
  148.8409  130.5301  153.8781 C   0  0  0  0  0  0  0  0  0  0  0  0
  147.8557  130.8800  152.8291 N   0  3  1  0  0  0  0  0  0  0  0  0
  146.5833  130.1204  152.8999 C   0  0  0  0  0  0  0  0  0  0  0  0
  145.6335  130.5399  151.7625 C   0  0  0  0  0  0  0  0  0  0  0  0
  145.4640  132.0695  151.6483 C   0  0  0  0  0  0  0  0  0  0  0  0
  146.2438  132.8287  152.7331 C   0  0  0  0  0  0  0  0  0  0  0  0
  147.7163  132.3639  152.7990 C   0  0  1  0  0  0  0  0  0  0  0  0
  149.8003  136.4257  153.4804 H   0  0  0  0  0  0  0  0  0  0  0  0
  153.4458  137.7912  157.0822 H   0  0  0  0  0  0  0  0  0  0  0  0
  152.6289  140.0586  155.8795 H   0  0  0  0  0  0  0  0  0  0  0  0
  148.6872  134.7274  153.0440 H   0  0  0  0  0  0  0  0  0  0  0  0
  147.8176  132.8245  154.9148 H   0  0  0  0  0  0  0  0  0  0  0  0
  150.3809  132.0032  153.5161 H   0  0  0  0  0  0  0  0  0  0  0  0
  149.9877  131.8265  155.2299 H   0  0  0  0  0  0  0  0  0  0  0  0
  149.5209  129.7476  153.5406 H   0  0  0  0  0  0  0  0  0  0  0  0
  148.3243  130.1619  154.7662 H   0  0  0  0  0  0  0  0  0  0  0  0
  146.7935  129.0522  152.8359 H   0  0  0  0  0  0  0  0  0  0  0  0
  146.1074  130.2890  153.8674 H   0  0  0  0  0  0  0  0  0  0  0  0
  146.0127  130.1529  150.8158 H   0  0  0  0  0  0  0  0  0  0  0  0
  144.6611  130.0684  151.9100 H   0  0  0  0  0  0  0  0  0  0  0  0
  145.8115  132.3946  150.6667 H   0  0  0  0  0  0  0  0  0  0  0  0
  144.4076  132.3355  151.6971 H   0  0  0  0  0  0  0  0  0  0  0  0
  146.1962  133.9008  152.5403 H   0  0  0  0  0  0  0  0  0  0  0  0
  145.7585  132.6752  153.6980 H   0  0  0  0  0  0  0  0  0  0  0  0
  148.2354  132.6959  151.8982 H   0  0  0  0  0  0  0  0  0  0  0  0
  148.2798  130.6352  151.9457 H   0  0  0  0  0  0  0  0  0  0  0  0
  1  2  2  0  0  0  0
  2  3  1  0  0  0  0
  2  9  1  0  0  0  0
  3  4  1  0  0  0  0
  3 19  1  0  0  0  0
  4  8  1  0  0  0  0
  4  5  2  0  0  0  0
  5  6  1  0  0  0  0
  6  7  2  0  0  0  0
  6 20  1  0  0  0  0
  7  8  1  0  0  0  0
  7 21  1  0  0  0  0
  9 10  1  0  0  0  0
  9 22  1  0  0  0  0
 10 18  1  0  0  0  0
 10 11  1  0  0  0  0
 10 23  1  0  0  0  0
 11 12  1  0  0  0  0
 11 24  1  0  0  0  0
 11 25  1  0  0  0  0
 12 13  1  0  0  0  0
 12 26  1  0  0  0  0
 12 27  1  0  0  0  0
 13 18  1  0  0  0  0
 13 14  1  0  0  0  0
 13 37  1  0  0  0  0
 14 15  1  0  0  0  0
 14 28  1  0  0  0  0
 14 29  1  0  0  0  0
 15 16  1  0  0  0  0
 15 30  1  0  0  0  0
 15 31  1  0  0  0  0
 16 17  1  0  0  0  0
 16 32  1  0  0  0  0
 16 33  1  0  0  0  0
 17 18  1  0  0  0  0
 17 34  1  0  0  0  0
 17 35  1  0  0  0  0
 18 36  1  0  0  0  0
M  CHG  1  13   1
M  END
> <s_m_source_file>
AV-unprocessed.smi

> <i_m_source_file_index>
1965

> <i_lp_mmshare_version>
43012

> <i_f3d_flags>
0

> <s_epik_input>
czFbY0hdW2NIXW5jMVtOSF1DKD1PKVtOSF1bQ0BIXShbQ0gyXVtDSDJdMilbQ0BASF0oTjIzKVtDSDJdW0NIMl1bQ0gyXVtDSDJdMw==

> <s_epik_cmdline>
J2VwaWtfcHl0aG9uJywgJy1waCcsICc3LjAnLCAnLXRuJywgJzgnLCAnLW1hJywgJzIwMCcsICctbWV0YWxfYmluZGluZycsICctaW1hZScsICc8aW5maWxlLm1hZT4nLCAnLW9tYWUnLCAnPG91dGZpbGUubWFlPic=

> <r_lp_tautomer_probability>
1

> <r_epik_Ionization_Penalty>
0.00125962

> <r_epik_Ionization_Penalty_Charging>
0.00107044

> <r_epik_Ionization_Penalty_Neutral>
0.000189176

> <r_epik_State_Penalty>
-0

> <r_epik_Charging_Adjusted_Penalty>
0.00107044

> <i_epik_Tot_Q>
1

> <i_epik_Tot_abs_Q>
1

> <r_epik_Metal_State_Penalty>
0.0179285

> <b_epik_Metal_Only>
0

> <s_lp_Force_Field>
OPLS_2005

> <r_lp_Energy>
40.5282

> <b_lp_Chiralities_Consistent>
1

> <s_lp_Variant>
AV-unprocessed.smi:1965-1

> <Gold.Version>
5.8.1

> <Gold.Id.Protein>
6NUR|6NUR_protein|mol2

> <Gold.PLP.Fitness>
44.8596

> <Gold.PLP.PLP>
-33.2428

> <Gold.PLP.part.hbond>
-5.0000

> <Gold.PLP.part.metal>
0.0000

> <Gold.PLP.part.buried>
-2.6379

> <Gold.PLP.part.nonpolar>
-26.2762

> <Gold.PLP.part.repulsive>
0.1344

> <Gold.PLP.ligand.clash>
0.0000

> <Gold.PLP.ligand.torsion>
0.1355

> <Gold.PLP.Chemscore.Hbond>
3.9600

> <Gold.PLP.Chemscore.CHOScore>
0.0000

> <Gold.PLP.Chemscore.Metal>
0.0000

> <Gold.Chemscore.Hbonds>
donor molecule, donor type, donor heavy atom, donor atom, acceptor molecule, acceptor atom, score
      L1  H     3    19       P1  7948  1.00
      L1  H     9    22       P1  7948  0.96
      L1  H    13    37       P1 10747  1.00
      P1  H 10752 10763       L1     5  1.00

> <Gold.PLP.Chemscore.Internal.Correction>
0.0077

> <Gold.Rescore>
     Score         DG    S(hbond)    S(metal)    S(lipo)     H(rot)  DE(clash)    DE(int)     intcor
     18.81     -21.14       3.03        0.00      69.21       1.00       0.04       2.29       ----

> <Gold.Chemscore.Fitness>
18.8102

> <Gold.Chemscore.DG>
-21.1351

> <Gold.Chemscore.ZeroCoef>
-5.4800

> <Gold.Chemscore.Hbond>
3.0293

> <Gold.Chemscore.Metal>
0.0000

> <Gold.Chemscore.Lipo>
69.2067

> <Gold.Chemscore.Internal_Hbond>
0.0000

> <Gold.Chemscore.DEClash>
0.0359

> <Gold.Chemscore.DEInternal>
2.2890

> <Gold.Chemscore.Rot>
1.0000

> <Gold.Chemscore.Internal.Correction>
   9.000000E+99

> <Gold.Chemscore.Hbonds>
donor molecule, donor type, donor heavy atom, donor atom, acceptor molecule, acceptor atom, score
      L1  H     3    19       P1  7948  0.25
      L1  H     9    22       P1  7948  0.24
      L1  H    13    37       P1 10747  0.98
      P1  H 10752 10763       L1     5  0.40

> <Gold.Chemscore.Hbond.Weighted>
-10.1179

> <Gold.Chemscore.Metal.Weighted>
-0.0000

> <Gold.Chemscore.Lipo.Weighted>
-8.0972

> <Gold.Chemscore.Internal_Hbond.Weighted>
0.0000

> <Gold.Chemscore.DEClash.Weighted>
0.0359

> <Gold.Chemscore.DEInternal.Weighted>
2.2890

> <Gold.Chemscore.Rot.Weighted>
2.5600

> <Gold.Chemscore.Internal.Correction.Weighted>
   9.000000E+99

> <Gold.Protein.RotatedTorsions>
[ 6907 6896 6895 6894 ] final  100.82 input  -60.11 | X-H torsion
[ 7974 7965 7964 7962 ] final   69.81 input  175.53 | X-H torsion
[ 8008 7997 7996 7995 ] final   63.69 input   59.86 | X-H torsion
[ 10167 10162 10161 10158 ] final  140.41 input  -65.29 | X-H torsion
[ 10718 10713 10712 10709 ] final  119.12 input   66.30 | X-H torsion
[ 10763 10752 10751 10750 ] final   89.74 input  -60.55 | X-H torsion
[ 11005 11000 10999 10996 ] final   41.64 input  -57.11 | X-H torsion

> <Gold.Protein.ActiveResidues>
 VAL166  LYS551  ARG553  GLY616  TRP617  ASP618  TYR619  PRO620  LYS621  CYS622 
 ASP623  PHE694  ASN695  SER759  ASP760  ASP761  ALA762  ILE779  LEU786  VAL792 
 PHE793  MET794  SER795  GLU796  ALA797  LYS798  CYS799  TRP800  GLU811  SER814 

> <Gold.Protein.RotatedAtoms>
  152.5363  134.0219  159.7985 H   0  0  0  0  0  0  0  0  0  0  0  0  # atno 6907 bound_to 6896
  151.0404  133.5703  159.2659 H   0  0  0  0  0  0  0  0  0  0  0  0  # atno 6908 bound_to 6896
  151.2675  135.0681  159.9175 H   0  0  0  0  0  0  0  0  0  0  0  0  # atno 6909 bound_to 6896
  145.7859  139.2910  143.1238 H   0  0  0  0  0  0  0  0  0  0  0  0  # atno 7974 bound_to 7965
  155.6341  140.3496  155.4693 H   0  0  0  0  0  0  0  0  0  0  0  0  # atno 8008 bound_to 7997
  155.9979  140.1207  157.0599 H   0  0  0  0  0  0  0  0  0  0  0  0  # atno 8009 bound_to 7997
  154.4239  140.1106  156.5642 H   0  0  0  0  0  0  0  0  0  0  0  0  # atno 8010 bound_to 7997
  139.5049  144.6236  151.5992 H   0  0  0  0  0  0  0  0  0  0  0  0  # atno 10167 bound_to 10162
  157.5984  131.1055  150.7851 H   0  0  0  0  0  0  0  0  0  0  0  0  # atno 10718 bound_to 10713
  153.1902  135.4459  155.0140 H   0  0  0  0  0  0  0  0  0  0  0  0  # atno 10763 bound_to 10752
  154.8085  135.3284  154.7369 H   0  0  0  0  0  0  0  0  0  0  0  0  # atno 10764 bound_to 10752
  153.7824  135.6976  153.4941 H   0  0  0  0  0  0  0  0  0  0  0  0  # atno 10765 bound_to 10752
  140.1815  134.4098  155.8198 H   0  0  0  0  0  0  0  0  0  0  0  0  # atno 11005 bound_to 11000
  146.0027  140.8506  143.0010 LP  0  0  0  0  0  0  0  0  0  0  0  0  # atno 17320 bound_to 7965
  144.6789  140.2375  143.7348 LP  0  0  0  0  0  0  0  0  0  0  0  0  # atno 17321 bound_to 7965
  140.5945  143.9720  150.6346 LP  0  0  0  0  0  0  0  0  0  0  0  0  # atno 17342 bound_to 10162
  140.2911  143.3323  152.1061 LP  0  0  0  0  0  0  0  0  0  0  0  0  # atno 17343 bound_to 10162
  156.8256  130.4999  149.5337 LP  0  0  0  0  0  0  0  0  0  0  0  0  # atno 17370 bound_to 10713
  156.1051  130.5998  150.9958 LP  0  0  0  0  0  0  0  0  0  0  0  0  # atno 17371 bound_to 10713
  141.2223  133.7002  156.7938 LP  0  0  0  0  0  0  0  0  0  0  0  0  # atno 17394 bound_to 11000
  140.2262  134.8720  157.3429 LP  0  0  0  0  0  0  0  0  0  0  0  0  # atno 17395 bound_to 11000

$$$$
