AV-unprocessed.smi:2985|AV-procd|sdf|11379|dock9
  -GOLD-   2272016303D 1   1.00000     0.00000
 Structure written by MMmdl.
 33 34  0  0  0  0  0  0  0  0  1 V2000
  150.3516  145.0542  160.3025 C   0  0  0  0  0  0  0  0  0  0  0  0
  150.9911  145.4603  159.1051 O   0  0  0  0  0  0  0  0  0  0  0  0
  151.8890  144.4814  158.6119 C   0  0  0  0  0  0  0  0  0  0  0  0
  151.1443  143.1475  158.4743 C   0  0  0  0  0  0  0  0  0  0  0  0
  152.0278  142.0171  158.7099 N   0  0  0  0  0  0  0  0  0  0  0  0
  152.3013  140.9890  157.8710 C   0  0  0  0  0  0  0  0  0  0  0  0
  151.5779  140.8822  156.2677 S   0  0  0  0  0  0  0  0  0  0  0  0
  152.2187  139.2461  155.8113 C   0  0  0  0  0  0  0  0  0  0  0  0
  151.6045  138.7138  154.5190 C   0  0  0  0  0  0  0  0  0  0  0  0
  152.0518  137.5372  154.0719 N   0  0  0  0  0  0  0  0  0  0  0  0
  150.7448  139.3595  153.9240 O   0  0  0  0  0  0  0  0  0  0  0  0
  153.1422  140.0674  158.3410 N   0  0  0  0  0  0  0  0  0  0  0  0
  153.4395  140.5415  159.6039 C   0  0  0  0  0  0  0  0  0  0  0  0
  154.2770  140.0106  160.6110 C   0  0  0  0  0  0  0  0  0  0  0  0
  154.4226  140.6797  161.8439 C   0  0  0  0  0  0  0  0  0  0  0  0
  153.7340  141.8858  162.0875 C   0  0  0  0  0  0  0  0  0  0  0  0
  152.8952  142.4325  161.0973 C   0  0  0  0  0  0  0  0  0  0  0  0
  152.7549  141.7615  159.8677 C   0  0  0  0  0  0  0  0  0  0  0  0
  149.6769  145.8397  160.6426 H   0  0  0  0  0  0  0  0  0  0  0  0
  151.0782  144.8685  161.0946 H   0  0  0  0  0  0  0  0  0  0  0  0
  149.7635  144.1489  160.1476 H   0  0  0  0  0  0  0  0  0  0  0  0
  152.2854  144.7912  157.6434 H   0  0  0  0  0  0  0  0  0  0  0  0
  152.7335  144.3748  159.2948 H   0  0  0  0  0  0  0  0  0  0  0  0
  150.3076  143.0995  159.1717 H   0  0  0  0  0  0  0  0  0  0  0  0
  150.7167  143.0578  157.4753 H   0  0  0  0  0  0  0  0  0  0  0  0
  153.3033  139.3011  155.7100 H   0  0  0  0  0  0  0  0  0  0  0  0
  152.0072  138.5420  156.6172 H   0  0  0  0  0  0  0  0  0  0  0  0
  151.6842  137.1508  153.2146 H   0  0  0  0  0  0  0  0  0  0  0  0
  152.7662  137.0441  154.5878 H   0  0  0  0  0  0  0  0  0  0  0  0
  154.8073  139.0864  160.4347 H   0  0  0  0  0  0  0  0  0  0  0  0
  155.0646  140.2646  162.6069 H   0  0  0  0  0  0  0  0  0  0  0  0
  153.8499  142.3912  163.0351 H   0  0  0  0  0  0  0  0  0  0  0  0
  152.3657  143.3551  161.2825 H   0  0  0  0  0  0  0  0  0  0  0  0
  1  2  1  0  0  0  0
  1 19  1  0  0  0  0
  1 20  1  0  0  0  0
  1 21  1  0  0  0  0
  2  3  1  0  0  0  0
  3  4  1  0  0  0  0
  3 22  1  0  0  0  0
  3 23  1  0  0  0  0
  4  5  1  0  0  0  0
  4 24  1  0  0  0  0
  4 25  1  0  0  0  0
  5 18  1  0  0  0  0
  5  6  1  0  0  0  0
  6  7  1  0  0  0  0
  6 12  2  0  0  0  0
  7  8  1  0  0  0  0
  8  9  1  0  0  0  0
  8 26  1  0  0  0  0
  8 27  1  0  0  0  0
  9 10  1  0  0  0  0
  9 11  2  0  0  0  0
 10 28  1  0  0  0  0
 10 29  1  0  0  0  0
 12 13  1  0  0  0  0
 13 18  2  0  0  0  0
 13 14  1  0  0  0  0
 14 15  2  0  0  0  0
 14 30  1  0  0  0  0
 15 16  1  0  0  0  0
 15 31  1  0  0  0  0
 16 17  2  0  0  0  0
 16 32  1  0  0  0  0
 17 18  1  0  0  0  0
 17 33  1  0  0  0  0
M  END
> <s_m_source_file>
AV-unprocessed.smi

> <i_m_source_file_index>
2985

> <i_lp_mmshare_version>
43012

> <i_f3d_flags>
0

> <s_epik_input>
W2NIXTFbY0hdW2NIXVtjSF1jKGMxMiluKFtDSDJdW0NIMl1PW0NIM10pYyhuMilTW0NIMl1DKD1PKVtOSDJd

> <s_epik_cmdline>
J2VwaWtfcHl0aG9uJywgJy1waCcsICc3LjAnLCAnLXRuJywgJzgnLCAnLW1hJywgJzIwMCcsICctbWV0YWxfYmluZGluZycsICctaW1hZScsICc8aW5maWxlLm1hZT4nLCAnLW9tYWUnLCAnPG91dGZpbGUubWFlPic=

> <r_epik_Ionization_Penalty>
0.0273334

> <r_epik_Ionization_Penalty_Charging>
0

> <r_epik_Ionization_Penalty_Neutral>
0.0273334

> <r_epik_State_Penalty>
0.0223655

> <r_epik_Charging_Adjusted_Penalty>
0.0223655

> <i_epik_Tot_Q>
0

> <i_epik_Tot_abs_Q>
0

> <r_epik_Metal_State_Penalty>
0.0213644

> <b_epik_Metal_Only>
0

> <s_lp_Force_Field>
OPLS_2005

> <r_lp_Energy>
5.41897

> <b_lp_Chiralities_Consistent>
1

> <s_lp_Variant>
AV-unprocessed.smi:2985-1

> <Gold.Version>
5.8.1

> <Gold.Id.Protein>
6NUR|6NUR_protein|mol2

> <Gold.PLP.Fitness>
50.8418

> <Gold.PLP.PLP>
-42.7558

> <Gold.PLP.part.hbond>
-4.0000

> <Gold.PLP.part.metal>
0.0000

> <Gold.PLP.part.buried>
-3.7603

> <Gold.PLP.part.nonpolar>
-34.9543

> <Gold.PLP.part.repulsive>
1.7155

> <Gold.PLP.ligand.clash>
0.0000

> <Gold.PLP.ligand.torsion>
0.2747

> <Gold.PLP.Chemscore.Hbond>
2.8688

> <Gold.PLP.Chemscore.CHOScore>
0.0000

> <Gold.PLP.Chemscore.Metal>
0.0000

> <Gold.Chemscore.Hbonds>
donor molecule, donor type, donor heavy atom, donor atom, acceptor molecule, acceptor atom, score
      L1  H    10    28       P1  7949  0.73
      P1  H  7989  7998       L1    11  1.00
      P1  H  7997  8010       L1    12  1.00

> <Gold.PLP.Chemscore.Internal.Correction>
0.0290

> <Gold.Rescore>
     Score         DG    S(hbond)    S(metal)    S(lipo)     H(rot)  DE(clash)    DE(int)     intcor
     13.43     -14.16       1.08        0.00     101.98       2.68       0.15       0.58       ----

> <Gold.Chemscore.Fitness>
13.4307

> <Gold.Chemscore.DG>
-14.1629

> <Gold.Chemscore.ZeroCoef>
-5.4800

> <Gold.Chemscore.Hbond>
1.0824

> <Gold.Chemscore.Metal>
0.0000

> <Gold.Chemscore.Lipo>
101.9816

> <Gold.Chemscore.Internal_Hbond>
0.0000

> <Gold.Chemscore.DEClash>
0.1540

> <Gold.Chemscore.DEInternal>
0.5782

> <Gold.Chemscore.Rot>
2.6814

> <Gold.Chemscore.Internal.Correction>
   9.000000E+99

> <Gold.Chemscore.Hbonds>
donor molecule, donor type, donor heavy atom, donor atom, acceptor molecule, acceptor atom, score
      L1  H    10    28       P1  7949  0.71
      P1  H  7989  7998       L1    11  0.34
      P1  H  7997  8010       L1    12  0.32

> <Gold.Chemscore.Hbond.Weighted>
-3.6154

> <Gold.Chemscore.Metal.Weighted>
-0.0000

> <Gold.Chemscore.Lipo.Weighted>
-11.9319

> <Gold.Chemscore.Internal_Hbond.Weighted>
0.0000

> <Gold.Chemscore.DEClash.Weighted>
0.1540

> <Gold.Chemscore.DEInternal.Weighted>
0.5782

> <Gold.Chemscore.Rot.Weighted>
6.8644

> <Gold.Chemscore.Internal.Correction.Weighted>
   9.000000E+99

> <Gold.Protein.RotatedTorsions>
[ 6907 6896 6895 6894 ] final  -58.74 input  -60.11 | X-H torsion
[ 7974 7965 7964 7962 ] final  -86.10 input  175.53 | X-H torsion
[ 8008 7997 7996 7995 ] final   39.22 input   59.86 | X-H torsion
[ 10167 10162 10161 10158 ] final  -39.34 input  -65.29 | X-H torsion
[ 10718 10713 10712 10709 ] final   11.47 input   66.30 | X-H torsion
[ 10763 10752 10751 10750 ] final   94.06 input  -60.55 | X-H torsion
[ 11005 11000 10999 10996 ] final  118.46 input  -57.11 | X-H torsion

> <Gold.Protein.ActiveResidues>
 VAL166  LYS551  ARG553  GLY616  TRP617  ASP618  TYR619  PRO620  LYS621  CYS622 
 ASP623  PHE694  ASN695  SER759  ASP760  ASP761  ALA762  ILE779  LEU786  VAL792 
 PHE793  MET794  SER795  GLU796  ALA797  LYS798  CYS799  TRP800  GLU811  SER814 

> <Gold.Protein.RotatedAtoms>
  150.7983  134.7059  159.6575 H   0  0  0  0  0  0  0  0  0  0  0  0  # atno 6907 bound_to 6896
  152.4098  134.6141  160.0043 H   0  0  0  0  0  0  0  0  0  0  0  0  # atno 6908 bound_to 6896
  151.6387  133.3290  159.3161 H   0  0  0  0  0  0  0  0  0  0  0  0  # atno 6909 bound_to 6896
  145.4845  140.9555  143.1846 H   0  0  0  0  0  0  0  0  0  0  0  0  # atno 7974 bound_to 7965
  155.2330  140.3339  155.4301 H   0  0  0  0  0  0  0  0  0  0  0  0  # atno 8008 bound_to 7997
  156.2287  140.1841  156.7343 H   0  0  0  0  0  0  0  0  0  0  0  0  # atno 8009 bound_to 7997
  154.5942  140.0633  156.9265 H   0  0  0  0  0  0  0  0  0  0  0  0  # atno 8010 bound_to 7997
  140.7067  143.3220  151.2769 H   0  0  0  0  0  0  0  0  0  0  0  0  # atno 10167 bound_to 10162
  156.9960  130.6061  149.5691 H   0  0  0  0  0  0  0  0  0  0  0  0  # atno 10718 bound_to 10713
  153.2373  135.4303  155.0660 H   0  0  0  0  0  0  0  0  0  0  0  0  # atno 10763 bound_to 10752
  154.8325  135.3394  154.6700 H   0  0  0  0  0  0  0  0  0  0  0  0  # atno 10764 bound_to 10752
  153.7125  135.7022  153.5090 H   0  0  0  0  0  0  0  0  0  0  0  0  # atno 10765 bound_to 10752
  139.9110  134.9620  156.7506 H   0  0  0  0  0  0  0  0  0  0  0  0  # atno 11005 bound_to 11000
  144.7870  139.6407  143.7130 LP  0  0  0  0  0  0  0  0  0  0  0  0  # atno 17320 bound_to 7965
  146.2321  139.5834  142.9548 LP  0  0  0  0  0  0  0  0  0  0  0  0  # atno 17321 bound_to 7965
  139.6677  144.0075  152.2733 LP  0  0  0  0  0  0  0  0  0  0  0  0  # atno 17342 bound_to 10162
  139.9664  144.6523  150.8031 LP  0  0  0  0  0  0  0  0  0  0  0  0  # atno 17343 bound_to 10162
  156.0189  130.5283  150.8217 LP  0  0  0  0  0  0  0  0  0  0  0  0  # atno 17370 bound_to 10713
  157.5424  131.0941  150.9809 LP  0  0  0  0  0  0  0  0  0  0  0  0  # atno 17371 bound_to 10713
  140.6776  133.9503  155.7892 LP  0  0  0  0  0  0  0  0  0  0  0  0  # atno 17394 bound_to 11000
  141.0533  134.0453  157.3755 LP  0  0  0  0  0  0  0  0  0  0  0  0  # atno 17395 bound_to 11000

$$$$
