AV-unprocessed.smi:625|AV-procd|sdf|3101|dock7
  -GOLD-   22720 0 23D 1   1.00000     0.00000
 Structure written by MMmdl.
 49 51  0  0  0  0  0  0  0  0  1 V2000
  145.9532  132.0883  149.9394 C   0  0  0  0  0  0  0  0  0  0  0  0
  146.9285  132.1174  151.0190 N   0  0  0  0  0  0  0  0  0  0  0  0
  146.8998  132.9809  152.0475 C   0  0  0  0  0  0  0  0  0  0  0  0
  146.0179  133.8354  152.1505 O   0  0  0  0  0  0  0  0  0  0  0  0
  147.9943  132.7987  153.0039 C   0  0  0  0  0  0  0  0  0  0  0  0
  148.4483  131.4921  153.4567 C   0  0  0  0  0  0  0  0  0  0  0  0
  149.4358  131.3875  154.3677 C   0  0  0  0  0  0  0  0  0  0  0  0
  150.0902  132.5691  154.9372 C   0  0  0  0  0  0  0  0  0  0  0  0
  150.9710  132.4789  155.7922 O   0  0  0  0  0  0  0  0  0  0  0  0
  149.6517  133.7751  154.4653 N   0  0  0  0  0  0  0  0  0  0  0  0
  150.2073  135.0409  154.9788 C   0  0  0  0  0  0  0  0  0  0  0  0
  149.1497  136.0551  155.4486 C   0  0  0  0  0  0  0  0  0  0  0  0
  148.9646  136.2150  156.6542 O   0  0  0  0  0  0  0  0  0  0  0  0
  148.4783  136.7427  154.5093 N   0  0  0  0  0  0  0  0  0  0  0  0
  147.5103  137.8090  154.7415 C   0  0  2  0  0  0  0  0  0  0  0  0
  146.1054  137.3392  154.3277 C   0  0  0  0  0  0  0  0  0  0  0  0
  147.9664  139.0651  153.9621 C   0  0  2  0  0  0  0  0  0  0  0  0
  149.3757  139.5848  154.3328 C   0  0  0  0  0  0  0  0  0  0  0  0
  149.1416  141.0906  154.5526 C   0  0  2  0  0  0  0  0  0  0  0  0
  148.4087  141.2939  155.8913 C   0  0  0  0  0  0  0  0  0  0  0  0
  146.9854  140.7990  155.5754 C   0  0  0  0  0  0  0  0  0  0  0  0
  147.0991  140.3401  154.1067 C   0  0  1  0  0  0  0  0  0  0  0  0
  148.0421  141.3987  153.5421 C   0  0  0  0  0  0  0  0  0  0  0  0
  148.6147  133.8786  153.5171 C   0  0  0  0  0  0  0  0  0  0  0  0
  146.1957  131.2876  149.2410 H   0  0  0  0  0  0  0  0  0  0  0  0
  145.9532  133.0312  149.3909 H   0  0  0  0  0  0  0  0  0  0  0  0
  144.9492  131.9101  150.3269 H   0  0  0  0  0  0  0  0  0  0  0  0
  147.6745  131.4378  150.9852 H   0  0  0  0  0  0  0  0  0  0  0  0
  148.0093  130.5816  153.0763 H   0  0  0  0  0  0  0  0  0  0  0  0
  149.7556  130.4070  154.6885 H   0  0  0  0  0  0  0  0  0  0  0  0
  150.9043  134.8622  155.7991 H   0  0  0  0  0  0  0  0  0  0  0  0
  150.8077  135.5149  154.2009 H   0  0  0  0  0  0  0  0  0  0  0  0
  148.6930  136.5391  153.5440 H   0  0  0  0  0  0  0  0  0  0  0  0
  147.5061  138.0314  155.8088 H   0  0  0  0  0  0  0  0  0  0  0  0
  145.3565  138.1039  154.5333 H   0  0  0  0  0  0  0  0  0  0  0  0
  145.8105  136.4438  154.8756 H   0  0  0  0  0  0  0  0  0  0  0  0
  146.0621  137.1071  153.2630 H   0  0  0  0  0  0  0  0  0  0  0  0
  147.9795  138.8036  152.9020 H   0  0  0  0  0  0  0  0  0  0  0  0
  149.7877  139.1088  155.2239 H   0  0  0  0  0  0  0  0  0  0  0  0
  150.0752  139.4095  153.5142 H   0  0  0  0  0  0  0  0  0  0  0  0
  150.0450  141.6930  154.4528 H   0  0  0  0  0  0  0  0  0  0  0  0
  148.8722  140.7370  156.7064 H   0  0  0  0  0  0  0  0  0  0  0  0
  148.3944  142.3478  156.1717 H   0  0  0  0  0  0  0  0  0  0  0  0
  146.6486  140.0158  156.2529 H   0  0  0  0  0  0  0  0  0  0  0  0
  146.2752  141.6226  155.6599 H   0  0  0  0  0  0  0  0  0  0  0  0
  146.1388  140.2759  153.5942 H   0  0  0  0  0  0  0  0  0  0  0  0
  147.6525  142.4151  153.6229 H   0  0  0  0  0  0  0  0  0  0  0  0
  148.3396  141.2121  152.5085 H   0  0  0  0  0  0  0  0  0  0  0  0
  148.3509  134.8955  153.2601 H   0  0  0  0  0  0  0  0  0  0  0  0
  1  2  1  0  0  0  0
  1 25  1  0  0  0  0
  1 26  1  0  0  0  0
  1 27  1  0  0  0  0
  2  3  1  0  0  0  0
  2 28  1  0  0  0  0
  3  4  2  0  0  0  0
  3  5  1  0  0  0  0
  5 24  2  0  0  0  0
  5  6  1  0  0  0  0
  6  7  2  0  0  0  0
  6 29  1  0  0  0  0
  7  8  1  0  0  0  0
  7 30  1  0  0  0  0
  8  9  2  0  0  0  0
  8 10  1  0  0  0  0
 10 11  1  0  0  0  0
 10 24  1  0  0  0  0
 11 12  1  0  0  0  0
 11 31  1  0  0  0  0
 11 32  1  0  0  0  0
 12 13  2  0  0  0  0
 12 14  1  0  0  0  0
 14 15  1  0  0  0  0
 14 33  1  0  0  0  0
 15 16  1  0  0  0  0
 15 17  1  0  0  0  0
 15 34  1  0  0  0  0
 16 35  1  0  0  0  0
 16 36  1  0  0  0  0
 16 37  1  0  0  0  0
 17 22  1  0  0  0  0
 17 18  1  0  0  0  0
 17 38  1  0  0  0  0
 18 19  1  0  0  0  0
 18 39  1  0  0  0  0
 18 40  1  0  0  0  0
 19 23  1  0  0  0  0
 19 20  1  0  0  0  0
 19 41  1  0  0  0  0
 20 21  1  0  0  0  0
 20 42  1  0  0  0  0
 20 43  1  0  0  0  0
 21 22  1  0  0  0  0
 21 44  1  0  0  0  0
 21 45  1  0  0  0  0
 22 23  1  0  0  0  0
 22 46  1  0  0  0  0
 23 47  1  0  0  0  0
 23 48  1  0  0  0  0
 24 49  1  0  0  0  0
M  END
> <s_m_source_file>
AV-unprocessed.smi

> <i_m_source_file_index>
625

> <i_lp_mmshare_version>
43012

> <i_f3d_flags>
0

> <s_epik_input>
W0NIM11bTkhdQyg9TyljMVtjSF1bY0hdYyg9TyluKFtjSF0xKVtDSDJdQyg9TylbTkhdW0NASF0oW0NIM10pW0NASF0oW0NIMl1bQ0BIXTIzKVtDQEhdKFtDSDJdMylbQ0gyXVtDSDJdMg==

> <s_epik_cmdline>
J2VwaWtfcHl0aG9uJywgJy1waCcsICc3LjAnLCAnLXRuJywgJzgnLCAnLW1hJywgJzIwMCcsICctbWV0YWxfYmluZGluZycsICctaW1hZScsICc8aW5maWxlLm1hZT4nLCAnLW9tYWUnLCAnPG91dGZpbGUubWFlPic=

> <r_lp_tautomer_probability>
1

> <r_epik_Ionization_Penalty>
3.7129e-07

> <r_epik_Ionization_Penalty_Charging>
5.04114e-08

> <r_epik_Ionization_Penalty_Neutral>
3.20879e-07

> <r_epik_State_Penalty>
-0

> <r_epik_Charging_Adjusted_Penalty>
5.04114e-08

> <i_epik_Tot_Q>
0

> <i_epik_Tot_abs_Q>
0

> <r_epik_Metal_State_Penalty>
-0

> <b_epik_Metal_Only>
0

> <s_lp_Force_Field>
OPLS_2005

> <r_lp_Energy>
63.5822

> <b_lp_Chiralities_Consistent>
1

> <s_lp_Variant>
AV-unprocessed.smi:625-1

> <Gold.Version>
5.8.1

> <Gold.Id.Protein>
6NUR|6NUR_protein|mol2

> <Gold.PLP.Fitness>
44.4266

> <Gold.PLP.PLP>
-37.3694

> <Gold.PLP.part.hbond>
-2.0000

> <Gold.PLP.part.metal>
0.0000

> <Gold.PLP.part.buried>
-2.5881

> <Gold.PLP.part.nonpolar>
-32.6452

> <Gold.PLP.part.repulsive>
0.1629

> <Gold.PLP.ligand.clash>
0.0000

> <Gold.PLP.ligand.torsion>
1.0058

> <Gold.PLP.Chemscore.Hbond>
1.9920

> <Gold.PLP.Chemscore.CHOScore>
1.0000

> <Gold.PLP.Chemscore.Metal>
0.0000

> <Gold.Chemscore.Hbonds>
donor molecule, donor type, donor heavy atom, donor atom, acceptor molecule, acceptor atom, score
      L1  H     2    28       P1 10747  0.99
      L1  H    14    33       P1  7948  1.00
      L1  C    24    49       P1  7948  0.91

> <Gold.PLP.Chemscore.Internal.Correction>
0.0928

> <Gold.Rescore>
     Score         DG    S(hbond)    S(metal)    S(lipo)     H(rot)  DE(clash)    DE(int)     intcor
     15.70     -17.23       1.98        0.00      80.59       1.67       0.16       1.38       ----

> <Gold.Chemscore.Fitness>
15.6950

> <Gold.Chemscore.DG>
-17.2300

> <Gold.Chemscore.ZeroCoef>
-5.4800

> <Gold.Chemscore.Hbond>
1.9755

> <Gold.Chemscore.Metal>
0.0000

> <Gold.Chemscore.Lipo>
80.5929

> <Gold.Chemscore.Internal_Hbond>
0.0000

> <Gold.Chemscore.DEClash>
0.1572

> <Gold.Chemscore.DEInternal>
1.3778

> <Gold.Chemscore.Rot>
1.6709

> <Gold.Chemscore.Internal.Correction>
   9.000000E+99

> <Gold.Chemscore.Hbonds>
donor molecule, donor type, donor heavy atom, donor atom, acceptor molecule, acceptor atom, score
      L1  H     2    28       P1 10747  0.93
      L1  H    14    33       P1  7948  1.00

> <Gold.Chemscore.Hbond.Weighted>
-6.5980

> <Gold.Chemscore.Metal.Weighted>
-0.0000

> <Gold.Chemscore.Lipo.Weighted>
-9.4294

> <Gold.Chemscore.Internal_Hbond.Weighted>
0.0000

> <Gold.Chemscore.DEClash.Weighted>
0.1572

> <Gold.Chemscore.DEInternal.Weighted>
1.3778

> <Gold.Chemscore.Rot.Weighted>
4.2774

> <Gold.Chemscore.Internal.Correction.Weighted>
   9.000000E+99

> <Gold.Protein.RotatedTorsions>
[ 6907 6896 6895 6894 ] final   85.08 input  -60.11 | X-H torsion
[ 7974 7965 7964 7962 ] final   -0.33 input  175.53 | X-H torsion
[ 8008 7997 7996 7995 ] final -114.29 input   59.86 | X-H torsion
[ 10167 10162 10161 10158 ] final  149.50 input  -65.29 | X-H torsion
[ 10718 10713 10712 10709 ] final   87.52 input   66.30 | X-H torsion
[ 10763 10752 10751 10750 ] final -132.53 input  -60.55 | X-H torsion
[ 11005 11000 10999 10996 ] final  159.83 input  -57.11 | X-H torsion

> <Gold.Protein.ActiveResidues>
 VAL166  LYS551  ARG553  GLY616  TRP617  ASP618  TYR619  PRO620  LYS621  CYS622 
 ASP623  PHE694  ASN695  SER759  ASP760  ASP761  ALA762  ILE779  LEU786  VAL792 
 PHE793  MET794  SER795  GLU796  ALA797  LYS798  CYS799  TRP800  GLU811  SER814 

> <Gold.Protein.RotatedAtoms>
  152.5367  134.2641  159.8946 H   0  0  0  0  0  0  0  0  0  0  0  0  # atno 6907 bound_to 6896
  151.2600  133.4300  159.2623 H   0  0  0  0  0  0  0  0  0  0  0  0  # atno 6908 bound_to 6896
  151.0461  134.9655  159.8244 H   0  0  0  0  0  0  0  0  0  0  0  0  # atno 6909 bound_to 6896
  146.2428  140.1253  142.8339 H   0  0  0  0  0  0  0  0  0  0  0  0  # atno 7974 bound_to 7965
  155.0340  140.0393  157.2485 H   0  0  0  0  0  0  0  0  0  0  0  0  # atno 8008 bound_to 7997
  154.7272  140.2723  155.6464 H   0  0  0  0  0  0  0  0  0  0  0  0  # atno 8009 bound_to 7997
  156.2832  140.2691  156.1962 H   0  0  0  0  0  0  0  0  0  0  0  0  # atno 8010 bound_to 7997
  139.4861  144.5597  151.7254 H   0  0  0  0  0  0  0  0  0  0  0  0  # atno 10167 bound_to 10162
  157.6941  131.0258  150.3135 H   0  0  0  0  0  0  0  0  0  0  0  0  # atno 10718 bound_to 10713
  154.8742  135.3795  154.4425 H   0  0  0  0  0  0  0  0  0  0  0  0  # atno 10763 bound_to 10752
  153.5109  135.7029  153.5786 H   0  0  0  0  0  0  0  0  0  0  0  0  # atno 10764 bound_to 10752
  153.4077  135.3932  155.1995 H   0  0  0  0  0  0  0  0  0  0  0  0  # atno 10765 bound_to 10752
  140.1999  134.8345  157.3007 H   0  0  0  0  0  0  0  0  0  0  0  0  # atno 11005 bound_to 11000
  145.0372  140.8917  143.5074 LP  0  0  0  0  0  0  0  0  0  0  0  0  # atno 17320 bound_to 7965
  145.1327  139.2621  143.5531 LP  0  0  0  0  0  0  0  0  0  0  0  0  # atno 17321 bound_to 7965
  140.5164  144.0946  150.6009 LP  0  0  0  0  0  0  0  0  0  0  0  0  # atno 17342 bound_to 10162
  140.3889  143.2763  152.0083 LP  0  0  0  0  0  0  0  0  0  0  0  0  # atno 17343 bound_to 10162
  156.3633  130.3851  149.7234 LP  0  0  0  0  0  0  0  0  0  0  0  0  # atno 17370 bound_to 10713
  156.4673  130.7980  151.2999 LP  0  0  0  0  0  0  0  0  0  0  0  0  # atno 17371 bound_to 10713
  140.2065  134.4190  155.7635 LP  0  0  0  0  0  0  0  0  0  0  0  0  # atno 17394 bound_to 11000
  141.2227  133.7097  156.8269 LP  0  0  0  0  0  0  0  0  0  0  0  0  # atno 17395 bound_to 11000

$$$$
