#       Name:                AV-unprocessed.smi:910
#       Creating user name   scv26
#       Creation time:       Fri Mar 27 02:03:03 2020


#       File generated by GOLD software.
#

@<TRIPOS>MOLECULE
AV-unprocessed.smi:910
    53    54     1
SMALL
NO_CHARGES


@<TRIPOS>ATOM
      1 ****        -2.9530   5.0684   1.6896 C.3            1 S1                 0.0000
      2 ****        -2.9933   3.5825   1.9704 C.2            1 S1                 0.0000
      3 ****        -1.8544   2.8356   2.0927 N.pl3          1 S1                 0.0000
      4 ****        -2.2225   1.5168   2.3490 C.2            1 S1                 0.0000
      5 ****        -1.5399   0.4301   2.5432 N.2            1 S1                 0.0000
      6 ****        -0.1530   0.4718   2.5315 C.2            1 S1                 0.0000
      7 ****         0.5852   1.4620   2.5449 O.2            1 S1                 0.0000
      8 ****         0.3436  -0.7729   2.4808 N.am           1 S1                 0.0000
      9 ****         1.7594  -1.1221   2.4221 C.3            1 S1                 0.0000
     10 ****         2.3366  -0.9192   1.0138 C.3            1 S1                 0.0000
     11 ****         1.6416  -1.7637   0.1084 O.3            1 S1                 0.0000
     12 ****         2.0281  -1.6159  -1.2518 C.3            1 S1                 0.0000
     13 ****         3.2689  -2.4895  -1.5313 C.3            1 S1                 0.0000
     14 ****         3.6438  -2.4760  -3.0204 C.3            1 S1                 0.0000
     15 ****         2.4579  -2.9165  -3.8898 C.3            1 S1                 0.0000
     16 ****         1.2226  -2.0431  -3.6221 C.3            1 S1                 0.0000
     17 ****         0.8315  -2.0454  -2.1303 C.3            1 S1                 0.0000
     18 ****        -0.3981  -1.1533  -1.8893 C.3            1 S1                 0.0000
     19 ****        -3.5945   1.5008   2.3713 O.3            1 S1                 0.0000
     20 ****        -4.0329   2.7698   2.1403 C.2            1 S1                 0.0000
     21 ****        -5.5217   3.0319   2.1137 C.3            1 S1                 0.0000
     22 ****        -3.4797   5.2910   0.7614 H              1 S1                 0.0000
     23 ****        -1.9255   5.4210   1.5954 H              1 S1                 0.0000
     24 ****        -3.4328   5.6185   2.4994 H              1 S1                 0.0000
     25 ****        -0.9237   3.2180   2.0068 H              1 S1                 0.0000
     26 ****        -0.3129  -1.5401   2.4631 H              1 S1                 0.0000
     27 ****         2.3188  -0.5311   3.1489 H              1 S1                 0.0000
     28 ****         1.8691  -2.1649   2.7206 H              1 S1                 0.0000
     29 ****         2.2405   0.1251   0.7128 H              1 S1                 0.0000
     30 ****         3.3999  -1.1595   1.0159 H              1 S1                 0.0000
     31 ****         2.2578  -0.5714  -1.4721 H              1 S1                 0.0000
     32 ****         4.1196  -2.1457  -0.9434 H              1 S1                 0.0000
     33 ****         3.0712  -3.5152  -1.2165 H              1 S1                 0.0000
     34 ****         3.9587  -1.4726  -3.3101 H              1 S1                 0.0000
     35 ****         4.4972  -3.1317  -3.1951 H              1 S1                 0.0000
     36 ****         2.7296  -2.8626  -4.9444 H              1 S1                 0.0000
     37 ****         2.2203  -3.9611  -3.6840 H              1 S1                 0.0000
     38 ****         1.4246  -1.0219  -3.9484 H              1 S1                 0.0000
     39 ****         0.3880  -2.3997  -4.2268 H              1 S1                 0.0000
     40 ****         0.5590  -3.0662  -1.8578 H              1 S1                 0.0000
     41 ****        -0.1839  -0.1104  -2.1259 H              1 S1                 0.0000
     42 ****        -0.7239  -1.1965  -0.8496 H              1 S1                 0.0000
     43 ****        -1.2389  -1.4687  -2.5076 H              1 S1                 0.0000
     44 ****        -5.7500   3.9853   2.5908 H              1 S1                 0.0000
     45 ****        -6.0572   2.2442   2.6437 H              1 S1                 0.0000
     46 ****        -5.8801   3.0637   1.0848 H              1 S1                 0.0000
     47 ****        -2.0132  -0.4366   2.7012 LP             1 S1                 0.0000
     48 ****         0.1897   2.3802   2.5671 LP             1 S1                 0.0000
     49 ****         1.5783   1.3455   2.5336 LP             1 S1                 0.0000
     50 ****         0.6649  -1.5608   0.1793 LP             1 S1                 0.0000
     51 ****         1.8053  -2.7126   0.3782 LP             1 S1                 0.0000
     52 ****        -3.9160   1.1879   3.2650 LP             1 S1                 0.0000
     53 ****        -3.9386   0.8879   1.6600 LP             1 S1                 0.0000
@<TRIPOS>BOND
    1    1   22 1     
    2    1   23 1     
    3    1   24 1     
    4    1    2 1     
    5    2    3 1     
    6    2   20 2     
    7    3   25 1     
    8    3    4 1     
    9    4   19 1     
   10    4    5 2     
   11    5    6 1     
   12    6    8 am    
   13    6    7 2     
   14    8    9 1     
   15    8   26 1     
   16    9   10 1     
   17    9   27 1     
   18    9   28 1     
   19   10   11 1     
   20   10   29 1     
   21   10   30 1     
   22   11   12 1     
   23   12   17 1     
   24   12   13 1     
   25   12   31 1     
   26   13   14 1     
   27   13   32 1     
   28   13   33 1     
   29   14   15 1     
   30   14   34 1     
   31   14   35 1     
   32   15   16 1     
   33   15   36 1     
   34   15   37 1     
   35   16   17 1     
   36   16   38 1     
   37   16   39 1     
   38   17   18 1     
   39   17   40 1     
   40   18   41 1     
   41   18   42 1     
   42   18   43 1     
   43   19   20 1     
   44   20   21 1     
   45   21   44 1     
   46   21   45 1     
   47   21   46 1     
   48    5   47 1     
   49    7   48 1     
   50    7   49 1     
   51   11   50 1     
   52   11   51 1     
   53   19   52 1     
   54   19   53 1     
@<TRIPOS>SUBSTRUCTURE
      1 S1             1
@<TRIPOS>SET
LONE_PAIRS      STATIC     ATOMS    <user>   **** ""
7 47 48 49 50 51 52 53
DONOR_HYDROGENS      STATIC     ATOMS    <user>   **** ""
2 25 26
ATOM$BLUE        STATIC     ATOMS    COLORGROUP SYSTEM
7 47 48 49 50 51 52 53
ATOM$RED        STATIC     ATOMS    COLORGROUP SYSTEM
2 25 26
