AV-unprocessed.smi:2410|AV-procd|sdf|9529|dock4
  -GOLD-   2272013163D 1   1.00000     0.00000
 Structure written by MMmdl.
 47 49  0  0  0  0  0  0  0  0  2 V2000
  152.3372  143.6936  161.4155 C   0  0  0  0  0  0  0  0  0  0  0  0
  152.1743  142.8848  160.1400 C   0  0  0  0  0  0  0  0  0  0  0  0
  151.3758  143.4162  159.1016 C   0  0  0  0  0  0  0  0  0  0  0  0
  151.2468  142.6533  157.9469 C   0  0  0  0  0  0  0  0  0  0  0  0
  150.5421  142.8909  156.7644 N   0  3  0  0  0  0  0  0  0  0  0  0
  150.7194  141.8439  155.9111 C   0  0  0  0  0  0  0  0  0  0  0  0
  151.5261  140.9418  156.5328 N   0  0  0  0  0  0  0  0  0  0  0  0
  152.0335  139.6434  156.0721 C   0  0  0  0  0  0  0  0  0  0  0  0
  151.2051  139.0633  154.9094 C   0  0  1  0  0  0  0  0  0  0  0  0
  151.8743  137.9177  154.4190 O   0  0  0  0  0  0  0  0  0  0  0  0
  149.7838  138.6622  155.3601 C   0  0  0  0  0  0  0  0  0  0  0  0
  148.8355  139.7832  155.2550 N   0  0  0  0  0  0  0  0  0  0  0  0
  148.6469  140.3216  153.9720 C   0  0  0  0  0  0  0  0  0  0  0  0
  147.8358  141.3062  153.7617 N   0  0  0  0  0  0  0  0  0  0  0  0
  147.1241  141.8638  154.8281 C   0  0  0  0  0  0  0  0  0  0  0  0
  146.1964  143.0107  154.4684 C   0  0  0  0  0  0  0  0  0  0  0  0
  147.2703  141.3951  156.0975 C   0  0  0  0  0  0  0  0  0  0  0  0
  146.5237  141.9638  157.2976 C   0  0  0  0  0  0  0  0  0  0  0  0
  148.1941  140.2783  156.3533 C   0  0  0  0  0  0  0  0  0  0  0  0
  148.3891  139.8145  157.4792 O   0  0  0  0  0  0  0  0  0  0  0  0
  151.8797  141.4038  157.8044 C   0  0  0  0  0  0  0  0  0  0  0  0
  152.6686  140.8642  158.8173 C   0  0  0  0  0  0  0  0  0  0  0  0
  152.8111  141.6241  160.0000 C   0  0  0  0  0  0  0  0  0  0  0  0
  153.6663  141.0611  161.1223 C   0  0  0  0  0  0  0  0  0  0  0  0
  151.8103  144.6465  161.3545 H   0  0  0  0  0  0  0  0  0  0  0  0
  153.3897  143.9077  161.6027 H   0  0  0  0  0  0  0  0  0  0  0  0
  151.9371  143.1457  162.2690 H   0  0  0  0  0  0  0  0  0  0  0  0
  150.8870  144.3743  159.2015 H   0  0  0  0  0  0  0  0  0  0  0  0
  150.2949  141.7462  154.9223 H   0  0  0  0  0  0  0  0  0  0  0  0
  153.0753  139.7760  155.7765 H   0  0  0  0  0  0  0  0  0  0  0  0
  152.0381  138.9637  156.9252 H   0  0  0  0  0  0  0  0  0  0  0  0
  151.1550  139.8002  154.1073 H   0  0  0  0  0  0  0  0  0  0  0  0
  151.3450  137.1571  154.6044 H   0  0  0  0  0  0  0  0  0  0  0  0
  149.4436  137.7745  154.8224 H   0  0  0  0  0  0  0  0  0  0  0  0
  149.8090  138.3444  156.4041 H   0  0  0  0  0  0  0  0  0  0  0  0
  149.2302  139.8560  153.1758 H   0  0  0  0  0  0  0  0  0  0  0  0
  145.1646  142.7596  154.7156 H   0  0  0  0  0  0  0  0  0  0  0  0
  146.2390  143.2371  153.4023 H   0  0  0  0  0  0  0  0  0  0  0  0
  146.4764  143.9137  155.0119 H   0  0  0  0  0  0  0  0  0  0  0  0
  147.2321  142.3340  158.0396 H   0  0  0  0  0  0  0  0  0  0  0  0
  145.9171  141.1876  157.7654 H   0  0  0  0  0  0  0  0  0  0  0  0
  145.8596  142.7872  157.0395 H   0  0  0  0  0  0  0  0  0  0  0  0
  153.1520  139.9039  158.7099 H   0  0  0  0  0  0  0  0  0  0  0  0
  154.0514  140.0721  160.8720 H   0  0  0  0  0  0  0  0  0  0  0  0
  153.0851  140.9686  162.0400 H   0  0  0  0  0  0  0  0  0  0  0  0
  154.5188  141.7126  161.3151 H   0  0  0  0  0  0  0  0  0  0  0  0
  149.9802  143.7058  156.5530 H   0  0  0  0  0  0  0  0  0  0  0  0
  1  2  1  0  0  0  0
  1 25  1  0  0  0  0
  1 26  1  0  0  0  0
  1 27  1  0  0  0  0
  2 23  1  0  0  0  0
  2  3  2  0  0  0  0
  3  4  1  0  0  0  0
  3 28  1  0  0  0  0
  4 21  2  0  0  0  0
  4  5  1  0  0  0  0
  5  6  2  0  0  0  0
  5 47  1  0  0  0  0
  6  7  1  0  0  0  0
  6 29  1  0  0  0  0
  7  8  1  0  0  0  0
  7 21  1  0  0  0  0
  8  9  1  0  0  0  0
  8 30  1  0  0  0  0
  8 31  1  0  0  0  0
  9 10  1  0  0  0  0
  9 11  1  0  0  0  0
  9 32  1  0  0  0  0
 10 33  1  0  0  0  0
 11 12  1  0  0  0  0
 11 34  1  0  0  0  0
 11 35  1  0  0  0  0
 12 19  1  0  0  0  0
 12 13  1  0  0  0  0
 13 14  2  0  0  0  0
 13 36  1  0  0  0  0
 14 15  1  0  0  0  0
 15 16  1  0  0  0  0
 15 17  2  0  0  0  0
 16 37  1  0  0  0  0
 16 38  1  0  0  0  0
 16 39  1  0  0  0  0
 17 18  1  0  0  0  0
 17 19  1  0  0  0  0
 18 40  1  0  0  0  0
 18 41  1  0  0  0  0
 18 42  1  0  0  0  0
 19 20  2  0  0  0  0
 21 22  1  0  0  0  0
 22 23  2  0  0  0  0
 22 43  1  0  0  0  0
 23 24  1  0  0  0  0
 24 44  1  0  0  0  0
 24 45  1  0  0  0  0
 24 46  1  0  0  0  0
M  CHG  1   5   1
M  END
> <s_m_source_file>
AV-unprocessed.smi

> <i_m_source_file_index>
2410

> <i_lp_mmshare_version>
43012

> <i_f3d_flags>
0

> <s_epik_input>
W0NIM11jKFtjSF0xKWMoW0NIM10pW2NIXWMoYzEyKW4oW2NIXW4yKVtDSDJdW0NASF0oW09IXSlbQ0gyXW4zW2NIXW5jKFtDSDNdKWMoW0NIM10pYzM9Tw==

> <s_epik_cmdline>
J2VwaWtfcHl0aG9uJywgJy1waCcsICc3LjAnLCAnLXRuJywgJzgnLCAnLW1hJywgJzIwMCcsICctbWV0YWxfYmluZGluZycsICctaW1hZScsICc8aW5maWxlLm1hZT4nLCAnLW9tYWUnLCAnPG91dGZpbGUubWFlPic=

> <r_lp_tautomer_probability>
1

> <r_epik_Ionization_Penalty>
1.03571

> <r_epik_Ionization_Penalty_Charging>
1.03568

> <r_epik_Ionization_Penalty_Neutral>
3.18232e-05

> <r_epik_State_Penalty>
1.08724

> <r_epik_Charging_Adjusted_Penalty>
2.12292

> <i_epik_Tot_Q>
1

> <i_epik_Tot_abs_Q>
1

> <r_epik_Metal_State_Penalty>
1.18374

> <b_epik_Metal_Only>
0

> <s_lp_Force_Field>
OPLS_2005

> <r_lp_Energy>
24.5117

> <b_lp_Chiralities_Consistent>
1

> <s_lp_Variant>
AV-unprocessed.smi:2410-4

> <Gold.Version>
5.8.1

> <Gold.Id.Protein>
6NUR|6NUR_protein|mol2

> <Gold.PLP.Fitness>
54.0636

> <Gold.PLP.PLP>
-46.2934

> <Gold.PLP.part.hbond>
-1.0000

> <Gold.PLP.part.metal>
0.0000

> <Gold.PLP.part.buried>
-7.3984

> <Gold.PLP.part.nonpolar>
-37.9024

> <Gold.PLP.part.repulsive>
0.2036

> <Gold.PLP.ligand.clash>
0.0000

> <Gold.PLP.ligand.torsion>
0.6424

> <Gold.PLP.Chemscore.Hbond>
2.0000

> <Gold.PLP.Chemscore.CHOScore>
1.0000

> <Gold.PLP.Chemscore.Metal>
0.0000

> <Gold.Chemscore.Hbonds>
donor molecule, donor type, donor heavy atom, donor atom, acceptor molecule, acceptor atom, score
      L1  H     5    47       P1  8028  2.00
      L1  C    13    36       P1  7957  1.00

> <Gold.PLP.Chemscore.Internal.Correction>
0.0550

> <Gold.Rescore>
     Score         DG    S(hbond)    S(metal)    S(lipo)     H(rot)  DE(clash)    DE(int)     intcor
     14.01     -15.74       1.00        0.00     111.75       2.41       0.21       1.51       ----

> <Gold.Chemscore.Fitness>
14.0147

> <Gold.Chemscore.DG>
-15.7372

> <Gold.Chemscore.ZeroCoef>
-5.4800

> <Gold.Chemscore.Hbond>
0.9999

> <Gold.Chemscore.Metal>
0.0000

> <Gold.Chemscore.Lipo>
111.7505

> <Gold.Chemscore.Internal_Hbond>
0.0000

> <Gold.Chemscore.DEClash>
0.2092

> <Gold.Chemscore.DEInternal>
1.5134

> <Gold.Chemscore.Rot>
2.4052

> <Gold.Chemscore.Internal.Correction>
   9.000000E+99

> <Gold.Chemscore.Hbonds>
donor molecule, donor type, donor heavy atom, donor atom, acceptor molecule, acceptor atom, score
      L1  H     5    47       P1  8028  0.99

> <Gold.Chemscore.Hbond.Weighted>
-3.3397

> <Gold.Chemscore.Metal.Weighted>
-0.0000

> <Gold.Chemscore.Lipo.Weighted>
-13.0748

> <Gold.Chemscore.Internal_Hbond.Weighted>
0.0000

> <Gold.Chemscore.DEClash.Weighted>
0.2092

> <Gold.Chemscore.DEInternal.Weighted>
1.5134

> <Gold.Chemscore.Rot.Weighted>
6.1573

> <Gold.Chemscore.Internal.Correction.Weighted>
   9.000000E+99

> <Gold.Protein.RotatedTorsions>
[ 6907 6896 6895 6894 ] final  130.11 input  -60.11 | X-H torsion
[ 7974 7965 7964 7962 ] final   85.31 input  175.53 | X-H torsion
[ 8008 7997 7996 7995 ] final  148.73 input   59.86 | X-H torsion
[ 10167 10162 10161 10158 ] final  -85.97 input  -65.29 | X-H torsion
[ 10718 10713 10712 10709 ] final -159.93 input   66.30 | X-H torsion
[ 10763 10752 10751 10750 ] final -100.15 input  -60.55 | X-H torsion
[ 11005 11000 10999 10996 ] final  130.65 input  -57.11 | X-H torsion

> <Gold.Protein.ActiveResidues>
 VAL166  LYS551  ARG553  GLY616  TRP617  ASP618  TYR619  PRO620  LYS621  CYS622 
 ASP623  PHE694  ASN695  SER759  ASP760  ASP761  ALA762  ILE779  LEU786  VAL792 
 PHE793  MET794  SER795  GLU796  ALA797  LYS798  CYS799  TRP800  GLU811  SER814 

> <Gold.Protein.RotatedAtoms>
  152.3558  133.6235  159.5977 H   0  0  0  0  0  0  0  0  0  0  0  0  # atno 6907 bound_to 6896
  150.7567  133.9502  159.3492 H   0  0  0  0  0  0  0  0  0  0  0  0  # atno 6908 bound_to 6896
  151.7348  135.0868  160.0357 H   0  0  0  0  0  0  0  0  0  0  0  0  # atno 6909 bound_to 6896
  145.5872  139.2333  143.2320 H   0  0  0  0  0  0  0  0  0  0  0  0  # atno 7974 bound_to 7965
  156.2781  140.2121  156.5745 H   0  0  0  0  0  0  0  0  0  0  0  0  # atno 8008 bound_to 7997
  154.7109  140.0512  157.0571 H   0  0  0  0  0  0  0  0  0  0  0  0  # atno 8009 bound_to 7997
  155.0607  140.3166  155.4664 H   0  0  0  0  0  0  0  0  0  0  0  0  # atno 8010 bound_to 7997
  140.3986  143.2672  151.9171 H   0  0  0  0  0  0  0  0  0  0  0  0  # atno 10167 bound_to 10162
  156.5749  130.8704  151.2848 H   0  0  0  0  0  0  0  0  0  0  0  0  # atno 10718 bound_to 10713
  154.7556  135.4946  153.9368 H   0  0  0  0  0  0  0  0  0  0  0  0  # atno 10763 bound_to 10752
  153.1192  135.6727  153.9373 H   0  0  0  0  0  0  0  0  0  0  0  0  # atno 10764 bound_to 10752
  153.9110  135.3099  155.3427 H   0  0  0  0  0  0  0  0  0  0  0  0  # atno 10765 bound_to 10752
  139.9684  134.9584  156.9325 H   0  0  0  0  0  0  0  0  0  0  0  0  # atno 11005 bound_to 11000
  146.1673  140.6698  142.9249 LP  0  0  0  0  0  0  0  0  0  0  0  0  # atno 17320 bound_to 7965
  144.7367  140.4829  143.6898 LP  0  0  0  0  0  0  0  0  0  0  0  0  # atno 17321 bound_to 7965
  139.4785  144.5656  151.8170 LP  0  0  0  0  0  0  0  0  0  0  0  0  # atno 17342 bound_to 10162
  140.4764  144.1514  150.5925 LP  0  0  0  0  0  0  0  0  0  0  0  0  # atno 17343 bound_to 10162
  157.7340  130.9739  150.2005 LP  0  0  0  0  0  0  0  0  0  0  0  0  # atno 17370 bound_to 10713
  156.2682  130.3718  149.8059 LP  0  0  0  0  0  0  0  0  0  0  0  0  # atno 17371 bound_to 10713
  140.5346  134.0780  155.7325 LP  0  0  0  0  0  0  0  0  0  0  0  0  # atno 17394 bound_to 11000
  141.1364  133.9214  157.2424 LP  0  0  0  0  0  0  0  0  0  0  0  0  # atno 17395 bound_to 11000

$$$$
