#       Name:                AV-unprocessed.smi:2243
#       Creating user name   scv26
#       Creation time:       Fri Mar 27 12:27:25 2020


#       File generated by GOLD software.
#

@<TRIPOS>MOLECULE
AV-unprocessed.smi:2243
    41    42     1
SMALL
NO_CHARGES


@<TRIPOS>ATOM
      1 ****        -1.4206  -1.1748   2.2303 C.3            1 S1                 0.0000
      2 ****        -1.0263  -0.4097   0.9554 C.3            1 S1                 0.0000
      3 ****         0.4305  -0.2670   0.9490 N.am           1 S1                 0.0000
      4 ****         1.1217   0.8839   0.9374 C.2            1 S1                 0.0000
      5 ****         0.5560   1.9816   0.9270 O.2            1 S1                 0.0000
      6 ****         2.4825   0.6138   0.9337 N.2            1 S1                 0.0000
      7 ****         3.3337   1.5925   0.9186 C.2            1 S1                 0.0000
      8 ****         4.7170   1.5094   0.9106 N.pl3          1 S1                 0.0000
      9 ****         5.2199   2.7809   0.8944 C.2            1 S1                 0.0000
     10 ****         4.1970   3.6306   0.8930 C.2            1 S1                 0.0000
     11 ****         3.0266   2.9338   0.9076 O.3            1 S1                 0.0000
     12 ****        -1.5104  -1.0982  -0.3487 C.3            1 S1                 0.0000
     13 ****        -1.0423  -0.3591  -1.6212 C.3            1 S1                 0.0000
     14 ****        -1.5996  -1.0228  -2.8907 C.3            1 S1                 0.0000
     15 ****        -3.0196  -1.0720  -2.8329 O.3            1 S1                 0.0000
     16 ****        -3.4959  -1.8539  -1.7449 C.3            1 S1                 0.0000
     17 ****        -3.0453  -1.2329  -0.4128 C.3            1 S1                 0.0000
     18 ****        -2.5004  -1.1930   2.3741 H              1 S1                 0.0000
     19 ****        -0.9926  -0.7037   3.1158 H              1 S1                 0.0000
     20 ****        -1.0676  -2.2061   2.2002 H              1 S1                 0.0000
     21 ****        -1.4955   0.5740   1.0102 H              1 S1                 0.0000
     22 ****         0.9631  -1.1249   0.9570 H              1 S1                 0.0000
     23 ****         5.2941   0.6808   0.9153 H              1 S1                 0.0000
     24 ****         6.2871   2.9462   0.8852 H              1 S1                 0.0000
     25 ****         4.1381   4.7087   0.8829 H              1 S1                 0.0000
     26 ****        -1.0864  -2.1034  -0.3764 H              1 S1                 0.0000
     27 ****        -1.3679   0.6813  -1.5846 H              1 S1                 0.0000
     28 ****         0.0460  -0.3415  -1.6820 H              1 S1                 0.0000
     29 ****        -1.3042  -0.4509  -3.7703 H              1 S1                 0.0000
     30 ****        -1.1939  -2.0280  -3.0150 H              1 S1                 0.0000
     31 ****        -4.5843  -1.8914  -1.7903 H              1 S1                 0.0000
     32 ****        -3.1388  -2.8810  -1.8363 H              1 S1                 0.0000
     33 ****        -3.4147  -1.8522   0.4040 H              1 S1                 0.0000
     34 ****        -3.5081  -0.2520  -0.2961 H              1 S1                 0.0000
     35 ****        -0.4428   2.0294   0.9271 LP             1 S1                 0.0000
     36 ****         1.0968   2.8228   0.9185 LP             1 S1                 0.0000
     37 ****         2.8062  -0.3323   0.9427 LP             1 S1                 0.0000
     38 ****         2.5013   3.1689   1.7254 LP             1 S1                 0.0000
     39 ****         2.4904   3.1530   0.0925 LP             1 S1                 0.0000
     40 ****        -3.3613  -1.4676  -3.6854 LP             1 S1                 0.0000
     41 ****        -3.3686  -0.1400  -2.7345 LP             1 S1                 0.0000
@<TRIPOS>BOND
    1    1    2 1     
    2    1   18 1     
    3    1   19 1     
    4    1   20 1     
    5    2    3 1     
    6    2   12 1     
    7    2   21 1     
    8    3   22 1     
    9    3    4 am    
   10    4    6 1     
   11    4    5 2     
   12    6    7 2     
   13    7   11 1     
   14    7    8 1     
   15    8   23 1     
   16    8    9 1     
   17    9   24 1     
   18    9   10 2     
   19   10   25 1     
   20   10   11 1     
   21   12   17 1     
   22   12   13 1     
   23   12   26 1     
   24   13   14 1     
   25   13   27 1     
   26   13   28 1     
   27   14   15 1     
   28   14   29 1     
   29   14   30 1     
   30   15   16 1     
   31   16   17 1     
   32   16   31 1     
   33   16   32 1     
   34   17   33 1     
   35   17   34 1     
   36    5   35 1     
   37    5   36 1     
   38    6   37 1     
   39   11   38 1     
   40   11   39 1     
   41   15   40 1     
   42   15   41 1     
@<TRIPOS>SUBSTRUCTURE
      1 S1             1
@<TRIPOS>SET
LONE_PAIRS      STATIC     ATOMS    <user>   **** ""
7 35 36 37 38 39 40 41
DONOR_HYDROGENS      STATIC     ATOMS    <user>   **** ""
2 22 23
ATOM$BLUE        STATIC     ATOMS    COLORGROUP SYSTEM
7 35 36 37 38 39 40 41
ATOM$RED        STATIC     ATOMS    COLORGROUP SYSTEM
2 22 23
