#       Name:                AV-unprocessed.smi:1796
#       Creating user name   scv26
#       Creation time:       Fri Mar 27 08:50:36 2020


#       File generated by GOLD software.
#

@<TRIPOS>MOLECULE
AV-unprocessed.smi:1796
    47    48     1
SMALL
NO_CHARGES


@<TRIPOS>ATOM
      1 ****        -2.7680  -0.4724   3.7009 C.3            1 S1                 0.0000
      2 ****        -3.5927  -0.0306   2.4897 C.2            1 S1                 0.0000
      3 ****        -4.7859  -0.3321   2.4617 O.2            1 S1                 0.0000
      4 ****        -2.9893   0.6641   1.4953 N.am           1 S1                 0.0000
      5 ****        -3.6827   1.0433   0.2583 C.3            1 S1                 0.0000
      6 ****        -3.1264   0.1946  -0.8993 C.3            1 S1                 0.0000
      7 ****        -1.5975   0.3473  -1.0130 C.3            1 S1                 0.0000
      8 ****        -0.8946   0.1206   0.3466 C.3            1 S1                 0.0000
      9 ****         0.6061   0.4168   0.2420 C.2            1 S1                 0.0000
     10 ****         0.9955   1.5589  -0.0031 O.2            1 S1                 0.0000
     11 ****         1.4345  -0.6258   0.4154 N.am           1 S1                 0.0000
     12 ****         2.8924  -0.5850   0.3059 C.3            1 S1                 0.0000
     13 ****         3.5006  -1.4375   1.4277 C.3            1 S1                 0.0000
     14 ****         3.3512  -1.0752  -1.0845 C.3            1 S1                 0.0000
     15 ****         2.9079  -0.2072  -2.1613 N.pl3          1 S1                 0.0000
     16 ****         1.8775  -0.4095  -3.0556 C.2            1 S1                 0.0000
     17 ****         1.8239   0.6864  -3.8679 C.2            1 S1                 0.0000
     18 ****         2.8790   1.5130  -3.3896 C.2            1 S1                 0.0000
     19 ****         3.5285   0.9737  -2.3705 N.2            1 S1                 0.0000
     20 ****        -1.5590   0.9921   1.4361 C.3            1 S1                 0.0000
     21 ****        -1.9273  -1.0939   3.3913 H              1 S1                 0.0000
     22 ****        -3.3786  -1.0584   4.3886 H              1 S1                 0.0000
     23 ****        -2.3893   0.3925   4.2463 H              1 S1                 0.0000
     24 ****        -4.7644   0.9193   0.3240 H              1 S1                 0.0000
     25 ****        -3.5170   2.1032   0.0601 H              1 S1                 0.0000
     26 ****        -3.3771  -0.8541  -0.7337 H              1 S1                 0.0000
     27 ****        -3.6014   0.4820  -1.8376 H              1 S1                 0.0000
     28 ****        -1.2119  -0.3483  -1.7594 H              1 S1                 0.0000
     29 ****        -1.3737   1.3489  -1.3842 H              1 S1                 0.0000
     30 ****        -1.0217  -0.9271   0.6263 H              1 S1                 0.0000
     31 ****         1.0217  -1.5250   0.6170 H              1 S1                 0.0000
     32 ****         3.2472   0.4369   0.4522 H              1 S1                 0.0000
     33 ****         4.5901  -1.4008   1.4003 H              1 S1                 0.0000
     34 ****         3.2010  -2.4825   1.3409 H              1 S1                 0.0000
     35 ****         3.1850  -1.0797   2.4083 H              1 S1                 0.0000
     36 ****         4.4401  -1.1308  -1.1228 H              1 S1                 0.0000
     37 ****         2.9828  -2.0840  -1.2755 H              1 S1                 0.0000
     38 ****         1.2697  -1.3019  -3.0329 H              1 S1                 0.0000
     39 ****         1.1350   0.8707  -4.6787 H              1 S1                 0.0000
     40 ****         3.1904   2.4823  -3.7500 H              1 S1                 0.0000
     41 ****        -1.4531   2.0513   1.1943 H              1 S1                 0.0000
     42 ****        -1.0468   0.8643   2.3892 H              1 S1                 0.0000
     43 ****        -5.1885  -0.8505   3.2162 LP             1 S1                 0.0000
     44 ****        -5.3527  -0.0586   1.6845 LP             1 S1                 0.0000
     45 ****         0.3324   2.2958  -0.1344 LP             1 S1                 0.0000
     46 ****         1.9748   1.7495  -0.0708 LP             1 S1                 0.0000
     47 ****         4.3045   1.3550  -1.8681 LP             1 S1                 0.0000
@<TRIPOS>BOND
    1    1    2 1     
    2    1   21 1     
    3    1   22 1     
    4    1   23 1     
    5    2    3 2     
    6    2    4 am    
    7    4   20 1     
    8    4    5 1     
    9    5    6 1     
   10    5   24 1     
   11    5   25 1     
   12    6    7 1     
   13    6   26 1     
   14    6   27 1     
   15    7    8 1     
   16    7   28 1     
   17    7   29 1     
   18    8    9 1     
   19    8   20 1     
   20    8   30 1     
   21    9   10 2     
   22    9   11 am    
   23   11   12 1     
   24   11   31 1     
   25   12   13 1     
   26   12   14 1     
   27   12   32 1     
   28   13   33 1     
   29   13   34 1     
   30   13   35 1     
   31   14   15 1     
   32   14   36 1     
   33   14   37 1     
   34   15   19 1     
   35   15   16 1     
   36   16   17 2     
   37   16   38 1     
   38   17   18 1     
   39   17   39 1     
   40   18   19 2     
   41   18   40 1     
   42   20   41 1     
   43   20   42 1     
   44    3   43 1     
   45    3   44 1     
   46   10   45 1     
   47   10   46 1     
   48   19   47 1     
@<TRIPOS>SUBSTRUCTURE
      1 S1             1
@<TRIPOS>SET
LONE_PAIRS      STATIC     ATOMS    <user>   **** ""
5 43 44 45 46 47
DONOR_HYDROGENS      STATIC     ATOMS    <user>   **** ""
1 31
ATOM$BLUE        STATIC     ATOMS    COLORGROUP SYSTEM
5 43 44 45 46 47
ATOM$RED        STATIC     ATOMS    COLORGROUP SYSTEM
1 31
