#       Name:                AV-unprocessed.smi:2773
#       Creating user name   scv26
#       Creation time:       Fri Mar 27 15:12:28 2020


#       File generated by GOLD software.
#

@<TRIPOS>MOLECULE
AV-unprocessed.smi:2773
    33    34     1
SMALL
NO_CHARGES


@<TRIPOS>ATOM
      1 ****        -0.0326  -3.5235  -4.8135 C.3            1 S1                 0.0000
      2 ****        -0.6325  -2.9942  -3.5288 C.3            1 S1                 0.0000
      3 ****        -0.8148  -3.9129  -2.3506 C.3            1 S1                 0.0000
      4 ****         0.2197  -2.8106  -2.2895 C.3            1 S1                 0.0000
      5 ****        -0.0727  -1.7095  -1.4214 N.am           1 S1                 0.0000
      6 ****         0.7894  -0.8324  -0.8756 C.2            1 S1                 0.0000
      7 ****         1.9997  -0.9301  -1.0706 O.2            1 S1                 0.0000
      8 ****         0.2122   0.1029  -0.0945 N.am           1 S1                 0.0000
      9 ****         0.8297   1.1811   0.5928 C.ar           1 S1                 0.0000
     10 ****        -0.0454   1.9823   1.3589 C.ar           1 S1                 0.0000
     11 ****         0.4697   3.0789   2.0758 C.ar           1 S1                 0.0000
     12 ****         1.8479   3.3487   2.0074 C.ar           1 S1                 0.0000
     13 ****         2.6566   2.5029   1.2186 C.ar           1 S1                 0.0000
     14 ****         4.1562   2.7283   1.0856 C.3            1 S1                 0.0000
     15 ****         4.5642   3.7723   1.8082 F              1 S1                 0.0000
     16 ****         4.8131   1.6457   1.5019 F              1 S1                 0.0000
     17 ****         4.4645   2.9541  -0.1915 F              1 S1                 0.0000
     18 ****         2.1569   1.4502   0.5326 N.ar           1 S1                 0.0000
     19 ****         0.7497  -4.2540  -4.6049 H              1 S1                 0.0000
     20 ****         0.4010  -2.7053  -5.3884 H              1 S1                 0.0000
     21 ****        -0.8038  -4.0027  -5.4168 H              1 S1                 0.0000
     22 ****        -1.4198  -2.2589  -3.6862 H              1 S1                 0.0000
     23 ****        -1.7228  -3.7956  -1.7618 H              1 S1                 0.0000
     24 ****        -0.4504  -4.9344  -2.4412 H              1 S1                 0.0000
     25 ****         1.2524  -3.1512  -2.3484 H              1 S1                 0.0000
     26 ****        -1.0385  -1.6202  -1.1402 H              1 S1                 0.0000
     27 ****        -0.7902   0.0415   0.0055 H              1 S1                 0.0000
     28 ****        -1.1023   1.7619   1.4004 H              1 S1                 0.0000
     29 ****        -0.1831   3.7032   2.6678 H              1 S1                 0.0000
     30 ****         2.2648   4.1854   2.5481 H              1 S1                 0.0000
     31 ****         2.3560  -1.6694  -1.6419 LP             1 S1                 0.0000
     32 ****         2.6276  -0.2702  -0.6578 LP             1 S1                 0.0000
     33 ****         2.7627   0.8738  -0.0158 LP             1 S1                 0.0000
@<TRIPOS>BOND
    1    1    2 1     
    2    1   19 1     
    3    1   20 1     
    4    1   21 1     
    5    2    4 1     
    6    2    3 1     
    7    2   22 1     
    8    3    4 1     
    9    3   23 1     
   10    3   24 1     
   11    4    5 1     
   12    4   25 1     
   13    5    6 am    
   14    5   26 1     
   15    6    7 2     
   16    6    8 am    
   17    8    9 1     
   18    8   27 1     
   19    9   18 ar    
   20    9   10 ar    
   21   10   11 ar    
   22   10   28 1     
   23   11   12 ar    
   24   11   29 1     
   25   12   13 ar    
   26   12   30 1     
   27   13   14 1     
   28   13   18 ar    
   29   14   15 1     
   30   14   16 1     
   31   14   17 1     
   32    7   31 1     
   33    7   32 1     
   34   18   33 1     
@<TRIPOS>SUBSTRUCTURE
      1 S1             1
@<TRIPOS>SET
LONE_PAIRS      STATIC     ATOMS    <user>   **** ""
3 31 32 33
DONOR_HYDROGENS      STATIC     ATOMS    <user>   **** ""
2 26 27
ATOM$BLUE        STATIC     ATOMS    COLORGROUP SYSTEM
3 31 32 33
ATOM$RED        STATIC     ATOMS    COLORGROUP SYSTEM
2 26 27
