#       Name:                AV-unprocessed.smi:2340
#       Creating user name   scv26
#       Creation time:       Fri Mar 27 12:56:40 2020


#       File generated by GOLD software.
#

@<TRIPOS>MOLECULE
AV-unprocessed.smi:2340
    45    46     1
SMALL
NO_CHARGES


@<TRIPOS>ATOM
      1 ****        -2.2130  -1.1256   6.4251 C.3            1 S1                 0.0000
      2 ****        -2.2875  -1.3924   4.9547 C.2            1 S1                 0.0000
      3 ****        -2.9949  -2.3894   4.3309 C.2            1 S1                 0.0000
      4 ****        -2.8079  -2.3327   2.5997 S.3            1 S1                 0.0000
      5 ****        -1.7586  -0.9318   2.7880 C.2            1 S1                 0.0000
      6 ****        -1.1238  -0.2235   1.6328 C.3            1 S1                 0.0000
      7 ****        -1.6146   1.2307   1.5214 C.3            1 S1                 0.0000
      8 ****         0.4131  -0.3748   1.6504 C.3            1 S1                 0.0000
      9 ****         1.0567   0.2487   0.4984 N.am           1 S1                 0.0000
     10 ****         1.0833  -0.2657  -0.7385 C.2            1 S1                 0.0000
     11 ****         0.5752  -1.3433  -1.0483 O.2            1 S1                 0.0000
     12 ****         1.7197   0.5416  -1.5976 N.am           1 S1                 0.0000
     13 ****         1.8851   0.2825  -3.0243 C.3            1 S1                 0.0000
     14 ****         3.1410   0.9318  -3.5685 C.3            1 S1                 0.0000
     15 ****         2.8147   1.0710  -5.0524 C.3            1 S1                 0.0000
     16 ****         1.3983   1.1951  -5.1391 O.3            1 S1                 0.0000
     17 ****         0.8013   0.9669  -3.8662 C.3            1 S1                 0.0000
     18 ****        -0.4897   0.1543  -4.0250 C.3            1 S1                 0.0000
     19 ****        -1.5866  -0.5738   4.0647 N.2            1 S1                 0.0000
     20 ****        -2.7560  -1.8798   6.9954 H              1 S1                 0.0000
     21 ****        -2.6436  -0.1546   6.6703 H              1 S1                 0.0000
     22 ****        -1.1805  -1.1287   6.7750 H              1 S1                 0.0000
     23 ****        -3.6133  -3.1508   4.7827 H              1 S1                 0.0000
     24 ****        -1.4826  -0.7339   0.7380 H              1 S1                 0.0000
     25 ****        -2.7029   1.2715   1.4687 H              1 S1                 0.0000
     26 ****        -1.2287   1.7186   0.6263 H              1 S1                 0.0000
     27 ****        -1.3010   1.8204   2.3832 H              1 S1                 0.0000
     28 ****         0.8222   0.0849   2.5506 H              1 S1                 0.0000
     29 ****         0.6880  -1.4302   1.6928 H              1 S1                 0.0000
     30 ****         1.5028   1.1409   0.6539 H              1 S1                 0.0000
     31 ****         2.1019   1.4066  -1.2445 H              1 S1                 0.0000
     32 ****         1.9181  -0.7879  -3.2385 H              1 S1                 0.0000
     33 ****         3.2823   1.9214  -3.1307 H              1 S1                 0.0000
     34 ****         4.0421   0.3462  -3.3841 H              1 S1                 0.0000
     35 ****         3.3181   1.9233  -5.5092 H              1 S1                 0.0000
     36 ****         3.1149   0.1724  -5.5926 H              1 S1                 0.0000
     37 ****         0.5689   1.9457  -3.4428 H              1 S1                 0.0000
     38 ****        -0.9729  -0.0091  -3.0618 H              1 S1                 0.0000
     39 ****        -0.2909  -0.8207  -4.4707 H              1 S1                 0.0000
     40 ****        -1.1998   0.6759  -4.6669 H              1 S1                 0.0000
     41 ****         0.1064  -1.8924  -0.3564 LP             1 S1                 0.0000
     42 ****         0.6314  -1.6697  -1.9919 LP             1 S1                 0.0000
     43 ****         1.0481   0.5239  -5.7925 LP             1 S1                 0.0000
     44 ****         1.1667   2.1164  -5.4513 LP             1 S1                 0.0000
     45 ****        -1.0176   0.1967   4.3519 LP             1 S1                 0.0000
@<TRIPOS>BOND
    1    1    2 1     
    2    1   20 1     
    3    1   21 1     
    4    1   22 1     
    5    2   19 1     
    6    2    3 2     
    7    3    4 1     
    8    3   23 1     
    9    4    5 1     
   10    5    6 1     
   11    5   19 2     
   12    6    7 1     
   13    6    8 1     
   14    6   24 1     
   15    7   25 1     
   16    7   26 1     
   17    7   27 1     
   18    8    9 1     
   19    8   28 1     
   20    8   29 1     
   21    9   10 am    
   22    9   30 1     
   23   10   11 2     
   24   10   12 am    
   25   12   13 1     
   26   12   31 1     
   27   13   17 1     
   28   13   14 1     
   29   13   32 1     
   30   14   15 1     
   31   14   33 1     
   32   14   34 1     
   33   15   16 1     
   34   15   35 1     
   35   15   36 1     
   36   16   17 1     
   37   17   18 1     
   38   17   37 1     
   39   18   38 1     
   40   18   39 1     
   41   18   40 1     
   42   11   41 1     
   43   11   42 1     
   44   16   43 1     
   45   16   44 1     
   46   19   45 1     
@<TRIPOS>SUBSTRUCTURE
      1 S1             1
@<TRIPOS>SET
LONE_PAIRS      STATIC     ATOMS    <user>   **** ""
5 41 42 43 44 45
DONOR_HYDROGENS      STATIC     ATOMS    <user>   **** ""
2 30 31
ATOM$BLUE        STATIC     ATOMS    COLORGROUP SYSTEM
5 41 42 43 44 45
ATOM$RED        STATIC     ATOMS    COLORGROUP SYSTEM
2 30 31
