AV-unprocessed.smi:160|AV-procd|sdf|1348|dock9
  -GOLD-   2262019 53D 1   1.00000     0.00000
 Structure written by MMmdl.
 29 30  0  0  0  0  0  0  0  0  1 V2000
  155.2331  137.4414  158.8795 N   0  0  0  0  0  0  0  0  0  0  0  0
  154.0524  136.8443  158.6876 C   0  0  0  0  0  0  0  0  0  0  0  0
  153.6993  135.8590  159.3338 O   0  0  0  0  0  0  0  0  0  0  0  0
  153.1651  137.4519  157.6365 C   0  0  0  0  0  0  0  0  0  0  0  0
  152.3442  136.6750  156.8693 N   0  0  0  0  0  0  0  0  0  0  0  0
  151.7903  137.6259  156.1283 C   0  0  0  0  0  0  0  0  0  0  0  0
  152.2272  138.8593  156.4025 N   0  0  0  0  0  0  0  0  0  0  0  0
  151.8426  140.1709  155.7844 C   0  0  1  0  0  0  0  0  0  0  0  0
  150.9146  139.9265  154.7697 O   0  0  0  0  0  0  0  0  0  0  0  0
  149.6064  140.2534  155.2268 C   0  0  2  0  0  0  0  0  0  0  0  0
  148.6377  140.4637  154.0501 C   0  0  0  0  0  0  0  0  0  0  0  0
  149.2285  141.3049  153.0824 O   0  0  0  0  0  0  0  0  0  0  0  0
  149.8619  141.4842  156.1077 C   0  0  2  0  0  0  0  0  0  0  0  0
  149.9870  142.6556  155.3210 O   0  0  0  0  0  0  0  0  0  0  0  0
  151.1889  141.1564  156.7844 C   0  0  1  0  0  0  0  0  0  0  0  0
  150.9591  140.6164  158.0746 O   0  0  0  0  0  0  0  0  0  0  0  0
  153.1420  138.7646  157.4004 N   0  0  0  0  0  0  0  0  0  0  0  0
  152.7703  140.5482  155.3527 H   0  0  0  0  0  0  0  0  0  0  0  0
  149.2381  139.4506  155.8680 H   0  0  0  0  0  0  0  0  0  0  0  0
  149.0537  141.6452  156.8228 H   0  0  0  0  0  0  0  0  0  0  0  0
  151.8224  142.0381  156.8928 H   0  0  0  0  0  0  0  0  0  0  0  0
  155.8726  137.0829  159.5733 H   0  0  0  0  0  0  0  0  0  0  0  0
  155.4756  138.2522  158.3283 H   0  0  0  0  0  0  0  0  0  0  0  0
  151.0522  137.4191  155.3671 H   0  0  0  0  0  0  0  0  0  0  0  0
  148.4237  139.5107  153.5653 H   0  0  0  0  0  0  0  0  0  0  0  0
  147.6875  140.8814  154.3841 H   0  0  0  0  0  0  0  0  0  0  0  0
  149.5059  140.7747  152.3510 H   0  0  0  0  0  0  0  0  0  0  0  0
  149.3943  143.3095  155.6588 H   0  0  0  0  0  0  0  0  0  0  0  0
  150.2186  140.0313  158.0289 H   0  0  0  0  0  0  0  0  0  0  0  0
  1  2  1  0  0  0  0
  1 22  1  0  0  0  0
  1 23  1  0  0  0  0
  2  3  2  0  0  0  0
  2  4  1  0  0  0  0
  4 17  2  0  0  0  0
  4  5  1  0  0  0  0
  5  6  2  0  0  0  0
  6  7  1  0  0  0  0
  6 24  1  0  0  0  0
  7  8  1  0  0  0  0
  7 17  1  0  0  0  0
  8 18  1  0  0  0  0
  8 15  1  0  0  0  0
  8  9  1  0  0  0  0
  9 10  1  0  0  0  0
 10 19  1  0  0  0  0
 10 11  1  0  0  0  0
 10 13  1  0  0  0  0
 11 12  1  0  0  0  0
 11 25  1  0  0  0  0
 11 26  1  0  0  0  0
 12 27  1  0  0  0  0
 13 20  1  0  0  0  0
 13 14  1  0  0  0  0
 13 15  1  0  0  0  0
 14 28  1  0  0  0  0
 15 21  1  0  0  0  0
 15 16  1  0  0  0  0
 16 29  1  0  0  0  0
M  END
> <s_m_source_file>
AV-unprocessed.smi

> <i_m_source_file_index>
160

> <i_lp_mmshare_version>
43012

> <i_f3d_flags>
0

> <s_epik_input>
W05IMl1DKD1PKWMxbltjSF1uKG4xKVtDQEBIXTJPW0NASF0oW0NIMl1bT0hdKVtDQEBIXShbT0hdKVtDQEhdMltPSF0=

> <s_epik_cmdline>
J2VwaWtfcHl0aG9uJywgJy1waCcsICc3LjAnLCAnLXRuJywgJzgnLCAnLW1hJywgJzIwMCcsICctbWV0YWxfYmluZGluZycsICctaW1hZScsICc8aW5maWxlLm1hZT4nLCAnLW9tYWUnLCAnPG91dGZpbGUubWFlPic=

> <r_lp_tautomer_probability>
1

> <r_epik_Ionization_Penalty>
1.06932e-05

> <r_epik_Ionization_Penalty_Charging>
0

> <r_epik_Ionization_Penalty_Neutral>
1.06932e-05

> <r_epik_State_Penalty>
-0

> <r_epik_Charging_Adjusted_Penalty>
0

> <i_epik_Tot_Q>
0

> <i_epik_Tot_abs_Q>
0

> <r_epik_Metal_State_Penalty>
0.0142097

> <b_epik_Metal_Only>
0

> <s_epik_Chemistry_Notes>
This compound contains an acetal/aminal-like group ( X-CH(R)-Y where X, Y are N, S, or O) that may be acid/base labile, releasing an aldehyde.

> <s_lp_Force_Field>
OPLS_2005

> <r_lp_Energy>
42.6819

> <b_lp_Chiralities_Consistent>
1

> <s_lp_Variant>
AV-unprocessed.smi:160-6

> <Gold.Version>
5.8.1

> <Gold.Id.Protein>
6NUR|6NUR_protein|mol2

> <Gold.PLP.Fitness>
39.4591

> <Gold.PLP.PLP>
-23.7218

> <Gold.PLP.part.hbond>
-7.1066

> <Gold.PLP.part.metal>
0.0000

> <Gold.PLP.part.buried>
-1.7267

> <Gold.PLP.part.nonpolar>
-13.6722

> <Gold.PLP.part.repulsive>
0.1251

> <Gold.PLP.ligand.clash>
0.0000

> <Gold.PLP.ligand.torsion>
0.5344

> <Gold.PLP.Chemscore.Hbond>
5.6000

> <Gold.PLP.Chemscore.CHOScore>
0.0000

> <Gold.PLP.Chemscore.Metal>
0.0000

> <Gold.Chemscore.Hbonds>
donor molecule, donor type, donor heavy atom, donor atom, acceptor molecule, acceptor atom, score
      L1  H    12    27       P1  7957  0.65
      L1  H    14    28       P1  8028  0.92
      P1  H  6896  6907       L1     3  1.00
      P1  H  7989  7998       L1     9  0.95
      P1  H  7997  8008       L1    17  1.00
      P1  H  8011  8017       L1    12  0.20
      P1  H 10752 10765       L1     5  0.36

> <Gold.PLP.Chemscore.Internal.Correction>
0.0061

> <Gold.Rescore>
     Score         DG    S(hbond)    S(metal)    S(lipo)     H(rot)  DE(clash)    DE(int)     intcor
      9.31     -11.09       3.97        0.00      23.56       4.06       0.01       1.76       ----

> <Gold.Chemscore.Fitness>
9.3129

> <Gold.Chemscore.DG>
-11.0866

> <Gold.Chemscore.ZeroCoef>
-5.4800

> <Gold.Chemscore.Hbond>
3.9651

> <Gold.Chemscore.Metal>
0.0000

> <Gold.Chemscore.Lipo>
23.5616

> <Gold.Chemscore.Internal_Hbond>
0.0000

> <Gold.Chemscore.DEClash>
0.0135

> <Gold.Chemscore.DEInternal>
1.7601

> <Gold.Chemscore.Rot>
4.0600

> <Gold.Chemscore.Internal.Correction>
   9.000000E+99

> <Gold.Chemscore.Hbonds>
donor molecule, donor type, donor heavy atom, donor atom, acceptor molecule, acceptor atom, score
      L1  H    12    27       P1  7957  0.65
      L1  H    14    28       P1  8028  0.83
      P1  H  6896  6907       L1     3  0.98
      P1  H  7989  7998       L1     9  0.21
      P1  H  7997  8008       L1    17  0.50
      P1  H 10752 10765       L1     5  0.10

> <Gold.Chemscore.Hbond.Weighted>
-13.2435

> <Gold.Chemscore.Metal.Weighted>
-0.0000

> <Gold.Chemscore.Lipo.Weighted>
-2.7567

> <Gold.Chemscore.Internal_Hbond.Weighted>
0.0000

> <Gold.Chemscore.DEClash.Weighted>
0.0135

> <Gold.Chemscore.DEInternal.Weighted>
1.7601

> <Gold.Chemscore.Rot.Weighted>
10.3936

> <Gold.Chemscore.Internal.Correction.Weighted>
   9.000000E+99

> <Gold.Protein.RotatedTorsions>
[ 6907 6896 6895 6894 ] final   62.08 input  -60.11 | X-H torsion
[ 7974 7965 7964 7962 ] final  -41.94 input  175.53 | X-H torsion
[ 8008 7997 7996 7995 ] final  -78.62 input   59.86 | X-H torsion
[ 10167 10162 10161 10158 ] final   -0.10 input  -65.29 | X-H torsion
[ 10718 10713 10712 10709 ] final  132.09 input   66.30 | X-H torsion
[ 10763 10752 10751 10750 ] final -132.51 input  -60.55 | X-H torsion
[ 11005 11000 10999 10996 ] final  164.80 input  -57.11 | X-H torsion

> <Gold.Protein.ActiveResidues>
 VAL166  LYS551  ARG553  GLY616  TRP617  ASP618  TYR619  PRO620  LYS621  CYS622 
 ASP623  PHE694  ASN695  SER759  ASP760  ASP761  ALA762  ILE779  LEU786  VAL792 
 PHE793  MET794  SER795  GLU796  ALA797  LYS798  CYS799  TRP800  GLU811  SER814 

> <Gold.Protein.RotatedAtoms>
  152.4142  134.6070  160.0015 H   0  0  0  0  0  0  0  0  0  0  0  0  # atno 6907 bound_to 6896
  151.6239  133.3331  159.3102 H   0  0  0  0  0  0  0  0  0  0  0  0  # atno 6908 bound_to 6896
  150.8032  134.7179  159.6686 H   0  0  0  0  0  0  0  0  0  0  0  0  # atno 6909 bound_to 6896
  146.0163  140.6904  142.9200 H   0  0  0  0  0  0  0  0  0  0  0  0  # atno 7974 bound_to 7965
  154.5706  140.0691  156.8959 H   0  0  0  0  0  0  0  0  0  0  0  0  # atno 8008 bound_to 7997
  155.2641  140.3360  155.4252 H   0  0  0  0  0  0  0  0  0  0  0  0  # atno 8009 bound_to 7997
  156.2115  140.1761  156.7669 H   0  0  0  0  0  0  0  0  0  0  0  0  # atno 8010 bound_to 7997
  140.6753  143.6935  150.8009 H   0  0  0  0  0  0  0  0  0  0  0  0  # atno 10167 bound_to 10162
  157.4904  131.1090  150.9563 H   0  0  0  0  0  0  0  0  0  0  0  0  # atno 10718 bound_to 10713
  154.8742  135.3795  154.4421 H   0  0  0  0  0  0  0  0  0  0  0  0  # atno 10763 bound_to 10752
  153.5105  135.7029  153.5788 H   0  0  0  0  0  0  0  0  0  0  0  0  # atno 10764 bound_to 10752
  153.4080  135.3932  155.1997 H   0  0  0  0  0  0  0  0  0  0  0  0  # atno 10765 bound_to 10752
  140.2496  134.7988  157.3489 H   0  0  0  0  0  0  0  0  0  0  0  0  # atno 11005 bound_to 11000
  144.6972  140.3487  143.7186 LP  0  0  0  0  0  0  0  0  0  0  0  0  # atno 17320 bound_to 7965
  145.7263  139.1723  143.2456 LP  0  0  0  0  0  0  0  0  0  0  0  0  # atno 17321 bound_to 7965
  140.0626  143.5139  152.2620 LP  0  0  0  0  0  0  0  0  0  0  0  0  # atno 17342 bound_to 10162
  139.6041  144.7591  151.3102 LP  0  0  0  0  0  0  0  0  0  0  0  0  # atno 17343 bound_to 10162
  157.0267  130.5695  149.5338 LP  0  0  0  0  0  0  0  0  0  0  0  0  # atno 17370 bound_to 10713
  156.0170  130.5265  150.8165 LP  0  0  0  0  0  0  0  0  0  0  0  0  # atno 17371 bound_to 10713
  140.1572  134.4775  155.7920 LP  0  0  0  0  0  0  0  0  0  0  0  0  # atno 17394 bound_to 11000
  141.2203  133.6886  156.7481 LP  0  0  0  0  0  0  0  0  0  0  0  0  # atno 17395 bound_to 11000

$$$$
