AV-unprocessed.smi:1995|AV-procd|sdf|8076|dock4
  -GOLD-   2272010283D 1   1.00000     0.00000
 Structure written by MMmdl.
 42 43  0  0  0  0  0  0  0  0  1 V2000
  146.8197  141.2000  153.7357 C   0  0  0  0  0  0  0  0  0  0  0  0
  147.8659  140.0963  153.4935 C   0  0  0  0  0  0  0  0  0  0  0  0
  147.8158  138.8904  154.4849 C   0  0  1  0  0  0  0  0  0  0  0  0
  147.6251  139.4971  155.9012 C   0  0  0  0  0  0  0  0  0  0  0  0
  146.5615  138.0226  154.1407 C   0  0  0  0  0  0  0  0  0  0  0  0
  146.8437  136.8946  153.2517 N   0  0  0  0  0  0  0  0  0  0  0  0
  145.9440  136.0110  152.7951 C   0  0  0  0  0  0  0  0  0  0  0  0
  144.7476  136.0475  153.0822 O   0  0  0  0  0  0  0  0  0  0  0  0
  146.5210  135.1032  151.9911 N   0  0  0  0  0  0  0  0  0  0  0  0
  145.8977  134.0320  151.3039 C   0  0  0  0  0  0  0  0  0  0  0  0
  146.6592  133.0598  150.7983 N   0  0  0  0  0  0  0  0  0  0  0  0
  145.8997  132.0820  150.1490 C   0  0  0  0  0  0  0  0  0  0  0  0
  144.5491  132.3272  150.1712 C   0  0  0  0  0  0  0  0  0  0  0  0
  144.1710  133.8057  151.0134 S   0  0  0  0  0  0  0  0  0  0  0  0
  149.0771  138.0974  154.4263 N   0  0  0  0  0  0  0  0  0  0  0  0
  149.0942  136.8848  155.2540 C   0  0  0  0  0  0  0  0  0  0  0  0
  150.3628  136.0466  155.0212 C   0  0  0  0  0  0  0  0  0  0  0  0
  151.5151  136.8409  155.2763 O   0  0  0  0  0  0  0  0  0  0  0  0
  151.5671  138.0021  154.4562 C   0  0  0  0  0  0  0  0  0  0  0  0
  150.3075  138.8556  154.6839 C   0  0  0  0  0  0  0  0  0  0  0  0
  146.9379  142.0036  153.0088 H   0  0  0  0  0  0  0  0  0  0  0  0
  146.9184  141.6428  154.7266 H   0  0  0  0  0  0  0  0  0  0  0  0
  145.8025  140.8222  153.6369 H   0  0  0  0  0  0  0  0  0  0  0  0
  147.7326  139.7434  152.4703 H   0  0  0  0  0  0  0  0  0  0  0  0
  148.8580  140.5470  153.4967 H   0  0  0  0  0  0  0  0  0  0  0  0
  146.8560  140.2699  155.9163 H   0  0  0  0  0  0  0  0  0  0  0  0
  148.5434  139.9527  156.2722 H   0  0  0  0  0  0  0  0  0  0  0  0
  147.3186  138.7455  156.6291 H   0  0  0  0  0  0  0  0  0  0  0  0
  146.1401  137.5888  155.0469 H   0  0  0  0  0  0  0  0  0  0  0  0
  145.7676  138.6348  153.7123 H   0  0  0  0  0  0  0  0  0  0  0  0
  147.8034  136.7839  152.9589 H   0  0  0  0  0  0  0  0  0  0  0  0
  147.5157  135.1929  151.8453 H   0  0  0  0  0  0  0  0  0  0  0  0
  146.4040  131.2413  149.6961 H   0  0  0  0  0  0  0  0  0  0  0  0
  143.7569  131.7297  149.7450 H   0  0  0  0  0  0  0  0  0  0  0  0
  149.0406  137.1471  156.3104 H   0  0  0  0  0  0  0  0  0  0  0  0
  148.2343  136.2528  155.0416 H   0  0  0  0  0  0  0  0  0  0  0  0
  150.3732  135.1823  155.6854 H   0  0  0  0  0  0  0  0  0  0  0  0
  150.3922  135.6653  153.9993 H   0  0  0  0  0  0  0  0  0  0  0  0
  152.4618  138.5732  154.7045 H   0  0  0  0  0  0  0  0  0  0  0  0
  151.6532  137.7132  153.4075 H   0  0  0  0  0  0  0  0  0  0  0  0
  150.3749  139.7249  154.0321 H   0  0  0  0  0  0  0  0  0  0  0  0
  150.3176  139.2263  155.7087 H   0  0  0  0  0  0  0  0  0  0  0  0
  1  2  1  0  0  0  0
  1 21  1  0  0  0  0
  1 22  1  0  0  0  0
  1 23  1  0  0  0  0
  2  3  1  0  0  0  0
  2 24  1  0  0  0  0
  2 25  1  0  0  0  0
  3  4  1  0  0  0  0
  3  5  1  0  0  0  0
  3 15  1  0  0  0  0
  4 26  1  0  0  0  0
  4 27  1  0  0  0  0
  4 28  1  0  0  0  0
  5  6  1  0  0  0  0
  5 29  1  0  0  0  0
  5 30  1  0  0  0  0
  6  7  1  0  0  0  0
  6 31  1  0  0  0  0
  7  8  2  0  0  0  0
  7  9  1  0  0  0  0
  9 10  1  0  0  0  0
  9 32  1  0  0  0  0
 10 14  1  0  0  0  0
 10 11  2  0  0  0  0
 11 12  1  0  0  0  0
 12 13  2  0  0  0  0
 12 33  1  0  0  0  0
 13 14  1  0  0  0  0
 13 34  1  0  0  0  0
 15 20  1  0  0  0  0
 15 16  1  0  0  0  0
 16 17  1  0  0  0  0
 16 35  1  0  0  0  0
 16 36  1  0  0  0  0
 17 18  1  0  0  0  0
 17 37  1  0  0  0  0
 17 38  1  0  0  0  0
 18 19  1  0  0  0  0
 19 20  1  0  0  0  0
 19 39  1  0  0  0  0
 19 40  1  0  0  0  0
 20 41  1  0  0  0  0
 20 42  1  0  0  0  0
M  END
> <s_m_source_file>
AV-unprocessed.smi

> <i_m_source_file_index>
1995

> <i_lp_mmshare_version>
43012

> <i_f3d_flags>
0

> <s_epik_input>
W0NIMl0xW0NIMl1PW0NIMl1bQ0gyXU4xW0NAQF0oW0NIM10pKFtDSDJdW0NIM10pW0NIMl1bTkhdQyg9TylbTkhdYzJuW2NIXVtjSF1zMg==

> <s_epik_cmdline>
J2VwaWtfcHl0aG9uJywgJy1waCcsICc3LjAnLCAnLXRuJywgJzgnLCAnLW1hJywgJzIwMCcsICctbWV0YWxfYmluZGluZycsICctaW1hZScsICc8aW5maWxlLm1hZT4nLCAnLW9tYWUnLCAnPG91dGZpbGUubWFlPic=

> <r_lp_tautomer_probability>
0.999

> <r_epik_Ionization_Penalty>
0.295852

> <r_epik_Ionization_Penalty_Charging>
0

> <r_epik_Ionization_Penalty_Neutral>
0.295852

> <r_epik_State_Penalty>
0.288723

> <r_epik_Charging_Adjusted_Penalty>
0.288723

> <i_epik_Tot_Q>
0

> <i_epik_Tot_abs_Q>
0

> <r_epik_Metal_State_Penalty>
0.29791

> <b_epik_Metal_Only>
0

> <s_lp_Force_Field>
OPLS_2005

> <r_lp_Energy>
39.4988

> <b_lp_Chiralities_Consistent>
1

> <s_lp_Variant>
AV-unprocessed.smi:1995-1

> <Gold.Version>
5.8.1

> <Gold.Id.Protein>
6NUR|6NUR_protein|mol2

> <Gold.PLP.Fitness>
37.5884

> <Gold.PLP.PLP>
-28.6144

> <Gold.PLP.part.hbond>
-3.0000

> <Gold.PLP.part.metal>
0.0000

> <Gold.PLP.part.buried>
-3.8954

> <Gold.PLP.part.nonpolar>
-23.0512

> <Gold.PLP.part.repulsive>
0.6628

> <Gold.PLP.ligand.clash>
0.0000

> <Gold.PLP.ligand.torsion>
0.8844

> <Gold.PLP.Chemscore.Hbond>
3.0000

> <Gold.PLP.Chemscore.CHOScore>
0.5479

> <Gold.PLP.Chemscore.Metal>
0.0000

> <Gold.Chemscore.Hbonds>
donor molecule, donor type, donor heavy atom, donor atom, acceptor molecule, acceptor atom, score
      L1  H     6    31       P1  7948  1.00
      L1  H     9    32       P1  7948  0.99
      P1  H 10752 10763       L1    18  1.00
      L1  C    12    33       P1 10747  0.56

> <Gold.PLP.Chemscore.Internal.Correction>
0.0991

> <Gold.Rescore>
     Score         DG    S(hbond)    S(metal)    S(lipo)     H(rot)  DE(clash)    DE(int)     intcor
     16.19     -17.97       2.71        0.00      67.37       1.74       0.04       1.74       ----

> <Gold.Chemscore.Fitness>
16.1885

> <Gold.Chemscore.DG>
-17.9681

> <Gold.Chemscore.ZeroCoef>
-5.4800

> <Gold.Chemscore.Hbond>
2.7134

> <Gold.Chemscore.Metal>
0.0000

> <Gold.Chemscore.Lipo>
67.3651

> <Gold.Chemscore.Internal_Hbond>
0.0000

> <Gold.Chemscore.DEClash>
0.0436

> <Gold.Chemscore.DEInternal>
1.7360

> <Gold.Chemscore.Rot>
1.7408

> <Gold.Chemscore.Internal.Correction>
   9.000000E+99

> <Gold.Chemscore.Hbonds>
donor molecule, donor type, donor heavy atom, donor atom, acceptor molecule, acceptor atom, score
      L1  H     6    31       P1  7948  0.95
      L1  H     9    32       P1  7948  0.88
      P1  H 10752 10763       L1    18  0.16

> <Gold.Chemscore.Hbond.Weighted>
-9.0629

> <Gold.Chemscore.Metal.Weighted>
-0.0000

> <Gold.Chemscore.Lipo.Weighted>
-7.8817

> <Gold.Chemscore.Internal_Hbond.Weighted>
0.0000

> <Gold.Chemscore.DEClash.Weighted>
0.0436

> <Gold.Chemscore.DEInternal.Weighted>
1.7360

> <Gold.Chemscore.Rot.Weighted>
4.4565

> <Gold.Chemscore.Internal.Correction.Weighted>
   9.000000E+99

> <Gold.Protein.RotatedTorsions>
[ 6907 6896 6895 6894 ] final   94.44 input  -60.11 | X-H torsion
[ 7974 7965 7964 7962 ] final   33.96 input  175.53 | X-H torsion
[ 8008 7997 7996 7995 ] final  169.66 input   59.86 | X-H torsion
[ 10167 10162 10161 10158 ] final    6.66 input  -65.29 | X-H torsion
[ 10718 10713 10712 10709 ] final -140.44 input   66.30 | X-H torsion
[ 10763 10752 10751 10750 ] final   63.34 input  -60.55 | X-H torsion
[ 11005 11000 10999 10996 ] final  174.68 input  -57.11 | X-H torsion

> <Gold.Protein.ActiveResidues>
 VAL166  LYS551  ARG553  GLY616  TRP617  ASP618  TYR619  PRO620  LYS621  CYS622 
 ASP623  PHE694  ASN695  SER759  ASP760  ASP761  ALA762  ILE779  LEU786  VAL792 
 PHE793  MET794  SER795  GLU796  ALA797  LYS798  CYS799  TRP800  GLU811  SER814 

> <Gold.Protein.RotatedAtoms>
  152.5449  134.1193  159.8391 H   0  0  0  0  0  0  0  0  0  0  0  0  # atno 6907 bound_to 6896
  151.1251  133.5069  159.2608 H   0  0  0  0  0  0  0  0  0  0  0  0  # atno 6908 bound_to 6896
  151.1737  135.0339  159.8817 H   0  0  0  0  0  0  0  0  0  0  0  0  # atno 6909 bound_to 6896
  146.1385  139.6330  142.9179 H   0  0  0  0  0  0  0  0  0  0  0  0  # atno 7974 bound_to 7965
  156.1437  140.1558  156.8881 H   0  0  0  0  0  0  0  0  0  0  0  0  # atno 8008 bound_to 7997
  154.5009  140.0825  156.7834 H   0  0  0  0  0  0  0  0  0  0  0  0  # atno 8009 bound_to 7997
  155.4030  140.3415  155.4260 H   0  0  0  0  0  0  0  0  0  0  0  0  # atno 8010 bound_to 7997
  140.6415  143.7763  150.7435 H   0  0  0  0  0  0  0  0  0  0  0  0  # atno 10167 bound_to 10162
  156.3224  130.7541  151.1642 H   0  0  0  0  0  0  0  0  0  0  0  0  # atno 10718 bound_to 10713
  153.0014  135.5432  154.6337 H   0  0  0  0  0  0  0  0  0  0  0  0  # atno 10763 bound_to 10752
  154.5608  135.2834  155.0923 H   0  0  0  0  0  0  0  0  0  0  0  0  # atno 10764 bound_to 10752
  154.2126  135.6464  153.5172 H   0  0  0  0  0  0  0  0  0  0  0  0  # atno 10765 bound_to 10752
  140.3540  134.7170  157.4287 H   0  0  0  0  0  0  0  0  0  0  0  0  # atno 11005 bound_to 11000
  145.5101  141.0435  143.2493 LP  0  0  0  0  0  0  0  0  0  0  0  0  # atno 17320 bound_to 7965
  144.7766  139.6616  143.7172 LP  0  0  0  0  0  0  0  0  0  0  0  0  # atno 17321 bound_to 7965
  140.1395  143.4454  152.2203 LP  0  0  0  0  0  0  0  0  0  0  0  0  # atno 17342 bound_to 10162
  139.5624  144.7414  151.4116 LP  0  0  0  0  0  0  0  0  0  0  0  0  # atno 17343 bound_to 10162
  157.7414  131.0504  150.5097 LP  0  0  0  0  0  0  0  0  0  0  0  0  # atno 17370 bound_to 10713
  156.5251  130.4171  149.6230 LP  0  0  0  0  0  0  0  0  0  0  0  0  # atno 17371 bound_to 10713
  140.0680  134.5902  155.8673 LP  0  0  0  0  0  0  0  0  0  0  0  0  # atno 17394 bound_to 11000
  141.2004  133.6612  156.5894 LP  0  0  0  0  0  0  0  0  0  0  0  0  # atno 17395 bound_to 11000

$$$$
