#       Name:                AV-unprocessed.smi:35
#       Creating user name   scv26
#       Creation time:       Thu Mar 26 16:04:35 2020


#       File generated by GOLD software.
#

@<TRIPOS>MOLECULE
AV-unprocessed.smi:35
    41    42     1
SMALL
NO_CHARGES


@<TRIPOS>ATOM
      1 ****        -4.1742   2.8858  -1.6721 O.2            1 S1                 0.0000
      2 ****        -3.2706   2.3345  -1.0462 C.2            1 S1                 0.0000
      3 ****        -3.3621   2.0430   0.2837 N.pl3          1 S1                -1.0000
      4 ****        -2.3557   1.4309   0.9744 C.2            1 S1                 0.0000
      5 ****        -2.4341   1.1485   2.1703 O.2            1 S1                 0.0000
      6 ****        -1.1590   1.0858   0.2883 N.am           1 S1                 0.0000
      7 ****        -0.0409   0.4124   1.0632 C.3            1 S1                 0.0000
      8 ****         1.1641   0.5467   0.3635 O.3            1 S1                 0.0000
      9 ****         1.5473  -0.7047  -0.2000 C.3            1 S1                 0.0000
     10 ****         3.0653  -0.7276  -0.4350 C.3            1 S1                 0.0000
     11 ****         3.3774  -0.0946  -1.6576 O.3            1 S1                 0.0000
     12 ****         1.0783  -1.6790   0.8795 C.3            1 S1                 0.0000
     13 ****         1.0127  -3.0206   0.4323 O.3            1 S1                 0.0000
     14 ****        -0.2752  -1.1020   1.2822 C.3            1 S1                 0.0000
     15 ****        -1.3339  -1.6352   0.5003 O.3            1 S1                 0.0000
     16 ****        -1.0389   1.3662  -1.0632 C.2            1 S1                 0.0000
     17 ****        -2.0385   1.9675  -1.7395 C.2            1 S1                 0.0000
     18 ****        -1.7304   2.3063  -3.6676 Br             1 S1                 0.0000
     19 ****         0.0540   0.9765   1.9926 H              1 S1                 0.0000
     20 ****         0.9983  -0.8874  -1.1258 H              1 S1                 0.0000
     21 ****         3.6024  -0.2536   0.3871 H              1 S1                 0.0000
     22 ****         3.4188  -1.7570  -0.5016 H              1 S1                 0.0000
     23 ****         4.3126  -0.1357  -1.7869 H              1 S1                 0.0000
     24 ****         1.7545  -1.6266   1.7343 H              1 S1                 0.0000
     25 ****         0.5859  -3.5361   1.0993 H              1 S1                 0.0000
     26 ****        -0.4943  -1.2890   2.3340 H              1 S1                 0.0000
     27 ****        -2.1242  -1.1605   0.7101 H              1 S1                 0.0000
     28 ****        -0.1392   1.1049  -1.5984 H              1 S1                 0.0000
     29 ****        -4.0617   3.0790  -2.6468 LP             1 S1                 0.0000
     30 ****        -5.0216   3.1410  -1.2064 LP             1 S1                 0.0000
     31 ****        -4.1998   2.2875   0.7720 LP             1 S1                 0.0000
     32 ****        -3.2646   1.3678   2.6824 LP             1 S1                 0.0000
     33 ****        -1.6673   0.6999   2.6294 LP             1 S1                 0.0000
     34 ****         1.8775   0.8589   0.9909 LP             1 S1                 0.0000
     35 ****         1.0478   1.2173  -0.3692 LP             1 S1                 0.0000
     36 ****         3.0828   0.8606  -1.6277 LP             1 S1                 0.0000
     37 ****         2.9122  -0.5635  -2.4085 LP             1 S1                 0.0000
     38 ****         1.9364  -3.3698   0.2747 LP             1 S1                 0.0000
     39 ****         0.4889  -3.0680  -0.4183 LP             1 S1                 0.0000
     40 ****        -1.4554  -2.6050   0.7114 LP             1 S1                 0.0000
     41 ****        -1.1234  -1.5295  -0.4716 LP             1 S1                 0.0000
@<TRIPOS>BOND
    1    1    2 2     
    2    2   17 1     
    3    2    3 1     
    4    3    4 1     
    5    4    5 2     
    6    4    6 am    
    7    6    7 1     
    8    6   16 1     
    9    7   14 1     
   10    7    8 1     
   11    7   19 1     
   12    8    9 1     
   13    9   10 1     
   14    9   12 1     
   15    9   20 1     
   16   10   11 1     
   17   10   21 1     
   18   10   22 1     
   19   11   23 1     
   20   12   13 1     
   21   12   14 1     
   22   12   24 1     
   23   13   25 1     
   24   14   15 1     
   25   14   26 1     
   26   15   27 1     
   27   16   17 2     
   28   16   28 1     
   29   17   18 1     
   30    1   29 1     
   31    1   30 1     
   32    3   31 1     
   33    5   32 1     
   34    5   33 1     
   35    8   34 1     
   36    8   35 1     
   37   11   36 1     
   38   11   37 1     
   39   13   38 1     
   40   13   39 1     
   41   15   40 1     
   42   15   41 1     
@<TRIPOS>SUBSTRUCTURE
      1 S1             1
@<TRIPOS>SET
LONE_PAIRS      STATIC     ATOMS    <user>   **** ""
13 29 30 31 32 33 34 35 36 37 38 39 40 41
DONOR_HYDROGENS      STATIC     ATOMS    <user>   **** ""
3 23 25 27
ATOM$BLUE        STATIC     ATOMS    COLORGROUP SYSTEM
13 29 30 31 32 33 34 35 36 37 38 39 40 41
ATOM$RED        STATIC     ATOMS    COLORGROUP SYSTEM
3 23 25 27
