AV-unprocessed.smi:1565|AV-procd|sdf|6302|dock7
  -GOLD-   22720 6503D 1   1.00000     0.00000
 Structure written by MMmdl.
 39 40  0  0  0  0  0  0  0  0  2 V2000
  150.9436  145.2902  159.1764 C   0  0  0  0  0  0  0  0  0  0  0  0
  152.0507  144.6500  158.3200 C   0  0  1  0  0  0  0  0  0  0  0  0
  153.1227  143.9197  159.1520 C   0  0  0  0  0  0  0  0  0  0  0  0
  152.6193  142.6436  159.6517 N   0  0  0  0  0  0  0  0  0  0  0  0
  153.4094  142.0337  160.6491 C   0  0  0  0  0  0  0  0  0  0  0  0
  154.1242  140.8487  160.3585 C   0  0  0  0  0  0  0  0  0  0  0  0
  154.9003  140.2491  161.3691 C   0  0  0  0  0  0  0  0  0  0  0  0
  154.9540  140.8511  162.6470 C   0  0  0  0  0  0  0  0  0  0  0  0
  155.7297  140.2453  163.7855 C   0  0  0  0  0  0  0  0  0  0  0  0
  156.1764  139.1023  163.6379 O   0  0  0  0  0  0  0  0  0  0  0  0
  155.7854  141.0657  164.8727 N   0  5  0  0  0  0  0  0  0  0  0  0
  155.9960  140.5999  166.2457 C   0  0  0  0  0  0  0  0  0  0  0  0
  156.0888  141.7815  167.2326 C   0  0  0  0  0  0  0  0  0  0  0  0
  155.9578  141.3186  168.4758 F   0  0  0  0  0  0  0  0  0  0  0  0
  157.2722  142.3887  167.1324 F   0  0  0  0  0  0  0  0  0  0  0  0
  155.1196  142.6709  167.0123 F   0  0  0  0  0  0  0  0  0  0  0  0
  154.2020  142.0297  162.8409 C   0  0  0  0  0  0  0  0  0  0  0  0
  153.4578  142.6100  161.8749 N   0  0  0  0  0  0  0  0  0  0  0  0
  152.0657  141.7942  158.6012 C   0  0  0  0  0  0  0  0  0  0  0  0
  150.9837  142.5537  157.8136 C   0  0  2  0  0  0  0  0  0  0  0  0
  150.4723  141.7426  156.6187 C   0  0  0  0  0  0  0  0  0  0  0  0
  151.5232  143.7782  157.3175 O   0  0  0  0  0  0  0  0  0  0  0  0
  151.3598  146.0501  159.8379 H   0  0  0  0  0  0  0  0  0  0  0  0
  150.4327  144.5611  159.8047 H   0  0  0  0  0  0  0  0  0  0  0  0
  150.1959  145.7743  158.5477 H   0  0  0  0  0  0  0  0  0  0  0  0
  152.5436  145.4624  157.7854 H   0  0  0  0  0  0  0  0  0  0  0  0
  153.9944  143.7192  158.5277 H   0  0  0  0  0  0  0  0  0  0  0  0
  153.4610  144.5697  159.9581 H   0  0  0  0  0  0  0  0  0  0  0  0
  154.0939  140.4003  159.3767 H   0  0  0  0  0  0  0  0  0  0  0  0
  155.4393  139.3376  161.1556 H   0  0  0  0  0  0  0  0  0  0  0  0
  155.2089  139.9194  166.5749 H   0  0  0  0  0  0  0  0  0  0  0  0
  156.9161  140.0185  166.3131 H   0  0  0  0  0  0  0  0  0  0  0  0
  154.1944  142.5306  163.7981 H   0  0  0  0  0  0  0  0  0  0  0  0
  152.8694  141.4802  157.9334 H   0  0  0  0  0  0  0  0  0  0  0  0
  151.6308  140.8930  159.0358 H   0  0  0  0  0  0  0  0  0  0  0  0
  150.1360  142.7631  158.4660 H   0  0  0  0  0  0  0  0  0  0  0  0
  150.0388  140.7963  156.9432 H   0  0  0  0  0  0  0  0  0  0  0  0
  151.2785  141.5197  155.9193 H   0  0  0  0  0  0  0  0  0  0  0  0
  149.7025  142.2919  156.0762 H   0  0  0  0  0  0  0  0  0  0  0  0
  1  2  1  0  0  0  0
  1 23  1  0  0  0  0
  1 24  1  0  0  0  0
  1 25  1  0  0  0  0
  2 22  1  0  0  0  0
  2  3  1  0  0  0  0
  2 26  1  0  0  0  0
  3  4  1  0  0  0  0
  3 27  1  0  0  0  0
  3 28  1  0  0  0  0
  4  5  1  0  0  0  0
  4 19  1  0  0  0  0
  5 18  1  0  0  0  0
  5  6  2  0  0  0  0
  6  7  1  0  0  0  0
  6 29  1  0  0  0  0
  7  8  2  0  0  0  0
  7 30  1  0  0  0  0
  8  9  1  0  0  0  0
  8 17  1  0  0  0  0
  9 10  2  0  0  0  0
  9 11  1  0  0  0  0
 11 12  1  0  0  0  0
 12 13  1  0  0  0  0
 12 31  1  0  0  0  0
 12 32  1  0  0  0  0
 13 14  1  0  0  0  0
 13 15  1  0  0  0  0
 13 16  1  0  0  0  0
 17 18  2  0  0  0  0
 17 33  1  0  0  0  0
 19 20  1  0  0  0  0
 19 34  1  0  0  0  0
 19 35  1  0  0  0  0
 20 21  1  0  0  0  0
 20 22  1  0  0  0  0
 20 36  1  0  0  0  0
 21 37  1  0  0  0  0
 21 38  1  0  0  0  0
 21 39  1  0  0  0  0
M  CHG  1  11  -1
M  END
> <s_m_source_file>
AV-unprocessed.smi

> <i_m_source_file_index>
1565

> <i_lp_mmshare_version>
43012

> <i_f3d_flags>
0

> <s_epik_input>
W0NIM11bQ0BASF0xW0NIMl1OKFtDSDJdW0NASF0oTzEpW0NIM10pYzJbY0hdW2NIXWMoW2NIXW4yKUMoPU8pW05IXVtDSDJdQyhGKShGKUY=

> <s_epik_cmdline>
J2VwaWtfcHl0aG9uJywgJy1waCcsICc3LjAnLCAnLXRuJywgJzgnLCAnLW1hJywgJzIwMCcsICctbWV0YWxfYmluZGluZycsICctaW1hZScsICc8aW5maWxlLm1hZT4nLCAnLW9tYWUnLCAnPG91dGZpbGUubWFlPic=

> <r_lp_tautomer_probability>
1

> <r_epik_Ionization_Penalty>
6.78525

> <r_epik_Ionization_Penalty_Charging>
6.78469

> <r_epik_Ionization_Penalty_Neutral>
0.000559052

> <r_epik_State_Penalty>
6.78469

> <r_epik_Charging_Adjusted_Penalty>
13.5694

> <i_epik_Tot_Q>
-1

> <i_epik_Tot_abs_Q>
1

> <r_epik_Metal_State_Penalty>
2.70441

> <b_epik_Metal_Only>
1

> <s_lp_Force_Field>
OPLS_2005

> <r_lp_Energy>
29.3503

> <b_lp_Chiralities_Consistent>
1

> <s_lp_Variant>
AV-unprocessed.smi:1565-6

> <Gold.Version>
5.8.1

> <Gold.Id.Protein>
6NUR|6NUR_protein|mol2

> <Gold.PLP.Fitness>
42.1278

> <Gold.PLP.PLP>
-43.3714

> <Gold.PLP.part.hbond>
0.0000

> <Gold.PLP.part.metal>
0.0000

> <Gold.PLP.part.buried>
-3.2730

> <Gold.PLP.part.nonpolar>
-38.9706

> <Gold.PLP.part.repulsive>
0.1755

> <Gold.PLP.ligand.clash>
0.0000

> <Gold.PLP.ligand.torsion>
0.7843

> <Gold.PLP.Chemscore.Hbond>
0.0000

> <Gold.PLP.Chemscore.CHOScore>
0.0000

> <Gold.PLP.Chemscore.Metal>
0.0000

> <Gold.PLP.Chemscore.Internal.Correction>
0.3250

> <Gold.Rescore>
     Score         DG    S(hbond)    S(metal)    S(lipo)     H(rot)  DE(clash)    DE(int)     intcor
     14.00     -14.78       0.00        0.00     107.73       1.29       0.08       0.70       ----

> <Gold.Chemscore.Fitness>
14.0005

> <Gold.Chemscore.DG>
-14.7769

> <Gold.Chemscore.ZeroCoef>
-5.4800

> <Gold.Chemscore.Hbond>
0.0000

> <Gold.Chemscore.Metal>
0.0000

> <Gold.Chemscore.Lipo>
107.7318

> <Gold.Chemscore.Internal_Hbond>
0.0000

> <Gold.Chemscore.DEClash>
0.0750

> <Gold.Chemscore.DEInternal>
0.7013

> <Gold.Chemscore.Rot>
1.2921

> <Gold.Chemscore.Internal.Correction>
   9.000000E+99

> <Gold.Chemscore.Hbond.Weighted>
-0.0000

> <Gold.Chemscore.Metal.Weighted>
-0.0000

> <Gold.Chemscore.Lipo.Weighted>
-12.6046

> <Gold.Chemscore.Internal_Hbond.Weighted>
0.0000

> <Gold.Chemscore.DEClash.Weighted>
0.0750

> <Gold.Chemscore.DEInternal.Weighted>
0.7013

> <Gold.Chemscore.Rot.Weighted>
3.3078

> <Gold.Chemscore.Internal.Correction.Weighted>
   9.000000E+99

> <Gold.Protein.RotatedTorsions>
[ 6907 6896 6895 6894 ] final   36.15 input  -60.11 | X-H torsion
[ 7974 7965 7964 7962 ] final  178.07 input  175.53 | X-H torsion
[ 8008 7997 7996 7995 ] final  176.17 input   59.86 | X-H torsion
[ 10167 10162 10161 10158 ] final  142.60 input  -65.29 | X-H torsion
[ 10718 10713 10712 10709 ] final   90.35 input   66.30 | X-H torsion
[ 10763 10752 10751 10750 ] final  -11.77 input  -60.55 | X-H torsion
[ 11005 11000 10999 10996 ] final  155.89 input  -57.11 | X-H torsion

> <Gold.Protein.ActiveResidues>
 VAL166  LYS551  ARG553  GLY616  TRP617  ASP618  TYR619  PRO620  LYS621  CYS622 
 ASP623  PHE694  ASN695  SER759  ASP760  ASP761  ALA762  ILE779  LEU786  VAL792 
 PHE793  MET794  SER795  GLU796  ALA797  LYS798  CYS799  TRP800  GLU811  SER814 

> <Gold.Protein.RotatedAtoms>
  152.1258  134.9172  160.0560 H   0  0  0  0  0  0  0  0  0  0  0  0  # atno 6907 bound_to 6896
  152.0295  133.3926  159.4299 H   0  0  0  0  0  0  0  0  0  0  0  0  # atno 6908 bound_to 6896
  150.6852  134.3458  159.4931 H   0  0  0  0  0  0  0  0  0  0  0  0  # atno 6909 bound_to 6896
  144.7160  140.0343  143.6438 H   0  0  0  0  0  0  0  0  0  0  0  0  # atno 7974 bound_to 7965
  156.0793  140.1390  156.9732 H   0  0  0  0  0  0  0  0  0  0  0  0  # atno 8008 bound_to 7997
  154.4576  140.0955  156.6851 H   0  0  0  0  0  0  0  0  0  0  0  0  # atno 8009 bound_to 7997
  155.5101  140.3453  155.4389 H   0  0  0  0  0  0  0  0  0  0  0  0  # atno 8010 bound_to 7997
  139.4990  144.6096  151.6302 H   0  0  0  0  0  0  0  0  0  0  0  0  # atno 10167 bound_to 10162
  157.6958  131.0367  150.3564 H   0  0  0  0  0  0  0  0  0  0  0  0  # atno 10718 bound_to 10713
  153.4886  135.7017  153.5897 H   0  0  0  0  0  0  0  0  0  0  0  0  # atno 10763 bound_to 10752
  153.4079  135.3856  155.2031 H   0  0  0  0  0  0  0  0  0  0  0  0  # atno 10764 bound_to 10752
  154.8718  135.3897  154.4344 H   0  0  0  0  0  0  0  0  0  0  0  0  # atno 10765 bound_to 10752
  140.1623  134.8601  157.2589 H   0  0  0  0  0  0  0  0  0  0  0  0  # atno 11005 bound_to 11000
  146.0077  139.3143  143.0889 LP  0  0  0  0  0  0  0  0  0  0  0  0  # atno 17320 bound_to 7965
  145.8719  140.9415  143.0646 LP  0  0  0  0  0  0  0  0  0  0  0  0  # atno 17321 bound_to 7965
  140.5767  144.0016  150.6245 LP  0  0  0  0  0  0  0  0  0  0  0  0  # atno 17342 bound_to 10162
  140.3152  143.3172  152.0839 LP  0  0  0  0  0  0  0  0  0  0  0  0  # atno 17343 bound_to 10162
  156.4006  130.3915  149.6962 LP  0  0  0  0  0  0  0  0  0  0  0  0  # atno 17370 bound_to 10713
  156.4281  130.7801  151.2821 LP  0  0  0  0  0  0  0  0  0  0  0  0  # atno 17371 bound_to 10713
  140.2475  134.3722  155.7455 LP  0  0  0  0  0  0  0  0  0  0  0  0  # atno 17394 bound_to 11000
  141.2210  133.7298  156.8884 LP  0  0  0  0  0  0  0  0  0  0  0  0  # atno 17395 bound_to 11000

$$$$
