#       Name:                AV-unprocessed.smi:613
#       Creating user name   scv26
#       Creation time:       Thu Mar 26 23:59:01 2020


#       File generated by GOLD software.
#

@<TRIPOS>MOLECULE
AV-unprocessed.smi:613
    45    46     1
SMALL
NO_CHARGES


@<TRIPOS>ATOM
      1 ****        -1.3860   1.3078  -2.6239 C.3            1 S1                 0.0000
      2 ****        -0.7036   0.0668  -2.2759 N.pl3          1 S1                 0.0000
      3 ****         0.7554   0.0879  -2.1412 C.3            1 S1                 0.0000
      4 ****         1.2360   0.8001  -0.8612 C.3            1 S1                 0.0000
      5 ****         0.9088   0.0260   0.4343 C.3            1 S1                 0.0000
      6 ****         1.4708   0.6714   1.6239 N.3            1 S1                 0.0000
      7 ****         1.1773  -0.0354   2.8783 C.3            1 S1                 0.0000
      8 ****        -0.3163  -0.1868   3.1910 C.2            1 S1                 0.0000
      9 ****        -1.0084   0.9354   3.4035 N.am           1 S1                 0.0000
     10 ****        -0.8350  -1.2997   3.2410 O.2            1 S1                 0.0000
     11 ****         2.9059   0.8655   1.4421 C.3            1 S1                 0.0000
     12 ****         3.2205   1.6340   0.1484 C.3            1 S1                 0.0000
     13 ****         2.6498   0.9499  -0.9618 O.3            1 S1                 0.0000
     14 ****        -1.4623  -1.0313  -1.8027 C.ar           1 S1                 0.0000
     15 ****        -2.8767  -0.9834  -1.7350 C.ar           1 S1                 0.0000
     16 ****        -3.5558  -2.1108  -1.2421 C.ar           1 S1                 0.0000
     17 ****        -2.7789  -3.2136  -0.8500 C.ar           1 S1                 0.0000
     18 ****        -1.4317  -3.2181  -0.9367 N.ar           1 S1                 0.0000
     19 ****        -0.7901  -2.1444  -1.4083 N.ar           1 S1                 0.0000
     20 ****        -2.0791   1.1478  -3.4502 H              1 S1                 0.0000
     21 ****        -0.6726   2.0718  -2.9338 H              1 S1                 0.0000
     22 ****        -1.9396   1.6970  -1.7688 H              1 S1                 0.0000
     23 ****         1.1880  -0.9103  -2.2079 H              1 S1                 0.0000
     24 ****         1.1502   0.6228  -3.0057 H              1 S1                 0.0000
     25 ****         0.7907   1.7955  -0.8149 H              1 S1                 0.0000
     26 ****        -0.1742  -0.0494   0.5229 H              1 S1                 0.0000
     27 ****         1.2871  -0.9948   0.3551 H              1 S1                 0.0000
     28 ****         1.6328  -1.0273   2.8612 H              1 S1                 0.0000
     29 ****         1.6352   0.4941   3.7152 H              1 S1                 0.0000
     30 ****        -1.9939   0.8844   3.6165 H              1 S1                 0.0000
     31 ****        -0.5422   1.8295   3.3539 H              1 S1                 0.0000
     32 ****         3.3186   1.4119   2.2912 H              1 S1                 0.0000
     33 ****         3.4128  -0.1008   1.4178 H              1 S1                 0.0000
     34 ****         2.8319   2.6523   0.1977 H              1 S1                 0.0000
     35 ****         4.2985   1.7091   0.0044 H              1 S1                 0.0000
     36 ****        -3.4447  -0.1190  -2.0430 H              1 S1                 0.0000
     37 ****        -4.6328  -2.1288  -1.1664 H              1 S1                 0.0000
     38 ****        -3.2438  -4.1080  -0.4626 H              1 S1                 0.0000
     39 ****         1.0203   1.5593   1.7170 LP             1 S1                 0.0000
     40 ****        -0.2823  -2.1168   3.0771 LP             1 S1                 0.0000
     41 ****        -1.8098  -1.3882   3.4457 LP             1 S1                 0.0000
     42 ****         2.8566   1.4653  -1.7934 LP             1 S1                 0.0000
     43 ****         3.0624   0.0410  -1.0216 LP             1 S1                 0.0000
     44 ****        -0.9143  -4.0238  -0.6484 LP             1 S1                 0.0000
     45 ****         0.2077  -2.1607  -1.4723 LP             1 S1                 0.0000
@<TRIPOS>BOND
    1    1    2 1     
    2    1   20 1     
    3    1   21 1     
    4    1   22 1     
    5    2    3 1     
    6    2   14 1     
    7    3    4 1     
    8    3   23 1     
    9    3   24 1     
   10    4   13 1     
   11    4    5 1     
   12    4   25 1     
   13    5    6 1     
   14    5   26 1     
   15    5   27 1     
   16    6    7 1     
   17    6   11 1     
   18    7    8 1     
   19    7   28 1     
   20    7   29 1     
   21    8    9 am    
   22    8   10 2     
   23    9   30 1     
   24    9   31 1     
   25   11   12 1     
   26   11   32 1     
   27   11   33 1     
   28   12   13 1     
   29   12   34 1     
   30   12   35 1     
   31   14   19 ar    
   32   14   15 ar    
   33   15   16 ar    
   34   15   36 1     
   35   16   17 ar    
   36   16   37 1     
   37   17   18 ar    
   38   17   38 1     
   39   18   19 ar    
   40    6   39 1     
   41   10   40 1     
   42   10   41 1     
   43   13   42 1     
   44   13   43 1     
   45   18   44 1     
   46   19   45 1     
@<TRIPOS>SUBSTRUCTURE
      1 S1             1
@<TRIPOS>SET
LONE_PAIRS      STATIC     ATOMS    <user>   **** ""
7 39 40 41 42 43 44 45
DONOR_HYDROGENS      STATIC     ATOMS    <user>   **** ""
2 30 31
ATOM$BLUE        STATIC     ATOMS    COLORGROUP SYSTEM
7 39 40 41 42 43 44 45
ATOM$RED        STATIC     ATOMS    COLORGROUP SYSTEM
2 30 31
