AV-unprocessed.smi:3335|AV-procd|sdf|12844|dock8
  -GOLD-   2272019233D 1   1.00000     0.00000
 Structure written by MMmdl.
 47 48  0  0  0  0  0  0  0  0  2 V2000
  145.8384  136.9381  152.5154 C   0  0  0  0  0  0  0  0  0  0  0  0
  146.4264  138.3190  152.5619 C   0  0  0  0  0  0  0  0  0  0  0  0
  146.5171  139.2658  151.5027 C   0  0  0  0  0  0  0  0  0  0  0  0
  147.0925  140.3976  151.8733 N   0  0  0  0  0  0  0  0  0  0  0  0
  147.3891  140.2169  153.1797 N   0  0  0  0  0  0  0  0  0  0  0  0
  148.0460  141.2753  153.9362 C   0  0  1  0  0  0  0  0  0  0  0  0
  147.0045  142.3086  154.4076 C   0  0  0  0  0  0  0  0  0  0  0  0
  148.9009  140.7176  155.1052 C   0  0  1  0  0  0  0  0  0  0  0  0
  149.8870  139.6198  154.6543 C   0  0  0  0  0  0  0  0  0  0  0  0
  149.6420  141.8253  155.7559 N   0  3  0  0  0  0  0  0  0  0  0  0
  149.6278  141.8389  157.2386 C   0  0  1  0  0  0  0  0  0  0  0  0
  148.2413  141.4015  157.7365 C   0  0  0  0  0  0  0  0  0  0  0  0
  150.7118  140.9083  157.8201 C   0  0  0  0  0  0  0  0  0  0  0  0
  150.7211  139.7239  157.4809 O   0  0  0  0  0  0  0  0  0  0  0  0
  151.6126  141.4063  158.6945 N   0  0  0  0  0  0  0  0  0  0  0  0
  151.6844  142.7862  159.1757 C   0  0  0  0  0  0  0  0  0  0  0  0
  152.6909  142.7730  160.3261 C   0  0  0  0  0  0  0  0  0  0  0  0
  153.5911  141.5854  160.0181 C   0  0  0  0  0  0  0  0  0  0  0  0
  152.6724  140.5988  159.2972 C   0  0  0  0  0  0  0  0  0  0  0  0
  146.9993  138.9685  153.6185 C   0  0  0  0  0  0  0  0  0  0  0  0
  145.8759  136.5166  151.5106 H   0  0  0  0  0  0  0  0  0  0  0  0
  144.7935  136.9361  152.8260 H   0  0  0  0  0  0  0  0  0  0  0  0
  146.3709  136.2494  153.1714 H   0  0  0  0  0  0  0  0  0  0  0  0
  146.1829  139.1641  150.4807 H   0  0  0  0  0  0  0  0  0  0  0  0
  148.7179  141.7812  153.2408 H   0  0  0  0  0  0  0  0  0  0  0  0
  147.4784  143.1829  154.8537 H   0  0  0  0  0  0  0  0  0  0  0  0
  146.3278  141.8850  155.1506 H   0  0  0  0  0  0  0  0  0  0  0  0
  146.3992  142.6619  153.5719 H   0  0  0  0  0  0  0  0  0  0  0  0
  148.2175  140.2782  155.8336 H   0  0  0  0  0  0  0  0  0  0  0  0
  149.3693  138.7550  154.2393 H   0  0  0  0  0  0  0  0  0  0  0  0
  150.4899  139.2511  155.4837 H   0  0  0  0  0  0  0  0  0  0  0  0
  150.5699  139.9940  153.8910 H   0  0  0  0  0  0  0  0  0  0  0  0
  150.5990  141.7903  155.4361 H   0  0  0  0  0  0  0  0  0  0  0  0
  149.7953  142.8645  157.5636 H   0  0  0  0  0  0  0  0  0  0  0  0
  148.1832  141.4117  158.8254 H   0  0  0  0  0  0  0  0  0  0  0  0
  147.9953  140.3925  157.4024 H   0  0  0  0  0  0  0  0  0  0  0  0
  147.4648  142.0706  157.3647 H   0  0  0  0  0  0  0  0  0  0  0  0
  152.0420  143.4260  158.3678 H   0  0  0  0  0  0  0  0  0  0  0  0
  150.7180  143.1649  159.5102 H   0  0  0  0  0  0  0  0  0  0  0  0
  153.2416  143.7096  160.4182 H   0  0  0  0  0  0  0  0  0  0  0  0
  152.1679  142.5993  161.2676 H   0  0  0  0  0  0  0  0  0  0  0  0
  154.3913  141.8990  159.3463 H   0  0  0  0  0  0  0  0  0  0  0  0
  154.0519  141.1603  160.9103 H   0  0  0  0  0  0  0  0  0  0  0  0
  152.2264  139.9022  160.0086 H   0  0  0  0  0  0  0  0  0  0  0  0
  153.2214  140.0189  158.5537 H   0  0  0  0  0  0  0  0  0  0  0  0
  147.1582  138.6476  154.6376 H   0  0  0  0  0  0  0  0  0  0  0  0
  149.2348  142.6983  155.4508 H   0  0  0  0  0  0  0  0  0  0  0  0
  1  2  1  0  0  0  0
  1 21  1  0  0  0  0
  1 22  1  0  0  0  0
  1 23  1  0  0  0  0
  2 20  2  0  0  0  0
  2  3  1  0  0  0  0
  3  4  2  0  0  0  0
  3 24  1  0  0  0  0
  4  5  1  0  0  0  0
  5  6  1  0  0  0  0
  5 20  1  0  0  0  0
  6  7  1  0  0  0  0
  6  8  1  0  0  0  0
  6 25  1  0  0  0  0
  7 26  1  0  0  0  0
  7 27  1  0  0  0  0
  7 28  1  0  0  0  0
  8  9  1  0  0  0  0
  8 10  1  0  0  0  0
  8 29  1  0  0  0  0
  9 30  1  0  0  0  0
  9 31  1  0  0  0  0
  9 32  1  0  0  0  0
 10 11  1  0  0  0  0
 10 33  1  0  0  0  0
 10 47  1  0  0  0  0
 11 12  1  0  0  0  0
 11 13  1  0  0  0  0
 11 34  1  0  0  0  0
 12 35  1  0  0  0  0
 12 36  1  0  0  0  0
 12 37  1  0  0  0  0
 13 14  2  0  0  0  0
 13 15  1  0  0  0  0
 15 19  1  0  0  0  0
 15 16  1  0  0  0  0
 16 17  1  0  0  0  0
 16 38  1  0  0  0  0
 16 39  1  0  0  0  0
 17 18  1  0  0  0  0
 17 40  1  0  0  0  0
 17 41  1  0  0  0  0
 18 19  1  0  0  0  0
 18 42  1  0  0  0  0
 18 43  1  0  0  0  0
 19 44  1  0  0  0  0
 19 45  1  0  0  0  0
 20 46  1  0  0  0  0
M  CHG  1  10   1
M  END
> <s_m_source_file>
AV-unprocessed.smi

> <i_m_source_file_index>
3335

> <i_lp_mmshare_version>
43012

> <i_f3d_flags>
0

> <s_epik_input>
W0NIM11jMVtjSF1ubihbY0hdMSlbQ0BIXShbQ0gzXSlbQ0BIXShbQ0gzXSlbTkhdW0NASF0oW0NIM10pQyg9TylOMltDSDJdW0NIMl1bQ0gyXVtDSDJdMg==

> <s_epik_cmdline>
J2VwaWtfcHl0aG9uJywgJy1waCcsICc3LjAnLCAnLXRuJywgJzgnLCAnLW1hJywgJzIwMCcsICctbWV0YWxfYmluZGluZycsICctaW1hZScsICc8aW5maWxlLm1hZT4nLCAnLW9tYWUnLCAnPG91dGZpbGUubWFlPic=

> <r_lp_tautomer_probability>
1

> <r_epik_Ionization_Penalty>
0.14175

> <r_epik_Ionization_Penalty_Charging>
0.141731

> <r_epik_Ionization_Penalty_Neutral>
1.91261e-05

> <r_epik_State_Penalty>
0.131043

> <r_epik_Charging_Adjusted_Penalty>
0.272773

> <i_epik_Tot_Q>
1

> <i_epik_Tot_abs_Q>
1

> <r_epik_Metal_State_Penalty>
0.131408

> <b_epik_Metal_Only>
0

> <s_lp_Force_Field>
OPLS_2005

> <r_lp_Energy>
36.0865

> <b_lp_Chiralities_Consistent>
1

> <s_lp_Variant>
AV-unprocessed.smi:3335-8

> <Gold.Version>
5.8.1

> <Gold.Id.Protein>
6NUR|6NUR_protein|mol2

> <Gold.PLP.Fitness>
43.3710

> <Gold.PLP.PLP>
-37.5536

> <Gold.PLP.part.hbond>
-1.0000

> <Gold.PLP.part.metal>
0.0000

> <Gold.PLP.part.buried>
-1.6047

> <Gold.PLP.part.nonpolar>
-38.1773

> <Gold.PLP.part.repulsive>
3.4116

> <Gold.PLP.ligand.clash>
0.0000

> <Gold.PLP.ligand.torsion>
1.6023

> <Gold.PLP.Chemscore.Hbond>
1.9840

> <Gold.PLP.Chemscore.CHOScore>
1.0000

> <Gold.PLP.Chemscore.Metal>
0.0000

> <Gold.Chemscore.Hbonds>
donor molecule, donor type, donor heavy atom, donor atom, acceptor molecule, acceptor atom, score
      L1  H    10    47       P1  8028  1.85
      L1  C     3    24       P1 10171  0.91

> <Gold.PLP.Chemscore.Internal.Correction>
0.0700

> <Gold.Rescore>
     Score         DG    S(hbond)    S(metal)    S(lipo)     H(rot)  DE(clash)    DE(int)     intcor
     12.70     -15.65       0.87        0.00      98.73       1.68       1.24       1.71       ----

> <Gold.Chemscore.Fitness>
12.6975

> <Gold.Chemscore.DG>
-15.6459

> <Gold.Chemscore.ZeroCoef>
-5.4800

> <Gold.Chemscore.Hbond>
0.8713

> <Gold.Chemscore.Metal>
0.0000

> <Gold.Chemscore.Lipo>
98.7262

> <Gold.Chemscore.Internal_Hbond>
0.0000

> <Gold.Chemscore.DEClash>
1.2415

> <Gold.Chemscore.DEInternal>
1.7069

> <Gold.Chemscore.Rot>
1.6778

> <Gold.Chemscore.Internal.Correction>
   9.000000E+99

> <Gold.Chemscore.Hbonds>
donor molecule, donor type, donor heavy atom, donor atom, acceptor molecule, acceptor atom, score
      L1  H    10    47       P1  8028  0.86

> <Gold.Chemscore.Hbond.Weighted>
-2.9101

> <Gold.Chemscore.Metal.Weighted>
-0.0000

> <Gold.Chemscore.Lipo.Weighted>
-11.5510

> <Gold.Chemscore.Internal_Hbond.Weighted>
0.0000

> <Gold.Chemscore.DEClash.Weighted>
1.2415

> <Gold.Chemscore.DEInternal.Weighted>
1.7069

> <Gold.Chemscore.Rot.Weighted>
4.2952

> <Gold.Chemscore.Internal.Correction.Weighted>
   9.000000E+99

> <Gold.Protein.RotatedTorsions>
[ 6907 6896 6895 6894 ] final -129.09 input  -60.11 | X-H torsion
[ 7974 7965 7964 7962 ] final    4.25 input  175.53 | X-H torsion
[ 8008 7997 7996 7995 ] final  177.66 input   59.86 | X-H torsion
[ 10167 10162 10161 10158 ] final -125.62 input  -65.29 | X-H torsion
[ 10718 10713 10712 10709 ] final  170.63 input   66.30 | X-H torsion
[ 10763 10752 10751 10750 ] final -107.08 input  -60.55 | X-H torsion
[ 11005 11000 10999 10996 ] final   21.08 input  -57.11 | X-H torsion

> <Gold.Protein.ActiveResidues>
 VAL166  LYS551  ARG553  GLY616  TRP617  ASP618  TYR619  PRO620  LYS621  CYS622 
 ASP623  PHE694  ASN695  SER759  ASP760  ASP761  ALA762  ILE779  LEU786  VAL792 
 PHE793  MET794  SER795  GLU796  ALA797  LYS798  CYS799  TRP800  GLU811  SER814 

> <Gold.Protein.RotatedAtoms>
  150.9249  133.6836  159.2823 H   0  0  0  0  0  0  0  0  0  0  0  0  # atno 6907 bound_to 6896
  151.4277  135.1004  159.9643 H   0  0  0  0  0  0  0  0  0  0  0  0  # atno 6908 bound_to 6896
  152.4998  133.8686  159.7342 H   0  0  0  0  0  0  0  0  0  0  0  0  # atno 6909 bound_to 6896
  146.2444  140.0563  142.8371 H   0  0  0  0  0  0  0  0  0  0  0  0  # atno 7974 bound_to 7965
  156.0632  140.1353  156.9917 H   0  0  0  0  0  0  0  0  0  0  0  0  # atno 8008 bound_to 7997
  154.4492  140.0987  156.6619 H   0  0  0  0  0  0  0  0  0  0  0  0  # atno 8009 bound_to 7997
  155.5345  140.3459  155.4435 H   0  0  0  0  0  0  0  0  0  0  0  0  # atno 8010 bound_to 7997
  139.9802  143.5751  152.2381 H   0  0  0  0  0  0  0  0  0  0  0  0  # atno 10167 bound_to 10162
  157.0054  131.0188  151.2819 H   0  0  0  0  0  0  0  0  0  0  0  0  # atno 10718 bound_to 10713
  154.8052  135.4688  154.0376 H   0  0  0  0  0  0  0  0  0  0  0  0  # atno 10763 bound_to 10752
  153.1850  135.6846  153.8435 H   0  0  0  0  0  0  0  0  0  0  0  0  # atno 10764 bound_to 10752
  153.7972  135.3235  155.3363 H   0  0  0  0  0  0  0  0  0  0  0  0  # atno 10765 bound_to 10752
  140.3955  134.1774  155.7663 H   0  0  0  0  0  0  0  0  0  0  0  0  # atno 11005 bound_to 11000
  145.0940  140.9303  143.4752 LP  0  0  0  0  0  0  0  0  0  0  0  0  # atno 17320 bound_to 7965
  145.0741  139.3009  143.5817 LP  0  0  0  0  0  0  0  0  0  0  0  0  # atno 17321 bound_to 7965
  139.6416  144.7655  151.2328 LP  0  0  0  0  0  0  0  0  0  0  0  0  # atno 17342 bound_to 10162
  140.7492  143.6308  150.8425 LP  0  0  0  0  0  0  0  0  0  0  0  0  # atno 17343 bound_to 10162
  157.5360  130.8089  149.7972 LP  0  0  0  0  0  0  0  0  0  0  0  0  # atno 17370 bound_to 10713
  156.0156  130.3815  150.2123 LP  0  0  0  0  0  0  0  0  0  0  0  0  # atno 17371 bound_to 10713
  141.1876  133.8279  157.1027 LP  0  0  0  0  0  0  0  0  0  0  0  0  # atno 17394 bound_to 11000
  140.0375  134.9871  157.0898 LP  0  0  0  0  0  0  0  0  0  0  0  0  # atno 17395 bound_to 11000

$$$$
