#       Name:                AV-unprocessed.smi:276
#       Creating user name   scv26
#       Creation time:       Thu Mar 26 21:34:15 2020


#       File generated by GOLD software.
#

@<TRIPOS>MOLECULE
AV-unprocessed.smi:276
    67    71     1
SMALL
NO_CHARGES


@<TRIPOS>ATOM
      1 ****        -6.1471   1.0261  -3.1844 C.3            1 S1                 0.0000
      2 ****        -5.0649   0.2697  -2.6714 O.3            1 S1                 0.0000
      3 ****        -4.1347   1.0670  -1.9558 C.3            1 S1                 0.0000
      4 ****        -4.5743   1.4338  -0.5331 C.3            1 S1                 0.0000
      5 ****        -3.1291   1.1717  -0.0647 C.3            1 S1                 0.0000
      6 ****        -2.3281   2.4044  -0.0712 N.3            1 S1                 0.0000
      7 ****        -2.7231   3.4325   0.8871 C.3            1 S1                 0.0000
      8 ****        -0.9861   2.2439  -0.0462 C.ar           1 S1                 0.0000
      9 ****        -0.2619   2.9987  -0.9096 N.ar           1 S1                 0.0000
     10 ****         1.0691   2.8842  -0.9444 C.ar           1 S1                 0.0000
     11 ****         1.8587   2.0948  -0.2132 N.ar           1 S1                 0.0000
     12 ****         1.1341   1.3465   0.6671 C.ar           1 S1                 0.0000
     13 ****        -0.2809   1.3605   0.8215 C.ar           1 S1                 0.0000
     14 ****        -0.6550   0.4690   1.8206 N.2            1 S1                 0.0000
     15 ****         0.4717  -0.0512   2.2238 C.2            1 S1                 0.0000
     16 ****         1.5952   0.4173   1.5824 N.pl3          1 S1                 0.0000
     17 ****         2.9665   0.0073   1.8283 C.3            1 S1                 0.0000
     18 ****         3.3304  -1.2944   1.0882 C.3            1 S1                 0.0000
     19 ****         3.1907  -1.0945  -0.3057 O.3            1 S1                 0.0000
     20 ****         4.7720  -1.7471   1.3826 C.3            1 S1                 0.0000
     21 ****         5.1716  -3.0674   0.7213 C.3            1 S1                 0.0000
     22 ****         6.2834  -3.5935   1.6151 C.3            1 S1                 0.0000
     23 ****         6.1459  -2.7750   2.9018 C.3            1 S1                 0.0000
     24 ****         4.9280  -2.0577   2.7587 O.3            1 S1                 0.0000
     25 ****        -2.9841   0.2669  -1.3191 C.3            1 S1                 0.0000
     26 ****        -3.1057  -1.2604  -1.1649 C.3            1 S1                 0.0000
     27 ****        -2.2139  -1.4021  -2.4015 C.3            1 S1                 0.0000
     28 ****        -1.6797  -0.0010  -2.0946 C.3            1 S1                 0.0000
     29 ****        -6.8290   0.3693  -3.7241 H              1 S1                 0.0000
     30 ****        -5.7972   1.7917  -3.8780 H              1 S1                 0.0000
     31 ****        -6.7090   1.5095  -2.3842 H              1 S1                 0.0000
     32 ****        -3.7668   1.9253  -2.5221 H              1 S1                 0.0000
     33 ****        -4.9466   2.4525  -0.4298 H              1 S1                 0.0000
     34 ****        -5.2815   0.7151  -0.1156 H              1 S1                 0.0000
     35 ****        -3.0980   0.6247   0.8775 H              1 S1                 0.0000
     36 ****        -1.9309   4.1624   1.0639 H              1 S1                 0.0000
     37 ****        -2.9865   2.9831   1.8454 H              1 S1                 0.0000
     38 ****        -3.5889   3.9818   0.5186 H              1 S1                 0.0000
     39 ****         1.5731   3.5145  -1.6620 H              1 S1                 0.0000
     40 ****         0.5147  -0.7980   3.0034 H              1 S1                 0.0000
     41 ****         3.6356   0.8170   1.5340 H              1 S1                 0.0000
     42 ****         3.0914  -0.1221   2.9040 H              1 S1                 0.0000
     43 ****         2.6371  -2.0826   1.3855 H              1 S1                 0.0000
     44 ****         2.3082  -0.8044  -0.4803 H              1 S1                 0.0000
     45 ****         5.4836  -0.9638   1.1134 H              1 S1                 0.0000
     46 ****         4.3330  -3.7651   0.7352 H              1 S1                 0.0000
     47 ****         5.4848  -2.9407  -0.3154 H              1 S1                 0.0000
     48 ****         6.1643  -4.6618   1.7986 H              1 S1                 0.0000
     49 ****         7.2642  -3.4367   1.1648 H              1 S1                 0.0000
     50 ****         6.1291  -3.3990   3.7957 H              1 S1                 0.0000
     51 ****         6.9711  -2.0676   2.9959 H              1 S1                 0.0000
     52 ****        -2.6233  -1.6295  -0.2581 H              1 S1                 0.0000
     53 ****        -4.1110  -1.6681  -1.2737 H              1 S1                 0.0000
     54 ****        -1.4719  -2.1988  -2.3422 H              1 S1                 0.0000
     55 ****        -2.7831  -1.4440  -3.3317 H              1 S1                 0.0000
     56 ****        -1.5248   0.6317  -2.9689 H              1 S1                 0.0000
     57 ****        -0.7890  -0.0488  -1.4689 H              1 S1                 0.0000
     58 ****        -4.5905  -0.1693  -3.4344 LP             1 S1                 0.0000
     59 ****        -5.4266  -0.4308  -2.0563 LP             1 S1                 0.0000
     60 ****        -2.5657   2.7435  -0.9815 LP             1 S1                 0.0000
     61 ****        -0.7243   3.6414  -1.5205 LP             1 S1                 0.0000
     62 ****         2.8542   2.0569  -0.2997 LP             1 S1                 0.0000
     63 ****        -1.5769   0.2716   2.1540 LP             1 S1                 0.0000
     64 ****         3.3654  -1.9525  -0.7887 LP             1 S1                 0.0000
     65 ****         3.8411  -0.4001  -0.6137 LP             1 S1                 0.0000
     66 ****         4.1622  -2.6203   3.0702 LP             1 S1                 0.0000
     67 ****         4.9631  -1.2153   3.2965 LP             1 S1                 0.0000
@<TRIPOS>BOND
    1    1    2 1     
    2    1   29 1     
    3    1   30 1     
    4    1   31 1     
    5    2    3 1     
    6    3   25 1     
    7    3    4 1     
    8    3   32 1     
    9    4    5 1     
   10    4   33 1     
   11    4   34 1     
   12    5    6 1     
   13    5   25 1     
   14    5   35 1     
   15    6    7 1     
   16    6    8 1     
   17    7   36 1     
   18    7   37 1     
   19    7   38 1     
   20    8   13 ar    
   21    8    9 ar    
   22    9   10 ar    
   23   10   11 ar    
   24   10   39 1     
   25   11   12 ar    
   26   12   16 1     
   27   12   13 ar    
   28   13   14 1     
   29   14   15 2     
   30   15   16 1     
   31   15   40 1     
   32   16   17 1     
   33   17   18 1     
   34   17   41 1     
   35   17   42 1     
   36   18   19 1     
   37   18   20 1     
   38   18   43 1     
   39   19   44 1     
   40   20   24 1     
   41   20   21 1     
   42   20   45 1     
   43   21   22 1     
   44   21   46 1     
   45   21   47 1     
   46   22   23 1     
   47   22   48 1     
   48   22   49 1     
   49   23   24 1     
   50   23   50 1     
   51   23   51 1     
   52   25   28 1     
   53   25   26 1     
   54   26   27 1     
   55   26   52 1     
   56   26   53 1     
   57   27   28 1     
   58   27   54 1     
   59   27   55 1     
   60   28   56 1     
   61   28   57 1     
   62    2   58 1     
   63    2   59 1     
   64    6   60 1     
   65    9   61 1     
   66   11   62 1     
   67   14   63 1     
   68   19   64 1     
   69   19   65 1     
   70   24   66 1     
   71   24   67 1     
@<TRIPOS>SUBSTRUCTURE
      1 S1             1
@<TRIPOS>SET
LONE_PAIRS      STATIC     ATOMS    <user>   **** ""
10 58 59 60 61 62 63 64 65 66 67
DONOR_HYDROGENS      STATIC     ATOMS    <user>   **** ""
1 44
ATOM$BLUE        STATIC     ATOMS    COLORGROUP SYSTEM
10 58 59 60 61 62 63 64 65 66 67
ATOM$RED        STATIC     ATOMS    COLORGROUP SYSTEM
1 44
