AV-unprocessed.smi:1996|AV-procd|sdf|8085|dock10
  -GOLD-   2272010303D 1   1.00000     0.00000
 Structure written by MMmdl.
 32 33  0  0  0  0  0  0  0  0  2 V2000
  152.5601  140.1491  155.2268 O   0  0  0  0  0  0  0  0  0  0  0  0
  151.3574  139.8870  155.3016 C   0  0  0  0  0  0  0  0  0  0  0  0
  150.7124  140.0435  156.4654 N   0  0  0  0  0  0  0  0  0  0  0  0
  151.3192  140.5145  157.7034 C   0  0  0  0  0  0  0  0  0  0  0  0
  151.3849  142.0490  157.7220 C   0  0  0  0  0  0  0  0  0  0  0  0
  151.8999  142.6017  159.0409 C   0  0  0  0  0  0  0  0  0  0  0  0
  151.7569  143.8992  159.3750 C   0  0  0  0  0  0  0  0  0  0  0  0
  152.2385  144.5023  160.6829 C   0  0  0  0  0  0  0  0  0  0  0  0
  152.5954  143.4307  161.7267 C   0  0  0  0  0  0  0  0  0  0  0  0
  153.3889  142.2820  161.0918 C   0  0  0  0  0  0  0  0  0  0  0  0
  152.5886  141.6037  159.9655 C   0  0  0  0  0  0  0  0  0  0  0  0
  150.5703  139.4394  154.2966 N   0  5  0  0  0  0  0  0  0  0  0  0
  149.3898  140.0323  154.0543 C   0  0  0  0  0  0  0  0  0  0  0  0
  149.2428  141.3671  154.0496 N   0  0  0  0  0  0  0  0  0  0  0  0
  147.9436  141.7727  153.7751 N   0  0  0  0  0  0  0  0  0  0  0  0
  147.1419  140.7280  153.5700 C   0  0  0  0  0  0  0  0  0  0  0  0
  147.9013  139.1548  153.6893 S   0  0  0  0  0  0  0  0  0  0  0  0
  149.7287  139.8185  156.4896 H   0  0  0  0  0  0  0  0  0  0  0  0
  150.7336  140.1541  158.5506 H   0  0  0  0  0  0  0  0  0  0  0  0
  152.3195  140.0889  157.7948 H   0  0  0  0  0  0  0  0  0  0  0  0
  152.0296  142.4070  156.9185 H   0  0  0  0  0  0  0  0  0  0  0  0
  150.3925  142.4564  157.5235 H   0  0  0  0  0  0  0  0  0  0  0  0
  151.2807  144.5819  158.6863 H   0  0  0  0  0  0  0  0  0  0  0  0
  153.1086  145.1229  160.4668 H   0  0  0  0  0  0  0  0  0  0  0  0
  151.4673  145.1631  161.0794 H   0  0  0  0  0  0  0  0  0  0  0  0
  153.1617  143.8790  162.5435 H   0  0  0  0  0  0  0  0  0  0  0  0
  151.6806  143.0321  162.1672 H   0  0  0  0  0  0  0  0  0  0  0  0
  154.3242  142.6728  160.6889 H   0  0  0  0  0  0  0  0  0  0  0  0
  153.6626  141.5459  161.8483 H   0  0  0  0  0  0  0  0  0  0  0  0
  151.8246  140.9567  160.3976 H   0  0  0  0  0  0  0  0  0  0  0  0
  153.2519  140.9636  159.3831 H   0  0  0  0  0  0  0  0  0  0  0  0
  146.0978  140.8841  153.3439 H   0  0  0  0  0  0  0  0  0  0  0  0
  1  2  2  0  0  0  0
  2  3  1  0  0  0  0
  2 12  1  0  0  0  0
  3  4  1  0  0  0  0
  3 18  1  0  0  0  0
  4  5  1  0  0  0  0
  4 19  1  0  0  0  0
  4 20  1  0  0  0  0
  5  6  1  0  0  0  0
  5 21  1  0  0  0  0
  5 22  1  0  0  0  0
  6 11  1  0  0  0  0
  6  7  2  0  0  0  0
  7  8  1  0  0  0  0
  7 23  1  0  0  0  0
  8  9  1  0  0  0  0
  8 24  1  0  0  0  0
  8 25  1  0  0  0  0
  9 10  1  0  0  0  0
  9 26  1  0  0  0  0
  9 27  1  0  0  0  0
 10 11  1  0  0  0  0
 10 28  1  0  0  0  0
 10 29  1  0  0  0  0
 11 30  1  0  0  0  0
 11 31  1  0  0  0  0
 12 13  1  0  0  0  0
 13 17  1  0  0  0  0
 13 14  2  0  0  0  0
 14 15  1  0  0  0  0
 15 16  2  0  0  0  0
 16 17  1  0  0  0  0
 16 32  1  0  0  0  0
M  CHG  1  12  -1
M  END
> <s_m_source_file>
AV-unprocessed.smi

> <i_m_source_file_index>
1996

> <i_lp_mmshare_version>
43012

> <i_f3d_flags>
0

> <s_epik_input>
czFbY0hdbm5jMVtOSF1DKD1PKVtOSF1bQ0gyXVtDSDJdQzI9W0NIXVtDSDJdW0NIMl1bQ0gyXVtDSDJdMg==

> <s_epik_cmdline>
J2VwaWtfcHl0aG9uJywgJy1waCcsICc3LjAnLCAnLXRuJywgJzgnLCAnLW1hJywgJzIwMCcsICctbWV0YWxfYmluZGluZycsICctaW1hZScsICc8aW5maWxlLm1hZT4nLCAnLW9tYWUnLCAnPG91dGZpbGUubWFlPic=

> <r_lp_tautomer_probability>
1

> <r_epik_Ionization_Penalty>
3.56684

> <r_epik_Ionization_Penalty_Charging>
3.52481

> <r_epik_Ionization_Penalty_Neutral>
0.0420339

> <r_epik_State_Penalty>
3.52326

> <r_epik_Charging_Adjusted_Penalty>
7.04807

> <i_epik_Tot_Q>
-1

> <i_epik_Tot_abs_Q>
1

> <r_epik_Metal_State_Penalty>
0.513455

> <b_epik_Metal_Only>
1

> <s_lp_Force_Field>
OPLS_2005

> <r_lp_Energy>
5.58763

> <b_lp_Chiralities_Consistent>
1

> <s_lp_Variant>
AV-unprocessed.smi:1996-2

> <Gold.Version>
5.8.1

> <Gold.Id.Protein>
6NUR|6NUR_protein|mol2

> <Gold.PLP.Fitness>
41.6247

> <Gold.PLP.PLP>
-37.3894

> <Gold.PLP.part.hbond>
-5.2685

> <Gold.PLP.part.metal>
0.0000

> <Gold.PLP.part.buried>
-1.4434

> <Gold.PLP.part.nonpolar>
-31.5474

> <Gold.PLP.part.repulsive>
0.5492

> <Gold.PLP.ligand.clash>
0.0000

> <Gold.PLP.ligand.torsion>
1.1345

> <Gold.PLP.Chemscore.Hbond>
1.1839

> <Gold.PLP.Chemscore.CHOScore>
0.9697

> <Gold.PLP.Chemscore.Metal>
0.0000

> <Gold.Chemscore.Hbonds>
donor molecule, donor type, donor heavy atom, donor atom, acceptor molecule, acceptor atom, score
      P1  H  7997  8009       L1     1  1.00
      P1  H  8011  8017       L1    14  0.22
      L1  C    16    32       P1 10175  0.85

> <Gold.PLP.Chemscore.Internal.Correction>
0.0434

> <Gold.Rescore>
     Score         DG    S(hbond)    S(metal)    S(lipo)     H(rot)  DE(clash)    DE(int)     intcor
     14.20     -15.50       1.00        0.00      91.86       1.59       0.03       1.28       ----

> <Gold.Chemscore.Fitness>
14.1964

> <Gold.Chemscore.DG>
-15.4988

> <Gold.Chemscore.ZeroCoef>
-5.4800

> <Gold.Chemscore.Hbond>
1.0003

> <Gold.Chemscore.Metal>
0.0000

> <Gold.Chemscore.Lipo>
91.8604

> <Gold.Chemscore.Internal_Hbond>
0.0000

> <Gold.Chemscore.DEClash>
0.0251

> <Gold.Chemscore.DEInternal>
1.2774

> <Gold.Chemscore.Rot>
1.5898

> <Gold.Chemscore.Internal.Correction>
   9.000000E+99

> <Gold.Chemscore.Hbonds>
donor molecule, donor type, donor heavy atom, donor atom, acceptor molecule, acceptor atom, score
      P1  H  7997  8009       L1     1  0.96

> <Gold.Chemscore.Hbond.Weighted>
-3.3409

> <Gold.Chemscore.Metal.Weighted>
-0.0000

> <Gold.Chemscore.Lipo.Weighted>
-10.7477

> <Gold.Chemscore.Internal_Hbond.Weighted>
0.0000

> <Gold.Chemscore.DEClash.Weighted>
0.0251

> <Gold.Chemscore.DEInternal.Weighted>
1.2774

> <Gold.Chemscore.Rot.Weighted>
4.0698

> <Gold.Chemscore.Internal.Correction.Weighted>
   9.000000E+99

> <Gold.Protein.RotatedTorsions>
[ 6907 6896 6895 6894 ] final -103.32 input  -60.11 | X-H torsion
[ 7974 7965 7964 7962 ] final   58.77 input  175.53 | X-H torsion
[ 8008 7997 7996 7995 ] final -147.01 input   59.86 | X-H torsion
[ 10167 10162 10161 10158 ] final  -98.58 input  -65.29 | X-H torsion
[ 10718 10713 10712 10709 ] final  108.31 input   66.30 | X-H torsion
[ 10763 10752 10751 10750 ] final -120.03 input  -60.55 | X-H torsion
[ 11005 11000 10999 10996 ] final -107.79 input  -57.11 | X-H torsion

> <Gold.Protein.ActiveResidues>
 VAL166  LYS551  ARG553  GLY616  TRP617  ASP618  TYR619  PRO620  LYS621  CYS622 
 ASP623  PHE694  ASN695  SER759  ASP760  ASP761  ALA762  ILE779  LEU786  VAL792 
 PHE793  MET794  SER795  GLU796  ALA797  LYS798  CYS799  TRP800  GLU811  SER814 

> <Gold.Protein.RotatedAtoms>
  150.7235  134.0447  159.3777 H   0  0  0  0  0  0  0  0  0  0  0  0  # atno 6907 bound_to 6896
  151.8422  135.0584  160.0459 H   0  0  0  0  0  0  0  0  0  0  0  0  # atno 6908 bound_to 6896
  152.2854  133.5474  159.5560 H   0  0  0  0  0  0  0  0  0  0  0  0  # atno 6909 bound_to 6896
  145.9145  139.3680  143.0515 H   0  0  0  0  0  0  0  0  0  0  0  0  # atno 7974 bound_to 7965
  155.5686  140.0632  157.2812 H   0  0  0  0  0  0  0  0  0  0  0  0  # atno 8008 bound_to 7997
  154.4368  140.1873  156.0901 H   0  0  0  0  0  0  0  0  0  0  0  0  # atno 8009 bound_to 7997
  156.0394  140.3297  155.7230 H   0  0  0  0  0  0  0  0  0  0  0  0  # atno 8010 bound_to 7997
  140.2715  143.3341  152.0530 H   0  0  0  0  0  0  0  0  0  0  0  0  # atno 10167 bound_to 10162
  157.6591  131.0891  150.6287 H   0  0  0  0  0  0  0  0  0  0  0  0  # atno 10718 bound_to 10713
  154.8633  135.4217  154.2393 H   0  0  0  0  0  0  0  0  0  0  0  0  # atno 10763 bound_to 10752
  153.3362  135.6991  153.6911 H   0  0  0  0  0  0  0  0  0  0  0  0  # atno 10764 bound_to 10752
  153.5908  135.3555  155.2883 H   0  0  0  0  0  0  0  0  0  0  0  0  # atno 10765 bound_to 10752
  141.0935  133.9012  157.2018 H   0  0  0  0  0  0  0  0  0  0  0  0  # atno 11005 bound_to 11000
  145.8629  140.9465  143.0691 LP  0  0  0  0  0  0  0  0  0  0  0  0  # atno 17320 bound_to 7965
  144.6746  140.0554  143.7477 LP  0  0  0  0  0  0  0  0  0  0  0  0  # atno 17321 bound_to 7965
  139.4987  144.6653  151.6371 LP  0  0  0  0  0  0  0  0  0  0  0  0  # atno 17342 bound_to 10162
  140.5886  143.9820  150.6310 LP  0  0  0  0  0  0  0  0  0  0  0  0  # atno 17343 bound_to 10162
  156.6591  130.4507  149.5693 LP  0  0  0  0  0  0  0  0  0  0  0  0  # atno 17370 bound_to 10713
  156.2080  130.6661  151.1239 LP  0  0  0  0  0  0  0  0  0  0  0  0  # atno 17371 bound_to 10713
  139.9767  135.0111  156.9648 LP  0  0  0  0  0  0  0  0  0  0  0  0  # atno 17394 bound_to 11000
  140.5195  134.0922  155.7288 LP  0  0  0  0  0  0  0  0  0  0  0  0  # atno 17395 bound_to 11000

$$$$
