AV-unprocessed.smi:2300|AV-procd|sdf|9232|dock10
  -GOLD-   2272012453D 1   1.00000     0.00000
 Structure written by MMmdl.
 51 52  0  0  0  0  0  0  0  0  1 V2000
  145.8107  142.8972  155.8908 C   0  0  0  0  0  0  0  0  0  0  0  0
  146.6283  141.9009  155.0756 C   0  0  0  0  0  0  0  0  0  0  0  0
  146.1125  140.8558  154.6804 O   0  0  0  0  0  0  0  0  0  0  0  0
  147.9039  142.2364  154.8324 N   0  0  0  0  0  0  0  0  0  0  0  0
  148.8507  141.4319  154.0676 C   0  0  0  0  0  0  0  0  0  0  0  0
  149.6805  140.5100  154.9769 C   0  0  2  0  0  0  0  0  0  0  0  0
  150.5896  141.3136  155.9257 C   0  0  0  0  0  0  0  0  0  0  0  0
  151.4399  140.4161  156.7055 N   0  0  0  0  0  0  0  0  0  0  0  0
  152.1420  140.9618  157.8017 C   0  0  0  0  0  0  0  0  0  0  0  0
  151.8792  142.2772  158.2528 C   0  0  0  0  0  0  0  0  0  0  0  0
  152.6297  142.7392  159.3548 C   0  0  0  0  0  0  0  0  0  0  0  0
  152.4293  144.1398  159.9161 C   0  0  0  0  0  0  0  0  0  0  0  0
  152.1694  144.1155  161.4304 C   0  0  0  0  0  0  0  0  0  0  0  0
  151.3437  144.9113  159.1493 C   0  0  0  0  0  0  0  0  0  0  0  0
  153.5583  141.9619  159.9539 N   0  0  0  0  0  0  0  0  0  0  0  0
  153.7385  140.7369  159.4527 C   0  0  0  0  0  0  0  0  0  0  0  0
  154.7878  139.8613  160.1250 C   0  0  0  0  0  0  0  0  0  0  0  0
  154.4245  139.5460  161.5843 C   0  0  0  0  0  0  0  0  0  0  0  0
  156.2035  140.4374  159.9679 C   0  0  0  0  0  0  0  0  0  0  0  0
  153.0843  140.2047  158.4163 N   0  0  0  0  0  0  0  0  0  0  0  0
  152.1818  139.4613  155.8863 C   0  0  0  0  0  0  0  0  0  0  0  0
  151.2324  138.7292  154.9230 C   0  0  0  0  0  0  0  0  0  0  0  0
  150.4978  139.6778  154.1570 O   0  0  0  0  0  0  0  0  0  0  0  0
  145.9746  143.9148  155.5346 H   0  0  0  0  0  0  0  0  0  0  0  0
  146.0950  142.8485  156.9421 H   0  0  0  0  0  0  0  0  0  0  0  0
  144.7452  142.6780  155.8135 H   0  0  0  0  0  0  0  0  0  0  0  0
  148.2408  143.1176  155.1918 H   0  0  0  0  0  0  0  0  0  0  0  0
  148.2929  140.8389  153.3424 H   0  0  0  0  0  0  0  0  0  0  0  0
  149.5070  142.0864  153.4915 H   0  0  0  0  0  0  0  0  0  0  0  0
  149.0066  139.8871  155.5686 H   0  0  0  0  0  0  0  0  0  0  0  0
  151.2181  141.9998  155.3561 H   0  0  0  0  0  0  0  0  0  0  0  0
  149.9697  141.9150  156.5920 H   0  0  0  0  0  0  0  0  0  0  0  0
  151.1520  142.9145  157.7730 H   0  0  0  0  0  0  0  0  0  0  0  0
  153.3639  144.6821  159.7669 H   0  0  0  0  0  0  0  0  0  0  0  0
  152.9840  143.6194  161.9592 H   0  0  0  0  0  0  0  0  0  0  0  0
  151.2462  143.5863  161.6690 H   0  0  0  0  0  0  0  0  0  0  0  0
  152.0840  145.1262  161.8301 H   0  0  0  0  0  0  0  0  0  0  0  0
  151.5820  144.9691  158.0869 H   0  0  0  0  0  0  0  0  0  0  0  0
  151.2504  145.9315  159.5223 H   0  0  0  0  0  0  0  0  0  0  0  0
  150.3686  144.4329  159.2467 H   0  0  0  0  0  0  0  0  0  0  0  0
  154.7909  138.9039  159.6005 H   0  0  0  0  0  0  0  0  0  0  0  0
  153.4483  139.0646  161.6485 H   0  0  0  0  0  0  0  0  0  0  0  0
  154.3911  140.4511  162.1915 H   0  0  0  0  0  0  0  0  0  0  0  0
  155.1552  138.8730  162.0335 H   0  0  0  0  0  0  0  0  0  0  0  0
  156.4545  140.5762  158.9161 H   0  0  0  0  0  0  0  0  0  0  0  0
  156.9490  139.7691  160.3997 H   0  0  0  0  0  0  0  0  0  0  0  0
  156.2983  141.4039  160.4640 H   0  0  0  0  0  0  0  0  0  0  0  0
  152.9428  140.0006  155.3210 H   0  0  0  0  0  0  0  0  0  0  0  0
  152.7025  138.7238  156.4952 H   0  0  0  0  0  0  0  0  0  0  0  0
  151.8030  138.0930  154.2465 H   0  0  0  0  0  0  0  0  0  0  0  0
  150.5482  138.0785  155.4698 H   0  0  0  0  0  0  0  0  0  0  0  0
  1  2  1  0  0  0  0
  1 24  1  0  0  0  0
  1 25  1  0  0  0  0
  1 26  1  0  0  0  0
  2  3  2  0  0  0  0
  2  4  1  0  0  0  0
  4  5  1  0  0  0  0
  4 27  1  0  0  0  0
  5  6  1  0  0  0  0
  5 28  1  0  0  0  0
  5 29  1  0  0  0  0
  6 23  1  0  0  0  0
  6  7  1  0  0  0  0
  6 30  1  0  0  0  0
  7  8  1  0  0  0  0
  7 31  1  0  0  0  0
  7 32  1  0  0  0  0
  8  9  1  0  0  0  0
  8 21  1  0  0  0  0
  9 20  1  0  0  0  0
  9 10  2  0  0  0  0
 10 11  1  0  0  0  0
 10 33  1  0  0  0  0
 11 12  1  0  0  0  0
 11 15  2  0  0  0  0
 12 13  1  0  0  0  0
 12 14  1  0  0  0  0
 12 34  1  0  0  0  0
 13 35  1  0  0  0  0
 13 36  1  0  0  0  0
 13 37  1  0  0  0  0
 14 38  1  0  0  0  0
 14 39  1  0  0  0  0
 14 40  1  0  0  0  0
 15 16  1  0  0  0  0
 16 17  1  0  0  0  0
 16 20  2  0  0  0  0
 17 18  1  0  0  0  0
 17 19  1  0  0  0  0
 17 41  1  0  0  0  0
 18 42  1  0  0  0  0
 18 43  1  0  0  0  0
 18 44  1  0  0  0  0
 19 45  1  0  0  0  0
 19 46  1  0  0  0  0
 19 47  1  0  0  0  0
 21 22  1  0  0  0  0
 21 48  1  0  0  0  0
 21 49  1  0  0  0  0
 22 23  1  0  0  0  0
 22 50  1  0  0  0  0
 22 51  1  0  0  0  0
M  END
> <s_m_source_file>
AV-unprocessed.smi

> <i_m_source_file_index>
2300

> <i_lp_mmshare_version>
43012

> <i_f3d_flags>
0

> <s_epik_input>
W0NIM11DKD1PKVtOSF1bQ0gyXVtDQEBIXTFbQ0gyXU4oW0NIMl1bQ0gyXU8xKWMyW2NIXWMoW0NIXShbQ0gzXSlbQ0gzXSluYyhuMilbQ0hdKFtDSDNdKVtDSDNd

> <s_epik_cmdline>
J2VwaWtfcHl0aG9uJywgJy1waCcsICc3LjAnLCAnLXRuJywgJzgnLCAnLW1hJywgJzIwMCcsICctbWV0YWxfYmluZGluZycsICctaW1hZScsICc8aW5maWxlLm1hZT4nLCAnLW9tYWUnLCAnPG91dGZpbGUubWFlPic=

> <r_lp_tautomer_probability>
1

> <r_epik_Ionization_Penalty>
0.0035465

> <r_epik_Ionization_Penalty_Charging>
0

> <r_epik_Ionization_Penalty_Neutral>
0.0035465

> <r_epik_State_Penalty>
0.00247846

> <r_epik_Charging_Adjusted_Penalty>
0.00247846

> <i_epik_Tot_Q>
0

> <i_epik_Tot_abs_Q>
0

> <r_epik_Metal_State_Penalty>
-0

> <b_epik_Metal_Only>
0

> <s_lp_Force_Field>
OPLS_2005

> <r_lp_Energy>
0.953056

> <b_lp_Chiralities_Consistent>
1

> <s_lp_Variant>
AV-unprocessed.smi:2300-1

> <Gold.Version>
5.8.1

> <Gold.Id.Protein>
6NUR|6NUR_protein|mol2

> <Gold.PLP.Fitness>
56.8384

> <Gold.PLP.PLP>
-48.9720

> <Gold.PLP.part.hbond>
-3.0000

> <Gold.PLP.part.metal>
0.0000

> <Gold.PLP.part.buried>
-5.7055

> <Gold.PLP.part.nonpolar>
-39.7150

> <Gold.PLP.part.repulsive>
0.9001

> <Gold.PLP.ligand.clash>
0.0000

> <Gold.PLP.ligand.torsion>
0.7384

> <Gold.PLP.Chemscore.Hbond>
2.9600

> <Gold.PLP.Chemscore.CHOScore>
0.0000

> <Gold.PLP.Chemscore.Metal>
0.0000

> <Gold.Chemscore.Hbonds>
donor molecule, donor type, donor heavy atom, donor atom, acceptor molecule, acceptor atom, score
      L1  H     4    27       P1  8028  1.00
      P1  H  7989  7998       L1    23  1.00
      P1  H  7997  8010       L1    20  0.89

> <Gold.PLP.Chemscore.Internal.Correction>
0.4633

> <Gold.Rescore>
     Score         DG    S(hbond)    S(metal)    S(lipo)     H(rot)  DE(clash)    DE(int)     intcor
     18.83     -19.62       1.33        0.00     122.63       1.82       0.11       0.67       ----

> <Gold.Chemscore.Fitness>
18.8339

> <Gold.Chemscore.DG>
-19.6151

> <Gold.Chemscore.ZeroCoef>
-5.4800

> <Gold.Chemscore.Hbond>
1.3281

> <Gold.Chemscore.Metal>
0.0000

> <Gold.Chemscore.Lipo>
122.6271

> <Gold.Chemscore.Internal_Hbond>
0.0000

> <Gold.Chemscore.DEClash>
0.1090

> <Gold.Chemscore.DEInternal>
0.6723

> <Gold.Chemscore.Rot>
1.8156

> <Gold.Chemscore.Internal.Correction>
   9.000000E+99

> <Gold.Chemscore.Hbonds>
donor molecule, donor type, donor heavy atom, donor atom, acceptor molecule, acceptor atom, score
      L1  H     4    27       P1  8028  0.98
      P1  H  7989  7998       L1    23  0.21
      P1  H  7997  8010       L1    20  0.11

> <Gold.Chemscore.Hbond.Weighted>
-4.4358

> <Gold.Chemscore.Metal.Weighted>
-0.0000

> <Gold.Chemscore.Lipo.Weighted>
-14.3474

> <Gold.Chemscore.Internal_Hbond.Weighted>
0.0000

> <Gold.Chemscore.DEClash.Weighted>
0.1090

> <Gold.Chemscore.DEInternal.Weighted>
0.6723

> <Gold.Chemscore.Rot.Weighted>
4.6481

> <Gold.Chemscore.Internal.Correction.Weighted>
   9.000000E+99

> <Gold.Protein.RotatedTorsions>
[ 6907 6896 6895 6894 ] final   -9.49 input  -60.11 | X-H torsion
[ 7974 7965 7964 7962 ] final    2.33 input  175.53 | X-H torsion
[ 8008 7997 7996 7995 ] final   39.28 input   59.86 | X-H torsion
[ 10167 10162 10161 10158 ] final  -51.52 input  -65.29 | X-H torsion
[ 10718 10713 10712 10709 ] final  125.28 input   66.30 | X-H torsion
[ 10763 10752 10751 10750 ] final   31.96 input  -60.55 | X-H torsion
[ 11005 11000 10999 10996 ] final  141.99 input  -57.11 | X-H torsion

> <Gold.Protein.ActiveResidues>
 VAL166  LYS551  ARG553  GLY616  TRP617  ASP618  TYR619  PRO620  LYS621  CYS622 
 ASP623  PHE694  ASN695  SER759  ASP760  ASP761  ALA762  ILE779  LEU786  VAL792 
 PHE793  MET794  SER795  GLU796  ALA797  LYS798  CYS799  TRP800  GLU811  SER814 

> <Gold.Protein.RotatedAtoms>
  151.4170  135.0993  159.9602 H   0  0  0  0  0  0  0  0  0  0  0  0  # atno 6907 bound_to 6896
  152.5001  133.8743  159.7325 H   0  0  0  0  0  0  0  0  0  0  0  0  # atno 6908 bound_to 6896
  150.9251  133.6776  159.2851 H   0  0  0  0  0  0  0  0  0  0  0  0  # atno 6909 bound_to 6896
  146.2443  140.0853  142.8355 H   0  0  0  0  0  0  0  0  0  0  0  0  # atno 7974 bound_to 7965
  155.2340  140.3340  155.4300 H   0  0  0  0  0  0  0  0  0  0  0  0  # atno 8008 bound_to 7997
  156.2283  140.1839  156.7353 H   0  0  0  0  0  0  0  0  0  0  0  0  # atno 8009 bound_to 7997
  154.5935  140.0634  156.9257 H   0  0  0  0  0  0  0  0  0  0  0  0  # atno 8010 bound_to 7997
  140.6584  143.2616  151.4516 H   0  0  0  0  0  0  0  0  0  0  0  0  # atno 10167 bound_to 10162
  157.5516  131.1094  150.8692 H   0  0  0  0  0  0  0  0  0  0  0  0  # atno 10718 bound_to 10713
  153.0288  135.6425  154.1280 H   0  0  0  0  0  0  0  0  0  0  0  0  # atno 10763 bound_to 10752
  154.1006  135.2860  155.3254 H   0  0  0  0  0  0  0  0  0  0  0  0  # atno 10764 bound_to 10752
  154.6401  135.5462  153.7843 H   0  0  0  0  0  0  0  0  0  0  0  0  # atno 10765 bound_to 10752
  140.0443  134.9289  157.0901 H   0  0  0  0  0  0  0  0  0  0  0  0  # atno 11005 bound_to 11000
  145.0697  140.9147  143.4889 LP  0  0  0  0  0  0  0  0  0  0  0  0  # atno 17320 bound_to 7965
  145.0984  139.2840  143.5699 LP  0  0  0  0  0  0  0  0  0  0  0  0  # atno 17321 bound_to 7965
  139.5812  144.1706  152.1970 LP  0  0  0  0  0  0  0  0  0  0  0  0  # atno 17342 bound_to 10162
  140.1032  144.5521  150.6975 LP  0  0  0  0  0  0  0  0  0  0  0  0  # atno 17343 bound_to 10162
  156.9216  130.5317  149.5279 LP  0  0  0  0  0  0  0  0  0  0  0  0  # atno 17370 bound_to 10713
  156.0581  130.5639  150.9136 LP  0  0  0  0  0  0  0  0  0  0  0  0  # atno 17371 bound_to 10713
  140.4018  134.2074  155.7163 LP  0  0  0  0  0  0  0  0  0  0  0  0  # atno 17394 bound_to 11000
  141.1899  133.8228  157.0939 LP  0  0  0  0  0  0  0  0  0  0  0  0  # atno 17395 bound_to 11000

$$$$
