AV-unprocessed.smi:227|AV-procd|sdf|1737|dock3
  -GOLD-   2262020233D 1   1.00000     0.00000
 Structure written by MMmdl.
 54 58  0  0  0  0  0  0  0  0  1 V2000
  150.6200  139.5259  152.4115 O   0  0  0  0  0  0  0  0  0  0  0  0
  149.7608  138.9771  153.3895 C   0  0  0  0  0  0  0  0  0  0  0  0
  150.5595  138.2784  154.5173 C   0  0  2  0  0  0  0  0  0  0  0  0
  151.8589  139.0355  154.8889 C   0  0  0  0  0  0  0  0  0  0  0  0
  151.6228  140.1924  155.7353 N   0  0  0  0  0  0  0  0  0  0  0  0
  150.8903  141.3097  155.4090 C   0  0  0  0  0  0  0  0  0  0  0  0
  150.8269  142.2219  156.3397 N   0  0  0  0  0  0  0  0  0  0  0  0
  151.5736  141.6971  157.3892 C   0  0  0  0  0  0  0  0  0  0  0  0
  151.9222  142.1548  158.6933 C   0  0  0  0  0  0  0  0  0  0  0  0
  151.5337  143.3561  159.2009 N   0  0  0  0  0  0  0  0  0  0  0  0
  152.5124  144.3255  159.6703 C   0  0  1  0  0  0  0  0  0  0  0  0
  153.1215  144.9070  158.3769 C   0  0  0  0  0  0  0  0  0  0  0  0
  151.9098  144.8705  157.4327 C   0  0  0  0  0  0  0  0  0  0  0  0
  150.8175  144.3073  158.3643 C   0  0  2  0  0  0  0  0  0  0  0  0
  150.4027  145.4028  159.3718 C   0  0  1  0  0  0  0  0  0  0  0  0
  149.0764  145.1008  160.0936 C   0  0  0  0  0  0  0  0  0  0  0  0
  148.0193  145.0089  159.1626 O   0  0  0  0  0  0  0  0  0  0  0  0
  151.6162  145.3899  160.3241 C   0  0  0  0  0  0  0  0  0  0  0  0
  152.6612  141.3174  159.4690 N   0  0  0  0  0  0  0  0  0  0  0  0
  153.0582  140.1313  159.0008 C   0  0  0  0  0  0  0  0  0  0  0  0
  152.8250  139.5869  157.8062 N   0  0  0  0  0  0  0  0  0  0  0  0
  152.0680  140.4109  157.0273 C   0  0  0  0  0  0  0  0  0  0  0  0
  150.8372  136.7873  154.1994 C   0  0  1  0  0  0  0  0  0  0  0  0
  151.1583  135.9247  155.4072 C   0  0  0  0  0  0  0  0  0  0  0  0
  150.9167  134.5194  154.8688 C   0  0  0  0  0  0  0  0  0  0  0  0
  149.8504  134.6480  153.9360 O   0  0  0  0  0  0  0  0  0  0  0  0
  149.6419  136.0215  153.6205 C   0  0  0  0  0  0  0  0  0  0  0  0
  150.5290  139.0253  151.6150 H   0  0  0  0  0  0  0  0  0  0  0  0
  149.1311  139.7726  153.7881 H   0  0  0  0  0  0  0  0  0  0  0  0
  149.0827  138.2765  152.9030 H   0  0  0  0  0  0  0  0  0  0  0  0
  149.9207  138.3029  155.4014 H   0  0  0  0  0  0  0  0  0  0  0  0
  152.5480  138.3777  155.4187 H   0  0  0  0  0  0  0  0  0  0  0  0
  152.3782  139.3611  153.9868 H   0  0  0  0  0  0  0  0  0  0  0  0
  150.4051  141.4285  154.4510 H   0  0  0  0  0  0  0  0  0  0  0  0
  153.2573  143.9283  160.3608 H   0  0  0  0  0  0  0  0  0  0  0  0
  153.5200  145.9124  158.5168 H   0  0  0  0  0  0  0  0  0  0  0  0
  153.9248  144.2757  157.9953 H   0  0  0  0  0  0  0  0  0  0  0  0
  151.6572  145.8501  157.0256 H   0  0  0  0  0  0  0  0  0  0  0  0
  152.0948  144.1952  156.5963 H   0  0  0  0  0  0  0  0  0  0  0  0
  149.9673  143.9074  157.8152 H   0  0  0  0  0  0  0  0  0  0  0  0
  150.3205  146.3720  158.8771 H   0  0  0  0  0  0  0  0  0  0  0  0
  149.1388  144.1711  160.6605 H   0  0  0  0  0  0  0  0  0  0  0  0
  148.8420  145.8962  160.8015 H   0  0  0  0  0  0  0  0  0  0  0  0
  148.1279  145.6911  158.5175 H   0  0  0  0  0  0  0  0  0  0  0  0
  151.3295  145.0794  161.3300 H   0  0  0  0  0  0  0  0  0  0  0  0
  152.1040  146.3621  160.4010 H   0  0  0  0  0  0  0  0  0  0  0  0
  153.6462  139.5329  159.6810 H   0  0  0  0  0  0  0  0  0  0  0  0
  151.6697  136.7120  153.4976 H   0  0  0  0  0  0  0  0  0  0  0  0
  152.1759  136.0583  155.7753 H   0  0  0  0  0  0  0  0  0  0  0  0
  150.4670  136.1370  156.2243 H   0  0  0  0  0  0  0  0  0  0  0  0
  151.7995  134.1584  154.3396 H   0  0  0  0  0  0  0  0  0  0  0  0
  150.6772  133.8046  155.6564 H   0  0  0  0  0  0  0  0  0  0  0  0
  148.7116  136.3401  154.0925 H   0  0  0  0  0  0  0  0  0  0  0  0
  149.5390  136.1635  152.5445 H   0  0  0  0  0  0  0  0  0  0  0  0
  1  2  1  0  0  0  0
  1 28  1  0  0  0  0
  2  3  1  0  0  0  0
  2 29  1  0  0  0  0
  2 30  1  0  0  0  0
  3  4  1  0  0  0  0
  3 23  1  0  0  0  0
  3 31  1  0  0  0  0
  4  5  1  0  0  0  0
  4 32  1  0  0  0  0
  4 33  1  0  0  0  0
  5 22  1  0  0  0  0
  5  6  1  0  0  0  0
  6  7  2  0  0  0  0
  6 34  1  0  0  0  0
  7  8  1  0  0  0  0
  8 22  2  0  0  0  0
  8  9  1  0  0  0  0
  9 10  1  0  0  0  0
  9 19  2  0  0  0  0
 10 14  1  0  0  0  0
 10 11  1  0  0  0  0
 11 18  1  0  0  0  0
 11 12  1  0  0  0  0
 11 35  1  0  0  0  0
 12 13  1  0  0  0  0
 12 36  1  0  0  0  0
 12 37  1  0  0  0  0
 13 14  1  0  0  0  0
 13 38  1  0  0  0  0
 13 39  1  0  0  0  0
 14 15  1  0  0  0  0
 14 40  1  0  0  0  0
 15 16  1  0  0  0  0
 15 18  1  0  0  0  0
 15 41  1  0  0  0  0
 16 17  1  0  0  0  0
 16 42  1  0  0  0  0
 16 43  1  0  0  0  0
 17 44  1  0  0  0  0
 18 45  1  0  0  0  0
 18 46  1  0  0  0  0
 19 20  1  0  0  0  0
 20 21  2  0  0  0  0
 20 47  1  0  0  0  0
 21 22  1  0  0  0  0
 23 27  1  0  0  0  0
 23 24  1  0  0  0  0
 23 48  1  0  0  0  0
 24 25  1  0  0  0  0
 24 49  1  0  0  0  0
 24 50  1  0  0  0  0
 25 26  1  0  0  0  0
 25 51  1  0  0  0  0
 25 52  1  0  0  0  0
 26 27  1  0  0  0  0
 27 53  1  0  0  0  0
 27 54  1  0  0  0  0
M  END
> <s_m_source_file>
AV-unprocessed.smi

> <i_m_source_file_index>
227

> <i_lp_mmshare_version>
43012

> <i_f3d_flags>
0

> <s_epik_input>
W0NIMl0xT1tDSDJdW0NIMl1bQ0BIXTFbQ0BIXShbQ0gyXVtPSF0pW0NIMl1uKFtjSF1uMiljKGMyMyluW2NIXW5jM04oW0NASF00NSlbQ0BASF0oW0NIMl1bQ0gyXTQpW0NASF0oW0NIMl01KVtDSDJdW09IXQ==

> <s_epik_cmdline>
J2VwaWtfcHl0aG9uJywgJy1waCcsICc3LjAnLCAnLXRuJywgJzgnLCAnLW1hJywgJzIwMCcsICctbWV0YWxfYmluZGluZycsICctaW1hZScsICc8aW5maWxlLm1hZT4nLCAnLW9tYWUnLCAnPG91dGZpbGUubWFlPic=

> <r_lp_tautomer_probability>
1

> <r_epik_Ionization_Penalty>
0.0055791

> <r_epik_Ionization_Penalty_Charging>
0

> <r_epik_Ionization_Penalty_Neutral>
0.0055791

> <r_epik_State_Penalty>
0.00401299

> <r_epik_Charging_Adjusted_Penalty>
0.00401299

> <i_epik_Tot_Q>
0

> <i_epik_Tot_abs_Q>
0

> <r_epik_Metal_State_Penalty>
-0

> <b_epik_Metal_Only>
0

> <s_lp_Force_Field>
OPLS_2005

> <r_lp_Energy>
87.9703

> <b_lp_Chiralities_Consistent>
1

> <s_lp_Variant>
AV-unprocessed.smi:227-11

> <Gold.Version>
5.8.1

> <Gold.Id.Protein>
6NUR|6NUR_protein|mol2

> <Gold.PLP.Fitness>
55.3748

> <Gold.PLP.PLP>
-48.6390

> <Gold.PLP.part.hbond>
-3.8967

> <Gold.PLP.part.metal>
0.0000

> <Gold.PLP.part.buried>
-6.1002

> <Gold.PLP.part.nonpolar>
-38.0900

> <Gold.PLP.part.repulsive>
0.1548

> <Gold.PLP.ligand.clash>
0.0000

> <Gold.PLP.ligand.torsion>
0.7827

> <Gold.PLP.Chemscore.Hbond>
2.6650

> <Gold.PLP.Chemscore.CHOScore>
0.0000

> <Gold.PLP.Chemscore.Metal>
0.0000

> <Gold.Chemscore.Hbonds>
donor molecule, donor type, donor heavy atom, donor atom, acceptor molecule, acceptor atom, score
      L1  H    17    44       P1  8029  0.32
      P1  H  7989  7998       L1     1  0.19
      P1  H  7997  8009       L1    21  0.45

> <Gold.PLP.Chemscore.Internal.Correction>
0.3062

> <Gold.Rescore>
     Score         DG    S(hbond)    S(metal)    S(lipo)     H(rot)  DE(clash)    DE(int)     intcor
     13.73     -16.61       1.98        0.00     117.45       3.61       0.42       2.47       ----

> <Gold.Chemscore.Fitness>
13.7283

> <Gold.Chemscore.DG>
-16.6145

> <Gold.Chemscore.ZeroCoef>
-5.4800

> <Gold.Chemscore.Hbond>
1.9843

> <Gold.Chemscore.Metal>
0.0000

> <Gold.Chemscore.Lipo>
117.4466

> <Gold.Chemscore.Internal_Hbond>
0.0000

> <Gold.Chemscore.DEClash>
0.4164

> <Gold.Chemscore.DEInternal>
2.4697

> <Gold.Chemscore.Rot>
3.6071

> <Gold.Chemscore.Internal.Correction>
   9.000000E+99

> <Gold.Chemscore.Hbonds>
donor molecule, donor type, donor heavy atom, donor atom, acceptor molecule, acceptor atom, score
      L1  H    17    44       P1  8029  0.31
      P1  H  7989  7998       L1     1  0.08
      P1  H  7997  8009       L1    21  0.01

> <Gold.Chemscore.Hbond.Weighted>
-6.6274

> <Gold.Chemscore.Metal.Weighted>
-0.0000

> <Gold.Chemscore.Lipo.Weighted>
-13.7412

> <Gold.Chemscore.Internal_Hbond.Weighted>
0.0000

> <Gold.Chemscore.DEClash.Weighted>
0.4164

> <Gold.Chemscore.DEInternal.Weighted>
2.4697

> <Gold.Chemscore.Rot.Weighted>
9.2342

> <Gold.Chemscore.Internal.Correction.Weighted>
   9.000000E+99

> <Gold.Protein.RotatedTorsions>
[ 6907 6896 6895 6894 ] final  139.88 input  -60.11 | X-H torsion
[ 7974 7965 7964 7962 ] final  132.19 input  175.53 | X-H torsion
[ 8008 7997 7996 7995 ] final  175.28 input   59.86 | X-H torsion
[ 10167 10162 10161 10158 ] final    4.72 input  -65.29 | X-H torsion
[ 10718 10713 10712 10709 ] final  147.82 input   66.30 | X-H torsion
[ 10763 10752 10751 10750 ] final  117.74 input  -60.55 | X-H torsion
[ 11005 11000 10999 10996 ] final  100.84 input  -57.11 | X-H torsion

> <Gold.Protein.ActiveResidues>
 VAL166  LYS551  ARG553  GLY616  TRP617  ASP618  TYR619  PRO620  LYS621  CYS622 
 ASP623  PHE694  ASN695  SER759  ASP760  ASP761  ALA762  ILE779  LEU786  VAL792 
 PHE793  MET794  SER795  GLU796  ALA797  LYS798  CYS799  TRP800  GLU811  SER814 

> <Gold.Protein.RotatedAtoms>
  152.2497  133.5205  159.5317 H   0  0  0  0  0  0  0  0  0  0  0  0  # atno 6907 bound_to 6896
  150.7090  134.0977  159.3963 H   0  0  0  0  0  0  0  0  0  0  0  0  # atno 6908 bound_to 6896
  151.8896  135.0421  160.0547 H   0  0  0  0  0  0  0  0  0  0  0  0  # atno 6909 bound_to 6896
  144.9994  139.4326  143.5299 H   0  0  0  0  0  0  0  0  0  0  0  0  # atno 7974 bound_to 7965
  156.0887  140.1413  156.9620 H   0  0  0  0  0  0  0  0  0  0  0  0  # atno 8008 bound_to 7997
  154.4628  140.0937  156.6987 H   0  0  0  0  0  0  0  0  0  0  0  0  # atno 8009 bound_to 7997
  155.4956  140.3449  155.4364 H   0  0  0  0  0  0  0  0  0  0  0  0  # atno 8010 bound_to 7997
  140.6520  143.7521  150.7591 H   0  0  0  0  0  0  0  0  0  0  0  0  # atno 10167 bound_to 10162
  157.3162  131.0896  151.1277 H   0  0  0  0  0  0  0  0  0  0  0  0  # atno 10718 bound_to 10713
  153.5570  135.3528  155.2783 H   0  0  0  0  0  0  0  0  0  0  0  0  # atno 10763 bound_to 10752
  154.8700  135.4127  154.2873 H   0  0  0  0  0  0  0  0  0  0  0  0  # atno 10764 bound_to 10752
  153.3611  135.7060  153.6781 H   0  0  0  0  0  0  0  0  0  0  0  0  # atno 10765 bound_to 10752
  139.8772  134.9157  156.4816 H   0  0  0  0  0  0  0  0  0  0  0  0  # atno 11005 bound_to 11000
  146.3449  139.9374  142.8745 LP  0  0  0  0  0  0  0  0  0  0  0  0  # atno 17320 bound_to 7965
  145.2174  140.9921  143.4065 LP  0  0  0  0  0  0  0  0  0  0  0  0  # atno 17321 bound_to 7965
  140.1173  143.4644  152.2334 LP  0  0  0  0  0  0  0  0  0  0  0  0  # atno 17342 bound_to 10162
  139.5737  144.7476  151.3823 LP  0  0  0  0  0  0  0  0  0  0  0  0  # atno 17343 bound_to 10162
  157.2579  130.6645  149.5961 LP  0  0  0  0  0  0  0  0  0  0  0  0  # atno 17370 bound_to 10713
  155.9682  130.4518  150.5748 LP  0  0  0  0  0  0  0  0  0  0  0  0  # atno 17371 bound_to 10713
  140.8723  133.7979  155.9378 LP  0  0  0  0  0  0  0  0  0  0  0  0  # atno 17394 bound_to 11000
  140.8940  134.2461  157.5079 LP  0  0  0  0  0  0  0  0  0  0  0  0  # atno 17395 bound_to 11000

$$$$
