#       Name:                AV-unprocessed.smi:1005
#       Creating user name   scv26
#       Creation time:       Fri Mar 27 02:27:21 2020


#       File generated by GOLD software.
#

@<TRIPOS>MOLECULE
AV-unprocessed.smi:1005
    62    64     1
SMALL
NO_CHARGES


@<TRIPOS>ATOM
      1 ****        -5.9955   2.9912  -3.7736 C.3            1 S1                 0.0000
      2 ****        -4.8247   2.9360  -2.8082 C.ar           1 S1                 0.0000
      3 ****        -5.0804   2.9063  -1.4187 C.ar           1 S1                 0.0000
      4 ****        -4.0197   2.8536  -0.4882 C.ar           1 S1                 0.0000
      5 ****        -4.0383   2.8141   0.8955 N.2            1 S1                 0.0000
      6 ****        -2.7403   2.7713   1.1804 C.2            1 S1                 0.0000
      7 ****        -1.8805   2.7737   0.1435 N.pl3          1 S1                 0.0000
      8 ****        -0.4302   2.7272   0.2116 C.3            1 S1                 0.0000
      9 ****         0.1170   1.2864   0.1942 C.3            1 S1                 0.0000
     10 ****        -0.2484   0.6571  -1.0194 O.3            1 S1                 0.0000
     11 ****         1.6539   1.2583   0.3192 C.3            1 S1                 0.0000
     12 ****         2.2073  -0.1207   0.3190 N.4            1 S1                 1.0000
     13 ****         3.6406  -0.1577  -0.0553 C.3            1 S1                 0.0000
     14 ****         4.1418  -1.6099  -0.1122 C.3            1 S1                 0.0000
     15 ****         3.9093  -2.2440   1.1398 O.3            1 S1                 0.0000
     16 ****         2.5254  -2.3016   1.4704 C.3            1 S1                 0.0000
     17 ****         2.3826  -3.0719   2.7970 C.3            1 S1                 0.0000
     18 ****         2.8024  -4.4934   2.6907 N.4            1 S1                 1.0000
     19 ****         1.8281  -5.3450   1.9692 C.3            1 S1                 0.0000
     20 ****         3.1495  -5.0693   4.0090 C.3            1 S1                 0.0000
     21 ****         1.9873  -0.8609   1.5864 C.3            1 S1                 0.0000
     22 ****        -2.6854   2.8323  -0.9897 C.ar           1 S1                 0.0000
     23 ****        -2.4183   2.8639  -2.3698 C.ar           1 S1                 0.0000
     24 ****        -3.4897   2.9143  -3.2858 C.ar           1 S1                 0.0000
     25 ****        -3.1906   2.9453  -4.7740 C.3            1 S1                 0.0000
     26 ****        -6.9478   3.0304  -3.2439 H              1 S1                 0.0000
     27 ****        -6.0044   2.1084  -4.4133 H              1 S1                 0.0000
     28 ****        -5.9281   3.8769  -4.4056 H              1 S1                 0.0000
     29 ****        -6.0974   2.9229  -1.0547 H              1 S1                 0.0000
     30 ****        -2.3940   2.7339   2.2029 H              1 S1                 0.0000
     31 ****        -0.0236   3.3052  -0.6195 H              1 S1                 0.0000
     32 ****        -0.1166   3.2351   1.1246 H              1 S1                 0.0000
     33 ****        -0.3418   0.7361   1.0151 H              1 S1                 0.0000
     34 ****        -1.1868   0.7210  -1.1205 H              1 S1                 0.0000
     35 ****         2.0767   1.8149  -0.5191 H              1 S1                 0.0000
     36 ****         1.9753   1.7783   1.2230 H              1 S1                 0.0000
     37 ****         3.7840   0.3162  -1.0272 H              1 S1                 0.0000
     38 ****         4.2243   0.4120   0.6698 H              1 S1                 0.0000
     39 ****         3.6468  -2.1630  -0.9120 H              1 S1                 0.0000
     40 ****         5.2107  -1.6307  -0.3257 H              1 S1                 0.0000
     41 ****         1.9798  -2.8146   0.6779 H              1 S1                 0.0000
     42 ****         2.9920  -2.5695   3.5501 H              1 S1                 0.0000
     43 ****         1.3535  -3.0283   3.1568 H              1 S1                 0.0000
     44 ****         0.8669  -5.3634   2.4847 H              1 S1                 0.0000
     45 ****         2.1934  -6.3703   1.9011 H              1 S1                 0.0000
     46 ****         1.6635  -4.9962   0.9507 H              1 S1                 0.0000
     47 ****         2.2838  -5.0771   4.6725 H              1 S1                 0.0000
     48 ****         3.9426  -4.4937   4.4871 H              1 S1                 0.0000
     49 ****         3.5075  -6.0940   3.9021 H              1 S1                 0.0000
     50 ****         2.4820  -0.3362   2.4057 H              1 S1                 0.0000
     51 ****         0.9251  -0.8950   1.8252 H              1 S1                 0.0000
     52 ****        -1.3971   2.8466  -2.7206 H              1 S1                 0.0000
     53 ****        -2.1189   2.8872  -4.9657 H              1 S1                 0.0000
     54 ****        -3.5606   3.8698  -5.2176 H              1 S1                 0.0000
     55 ****        -3.6660   2.1039  -5.2787 H              1 S1                 0.0000
     56 ****         3.6572  -4.5030   2.1523 H              1 S1                 0.0000
     57 ****         1.7122  -0.6184  -0.4080 H              1 S1                 0.0000
     58 ****        -4.8216   2.8170   1.5170 LP             1 S1                 0.0000
     59 ****         0.0235  -0.3050  -0.9956 LP             1 S1                 0.0000
     60 ****         0.2051   1.1127  -1.7854 LP             1 S1                 0.0000
     61 ****         4.3888  -1.7325   1.8528 LP             1 S1                 0.0000
     62 ****         4.2689  -3.1763   1.0993 LP             1 S1                 0.0000
@<TRIPOS>BOND
    1    1    2 1     
    2    1   26 1     
    3    1   27 1     
    4    1   28 1     
    5    2   24 ar    
    6    2    3 ar    
    7    3    4 ar    
    8    3   29 1     
    9    4   22 ar    
   10    4    5 1     
   11    5    6 2     
   12    6    7 1     
   13    6   30 1     
   14    7    8 1     
   15    7   22 1     
   16    8    9 1     
   17    8   31 1     
   18    8   32 1     
   19    9   10 1     
   20    9   11 1     
   21    9   33 1     
   22   10   34 1     
   23   11   12 1     
   24   11   35 1     
   25   11   36 1     
   26   12   21 1     
   27   12   13 1     
   28   12   57 1     
   29   13   14 1     
   30   13   37 1     
   31   13   38 1     
   32   14   15 1     
   33   14   39 1     
   34   14   40 1     
   35   15   16 1     
   36   16   17 1     
   37   16   21 1     
   38   16   41 1     
   39   17   18 1     
   40   17   42 1     
   41   17   43 1     
   42   18   19 1     
   43   18   20 1     
   44   18   56 1     
   45   19   44 1     
   46   19   45 1     
   47   19   46 1     
   48   20   47 1     
   49   20   48 1     
   50   20   49 1     
   51   21   50 1     
   52   21   51 1     
   53   22   23 ar    
   54   23   24 ar    
   55   23   52 1     
   56   24   25 1     
   57   25   53 1     
   58   25   54 1     
   59   25   55 1     
   60    5   58 1     
   61   10   59 1     
   62   10   60 1     
   63   15   61 1     
   64   15   62 1     
@<TRIPOS>SUBSTRUCTURE
      1 S1             1
@<TRIPOS>SET
LONE_PAIRS      STATIC     ATOMS    <user>   **** ""
5 58 59 60 61 62
DONOR_HYDROGENS      STATIC     ATOMS    <user>   **** ""
3 34 57 56
ATOM$BLUE        STATIC     ATOMS    COLORGROUP SYSTEM
5 58 59 60 61 62
ATOM$RED        STATIC     ATOMS    COLORGROUP SYSTEM
3 34 57 56
