#       Name:                AV-unprocessed.smi:356
#       Creating user name   scv26
#       Creation time:       Thu Mar 26 22:34:40 2020


#       File generated by GOLD software.
#

@<TRIPOS>MOLECULE
AV-unprocessed.smi:356
    47    49     1
SMALL
NO_CHARGES


@<TRIPOS>ATOM
      1 ****        -2.0660   1.4566  -2.6059 C.3            1 S1                 0.0000
      2 ****        -2.3199   1.9102  -1.2033 C.2            1 S1                 0.0000
      3 ****        -2.7967   3.1231  -0.9239 N.2            1 S1                 0.0000
      4 ****        -2.8759   3.1071   0.4553 C.ar           1 S1                 0.0000
      5 ****        -3.3066   4.1017   1.3624 C.ar           1 S1                 0.0000
      6 ****        -3.2996   3.8530   2.7505 C.ar           1 S1                 0.0000
      7 ****        -2.8624   2.6095   3.2511 C.ar           1 S1                 0.0000
      8 ****        -2.4282   1.6050   2.3651 C.ar           1 S1                 0.0000
      9 ****        -2.4369   1.8580   0.9800 C.ar           1 S1                 0.0000
     10 ****        -2.0790   1.1083  -0.1369 N.pl3          1 S1                 0.0000
     11 ****        -1.5566  -0.2516  -0.1384 C.3            1 S1                 0.0000
     12 ****        -0.0152  -0.2986  -0.1421 C.3            1 S1                 0.0000
     13 ****         0.4820   0.3506   1.0128 O.3            1 S1                 0.0000
     14 ****         0.5124  -1.7466  -0.1604 C.3            1 S1                 0.0000
     15 ****         1.9922  -1.8131  -0.2716 N.4            1 S1                 1.0000
     16 ****         2.5450  -3.0843   0.2536 C.3            1 S1                 0.0000
     17 ****         4.0811  -3.0752   0.1771 C.3            1 S1                 0.0000
     18 ****         4.4904  -2.8502  -1.1661 O.3            1 S1                 0.0000
     19 ****         4.0392  -1.5941  -1.6571 C.3            1 S1                 0.0000
     20 ****         2.5015  -1.5552  -1.6416 C.3            1 S1                 0.0000
     21 ****        -2.2955   2.2546  -3.3128 H              1 S1                 0.0000
     22 ****        -2.6932   0.5976  -2.8448 H              1 S1                 0.0000
     23 ****        -1.0199   1.1786  -2.7326 H              1 S1                 0.0000
     24 ****        -3.6419   5.0581   0.9894 H              1 S1                 0.0000
     25 ****        -3.6311   4.6201   3.4349 H              1 S1                 0.0000
     26 ****        -2.8598   2.4277   4.3161 H              1 S1                 0.0000
     27 ****        -2.0910   0.6534   2.7472 H              1 S1                 0.0000
     28 ****        -1.9497  -0.7742   0.7346 H              1 S1                 0.0000
     29 ****        -1.9531  -0.7789  -1.0065 H              1 S1                 0.0000
     30 ****         0.3473   0.2443  -1.0137 H              1 S1                 0.0000
     31 ****         0.0856  -0.0422   1.7757 H              1 S1                 0.0000
     32 ****         0.1916  -2.2429   0.7571 H              1 S1                 0.0000
     33 ****         0.0645  -2.3083  -0.9817 H              1 S1                 0.0000
     34 ****         2.2327  -3.2252   1.2890 H              1 S1                 0.0000
     35 ****         2.1462  -3.9222  -0.3204 H              1 S1                 0.0000
     36 ****         4.4996  -2.3090   0.8319 H              1 S1                 0.0000
     37 ****         4.4797  -4.0327   0.5126 H              1 S1                 0.0000
     38 ****         4.4559  -0.7835  -1.0570 H              1 S1                 0.0000
     39 ****         4.4080  -1.4590  -2.6741 H              1 S1                 0.0000
     40 ****         2.1050  -2.3052  -2.3279 H              1 S1                 0.0000
     41 ****         2.1638  -0.5839  -2.0008 H              1 S1                 0.0000
     42 ****         2.3540  -1.0802   0.3226 H              1 S1                 0.0000
     43 ****        -3.0371   3.8606  -1.5550 LP             1 S1                 0.0000
     44 ****         0.2522   1.3232   0.9773 LP             1 S1                 0.0000
     45 ****         1.4753   0.2442   1.0573 LP             1 S1                 0.0000
     46 ****         4.1162  -3.5759  -1.7435 LP             1 S1                 0.0000
     47 ****         5.4893  -2.8731  -1.2074 LP             1 S1                 0.0000
@<TRIPOS>BOND
    1    1    2 1     
    2    1   21 1     
    3    1   22 1     
    4    1   23 1     
    5    2   10 1     
    6    2    3 2     
    7    3    4 1     
    8    4    9 ar    
    9    4    5 ar    
   10    5    6 ar    
   11    5   24 1     
   12    6    7 ar    
   13    6   25 1     
   14    7    8 ar    
   15    7   26 1     
   16    8    9 ar    
   17    8   27 1     
   18    9   10 1     
   19   10   11 1     
   20   11   12 1     
   21   11   28 1     
   22   11   29 1     
   23   12   13 1     
   24   12   14 1     
   25   12   30 1     
   26   13   31 1     
   27   14   15 1     
   28   14   32 1     
   29   14   33 1     
   30   15   20 1     
   31   15   16 1     
   32   15   42 1     
   33   16   17 1     
   34   16   34 1     
   35   16   35 1     
   36   17   18 1     
   37   17   36 1     
   38   17   37 1     
   39   18   19 1     
   40   19   20 1     
   41   19   38 1     
   42   19   39 1     
   43   20   40 1     
   44   20   41 1     
   45    3   43 1     
   46   13   44 1     
   47   13   45 1     
   48   18   46 1     
   49   18   47 1     
@<TRIPOS>SUBSTRUCTURE
      1 S1             1
@<TRIPOS>SET
LONE_PAIRS      STATIC     ATOMS    <user>   **** ""
5 43 44 45 46 47
DONOR_HYDROGENS      STATIC     ATOMS    <user>   **** ""
2 31 42
ATOM$BLUE        STATIC     ATOMS    COLORGROUP SYSTEM
5 43 44 45 46 47
ATOM$RED        STATIC     ATOMS    COLORGROUP SYSTEM
2 31 42
