AV-unprocessed.smi:3158|AV-procd|sdf|12045|dock7
  -GOLD-   2272017473D 1   1.00000     0.00000
 Structure written by MMmdl.
 39 39  0  0  0  0  0  0  0  0  1 V2000
  150.6914  144.3156  160.4429 C   0  0  0  0  0  0  0  0  0  0  0  0
  151.4211  145.1572  159.3859 C   0  0  0  0  0  0  0  0  0  0  0  0
  152.0363  144.3240  158.2460 C   0  0  2  0  0  0  0  0  0  0  0  0
  152.7487  145.2159  157.2166 C   0  0  0  0  0  0  0  0  0  0  0  0
  151.0027  143.5311  157.5853 N   0  0  0  0  0  0  0  0  0  0  0  0
  150.9280  142.1908  157.5846 C   0  0  0  0  0  0  0  0  0  0  0  0
  151.7422  141.4669  158.1584 O   0  0  0  0  0  0  0  0  0  0  0  0
  149.7756  141.5704  156.7767 C   0  0  2  0  0  0  0  0  0  0  0  0
  150.0075  141.7498  155.2678 C   0  0  0  0  0  0  0  0  0  0  0  0
  148.4528  142.1080  157.1436 N   0  0  0  0  0  0  0  0  0  0  0  0
  148.2440  142.2675  158.5786 C   0  0  0  0  0  0  0  0  0  0  0  0
  146.7399  142.3665  158.8677 C   0  0  0  0  0  0  0  0  0  0  0  0
  146.4890  142.7581  160.2409 N   0  0  0  0  0  0  0  0  0  0  0  0
  146.6578  143.9963  160.8232 C   0  0  0  0  0  0  0  0  0  0  0  0
  146.3012  143.8793  162.1362 C   0  0  0  0  0  0  0  0  0  0  0  0
  145.9253  142.5130  162.2638 C   0  0  0  0  0  0  0  0  0  0  0  0
  146.0398  141.8441  161.1277 N   0  0  0  0  0  0  0  0  0  0  0  0
  150.3161  144.9477  161.2478 H   0  0  0  0  0  0  0  0  0  0  0  0
  151.3588  143.5762  160.8861 H   0  0  0  0  0  0  0  0  0  0  0  0
  149.8392  143.7857  160.0167 H   0  0  0  0  0  0  0  0  0  0  0  0
  150.7311  145.8948  158.9737 H   0  0  0  0  0  0  0  0  0  0  0  0
  152.2105  145.7249  159.8797 H   0  0  0  0  0  0  0  0  0  0  0  0
  152.7761  143.6523  158.6859 H   0  0  0  0  0  0  0  0  0  0  0  0
  153.5394  145.8015  157.6862 H   0  0  0  0  0  0  0  0  0  0  0  0
  152.0537  145.9118  156.7457 H   0  0  0  0  0  0  0  0  0  0  0  0
  153.2086  144.6205  156.4272 H   0  0  0  0  0  0  0  0  0  0  0  0
  150.2948  144.0417  157.0777 H   0  0  0  0  0  0  0  0  0  0  0  0
  149.7644  140.4970  156.9754 H   0  0  0  0  0  0  0  0  0  0  0  0
  150.9726  141.3426  154.9634 H   0  0  0  0  0  0  0  0  0  0  0  0
  149.9824  142.8010  154.9775 H   0  0  0  0  0  0  0  0  0  0  0  0
  149.2404  141.2311  154.6917 H   0  0  0  0  0  0  0  0  0  0  0  0
  148.2626  142.9797  156.6699 H   0  0  0  0  0  0  0  0  0  0  0  0
  148.6720  141.4161  159.1097 H   0  0  0  0  0  0  0  0  0  0  0  0
  148.7409  143.1673  158.9435 H   0  0  0  0  0  0  0  0  0  0  0  0
  146.2711  143.0994  158.2095 H   0  0  0  0  0  0  0  0  0  0  0  0
  146.2472  141.4106  158.6807 H   0  0  0  0  0  0  0  0  0  0  0  0
  147.0144  144.8473  160.2617 H   0  0  0  0  0  0  0  0  0  0  0  0
  146.3086  144.6514  162.8909 H   0  0  0  0  0  0  0  0  0  0  0  0
  145.5755  141.9905  163.1420 H   0  0  0  0  0  0  0  0  0  0  0  0
  1  2  1  0  0  0  0
  1 18  1  0  0  0  0
  1 19  1  0  0  0  0
  1 20  1  0  0  0  0
  2  3  1  0  0  0  0
  2 21  1  0  0  0  0
  2 22  1  0  0  0  0
  3  4  1  0  0  0  0
  3  5  1  0  0  0  0
  3 23  1  0  0  0  0
  4 24  1  0  0  0  0
  4 25  1  0  0  0  0
  4 26  1  0  0  0  0
  5  6  1  0  0  0  0
  5 27  1  0  0  0  0
  6  7  2  0  0  0  0
  6  8  1  0  0  0  0
  8  9  1  0  0  0  0
  8 10  1  0  0  0  0
  8 28  1  0  0  0  0
  9 29  1  0  0  0  0
  9 30  1  0  0  0  0
  9 31  1  0  0  0  0
 10 11  1  0  0  0  0
 10 32  1  0  0  0  0
 11 12  1  0  0  0  0
 11 33  1  0  0  0  0
 11 34  1  0  0  0  0
 12 13  1  0  0  0  0
 12 35  1  0  0  0  0
 12 36  1  0  0  0  0
 13 17  1  0  0  0  0
 13 14  1  0  0  0  0
 14 15  2  0  0  0  0
 14 37  1  0  0  0  0
 15 16  1  0  0  0  0
 15 38  1  0  0  0  0
 16 17  2  0  0  0  0
 16 39  1  0  0  0  0
M  END
> <s_m_source_file>
AV-unprocessed.smi

> <i_m_source_file_index>
3158

> <i_lp_mmshare_version>
43012

> <i_f3d_flags>
0

> <s_epik_input>
W0NIM11bQ0gyXVtDQEhdKFtDSDNdKVtOSF1DKD1PKVtDQEhdKFtDSDNdKVtOSF1bQ0gyXVtDSDJdbjFbY0hdW2NIXVtjSF1uMQ==

> <s_epik_cmdline>
J2VwaWtfcHl0aG9uJywgJy1waCcsICc3LjAnLCAnLXRuJywgJzgnLCAnLW1hJywgJzIwMCcsICctbWV0YWxfYmluZGluZycsICctaW1hZScsICc8aW5maWxlLm1hZT4nLCAnLW9tYWUnLCAnPG91dGZpbGUubWFlPic=

> <r_lp_tautomer_probability>
1

> <r_epik_Ionization_Penalty>
0.724013

> <r_epik_Ionization_Penalty_Charging>
0

> <r_epik_Ionization_Penalty_Neutral>
0.724013

> <r_epik_State_Penalty>
0.74758

> <r_epik_Charging_Adjusted_Penalty>
0.74758

> <i_epik_Tot_Q>
0

> <i_epik_Tot_abs_Q>
0

> <r_epik_Metal_State_Penalty>
0.746846

> <b_epik_Metal_Only>
0

> <s_lp_Force_Field>
OPLS_2005

> <r_lp_Energy>
5.18205

> <b_lp_Chiralities_Consistent>
1

> <s_lp_Variant>
AV-unprocessed.smi:3158-5

> <Gold.Version>
5.8.1

> <Gold.Id.Protein>
6NUR|6NUR_protein|mol2

> <Gold.PLP.Fitness>
44.5756

> <Gold.PLP.PLP>
-33.5279

> <Gold.PLP.part.hbond>
-2.9858

> <Gold.PLP.part.metal>
0.0000

> <Gold.PLP.part.buried>
-5.8548

> <Gold.PLP.part.nonpolar>
-24.0790

> <Gold.PLP.part.repulsive>
0.0000

> <Gold.PLP.ligand.clash>
0.0000

> <Gold.PLP.ligand.torsion>
0.5733

> <Gold.PLP.Chemscore.Hbond>
2.9913

> <Gold.PLP.Chemscore.CHOScore>
0.9980

> <Gold.PLP.Chemscore.Metal>
0.0000

> <Gold.Chemscore.Hbonds>
donor molecule, donor type, donor heavy atom, donor atom, acceptor molecule, acceptor atom, score
      L1  H     5    27       P1  8028  0.86
      L1  H    10    32       P1  8028  0.84
      P1  H  6934  6946       L1    17  0.41

> <Gold.PLP.Chemscore.Internal.Correction>
0.2265

> <Gold.Rescore>
     Score         DG    S(hbond)    S(metal)    S(lipo)     H(rot)  DE(clash)    DE(int)     intcor
     15.75     -18.56       2.57        0.00      84.96       2.12       1.97       0.84       ----

> <Gold.Chemscore.Fitness>
15.7491

> <Gold.Chemscore.DG>
-18.5638

> <Gold.Chemscore.ZeroCoef>
-5.4800

> <Gold.Chemscore.Hbond>
2.5685

> <Gold.Chemscore.Metal>
0.0000

> <Gold.Chemscore.Lipo>
84.9646

> <Gold.Chemscore.Internal_Hbond>
0.0000

> <Gold.Chemscore.DEClash>
1.9731

> <Gold.Chemscore.DEInternal>
0.8416

> <Gold.Chemscore.Rot>
2.1234

> <Gold.Chemscore.Internal.Correction>
   9.000000E+99

> <Gold.Chemscore.Hbonds>
donor molecule, donor type, donor heavy atom, donor atom, acceptor molecule, acceptor atom, score
      L1  H     5    27       P1  8028  0.79
      L1  H    10    32       P1  8028  0.40
      P1  H  6934  6946       L1    17  0.06

> <Gold.Chemscore.Hbond.Weighted>
-8.5788

> <Gold.Chemscore.Metal.Weighted>
-0.0000

> <Gold.Chemscore.Lipo.Weighted>
-9.9409

> <Gold.Chemscore.Internal_Hbond.Weighted>
0.0000

> <Gold.Chemscore.DEClash.Weighted>
1.9731

> <Gold.Chemscore.DEInternal.Weighted>
0.8416

> <Gold.Chemscore.Rot.Weighted>
5.4359

> <Gold.Chemscore.Internal.Correction.Weighted>
   9.000000E+99

> <Gold.Protein.RotatedTorsions>
[ 6907 6896 6895 6894 ] final -163.79 input  -60.11 | X-H torsion
[ 7974 7965 7964 7962 ] final  -19.30 input  175.53 | X-H torsion
[ 8008 7997 7996 7995 ] final  -90.76 input   59.86 | X-H torsion
[ 10167 10162 10161 10158 ] final -179.50 input  -65.29 | X-H torsion
[ 10718 10713 10712 10709 ] final  -20.37 input   66.30 | X-H torsion
[ 10763 10752 10751 10750 ] final  120.29 input  -60.55 | X-H torsion
[ 11005 11000 10999 10996 ] final    2.02 input  -57.11 | X-H torsion

> <Gold.Protein.ActiveResidues>
 VAL166  LYS551  ARG553  GLY616  TRP617  ASP618  TYR619  PRO620  LYS621  CYS622 
 ASP623  PHE694  ASN695  SER759  ASP760  ASP761  ALA762  ILE779  LEU786  VAL792 
 PHE793  MET794  SER795  GLU796  ALA797  LYS798  CYS799  TRP800  GLU811  SER814 

> <Gold.Protein.RotatedAtoms>
  151.4015  133.3756  159.2732 H   0  0  0  0  0  0  0  0  0  0  0  0  # atno 6907 bound_to 6896
  150.9430  134.8838  159.7634 H   0  0  0  0  0  0  0  0  0  0  0  0  # atno 6908 bound_to 6896
  152.5079  134.3967  159.9454 H   0  0  0  0  0  0  0  0  0  0  0  0  # atno 6909 bound_to 6896
  146.1848  140.4042  142.8480 H   0  0  0  0  0  0  0  0  0  0  0  0  # atno 7974 bound_to 7965
  154.7024  140.0527  157.0471 H   0  0  0  0  0  0  0  0  0  0  0  0  # atno 8008 bound_to 7997
  155.0666  140.3195  155.4625 H   0  0  0  0  0  0  0  0  0  0  0  0  # atno 8009 bound_to 7997
  156.2764  140.2089  156.5793 H   0  0  0  0  0  0  0  0  0  0  0  0  # atno 8010 bound_to 7997
  139.5383  144.2433  152.0842 H   0  0  0  0  0  0  0  0  0  0  0  0  # atno 10167 bound_to 10162
  156.5328  130.4659  149.6538 H   0  0  0  0  0  0  0  0  0  0  0  0  # atno 10718 bound_to 10713
  153.5962  135.3456  155.2929 H   0  0  0  0  0  0  0  0  0  0  0  0  # atno 10763 bound_to 10752
  154.8644  135.4216  154.2463 H   0  0  0  0  0  0  0  0  0  0  0  0  # atno 10764 bound_to 10752
  153.3281  135.7042  153.7043 H   0  0  0  0  0  0  0  0  0  0  0  0  # atno 10765 bound_to 10752
  140.6090  133.9766  155.8168 H   0  0  0  0  0  0  0  0  0  0  0  0  # atno 11005 bound_to 11000
  144.8378  140.6810  143.6249 LP  0  0  0  0  0  0  0  0  0  0  0  0  # atno 17320 bound_to 7965
  145.3970  139.1605  143.4198 LP  0  0  0  0  0  0  0  0  0  0  0  0  # atno 17321 bound_to 7965
  140.1908  144.4754  150.6480 LP  0  0  0  0  0  0  0  0  0  0  0  0  # atno 17342 bound_to 10162
  140.6601  143.2249  151.5875 LP  0  0  0  0  0  0  0  0  0  0  0  0  # atno 17343 bound_to 10162
  156.3044  130.7194  151.2073 LP  0  0  0  0  0  0  0  0  0  0  0  0  # atno 17370 bound_to 10713
  157.7419  131.0498  150.5065 LP  0  0  0  0  0  0  0  0  0  0  0  0  # atno 17371 bound_to 10713
  141.0821  134.0046  157.3370 LP  0  0  0  0  0  0  0  0  0  0  0  0  # atno 17394 bound_to 11000
  139.9200  135.0200  156.8029 LP  0  0  0  0  0  0  0  0  0  0  0  0  # atno 17395 bound_to 11000

$$$$
