AV-unprocessed.smi:1672|AV-procd|sdf|6708|dock5
  -GOLD-   22720 7453D 1   1.00000     0.00000
 Structure written by MMmdl.
 49 51  0  0  0  0  0  0  0  0  3 V2000
  156.7347  137.8063  162.0579 C   0  0  0  0  0  0  0  0  0  0  0  0
  155.3530  138.3337  162.4826 C   0  0  2  0  0  0  0  0  0  0  0  0
  154.2429  137.2759  162.3457 C   0  0  0  0  0  0  0  0  0  0  0  0
  153.8506  137.0294  160.8780 C   0  0  0  0  0  0  0  0  0  0  0  0
  153.4477  138.2954  160.2101 N   0  3  2  0  0  0  0  0  0  0  0  0
  152.9405  138.0960  158.8280 C   0  0  0  0  0  0  0  0  0  0  0  0
  152.6843  139.4257  158.0868 C   0  0  1  0  0  0  0  0  0  0  0  0
  153.1146  139.2937  156.7477 O   0  0  0  0  0  0  0  0  0  0  0  0
  151.1987  139.8425  158.0589 C   0  0  0  0  0  0  0  0  0  0  0  0
  150.9950  141.2666  157.7481 N   0  0  0  0  0  0  0  0  0  0  0  0
  150.3209  141.8703  156.7242 C   0  0  0  0  0  0  0  0  0  0  0  0
  149.5829  141.2067  155.6070 C   0  0  0  0  0  0  0  0  0  0  0  0
  149.0648  142.1305  154.6757 O   0  0  0  0  0  0  0  0  0  0  0  0
  150.4374  143.2162  156.9041 N   0  3  0  0  0  0  0  0  0  0  0  0
  151.2067  143.4785  158.0380 C   0  0  0  0  0  0  0  0  0  0  0  0
  151.6010  144.6827  158.6135 C   0  0  0  0  0  0  0  0  0  0  0  0
  152.3983  144.5984  159.7738 C   0  0  0  0  0  0  0  0  0  0  0  0
  152.7742  143.3529  160.3174 C   0  0  0  0  0  0  0  0  0  0  0  0
  152.3666  142.1388  159.7259 C   0  0  0  0  0  0  0  0  0  0  0  0
  151.5754  142.2309  158.5808 C   0  0  0  0  0  0  0  0  0  0  0  0
  154.5301  139.3113  160.2683 C   0  0  0  0  0  0  0  0  0  0  0  0
  154.9412  139.6072  161.7219 C   0  0  0  0  0  0  0  0  0  0  0  0
  156.7652  137.5291  161.0046 H   0  0  0  0  0  0  0  0  0  0  0  0
  157.0114  136.9257  162.6384 H   0  0  0  0  0  0  0  0  0  0  0  0
  157.5058  138.5594  162.2218 H   0  0  0  0  0  0  0  0  0  0  0  0
  155.4335  138.5915  163.5395 H   0  0  0  0  0  0  0  0  0  0  0  0
  154.5521  136.3407  162.8139 H   0  0  0  0  0  0  0  0  0  0  0  0
  153.3616  137.6104  162.8952 H   0  0  0  0  0  0  0  0  0  0  0  0
  154.6795  136.5751  160.3337 H   0  0  0  0  0  0  0  0  0  0  0  0
  153.0336  136.3098  160.8536 H   0  0  0  0  0  0  0  0  0  0  0  0
  153.6628  137.5174  158.2500 H   0  0  0  0  0  0  0  0  0  0  0  0
  152.0335  137.4923  158.8748 H   0  0  0  0  0  0  0  0  0  0  0  0
  153.2632  140.2281  158.5411 H   0  0  0  0  0  0  0  0  0  0  0  0
  152.7967  138.4720  156.4051 H   0  0  0  0  0  0  0  0  0  0  0  0
  150.6430  139.2536  157.3276 H   0  0  0  0  0  0  0  0  0  0  0  0
  150.7355  139.6430  159.0254 H   0  0  0  0  0  0  0  0  0  0  0  0
  150.2556  140.5246  155.0860 H   0  0  0  0  0  0  0  0  0  0  0  0
  148.7692  140.6031  156.0088 H   0  0  0  0  0  0  0  0  0  0  0  0
  148.9711  142.9677  155.1050 H   0  0  0  0  0  0  0  0  0  0  0  0
  151.3182  145.6383  158.1967 H   0  0  0  0  0  0  0  0  0  0  0  0
  152.7310  145.5070  160.2548 H   0  0  0  0  0  0  0  0  0  0  0  0
  153.3894  143.3283  161.2054 H   0  0  0  0  0  0  0  0  0  0  0  0
  152.6644  141.1907  160.1491 H   0  0  0  0  0  0  0  0  0  0  0  0
  155.3874  138.9676  159.6879 H   0  0  0  0  0  0  0  0  0  0  0  0
  154.1888  140.2372  159.8038 H   0  0  0  0  0  0  0  0  0  0  0  0
  154.1008  140.0744  162.2373 H   0  0  0  0  0  0  0  0  0  0  0  0
  155.7503  140.3381  161.7413 H   0  0  0  0  0  0  0  0  0  0  0  0
  152.6770  138.6772  160.7403 H   0  0  0  0  0  0  0  0  0  0  0  0
  150.0237  143.9047  156.2884 H   0  0  0  0  0  0  0  0  0  0  0  0
  1  2  1  0  0  0  0
  1 23  1  0  0  0  0
  1 24  1  0  0  0  0
  1 25  1  0  0  0  0
  2 22  1  0  0  0  0
  2  3  1  0  0  0  0
  2 26  1  0  0  0  0
  3  4  1  0  0  0  0
  3 27  1  0  0  0  0
  3 28  1  0  0  0  0
  4  5  1  0  0  0  0
  4 29  1  0  0  0  0
  4 30  1  0  0  0  0
  5  6  1  0  0  0  0
  5 21  1  0  0  0  0
  5 48  1  0  0  0  0
  6  7  1  0  0  0  0
  6 31  1  0  0  0  0
  6 32  1  0  0  0  0
  7  8  1  0  0  0  0
  7  9  1  0  0  0  0
  7 33  1  0  0  0  0
  8 34  1  0  0  0  0
  9 10  1  0  0  0  0
  9 35  1  0  0  0  0
  9 36  1  0  0  0  0
 10 20  1  0  0  0  0
 10 11  1  0  0  0  0
 11 12  1  0  0  0  0
 11 14  2  0  0  0  0
 12 13  1  0  0  0  0
 12 37  1  0  0  0  0
 12 38  1  0  0  0  0
 13 39  1  0  0  0  0
 14 15  1  0  0  0  0
 14 49  1  0  0  0  0
 15 20  2  0  0  0  0
 15 16  1  0  0  0  0
 16 17  2  0  0  0  0
 16 40  1  0  0  0  0
 17 18  1  0  0  0  0
 17 41  1  0  0  0  0
 18 19  2  0  0  0  0
 18 42  1  0  0  0  0
 19 20  1  0  0  0  0
 19 43  1  0  0  0  0
 21 22  1  0  0  0  0
 21 44  1  0  0  0  0
 21 45  1  0  0  0  0
 22 46  1  0  0  0  0
 22 47  1  0  0  0  0
M  CHG  1   5   1
M  CHG  1  14   1
M  END
> <s_m_source_file>
AV-unprocessed.smi

> <i_m_source_file_index>
1672

> <i_lp_mmshare_version>
43012

> <i_f3d_flags>
0

> <s_epik_input>
W0NIM11bQ0hdMVtDSDJdW0NIMl1OKFtDSDJdW0NIMl0xKVtDSDJdW0NASF0oW09IXSlbQ0gyXW4oYyhuMilbQ0gyXVtPSF0pYyhjMjMpW2NIXVtjSF1bY0hdW2NIXTM=

> <s_epik_cmdline>
J2VwaWtfcHl0aG9uJywgJy1waCcsICc3LjAnLCAnLXRuJywgJzgnLCAnLW1hJywgJzIwMCcsICctbWV0YWxfYmluZGluZycsICctaW1hZScsICc8aW5maWxlLm1hZT4nLCAnLW9tYWUnLCAnPG91dGZpbGUubWFlPic=

> <r_epik_Ionization_Penalty>
1.51642

> <r_epik_Ionization_Penalty_Charging>
1.51557

> <r_epik_Ionization_Penalty_Neutral>
0.000856474

> <r_epik_State_Penalty>
1.6048

> <r_epik_Charging_Adjusted_Penalty>
3.12037

> <i_epik_Tot_Q>
2

> <i_epik_Tot_abs_Q>
2

> <r_epik_Metal_State_Penalty>
5.65673

> <b_epik_Metal_Only>
0

> <s_lp_Force_Field>
OPLS_2005

> <r_lp_Energy>
31.8272

> <b_lp_Chiralities_Consistent>
1

> <s_lp_Variant>
AV-unprocessed.smi:1672-8

> <Gold.Version>
5.8.1

> <Gold.Id.Protein>
6NUR|6NUR_protein|mol2

> <Gold.PLP.Fitness>
56.9619

> <Gold.PLP.PLP>
-46.1359

> <Gold.PLP.part.hbond>
-3.7945

> <Gold.PLP.part.metal>
0.0000

> <Gold.PLP.part.buried>
-6.1211

> <Gold.PLP.part.nonpolar>
-37.3219

> <Gold.PLP.part.repulsive>
0.1031

> <Gold.PLP.ligand.clash>
0.0000

> <Gold.PLP.ligand.torsion>
0.7976

> <Gold.PLP.Chemscore.Hbond>
4.1275

> <Gold.PLP.Chemscore.CHOScore>
0.0000

> <Gold.PLP.Chemscore.Metal>
0.0000

> <Gold.Chemscore.Hbonds>
donor molecule, donor type, donor heavy atom, donor atom, acceptor molecule, acceptor atom, score
      L1  H    13    39       P1  8028  1.00
      L1  H    14    49       P1  8028  1.95
      P1  H  7997  8008       L1     8  1.00

> <Gold.PLP.Chemscore.Internal.Correction>
0.0387

> <Gold.Rescore>
     Score         DG    S(hbond)    S(metal)    S(lipo)     H(rot)  DE(clash)    DE(int)     intcor
     22.16     -22.72       2.90        0.00     129.33       2.96       0.03       0.53       ----

> <Gold.Chemscore.Fitness>
22.1627

> <Gold.Chemscore.DG>
-22.7239

> <Gold.Chemscore.ZeroCoef>
-5.4800

> <Gold.Chemscore.Hbond>
2.8978

> <Gold.Chemscore.Metal>
0.0000

> <Gold.Chemscore.Lipo>
129.3269

> <Gold.Chemscore.Internal_Hbond>
0.0000

> <Gold.Chemscore.DEClash>
0.0280

> <Gold.Chemscore.DEInternal>
0.5332

> <Gold.Chemscore.Rot>
2.9555

> <Gold.Chemscore.Internal.Correction>
   9.000000E+99

> <Gold.Chemscore.Hbonds>
donor molecule, donor type, donor heavy atom, donor atom, acceptor molecule, acceptor atom, score
      L1  H    13    39       P1  8028  1.00
      L1  H    14    49       P1  8028  0.91
      P1  H  7997  8008       L1     8  0.86
      P1  H  8011  8017       L1    13  0.01

> <Gold.Chemscore.Hbond.Weighted>
-9.6787

> <Gold.Chemscore.Metal.Weighted>
-0.0000

> <Gold.Chemscore.Lipo.Weighted>
-15.1313

> <Gold.Chemscore.Internal_Hbond.Weighted>
0.0000

> <Gold.Chemscore.DEClash.Weighted>
0.0280

> <Gold.Chemscore.DEInternal.Weighted>
0.5332

> <Gold.Chemscore.Rot.Weighted>
7.5660

> <Gold.Chemscore.Internal.Correction.Weighted>
   9.000000E+99

> <Gold.Protein.RotatedTorsions>
[ 6907 6896 6895 6894 ] final   -0.82 input  -60.11 | X-H torsion
[ 7974 7965 7964 7962 ] final   87.13 input  175.53 | X-H torsion
[ 8008 7997 7996 7995 ] final  -40.73 input   59.86 | X-H torsion
[ 10167 10162 10161 10158 ] final  149.88 input  -65.29 | X-H torsion
[ 10718 10713 10712 10709 ] final   62.47 input   66.30 | X-H torsion
[ 10763 10752 10751 10750 ] final   87.97 input  -60.55 | X-H torsion
[ 11005 11000 10999 10996 ] final   27.54 input  -57.11 | X-H torsion

> <Gold.Protein.ActiveResidues>
 VAL166  LYS551  ARG553  GLY616  TRP617  ASP618  TYR619  PRO620  LYS621  CYS622 
 ASP623  PHE694  ASN695  SER759  ASP760  ASP761  ALA762  ILE779  LEU786  VAL792 
 PHE793  MET794  SER795  GLU796  ALA797  LYS798  CYS799  TRP800  GLU811  SER814 

> <Gold.Protein.RotatedAtoms>
  151.5561  135.1066  159.9961 H   0  0  0  0  0  0  0  0  0  0  0  0  # atno 6907 bound_to 6896
  152.4469  133.7549  159.6725 H   0  0  0  0  0  0  0  0  0  0  0  0  # atno 6908 bound_to 6896
  150.8386  133.7904  159.3093 H   0  0  0  0  0  0  0  0  0  0  0  0  # atno 6909 bound_to 6896
  145.5631  139.2306  143.2448 H   0  0  0  0  0  0  0  0  0  0  0  0  # atno 7974 bound_to 7965
  154.4009  140.1518  156.3074 H   0  0  0  0  0  0  0  0  0  0  0  0  # atno 8008 bound_to 7997
  155.8646  140.3452  155.5758 H   0  0  0  0  0  0  0  0  0  0  0  0  # atno 8009 bound_to 7997
  155.7842  140.0847  157.2033 H   0  0  0  0  0  0  0  0  0  0  0  0  # atno 8010 bound_to 7997
  139.4856  144.5567  151.7305 H   0  0  0  0  0  0  0  0  0  0  0  0  # atno 10167 bound_to 10162
  157.5903  130.9052  149.9592 H   0  0  0  0  0  0  0  0  0  0  0  0  # atno 10718 bound_to 10713
  153.1721  135.4524  154.9916 H   0  0  0  0  0  0  0  0  0  0  0  0  # atno 10763 bound_to 10752
  154.7973  135.3242  154.7638 H   0  0  0  0  0  0  0  0  0  0  0  0  # atno 10764 bound_to 10752
  153.8113  135.6954  153.4895 H   0  0  0  0  0  0  0  0  0  0  0  0  # atno 10765 bound_to 10752
  140.3252  134.2499  155.7711 H   0  0  0  0  0  0  0  0  0  0  0  0  # atno 11005 bound_to 11000
  146.1837  140.6456  142.9177 LP  0  0  0  0  0  0  0  0  0  0  0  0  # atno 17320 bound_to 7965
  144.7473  140.5102  143.6826 LP  0  0  0  0  0  0  0  0  0  0  0  0  # atno 17321 bound_to 7965
  140.5129  144.0997  150.6000 LP  0  0  0  0  0  0  0  0  0  0  0  0  # atno 17342 bound_to 10162
  140.3929  143.2743  152.0039 LP  0  0  0  0  0  0  0  0  0  0  0  0  # atno 17343 bound_to 10162
  156.0957  130.3659  150.0312 LP  0  0  0  0  0  0  0  0  0  0  0  0  # atno 17370 bound_to 10713
  156.8436  130.9434  151.3630 LP  0  0  0  0  0  0  0  0  0  0  0  0  # atno 17371 bound_to 10713
  141.2077  133.7798  157.0103 LP  0  0  0  0  0  0  0  0  0  0  0  0  # atno 17394 bound_to 11000
  140.0908  134.9594  157.1772 LP  0  0  0  0  0  0  0  0  0  0  0  0  # atno 17395 bound_to 11000

$$$$
