AV-unprocessed.smi:1234|AV-procd|sdf|5173|dock3
  -GOLD-   22720 4243D 1   1.00000     0.00000
 Structure written by MMmdl.
 33 34  0  0  0  0  0  0  0  0  1 V2000
  146.2902  139.2779  153.7831 O   0  0  0  0  0  0  0  0  0  0  0  0
  147.1483  138.5736  153.2499 C   0  0  0  0  0  0  0  0  0  0  0  0
  146.8600  137.5587  152.4225 N   0  0  0  0  0  0  0  0  0  0  0  0
  145.5134  137.1594  152.0286 C   0  0  0  0  0  0  0  0  0  0  0  0
  145.5357  135.9367  151.0890 C   0  0  0  0  0  0  0  0  0  0  0  0
  145.8699  134.6169  151.8047 C   0  0  0  0  0  0  0  0  0  0  0  0
  146.6105  134.6235  152.7893 O   0  0  0  0  0  0  0  0  0  0  0  0
  145.3337  133.4768  151.3222 N   0  0  0  0  0  0  0  0  0  0  0  0
  145.5576  132.1331  151.8551 C   0  0  0  0  0  0  0  0  0  0  0  0
  144.9365  131.1759  150.8367 C   0  0  0  0  0  0  0  0  0  0  0  0
  143.8723  132.0113  150.1385 C   0  0  0  0  0  0  0  0  0  0  0  0
  144.4327  133.4331  150.1720 C   0  0  0  0  0  0  0  0  0  0  0  0
  148.4765  138.7097  153.4105 N   0  0  0  0  0  0  0  0  0  0  0  0
  149.1741  139.6708  154.1891 C   0  0  0  0  0  0  0  0  0  0  0  0
  150.4173  139.4861  154.6608 N   0  0  0  0  0  0  0  0  0  0  0  0
  150.8628  140.5787  155.3930 N   0  0  0  0  0  0  0  0  0  0  0  0
  149.9400  141.5432  155.4444 C   0  0  0  0  0  0  0  0  0  0  0  0
  148.4365  141.2124  154.6012 S   0  0  0  0  0  0  0  0  0  0  0  0
  147.6247  137.0308  152.0279 H   0  0  0  0  0  0  0  0  0  0  0  0
  144.9131  136.9547  152.9172 H   0  0  0  0  0  0  0  0  0  0  0  0
  145.0490  138.0099  151.5289 H   0  0  0  0  0  0  0  0  0  0  0  0
  144.5641  135.8339  150.6048 H   0  0  0  0  0  0  0  0  0  0  0  0
  146.2702  136.1000  150.2994 H   0  0  0  0  0  0  0  0  0  0  0  0
  146.6163  131.9147  152.0001 H   0  0  0  0  0  0  0  0  0  0  0  0
  145.0545  132.0424  152.8190 H   0  0  0  0  0  0  0  0  0  0  0  0
  145.6930  130.8717  150.1120 H   0  0  0  0  0  0  0  0  0  0  0  0
  144.5327  130.2733  151.2960 H   0  0  0  0  0  0  0  0  0  0  0  0
  143.6572  131.6647  149.1273 H   0  0  0  0  0  0  0  0  0  0  0  0
  142.9441  131.9707  150.7101 H   0  0  0  0  0  0  0  0  0  0  0  0
  143.6336  134.1722  150.2475 H   0  0  0  0  0  0  0  0  0  0  0  0
  145.0039  133.6425  149.2663 H   0  0  0  0  0  0  0  0  0  0  0  0
  149.0580  138.0554  152.9081 H   0  0  0  0  0  0  0  0  0  0  0  0
  150.1466  142.4563  155.9829 H   0  0  0  0  0  0  0  0  0  0  0  0
  1  2  2  0  0  0  0
  2  3  1  0  0  0  0
  2 13  1  0  0  0  0
  3  4  1  0  0  0  0
  3 19  1  0  0  0  0
  4  5  1  0  0  0  0
  4 20  1  0  0  0  0
  4 21  1  0  0  0  0
  5  6  1  0  0  0  0
  5 22  1  0  0  0  0
  5 23  1  0  0  0  0
  6  7  2  0  0  0  0
  6  8  1  0  0  0  0
  8 12  1  0  0  0  0
  8  9  1  0  0  0  0
  9 10  1  0  0  0  0
  9 24  1  0  0  0  0
  9 25  1  0  0  0  0
 10 11  1  0  0  0  0
 10 26  1  0  0  0  0
 10 27  1  0  0  0  0
 11 12  1  0  0  0  0
 11 28  1  0  0  0  0
 11 29  1  0  0  0  0
 12 30  1  0  0  0  0
 12 31  1  0  0  0  0
 13 14  1  0  0  0  0
 13 32  1  0  0  0  0
 14 18  1  0  0  0  0
 14 15  2  0  0  0  0
 15 16  1  0  0  0  0
 16 17  2  0  0  0  0
 17 18  1  0  0  0  0
 17 33  1  0  0  0  0
M  END
> <s_m_source_file>
AV-unprocessed.smi

> <i_m_source_file_index>
1234

> <i_lp_mmshare_version>
43012

> <i_f3d_flags>
0

> <s_epik_input>
czFbY0hdbm5jMVtOSF1DKD1PKVtOSF1bQ0gyXVtDSDJdQyg9TylOMltDSDJdW0NIMl1bQ0gyXVtDSDJdMg==

> <s_epik_cmdline>
J2VwaWtfcHl0aG9uJywgJy1waCcsICc3LjAnLCAnLXRuJywgJzgnLCAnLW1hJywgJzIwMCcsICctbWV0YWxfYmluZGluZycsICctaW1hZScsICc8aW5maWxlLm1hZT4nLCAnLW9tYWUnLCAnPG91dGZpbGUubWFlPic=

> <r_lp_tautomer_probability>
1

> <r_epik_Ionization_Penalty>
0.00246339

> <r_epik_Ionization_Penalty_Charging>
0

> <r_epik_Ionization_Penalty_Neutral>
0.00246339

> <r_epik_State_Penalty>
-0

> <r_epik_Charging_Adjusted_Penalty>
0

> <i_epik_Tot_Q>
0

> <i_epik_Tot_abs_Q>
0

> <r_epik_Metal_State_Penalty>
0.351039

> <b_epik_Metal_Only>
0

> <s_lp_Force_Field>
OPLS_2005

> <r_lp_Energy>
26.1559

> <b_lp_Chiralities_Consistent>
1

> <s_lp_Variant>
AV-unprocessed.smi:1234-1

> <Gold.Version>
5.8.1

> <Gold.Id.Protein>
6NUR|6NUR_protein|mol2

> <Gold.PLP.Fitness>
40.0831

> <Gold.PLP.PLP>
-32.9667

> <Gold.PLP.part.hbond>
-4.7523

> <Gold.PLP.part.metal>
0.0000

> <Gold.PLP.part.buried>
-3.4579

> <Gold.PLP.part.nonpolar>
-27.0299

> <Gold.PLP.part.repulsive>
1.7788

> <Gold.PLP.ligand.clash>
0.0000

> <Gold.PLP.ligand.torsion>
0.5415

> <Gold.PLP.Chemscore.Hbond>
1.7862

> <Gold.PLP.Chemscore.CHOScore>
0.9435

> <Gold.PLP.Chemscore.Metal>
0.0000

> <Gold.Chemscore.Hbonds>
donor molecule, donor type, donor heavy atom, donor atom, acceptor molecule, acceptor atom, score
      L1  H     3    19       P1  7948  1.00
      L1  H    13    32       P1  7948  0.76
      L1  C    17    33       P1  8028  0.73

> <Gold.PLP.Chemscore.Internal.Correction>
0.0100

> <Gold.Rescore>
     Score         DG    S(hbond)    S(metal)    S(lipo)     H(rot)  DE(clash)    DE(int)     intcor
     12.45     -14.53       1.78        0.00      65.66       1.79       0.32       1.76       ----

> <Gold.Chemscore.Fitness>
12.4481

> <Gold.Chemscore.DG>
-14.5304

> <Gold.Chemscore.ZeroCoef>
-5.4800

> <Gold.Chemscore.Hbond>
1.7789

> <Gold.Chemscore.Metal>
0.0000

> <Gold.Chemscore.Lipo>
65.6621

> <Gold.Chemscore.Internal_Hbond>
0.0000

> <Gold.Chemscore.DEClash>
0.3177

> <Gold.Chemscore.DEInternal>
1.7645

> <Gold.Chemscore.Rot>
1.7865

> <Gold.Chemscore.Internal.Correction>
   9.000000E+99

> <Gold.Chemscore.Hbonds>
donor molecule, donor type, donor heavy atom, donor atom, acceptor molecule, acceptor atom, score
      L1  H     3    19       P1  7948  0.94
      L1  H    13    32       P1  7948  0.72

> <Gold.Chemscore.Hbond.Weighted>
-5.9414

> <Gold.Chemscore.Metal.Weighted>
-0.0000

> <Gold.Chemscore.Lipo.Weighted>
-7.6825

> <Gold.Chemscore.Internal_Hbond.Weighted>
0.0000

> <Gold.Chemscore.DEClash.Weighted>
0.3177

> <Gold.Chemscore.DEInternal.Weighted>
1.7645

> <Gold.Chemscore.Rot.Weighted>
4.5735

> <Gold.Chemscore.Internal.Correction.Weighted>
   9.000000E+99

> <Gold.Protein.RotatedTorsions>
[ 6907 6896 6895 6894 ] final -113.97 input  -60.11 | X-H torsion
[ 7974 7965 7964 7962 ] final -117.46 input  175.53 | X-H torsion
[ 8008 7997 7996 7995 ] final  125.83 input   59.86 | X-H torsion
[ 10167 10162 10161 10158 ] final    7.41 input  -65.29 | X-H torsion
[ 10718 10713 10712 10709 ] final  -11.21 input   66.30 | X-H torsion
[ 10763 10752 10751 10750 ] final  103.61 input  -60.55 | X-H torsion
[ 11005 11000 10999 10996 ] final  167.82 input  -57.11 | X-H torsion

> <Gold.Protein.ActiveResidues>
 VAL166  LYS551  ARG553  GLY616  TRP617  ASP618  TYR619  PRO620  LYS621  CYS622 
 ASP623  PHE694  ASN695  SER759  ASP760  ASP761  ALA762  ILE779  LEU786  VAL792 
 PHE793  MET794  SER795  GLU796  ALA797  LYS798  CYS799  TRP800  GLU811  SER814 

> <Gold.Protein.RotatedAtoms>
  150.7868  133.8868  159.3301 H   0  0  0  0  0  0  0  0  0  0  0  0  # atno 6907 bound_to 6896
  151.6717  135.0973  160.0208 H   0  0  0  0  0  0  0  0  0  0  0  0  # atno 6908 bound_to 6896
  152.3933  133.6672  159.6291 H   0  0  0  0  0  0  0  0  0  0  0  0  # atno 6909 bound_to 6896
  145.0850  140.8451  143.4016 H   0  0  0  0  0  0  0  0  0  0  0  0  # atno 7974 bound_to 7965
  156.2846  140.2707  156.2013 H   0  0  0  0  0  0  0  0  0  0  0  0  # atno 8008 bound_to 7997
  155.0359  140.0386  157.2509 H   0  0  0  0  0  0  0  0  0  0  0  0  # atno 8009 bound_to 7997
  154.7315  140.2707  155.6457 H   0  0  0  0  0  0  0  0  0  0  0  0  # atno 8010 bound_to 7997
  140.6373  143.7856  150.7378 H   0  0  0  0  0  0  0  0  0  0  0  0  # atno 10167 bound_to 10162
  156.6623  130.4985  149.6026 H   0  0  0  0  0  0  0  0  0  0  0  0  # atno 10718 bound_to 10713
  153.3550  135.3971  155.1675 H   0  0  0  0  0  0  0  0  0  0  0  0  # atno 10763 bound_to 10752
  154.8669  135.3666  154.5173 H   0  0  0  0  0  0  0  0  0  0  0  0  # atno 10764 bound_to 10752
  153.5627  135.7080  153.5600 H   0  0  0  0  0  0  0  0  0  0  0  0  # atno 10765 bound_to 10752
  140.2808  134.7752  157.3756 H   0  0  0  0  0  0  0  0  0  0  0  0  # atno 11005 bound_to 11000
  145.1133  139.2742  143.5626 LP  0  0  0  0  0  0  0  0  0  0  0  0  # atno 17320 bound_to 7965
  146.3531  140.0735  142.8622 LP  0  0  0  0  0  0  0  0  0  0  0  0  # atno 17321 bound_to 7965
  140.1480  143.4382  152.2150 LP  0  0  0  0  0  0  0  0  0  0  0  0  # atno 17342 bound_to 10162
  139.5583  144.7388  151.4229 LP  0  0  0  0  0  0  0  0  0  0  0  0  # atno 17343 bound_to 10162
  156.2001  130.6614  151.1158 LP  0  0  0  0  0  0  0  0  0  0  0  0  # atno 17370 bound_to 10713
  157.7105  131.0736  150.6516 LP  0  0  0  0  0  0  0  0  0  0  0  0  # atno 17371 bound_to 10713
  140.1285  134.5126  155.8125 LP  0  0  0  0  0  0  0  0  0  0  0  0  # atno 17394 bound_to 11000
  141.2163  133.6781  156.6996 LP  0  0  0  0  0  0  0  0  0  0  0  0  # atno 17395 bound_to 11000

$$$$
