AV-unprocessed.smi:35|AV-procd|sdf|263|dock4
  -GOLD-   2262016 33D 1   1.00000     0.00000
 Structure written by MMmdl.
 28 29  0  0  0  0  0  0  0  0  2 V2000
  152.7830  141.0662  158.7548 O   0  0  0  0  0  0  0  0  0  0  0  0
  152.0884  141.0134  157.7416 C   0  0  0  0  0  0  0  0  0  0  0  0
  152.3184  140.1268  156.7309 N   0  5  0  0  0  0  0  0  0  0  0  0
  151.5378  140.0652  155.6123 C   0  0  0  0  0  0  0  0  0  0  0  0
  151.7501  139.2792  154.6886 O   0  0  0  0  0  0  0  0  0  0  0  0
  150.4242  140.9438  155.4962 N   0  0  0  0  0  0  0  0  0  0  0  0
  149.5662  140.8698  154.2443 C   0  0  2  0  0  0  0  0  0  0  0  0
  148.6788  141.9508  154.2205 O   0  0  0  0  0  0  0  0  0  0  0  0
  147.4125  141.5432  154.7298 C   0  0  1  0  0  0  0  0  0  0  0  0
  146.3075  142.5449  154.3527 C   0  0  0  0  0  0  0  0  0  0  0  0
  145.0383  141.9930  154.6324 O   0  0  0  0  0  0  0  0  0  0  0  0
  147.2727  140.1398  154.1324 C   0  0  1  0  0  0  0  0  0  0  0  0
  146.8212  140.2130  152.7893 O   0  0  0  0  0  0  0  0  0  0  0  0
  148.6956  139.5933  154.2472 C   0  0  1  0  0  0  0  0  0  0  0  0
  149.0182  138.6901  153.2062 O   0  0  0  0  0  0  0  0  0  0  0  0
  150.1850  141.8746  156.4962 C   0  0  0  0  0  0  0  0  0  0  0  0
  150.9648  141.9339  157.5945 C   0  0  0  0  0  0  0  0  0  0  0  0
  150.5000  143.3099  158.9427 Br  0  0  0  0  0  0  0  0  0  0  0  0
  150.2653  140.9463  153.4096 H   0  0  0  0  0  0  0  0  0  0  0  0
  147.4696  141.4437  155.8154 H   0  0  0  0  0  0  0  0  0  0  0  0
  146.4316  143.4926  154.8775 H   0  0  0  0  0  0  0  0  0  0  0  0
  146.3423  142.7566  153.2837 H   0  0  0  0  0  0  0  0  0  0  0  0
  144.8115  141.3950  153.9368 H   0  0  0  0  0  0  0  0  0  0  0  0
  146.5649  139.5299  154.6944 H   0  0  0  0  0  0  0  0  0  0  0  0
  145.8842  140.3377  152.8011 H   0  0  0  0  0  0  0  0  0  0  0  0
  148.8043  139.0836  155.2059 H   0  0  0  0  0  0  0  0  0  0  0  0
  148.9345  139.1502  152.3838 H   0  0  0  0  0  0  0  0  0  0  0  0
  149.3684  142.5752  156.4146 H   0  0  0  0  0  0  0  0  0  0  0  0
  1  2  2  0  0  0  0
  2 17  1  0  0  0  0
  2  3  1  0  0  0  0
  3  4  1  0  0  0  0
  4  5  2  0  0  0  0
  4  6  1  0  0  0  0
  6  7  1  0  0  0  0
  6 16  1  0  0  0  0
  7 14  1  0  0  0  0
  7  8  1  0  0  0  0
  7 19  1  0  0  0  0
  8  9  1  0  0  0  0
  9 10  1  0  0  0  0
  9 12  1  0  0  0  0
  9 20  1  0  0  0  0
 10 11  1  0  0  0  0
 10 21  1  0  0  0  0
 10 22  1  0  0  0  0
 11 23  1  0  0  0  0
 12 13  1  0  0  0  0
 12 14  1  0  0  0  0
 12 24  1  0  0  0  0
 13 25  1  0  0  0  0
 14 15  1  0  0  0  0
 14 26  1  0  0  0  0
 15 27  1  0  0  0  0
 16 17  2  0  0  0  0
 16 28  1  0  0  0  0
 17 18  1  0  0  0  0
M  CHG  1   3  -1
M  END
> <s_m_source_file>
AV-unprocessed.smi

> <i_m_source_file_index>
35

> <i_lp_mmshare_version>
43012

> <i_f3d_flags>
0

> <s_epik_input>
Tz1jMVtuSF1jKD1PKW4oW2NIXWMxQnIpW0NAQEhdMk9bQ0BASF0oW0NIMl1bT0hdKVtDQEBIXShbT0hdKVtDQEhdMltPSF0=

> <s_epik_cmdline>
J2VwaWtfcHl0aG9uJywgJy1waCcsICc3LjAnLCAnLXRuJywgJzgnLCAnLW1hJywgJzIwMCcsICctbWV0YWxfYmluZGluZycsICctaW1hZScsICc8aW5maWxlLm1hZT4nLCAnLW9tYWUnLCAnPG91dGZpbGUubWFlPic=

> <r_epik_Ionization_Penalty>
1.06112

> <r_epik_Ionization_Penalty_Charging>
2.1796e-09

> <r_epik_Ionization_Penalty_Neutral>
1.06112

> <r_epik_State_Penalty>
1.11484

> <r_epik_Charging_Adjusted_Penalty>
1.11484

> <i_epik_Tot_Q>
-1

> <i_epik_Tot_abs_Q>
1

> <r_epik_Metal_State_Penalty>
0.0032876

> <b_epik_Metal_Only>
0

> <s_epik_Chemistry_Notes>
This compound contains an acetal/aminal-like group ( X-CH(R)-Y where X, Y are N, S, or O) that may be acid/base labile, releasing an aldehyde.

> <s_lp_Force_Field>
OPLS_2005

> <r_lp_Energy>
42.0638

> <b_lp_Chiralities_Consistent>
1

> <s_lp_Variant>
AV-unprocessed.smi:35-17

> <Gold.Version>
5.8.1

> <Gold.Id.Protein>
6NUR|6NUR_protein|mol2

> <Gold.PLP.Fitness>
48.8339

> <Gold.PLP.PLP>
-31.6799

> <Gold.PLP.part.hbond>
-6.9089

> <Gold.PLP.part.metal>
0.0000

> <Gold.PLP.part.buried>
-0.6612

> <Gold.PLP.part.nonpolar>
-23.4253

> <Gold.PLP.part.repulsive>
0.4032

> <Gold.PLP.ligand.clash>
0.0000

> <Gold.PLP.ligand.torsion>
0.2447

> <Gold.PLP.Chemscore.Hbond>
4.8742

> <Gold.PLP.Chemscore.CHOScore>
1.0000

> <Gold.PLP.Chemscore.Metal>
0.0000

> <Gold.Chemscore.Hbonds>
donor molecule, donor type, donor heavy atom, donor atom, acceptor molecule, acceptor atom, score
      L1  H    11    23       P1 10175  0.98
      L1  H    13    25       P1 10175  0.52
      L1  H    15    27       P1  7957  1.00
      P1  H  7989  7998       L1     5  0.35
      P1  H  7997  8009       L1     3  1.98
      P1  H  8011  8017       L1     8  0.03
      L1  C    16    28       P1  8028  1.00

> <Gold.PLP.Chemscore.Internal.Correction>
0.0210

> <Gold.Rescore>
     Score         DG    S(hbond)    S(metal)    S(lipo)     H(rot)  DE(clash)    DE(int)     intcor
     10.10     -10.44       2.85        0.00      40.26       3.63       0.08       0.27       ----

> <Gold.Chemscore.Fitness>
10.0973

> <Gold.Chemscore.DG>
-10.4393

> <Gold.Chemscore.ZeroCoef>
-5.4800

> <Gold.Chemscore.Hbond>
2.8539

> <Gold.Chemscore.Metal>
0.0000

> <Gold.Chemscore.Lipo>
40.2582

> <Gold.Chemscore.Internal_Hbond>
0.0000

> <Gold.Chemscore.DEClash>
0.0754

> <Gold.Chemscore.DEInternal>
0.2666

> <Gold.Chemscore.Rot>
3.6261

> <Gold.Chemscore.Internal.Correction>
   9.000000E+99

> <Gold.Chemscore.Hbonds>
donor molecule, donor type, donor heavy atom, donor atom, acceptor molecule, acceptor atom, score
      L1  H    11    23       P1 10175  0.32
      L1  H    13    25       P1 10175  0.43
      L1  H    15    27       P1  7957  0.95
      P1  H  7989  7998       L1     5  0.01
      P1  H  7997  8009       L1     3  0.40

> <Gold.Chemscore.Hbond.Weighted>
-9.5319

> <Gold.Chemscore.Metal.Weighted>
-0.0000

> <Gold.Chemscore.Lipo.Weighted>
-4.7102

> <Gold.Chemscore.Internal_Hbond.Weighted>
0.0000

> <Gold.Chemscore.DEClash.Weighted>
0.0754

> <Gold.Chemscore.DEInternal.Weighted>
0.2666

> <Gold.Chemscore.Rot.Weighted>
9.2828

> <Gold.Chemscore.Internal.Correction.Weighted>
   9.000000E+99

> <Gold.Protein.RotatedTorsions>
[ 6907 6896 6895 6894 ] final   90.60 input  -60.11 | X-H torsion
[ 7974 7965 7964 7962 ] final  138.82 input  175.53 | X-H torsion
[ 8008 7997 7996 7995 ] final -174.80 input   59.86 | X-H torsion
[ 10167 10162 10161 10158 ] final  176.41 input  -65.29 | X-H torsion
[ 10718 10713 10712 10709 ] final   19.49 input   66.30 | X-H torsion
[ 10763 10752 10751 10750 ] final -161.91 input  -60.55 | X-H torsion
[ 11005 11000 10999 10996 ] final  159.26 input  -57.11 | X-H torsion

> <Gold.Protein.ActiveResidues>
 VAL166  LYS551  ARG553  GLY616  TRP617  ASP618  TYR619  PRO620  LYS621  CYS622 
 ASP623  PHE694  ASN695  SER759  ASP760  ASP761  ALA762  ILE779  LEU786  VAL792 
 PHE793  MET794  SER795  GLU796  ALA797  LYS798  CYS799  TRP800  GLU811  SER814 

> <Gold.Protein.RotatedAtoms>
  152.5445  134.1787  159.8626 H   0  0  0  0  0  0  0  0  0  0  0  0  # atno 6907 bound_to 6896
  151.1791  133.4729  159.2601 H   0  0  0  0  0  0  0  0  0  0  0  0  # atno 6908 bound_to 6896
  151.1197  135.0084  159.8588 H   0  0  0  0  0  0  0  0  0  0  0  0  # atno 6909 bound_to 6896
  144.9336  139.5016  143.5606 H   0  0  0  0  0  0  0  0  0  0  0  0  # atno 7974 bound_to 7965
  155.9746  140.1169  157.0782 H   0  0  0  0  0  0  0  0  0  0  0  0  # atno 8008 bound_to 7997
  154.4165  140.1156  156.5420 H   0  0  0  0  0  0  0  0  0  0  0  0  # atno 8009 bound_to 7997
  155.6552  140.3473  155.4764 H   0  0  0  0  0  0  0  0  0  0  0  0  # atno 8010 bound_to 7997
  139.5213  144.2919  152.0456 H   0  0  0  0  0  0  0  0  0  0  0  0  # atno 10167 bound_to 10162
  157.1112  130.6509  149.5898 H   0  0  0  0  0  0  0  0  0  0  0  0  # atno 10718 bound_to 10713
  154.7261  135.3036  154.8968 H   0  0  0  0  0  0  0  0  0  0  0  0  # atno 10763 bound_to 10752
  153.9825  135.6728  153.4755 H   0  0  0  0  0  0  0  0  0  0  0  0  # atno 10764 bound_to 10752
  153.0876  135.4976  154.8547 H   0  0  0  0  0  0  0  0  0  0  0  0  # atno 10765 bound_to 10752
  140.1944  134.8384  157.2948 H   0  0  0  0  0  0  0  0  0  0  0  0  # atno 11005 bound_to 11000
  146.3257  139.8305  142.8909 LP  0  0  0  0  0  0  0  0  0  0  0  0  # atno 17320 bound_to 7965
  145.3102  141.0218  143.3559 LP  0  0  0  0  0  0  0  0  0  0  0  0  # atno 17321 bound_to 7965
  140.2370  144.4309  150.6276 LP  0  0  0  0  0  0  0  0  0  0  0  0  # atno 17342 bound_to 10162
  140.6317  143.2188  151.6482 LP  0  0  0  0  0  0  0  0  0  0  0  0  # atno 17343 bound_to 10162
  155.9850  130.4877  150.7010 LP  0  0  0  0  0  0  0  0  0  0  0  0  # atno 17370 bound_to 10713
  157.4557  131.0877  151.0799 LP  0  0  0  0  0  0  0  0  0  0  0  0  # atno 17371 bound_to 10713
  140.2123  134.4123  155.7606 LP  0  0  0  0  0  0  0  0  0  0  0  0  # atno 17394 bound_to 11000
  141.2227  133.7124  156.8358 LP  0  0  0  0  0  0  0  0  0  0  0  0  # atno 17395 bound_to 11000

$$$$
