AV-unprocessed.smi:109|AV-procd|sdf|1041|dock2
  -GOLD-   2262018 73D 1   1.00000     0.00000
 Structure written by MMmdl.
 58 61  0  0  0  0  0  0  0  0  1 V2000
  150.3445  138.0512  159.1278 O   0  0  0  0  0  0  0  0  0  0  0  0
  151.7294  138.2864  158.9919 C   0  0  0  0  0  0  0  0  0  0  0  0
  152.0118  138.9840  157.6502 C   0  0  0  0  0  0  0  0  0  0  0  0
  151.1521  140.2467  157.3928 C   0  0  2  0  0  0  0  0  0  0  0  0
  150.9216  140.3960  155.9538 N   0  0  0  0  0  0  0  0  0  0  0  0
  149.7392  140.8175  155.4515 C   0  0  0  0  0  0  0  0  0  0  0  0
  149.5466  140.9646  154.1152 N   0  0  0  0  0  0  0  0  0  0  0  0
  148.3682  141.3895  153.6516 C   0  0  0  0  0  0  0  0  0  0  0  0
  147.2714  141.7153  154.3382 N   0  0  0  0  0  0  0  0  0  0  0  0
  147.4560  141.5689  155.6820 C   0  0  0  0  0  0  0  0  0  0  0  0
  148.6535  141.1268  156.3112 C   0  0  0  0  0  0  0  0  0  0  0  0
  148.4790  141.0964  157.6883 N   0  0  0  0  0  0  0  0  0  0  0  0
  147.2478  141.4965  157.8586 C   0  0  0  0  0  0  0  0  0  0  0  0
  146.5571  141.7995  156.7058 N   0  0  0  0  0  0  0  0  0  0  0  0
  145.1397  142.2784  156.6007 C   0  0  1  0  0  0  0  0  0  0  0  0
  145.0974  143.4430  155.8297 O   0  0  0  0  0  0  0  0  0  0  0  0
  144.2517  143.2605  154.6969 C   0  0  2  0  0  0  0  0  0  0  0  0
  143.6096  144.5930  154.2719 C   0  0  0  0  0  0  0  0  0  0  0  0
  142.6047  144.3700  153.3054 O   0  0  0  0  0  0  0  0  0  0  0  0
  143.3010  142.1222  155.0959 C   0  0  2  0  0  0  0  0  0  0  0  0
  142.1993  142.6033  155.8437 O   0  0  0  0  0  0  0  0  0  0  0  0
  144.1879  141.2442  155.9642 C   0  0  1  0  0  0  0  0  0  0  0  0
  144.8433  140.2636  155.1790 O   0  0  0  0  0  0  0  0  0  0  0  0
  151.7893  141.5514  157.9528 C   0  0  0  0  0  0  0  0  0  0  0  0
  151.9019  141.5593  159.4985 C   0  0  0  0  0  0  0  0  0  0  0  0
  152.5019  142.8681  160.0385 C   0  0  0  0  0  0  0  0  0  0  0  0
  151.7051  144.0896  159.5650 C   0  0  0  0  0  0  0  0  0  0  0  0
  151.6086  144.1101  158.0352 C   0  0  0  0  0  0  0  0  0  0  0  0
  150.9969  142.8059  157.5012 C   0  0  0  0  0  0  0  0  0  0  0  0
  144.8582  142.5304  157.6238 H   0  0  0  0  0  0  0  0  0  0  0  0
  144.8832  142.9037  153.8824 H   0  0  0  0  0  0  0  0  0  0  0  0
  142.9108  141.5926  154.2258 H   0  0  0  0  0  0  0  0  0  0  0  0
  143.6298  140.7288  156.7470 H   0  0  0  0  0  0  0  0  0  0  0  0
  149.9457  138.8189  159.5082 H   0  0  0  0  0  0  0  0  0  0  0  0
  152.0599  138.8957  159.8330 H   0  0  0  0  0  0  0  0  0  0  0  0
  152.2567  137.3337  159.0484 H   0  0  0  0  0  0  0  0  0  0  0  0
  153.0673  139.2497  157.6535 H   0  0  0  0  0  0  0  0  0  0  0  0
  151.8756  138.2754  156.8321 H   0  0  0  0  0  0  0  0  0  0  0  0
  150.2065  140.1168  157.9188 H   0  0  0  0  0  0  0  0  0  0  0  0
  151.7237  140.2135  155.3679 H   0  0  0  0  0  0  0  0  0  0  0  0
  148.2929  141.4814  152.5783 H   0  0  0  0  0  0  0  0  0  0  0  0
  146.8042  141.5805  158.8402 H   0  0  0  0  0  0  0  0  0  0  0  0
  143.1888  145.1260  155.1248 H   0  0  0  0  0  0  0  0  0  0  0  0
  144.3666  145.2444  153.8343 H   0  0  0  0  0  0  0  0  0  0  0  0
  142.8046  143.5703  152.8431 H   0  0  0  0  0  0  0  0  0  0  0  0
  141.4409  142.6158  155.2797 H   0  0  0  0  0  0  0  0  0  0  0  0
  144.4241  140.2296  154.3327 H   0  0  0  0  0  0  0  0  0  0  0  0
  152.7996  141.6316  157.5477 H   0  0  0  0  0  0  0  0  0  0  0  0
  150.9170  141.4006  159.9398 H   0  0  0  0  0  0  0  0  0  0  0  0
  152.5338  140.7446  159.8480 H   0  0  0  0  0  0  0  0  0  0  0  0
  152.5267  142.8425  161.1283 H   0  0  0  0  0  0  0  0  0  0  0  0
  153.5378  142.9574  159.7088 H   0  0  0  0  0  0  0  0  0  0  0  0
  150.7039  144.0662  159.9968 H   0  0  0  0  0  0  0  0  0  0  0  0
  152.1777  145.0051  159.9221 H   0  0  0  0  0  0  0  0  0  0  0  0
  151.0086  144.9614  157.7124 H   0  0  0  0  0  0  0  0  0  0  0  0
  152.6014  144.2512  157.6062 H   0  0  0  0  0  0  0  0  0  0  0  0
  150.9589  142.8711  156.4137 H   0  0  0  0  0  0  0  0  0  0  0  0
  149.9624  142.7258  157.8374 H   0  0  0  0  0  0  0  0  0  0  0  0
  1  2  1  0  0  0  0
  1 34  1  0  0  0  0
  2  3  1  0  0  0  0
  2 35  1  0  0  0  0
  2 36  1  0  0  0  0
  3  4  1  0  0  0  0
  3 37  1  0  0  0  0
  3 38  1  0  0  0  0
  4  5  1  0  0  0  0
  4 24  1  0  0  0  0
  4 39  1  0  0  0  0
  5  6  1  0  0  0  0
  5 40  1  0  0  0  0
  6 11  1  0  0  0  0
  6  7  2  0  0  0  0
  7  8  1  0  0  0  0
  8  9  2  0  0  0  0
  8 41  1  0  0  0  0
  9 10  1  0  0  0  0
 10 14  1  0  0  0  0
 10 11  2  0  0  0  0
 11 12  1  0  0  0  0
 12 13  2  0  0  0  0
 13 14  1  0  0  0  0
 13 42  1  0  0  0  0
 14 15  1  0  0  0  0
 15 30  1  0  0  0  0
 15 22  1  0  0  0  0
 15 16  1  0  0  0  0
 16 17  1  0  0  0  0
 17 31  1  0  0  0  0
 17 18  1  0  0  0  0
 17 20  1  0  0  0  0
 18 19  1  0  0  0  0
 18 43  1  0  0  0  0
 18 44  1  0  0  0  0
 19 45  1  0  0  0  0
 20 32  1  0  0  0  0
 20 21  1  0  0  0  0
 20 22  1  0  0  0  0
 21 46  1  0  0  0  0
 22 33  1  0  0  0  0
 22 23  1  0  0  0  0
 23 47  1  0  0  0  0
 24 29  1  0  0  0  0
 24 25  1  0  0  0  0
 24 48  1  0  0  0  0
 25 26  1  0  0  0  0
 25 49  1  0  0  0  0
 25 50  1  0  0  0  0
 26 27  1  0  0  0  0
 26 51  1  0  0  0  0
 26 52  1  0  0  0  0
 27 28  1  0  0  0  0
 27 53  1  0  0  0  0
 27 54  1  0  0  0  0
 28 29  1  0  0  0  0
 28 55  1  0  0  0  0
 28 56  1  0  0  0  0
 29 57  1  0  0  0  0
 29 58  1  0  0  0  0
M  END
> <s_m_source_file>
AV-unprocessed.smi

> <i_m_source_file_index>
109

> <i_lp_mmshare_version>
43012

> <i_f3d_flags>
0

> <s_epik_input>
W0NIMl0xW0NIMl1bQ0gyXVtDSDJdW0NIMl1bQ0hdMVtDQEhdKFtDSDJdW0NIMl1bT0hdKVtOSF1jKG5bY0hdbjIpYyhjMjMpbltjSF1uM1tDQEBIXTRPW0NASF0oW0NIMl1bT0hdKVtDQEBIXShbT0hdKVtDQEhdNFtPSF0=

> <s_epik_cmdline>
J2VwaWtfcHl0aG9uJywgJy1waCcsICc3LjAnLCAnLXRuJywgJzgnLCAnLW1hJywgJzIwMCcsICctbWV0YWxfYmluZGluZycsICctaW1hZScsICc8aW5maWxlLm1hZT4nLCAnLW9tYWUnLCAnPG91dGZpbGUubWFlPic=

> <r_lp_tautomer_probability>
1

> <r_epik_Ionization_Penalty>
0.000793976

> <r_epik_Ionization_Penalty_Charging>
0

> <r_epik_Ionization_Penalty_Neutral>
0.000793976

> <r_epik_State_Penalty>
-0

> <r_epik_Charging_Adjusted_Penalty>
0

> <i_epik_Tot_Q>
0

> <i_epik_Tot_abs_Q>
0

> <r_epik_Metal_State_Penalty>
-0

> <b_epik_Metal_Only>
0

> <s_epik_Chemistry_Notes>
This compound contains an acetal/aminal-like group ( X-CH(R)-Y where X, Y are N, S, or O) that may be acid/base labile, releasing an aldehyde.

> <s_lp_Force_Field>
OPLS_2005

> <r_lp_Energy>
56.0983

> <b_lp_Chiralities_Consistent>
1

> <s_lp_Variant>
AV-unprocessed.smi:109-11

> <Gold.Version>
5.8.1

> <Gold.Id.Protein>
6NUR|6NUR_protein|mol2

> <Gold.PLP.Fitness>
50.0709

> <Gold.PLP.PLP>
-44.5932

> <Gold.PLP.part.hbond>
-5.1496

> <Gold.PLP.part.metal>
0.0000

> <Gold.PLP.part.buried>
-5.0284

> <Gold.PLP.part.nonpolar>
-34.3951

> <Gold.PLP.part.repulsive>
0.6337

> <Gold.PLP.ligand.clash>
1.2052

> <Gold.PLP.ligand.torsion>
0.9641

> <Gold.PLP.Chemscore.Hbond>
1.9863

> <Gold.PLP.Chemscore.CHOScore>
0.8123

> <Gold.PLP.Chemscore.Metal>
0.0000

> <Gold.Chemscore.Hbonds>
donor molecule, donor type, donor heavy atom, donor atom, acceptor molecule, acceptor atom, score
      L1  H    19    45       P1 10174  0.39
      L1  H    23    47       P1 10175  1.00
      P1  H  7989  7998       L1     7  0.32
      L1  C     8    41       P1  7957  0.82

> <Gold.PLP.Chemscore.Internal.Correction>
0.2152

> <Gold.Rescore>
     Score         DG    S(hbond)    S(metal)    S(lipo)     H(rot)  DE(clash)    DE(int)     intcor
      5.64      -9.09       1.97        0.00      94.25       5.47       0.03       3.41       ----

> <Gold.Chemscore.Fitness>
5.6450

> <Gold.Chemscore.DG>
-9.0932

> <Gold.Chemscore.ZeroCoef>
-5.4800

> <Gold.Chemscore.Hbond>
1.9698

> <Gold.Chemscore.Metal>
0.0000

> <Gold.Chemscore.Lipo>
94.2543

> <Gold.Chemscore.Internal_Hbond>
0.0000

> <Gold.Chemscore.DEClash>
0.0339

> <Gold.Chemscore.DEInternal>
3.4143

> <Gold.Chemscore.Rot>
5.4662

> <Gold.Chemscore.Internal.Correction>
   9.000000E+99

> <Gold.Chemscore.Hbonds>
donor molecule, donor type, donor heavy atom, donor atom, acceptor molecule, acceptor atom, score
      L1  H    19    45       P1 10174  0.39
      L1  H    23    47       P1 10175  0.96
      P1  H  7989  7998       L1     7  0.07

> <Gold.Chemscore.Hbond.Weighted>
-6.5790

> <Gold.Chemscore.Metal.Weighted>
-0.0000

> <Gold.Chemscore.Lipo.Weighted>
-11.0277

> <Gold.Chemscore.Internal_Hbond.Weighted>
0.0000

> <Gold.Chemscore.DEClash.Weighted>
0.0339

> <Gold.Chemscore.DEInternal.Weighted>
3.4143

> <Gold.Chemscore.Rot.Weighted>
13.9935

> <Gold.Chemscore.Internal.Correction.Weighted>
   9.000000E+99

> <Gold.Protein.RotatedTorsions>
[ 6907 6896 6895 6894 ] final   24.02 input  -60.11 | X-H torsion
[ 7974 7965 7964 7962 ] final  107.00 input  175.53 | X-H torsion
[ 8008 7997 7996 7995 ] final -148.09 input   59.86 | X-H torsion
[ 10167 10162 10161 10158 ] final   88.40 input  -65.29 | X-H torsion
[ 10718 10713 10712 10709 ] final  -23.88 input   66.30 | X-H torsion
[ 10763 10752 10751 10750 ] final  155.61 input  -60.55 | X-H torsion
[ 11005 11000 10999 10996 ] final  177.02 input  -57.11 | X-H torsion

> <Gold.Protein.ActiveResidues>
 VAL166  LYS551  ARG553  GLY616  TRP617  ASP618  TYR619  PRO620  LYS621  CYS622 
 ASP623  PHE694  ASN695  SER759  ASP760  ASP761  ALA762  ILE779  LEU786  VAL792 
 PHE793  MET794  SER795  GLU796  ALA797  LYS798  CYS799  TRP800  GLU811  SER814 

> <Gold.Protein.RotatedAtoms>
  151.9512  135.0168  160.0541 H   0  0  0  0  0  0  0  0  0  0  0  0  # atno 6907 bound_to 6896
  152.1951  133.4796  159.5037 H   0  0  0  0  0  0  0  0  0  0  0  0  # atno 6908 bound_to 6896
  150.6943  134.1579  159.4208 H   0  0  0  0  0  0  0  0  0  0  0  0  # atno 6909 bound_to 6896
  145.2993  139.2574  143.3822 H   0  0  0  0  0  0  0  0  0  0  0  0  # atno 7974 bound_to 7965
  155.5861  140.0648  157.2771 H   0  0  0  0  0  0  0  0  0  0  0  0  # atno 8008 bound_to 7997
  154.4318  140.1843  156.1073 H   0  0  0  0  0  0  0  0  0  0  0  0  # atno 8009 bound_to 7997
  156.0268  140.3311  155.7101 H   0  0  0  0  0  0  0  0  0  0  0  0  # atno 8010 bound_to 7997
  139.8676  144.6510  150.8986 H   0  0  0  0  0  0  0  0  0  0  0  0  # atno 10167 bound_to 10162
  156.4851  130.4554  149.6788 H   0  0  0  0  0  0  0  0  0  0  0  0  # atno 10718 bound_to 10713
  154.1711  135.2804  155.3081 H   0  0  0  0  0  0  0  0  0  0  0  0  # atno 10763 bound_to 10752
  154.6075  135.5510  153.7441 H   0  0  0  0  0  0  0  0  0  0  0  0  # atno 10764 bound_to 10752
  153.0164  135.6407  154.1851 H   0  0  0  0  0  0  0  0  0  0  0  0  # atno 10765 bound_to 10752
  140.3795  134.6958  157.4442 H   0  0  0  0  0  0  0  0  0  0  0  0  # atno 11005 bound_to 11000
  146.3157  140.3503  142.8655 LP  0  0  0  0  0  0  0  0  0  0  0  0  # atno 17320 bound_to 7965
  144.9107  140.7753  143.5809 LP  0  0  0  0  0  0  0  0  0  0  0  0  # atno 17321 bound_to 7965
  140.7765  143.3690  151.1684 LP  0  0  0  0  0  0  0  0  0  0  0  0  # atno 17342 bound_to 10162
  139.7314  143.9067  152.3020 LP  0  0  0  0  0  0  0  0  0  0  0  0  # atno 17343 bound_to 10162
  156.3483  130.7418  151.2374 LP  0  0  0  0  0  0  0  0  0  0  0  0  # atno 17370 bound_to 10713
  157.7479  131.0384  150.4503 LP  0  0  0  0  0  0  0  0  0  0  0  0  # atno 17371 bound_to 10713
  140.0489  134.6159  155.8886 LP  0  0  0  0  0  0  0  0  0  0  0  0  # atno 17394 bound_to 11000
  141.1928  133.6576  156.5518 LP  0  0  0  0  0  0  0  0  0  0  0  0  # atno 17395 bound_to 11000

$$$$
