#       Name:                AV-unprocessed.smi:3237
#       Creating user name   scv26
#       Creation time:       Fri Mar 27 18:22:39 2020


#       File generated by GOLD software.
#

@<TRIPOS>MOLECULE
AV-unprocessed.smi:3237
    42    44     1
SMALL
NO_CHARGES


@<TRIPOS>ATOM
      1 ****        -7.0886  -1.4255   0.7790 C.3            1 S1                 0.0000
      2 ****        -5.8917  -0.5410   0.7013 C.2            1 S1                 0.0000
      3 ****        -4.5616  -0.7905   0.5136 C.2            1 S1                 0.0000
      4 ****        -3.9848   0.5127   0.5478 C.2            1 S1                 0.0000
      5 ****        -2.6093   0.8279   0.3996 N.am           1 S1                 0.0000
      6 ****        -1.5789  -0.0090   0.1920 C.2            1 S1                 0.0000
      7 ****        -1.6602  -1.2333   0.0962 O.2            1 S1                 0.0000
      8 ****        -0.4204   0.6595   0.0991 N.am           1 S1                 0.0000
      9 ****         0.8794   0.0368  -0.1271 C.3            1 S1                 0.0000
     10 ****         1.4733  -0.6578   1.0945 C.3            1 S1                 0.0000
     11 ****         2.9626  -0.7347   0.7403 C.3            1 S1                 0.0000
     12 ****         3.2468   0.4091  -0.1623 N.4            1 S1                 1.0000
     13 ****         4.0191   0.0341  -1.3668 C.3            1 S1                 0.0000
     14 ****         5.5098  -0.0304  -1.1338 C.3            1 S1                 0.0000
     15 ****         4.9091   1.1400  -1.8816 C.3            1 S1                 0.0000
     16 ****         1.9564   1.0661  -0.4671 C.3            1 S1                 0.0000
     17 ****        -4.8822   1.4618   0.7397 N.2            1 S1                 0.0000
     18 ****        -6.1089   0.7948   0.8391 O.3            1 S1                 0.0000
     19 ****        -6.8199  -2.4634   0.5818 H              1 S1                 0.0000
     20 ****        -7.8389  -1.1259   0.0471 H              1 S1                 0.0000
     21 ****        -7.5417  -1.3754   1.7692 H              1 S1                 0.0000
     22 ****        -4.0964  -1.7548   0.3757 H              1 S1                 0.0000
     23 ****        -2.3867   1.8107   0.4560 H              1 S1                 0.0000
     24 ****        -0.4410   1.6651   0.1884 H              1 S1                 0.0000
     25 ****         0.8050  -0.6784  -0.9492 H              1 S1                 0.0000
     26 ****         1.3326  -0.0448   1.9863 H              1 S1                 0.0000
     27 ****         1.0338  -1.6377   1.2842 H              1 S1                 0.0000
     28 ****         3.5971  -0.7014   1.6263 H              1 S1                 0.0000
     29 ****         3.1639  -1.6771   0.2280 H              1 S1                 0.0000
     30 ****         3.5366  -0.6552  -2.0579 H              1 S1                 0.0000
     31 ****         5.8828   0.1537  -0.1277 H              1 S1                 0.0000
     32 ****         6.0783  -0.7537  -1.7149 H              1 S1                 0.0000
     33 ****         5.0812   1.1871  -2.9550 H              1 S1                 0.0000
     34 ****         4.8836   2.1017  -1.3722 H              1 S1                 0.0000
     35 ****         1.8900   1.4134  -1.4994 H              1 S1                 0.0000
     36 ****         1.8654   1.9401   0.1797 H              1 S1                 0.0000
     37 ****         3.8035   1.0771   0.3517 H              1 S1                 0.0000
     38 ****        -2.5501  -1.6829   0.1735 LP             1 S1                 0.0000
     39 ****        -0.8364  -1.7785  -0.0590 LP             1 S1                 0.0000
     40 ****        -4.7202   2.4466   0.8009 LP             1 S1                 0.0000
     41 ****        -6.5203   0.9784   1.7318 LP             1 S1                 0.0000
     42 ****        -6.7238   1.1119   0.1170 LP             1 S1                 0.0000
@<TRIPOS>BOND
    1    1    2 1     
    2    1   19 1     
    3    1   20 1     
    4    1   21 1     
    5    2   18 1     
    6    2    3 2     
    7    3    4 1     
    8    3   22 1     
    9    4    5 1     
   10    4   17 2     
   11    5    6 am    
   12    5   23 1     
   13    6    7 2     
   14    6    8 am    
   15    8    9 1     
   16    8   24 1     
   17    9   16 1     
   18    9   10 1     
   19    9   25 1     
   20   10   11 1     
   21   10   26 1     
   22   10   27 1     
   23   11   12 1     
   24   11   28 1     
   25   11   29 1     
   26   12   13 1     
   27   12   16 1     
   28   12   37 1     
   29   13   15 1     
   30   13   14 1     
   31   13   30 1     
   32   14   15 1     
   33   14   31 1     
   34   14   32 1     
   35   15   33 1     
   36   15   34 1     
   37   16   35 1     
   38   16   36 1     
   39   17   18 1     
   40    7   38 1     
   41    7   39 1     
   42   17   40 1     
   43   18   41 1     
   44   18   42 1     
@<TRIPOS>SUBSTRUCTURE
      1 S1             1
@<TRIPOS>SET
LONE_PAIRS      STATIC     ATOMS    <user>   **** ""
5 38 39 40 41 42
DONOR_HYDROGENS      STATIC     ATOMS    <user>   **** ""
3 23 24 37
ATOM$BLUE        STATIC     ATOMS    COLORGROUP SYSTEM
5 38 39 40 41 42
ATOM$RED        STATIC     ATOMS    COLORGROUP SYSTEM
3 23 24 37
