AV-unprocessed.smi:2165|AV-procd|sdf|8812|dock3
  -GOLD-   2272012 03D 1   1.00000     0.00000
 Structure written by MMmdl.
 36 37  0  0  0  0  0  0  0  0  1 V2000
  154.8228  140.8114  161.8181 C   0  0  0  0  0  0  0  0  0  0  0  0
  153.9557  141.9516  161.6057 N   0  0  0  0  0  0  0  0  0  0  0  0
  153.6284  142.7858  162.7021 C   0  0  0  0  0  0  0  0  0  0  0  0
  154.0504  142.5834  163.8412 O   0  0  0  0  0  0  0  0  0  0  0  0
  152.7470  143.8991  162.3697 C   0  0  0  0  0  0  0  0  0  0  0  0
  152.3005  144.0793  161.1073 C   0  0  0  0  0  0  0  0  0  0  0  0
  152.6323  143.2454  160.0551 N   0  0  0  0  0  0  0  0  0  0  0  0
  152.1086  143.5205  158.7111 C   0  0  0  0  0  0  0  0  0  0  0  0
  151.0839  142.4748  158.2531 C   0  0  0  0  0  0  0  0  0  0  0  0
  150.0063  142.3580  158.8383 O   0  0  0  0  0  0  0  0  0  0  0  0
  151.4418  141.7121  157.2095 N   0  0  0  0  0  0  0  0  0  0  0  0
  150.6034  140.6939  156.5884 C   0  0  0  0  0  0  0  0  0  0  0  0
  151.2849  140.0830  155.3523 C   0  0  2  0  0  0  0  0  0  0  0  0
  150.6102  138.8155  154.8320 C   0  0  0  0  0  0  0  0  0  0  0  0
  151.7365  138.0771  154.1232 C   0  0  0  0  0  0  0  0  0  0  0  0
  153.0078  138.7891  154.5951 C   0  0  0  0  0  0  0  0  0  0  0  0
  152.5883  139.6201  155.6676 O   0  0  0  0  0  0  0  0  0  0  0  0
  153.4811  142.1421  160.2897 C   0  0  0  0  0  0  0  0  0  0  0  0
  153.7897  141.3776  159.3716 O   0  0  0  0  0  0  0  0  0  0  0  0
  155.2089  140.7901  162.8366 H   0  0  0  0  0  0  0  0  0  0  0  0
  155.6556  140.8991  161.1180 H   0  0  0  0  0  0  0  0  0  0  0  0
  154.2293  139.9171  161.6207 H   0  0  0  0  0  0  0  0  0  0  0  0
  152.4484  144.5889  163.1454 H   0  0  0  0  0  0  0  0  0  0  0  0
  151.6522  144.9214  160.9129 H   0  0  0  0  0  0  0  0  0  0  0  0
  151.6670  144.5186  158.6830 H   0  0  0  0  0  0  0  0  0  0  0  0
  152.9234  143.5378  157.9862 H   0  0  0  0  0  0  0  0  0  0  0  0
  152.3464  141.8740  156.7910 H   0  0  0  0  0  0  0  0  0  0  0  0
  150.3997  139.9188  157.3278 H   0  0  0  0  0  0  0  0  0  0  0  0
  149.6391  141.1251  156.3150 H   0  0  0  0  0  0  0  0  0  0  0  0
  151.3539  140.8158  154.5458 H   0  0  0  0  0  0  0  0  0  0  0  0
  150.2464  138.2114  155.6643 H   0  0  0  0  0  0  0  0  0  0  0  0
  149.7645  139.0298  154.1782 H   0  0  0  0  0  0  0  0  0  0  0  0
  151.7409  137.0216  154.3978 H   0  0  0  0  0  0  0  0  0  0  0  0
  151.6392  138.1418  153.0388 H   0  0  0  0  0  0  0  0  0  0  0  0
  153.7852  138.0951  154.9144 H   0  0  0  0  0  0  0  0  0  0  0  0
  153.4153  139.4131  153.7984 H   0  0  0  0  0  0  0  0  0  0  0  0
  1  2  1  0  0  0  0
  1 20  1  0  0  0  0
  1 21  1  0  0  0  0
  1 22  1  0  0  0  0
  2 18  1  0  0  0  0
  2  3  1  0  0  0  0
  3  4  2  0  0  0  0
  3  5  1  0  0  0  0
  5  6  2  0  0  0  0
  5 23  1  0  0  0  0
  6  7  1  0  0  0  0
  6 24  1  0  0  0  0
  7  8  1  0  0  0  0
  7 18  1  0  0  0  0
  8  9  1  0  0  0  0
  8 25  1  0  0  0  0
  8 26  1  0  0  0  0
  9 10  2  0  0  0  0
  9 11  1  0  0  0  0
 11 12  1  0  0  0  0
 11 27  1  0  0  0  0
 12 13  1  0  0  0  0
 12 28  1  0  0  0  0
 12 29  1  0  0  0  0
 13 17  1  0  0  0  0
 13 14  1  0  0  0  0
 13 30  1  0  0  0  0
 14 15  1  0  0  0  0
 14 31  1  0  0  0  0
 14 32  1  0  0  0  0
 15 16  1  0  0  0  0
 15 33  1  0  0  0  0
 15 34  1  0  0  0  0
 16 17  1  0  0  0  0
 16 35  1  0  0  0  0
 16 36  1  0  0  0  0
 18 19  2  0  0  0  0
M  END
> <s_m_source_file>
AV-unprocessed.smi

> <i_m_source_file_index>
2165

> <i_lp_mmshare_version>
43012

> <i_f3d_flags>
0

> <s_epik_input>
W0NIM11uMWMoPU8pW2NIXVtjSF1uKGMxPU8pW0NIMl1DKD1PKVtOSF1bQ0gyXVtDQEBIXTJbQ0gyXVtDSDJdW0NIMl1PMg==

> <s_epik_cmdline>
J2VwaWtfcHl0aG9uJywgJy1waCcsICc3LjAnLCAnLXRuJywgJzgnLCAnLW1hJywgJzIwMCcsICctbWV0YWxfYmluZGluZycsICctaW1hZScsICc8aW5maWxlLm1hZT4nLCAnLW9tYWUnLCAnPG91dGZpbGUubWFlPic=

> <r_lp_tautomer_probability>
1

> <r_epik_Ionization_Penalty>
3.89869e-08

> <r_epik_Ionization_Penalty_Charging>
1.21279e-08

> <r_epik_Ionization_Penalty_Neutral>
2.6859e-08

> <r_epik_State_Penalty>
-0

> <r_epik_Charging_Adjusted_Penalty>
1.21279e-08

> <i_epik_Tot_Q>
0

> <i_epik_Tot_abs_Q>
0

> <r_epik_Metal_State_Penalty>
-0

> <b_epik_Metal_Only>
0

> <s_lp_Force_Field>
OPLS_2005

> <r_lp_Energy>
24.9398

> <b_lp_Chiralities_Consistent>
1

> <s_lp_Variant>
AV-unprocessed.smi:2165-1

> <Gold.Version>
5.8.1

> <Gold.Id.Protein>
6NUR|6NUR_protein|mol2

> <Gold.PLP.Fitness>
50.1757

> <Gold.PLP.PLP>
-47.5029

> <Gold.PLP.part.hbond>
-1.8070

> <Gold.PLP.part.metal>
0.0000

> <Gold.PLP.part.buried>
-2.6877

> <Gold.PLP.part.nonpolar>
-41.9715

> <Gold.PLP.part.repulsive>
0.2311

> <Gold.PLP.ligand.clash>
0.0000

> <Gold.PLP.ligand.torsion>
0.1729

> <Gold.PLP.Chemscore.Hbond>
1.0000

> <Gold.PLP.Chemscore.CHOScore>
0.0000

> <Gold.PLP.Chemscore.Metal>
0.0000

> <Gold.Chemscore.Hbonds>
donor molecule, donor type, donor heavy atom, donor atom, acceptor molecule, acceptor atom, score
      P1  H  7997  8008       L1    17  0.96

> <Gold.PLP.Chemscore.Internal.Correction>
0.0187

> <Gold.Rescore>
     Score         DG    S(hbond)    S(metal)    S(lipo)     H(rot)  DE(clash)    DE(int)     intcor
     11.07     -11.40       0.32        0.00      82.46       1.87       0.09       0.24       ----

> <Gold.Chemscore.Fitness>
11.0747

> <Gold.Chemscore.DG>
-11.4025

> <Gold.Chemscore.ZeroCoef>
-5.4800

> <Gold.Chemscore.Hbond>
0.3163

> <Gold.Chemscore.Metal>
0.0000

> <Gold.Chemscore.Lipo>
82.4648

> <Gold.Chemscore.Internal_Hbond>
0.0000

> <Gold.Chemscore.DEClash>
0.0909

> <Gold.Chemscore.DEInternal>
0.2369

> <Gold.Chemscore.Rot>
1.8681

> <Gold.Chemscore.Internal.Correction>
   9.000000E+99

> <Gold.Chemscore.Hbonds>
donor molecule, donor type, donor heavy atom, donor atom, acceptor molecule, acceptor atom, score
      P1  H  7997  8008       L1    17  0.26

> <Gold.Chemscore.Hbond.Weighted>
-1.0563

> <Gold.Chemscore.Metal.Weighted>
-0.0000

> <Gold.Chemscore.Lipo.Weighted>
-9.6484

> <Gold.Chemscore.Internal_Hbond.Weighted>
0.0000

> <Gold.Chemscore.DEClash.Weighted>
0.0909

> <Gold.Chemscore.DEInternal.Weighted>
0.2369

> <Gold.Chemscore.Rot.Weighted>
4.7822

> <Gold.Chemscore.Internal.Correction.Weighted>
   9.000000E+99

> <Gold.Protein.RotatedTorsions>
[ 6907 6896 6895 6894 ] final    4.48 input  -60.11 | X-H torsion
[ 7974 7965 7964 7962 ] final   78.89 input  175.53 | X-H torsion
[ 8008 7997 7996 7995 ] final  -54.50 input   59.86 | X-H torsion
[ 10167 10162 10161 10158 ] final  156.81 input  -65.29 | X-H torsion
[ 10718 10713 10712 10709 ] final -100.55 input   66.30 | X-H torsion
[ 10763 10752 10751 10750 ] final -121.82 input  -60.55 | X-H torsion
[ 11005 11000 10999 10996 ] final  -12.05 input  -57.11 | X-H torsion

> <Gold.Protein.ActiveResidues>
 VAL166  LYS551  ARG553  GLY616  TRP617  ASP618  TYR619  PRO620  LYS621  CYS622 
 ASP623  PHE694  ASN695  SER759  ASP760  ASP761  ALA762  ILE779  LEU786  VAL792 
 PHE793  MET794  SER795  GLU796  ALA797  LYS798  CYS799  TRP800  GLU811  SER814 

> <Gold.Protein.RotatedAtoms>
  151.6419  135.1012  160.0142 H   0  0  0  0  0  0  0  0  0  0  0  0  # atno 6907 bound_to 6896
  152.4049  133.6870  159.6356 H   0  0  0  0  0  0  0  0  0  0  0  0  # atno 6908 bound_to 6896
  150.7945  133.8643  159.3281 H   0  0  0  0  0  0  0  0  0  0  0  0  # atno 6909 bound_to 6896
  145.6713  139.2497  143.1866 H   0  0  0  0  0  0  0  0  0  0  0  0  # atno 7974 bound_to 7965
  154.4165  140.1175  156.5326 H   0  0  0  0  0  0  0  0  0  0  0  0  # atno 8008 bound_to 7997
  155.6590  140.3496  155.4756 H   0  0  0  0  0  0  0  0  0  0  0  0  # atno 8009 bound_to 7997
  155.9729  140.1145  157.0786 H   0  0  0  0  0  0  0  0  0  0  0  0  # atno 8010 bound_to 7997
  139.4822  144.4975  151.8218 H   0  0  0  0  0  0  0  0  0  0  0  0  # atno 10167 bound_to 10162
  156.0167  130.5333  150.6834 H   0  0  0  0  0  0  0  0  0  0  0  0  # atno 10718 bound_to 10713
  154.8676  135.4154  154.2682 H   0  0  0  0  0  0  0  0  0  0  0  0  # atno 10763 bound_to 10752
  153.3597  135.7003  153.6727 H   0  0  0  0  0  0  0  0  0  0  0  0  # atno 10764 bound_to 10752
  153.5633  135.3605  155.2780 H   0  0  0  0  0  0  0  0  0  0  0  0  # atno 10765 bound_to 10752
  140.7617  133.8510  155.9130 H   0  0  0  0  0  0  0  0  0  0  0  0  # atno 11005 bound_to 11000
  146.1043  140.7506  142.9534 LP  0  0  0  0  0  0  0  0  0  0  0  0  # atno 17320 bound_to 7965
  144.7056  140.3836  143.7121 LP  0  0  0  0  0  0  0  0  0  0  0  0  # atno 17321 bound_to 7965
  140.4464  144.1915  150.5894 LP  0  0  0  0  0  0  0  0  0  0  0  0  # atno 17342 bound_to 10162
  140.4630  143.2442  151.9194 LP  0  0  0  0  0  0  0  0  0  0  0  0  # atno 17343 bound_to 10162
  157.4531  131.0875  151.0825 LP  0  0  0  0  0  0  0  0  0  0  0  0  # atno 17370 bound_to 10713
  157.1335  130.6112  149.5535 LP  0  0  0  0  0  0  0  0  0  0  0  0  # atno 17371 bound_to 10713
  140.9657  134.1597  157.4618 LP  0  0  0  0  0  0  0  0  0  0  0  0  # atno 17394 bound_to 11000
  139.8770  134.9961  156.5776 LP  0  0  0  0  0  0  0  0  0  0  0  0  # atno 17395 bound_to 11000

$$$$
