#       Name:                AV-unprocessed.smi:248
#       Creating user name   scv26
#       Creation time:       Thu Mar 26 20:56:29 2020


#       File generated by GOLD software.
#

@<TRIPOS>MOLECULE
AV-unprocessed.smi:248
    72    75     1
SMALL
NO_CHARGES


@<TRIPOS>ATOM
      1 ****        -7.4647   0.0601   3.6513 C.3            1 S1                 0.0000
      2 ****        -5.9645   0.2572   3.3868 C.3            1 S1                 0.0000
      3 ****        -5.4911   1.5971   3.9760 C.3            1 S1                 0.0000
      4 ****        -5.6568   0.0985   1.8784 C.3            1 S1                 0.0000
      5 ****        -4.2200   0.1459   1.5683 N.am           1 S1                 0.0000
      6 ****        -3.5474  -1.1578   1.6179 C.3            1 S1                 0.0000
      7 ****        -2.0348  -1.0322   1.8194 C.3            1 S1                 0.0000
      8 ****        -1.4981  -0.0892   0.8506 N.3            1 S1                 0.0000
      9 ****        -0.1492  -0.1487   0.7716 C.ar           1 S1                 0.0000
     10 ****         0.6135   0.3553   1.7767 N.ar           1 S1                 0.0000
     11 ****         1.9457   0.2834   1.7001 C.ar           1 S1                 0.0000
     12 ****         2.6993  -0.2382   0.7293 N.ar           1 S1                 0.0000
     13 ****         1.9335  -0.7392  -0.2823 C.ar           1 S1                 0.0000
     14 ****         0.5120  -0.7401  -0.3357 C.ar           1 S1                 0.0000
     15 ****         0.0767  -1.3452  -1.5065 N.2            1 S1                 0.0000
     16 ****         1.1812  -1.6870  -2.1121 C.2            1 S1                 0.0000
     17 ****         2.3452  -1.3462  -1.4575 N.pl3          1 S1                 0.0000
     18 ****         3.7062  -1.6150  -1.9044 C.3            1 S1                 0.0000
     19 ****         4.3488  -0.5060  -2.7977 C.3            1 S1                 0.0000
     20 ****         3.4418  -0.2748  -4.0393 C.3            1 S1                 0.0000
     21 ****         3.9860   0.6354  -4.9750 O.3            1 S1                 0.0000
     22 ****         4.5272   0.8255  -2.0229 C.3            1 S1                 0.0000
     23 ****         5.6141   0.7352  -0.9353 C.3            1 S1                 0.0000
     24 ****         6.8476   0.3272  -1.5136 O.3            1 S1                 0.0000
     25 ****         6.7826  -0.9677  -2.0977 C.3            1 S1                 0.0000
     26 ****         5.7576  -0.9757  -3.2470 C.3            1 S1                 0.0000
     27 ****        -2.0778   1.2609   0.8701 C.3            1 S1                 0.0000
     28 ****        -1.7559   2.0007  -0.4480 C.3            1 S1                 0.0000
     29 ****        -3.5970   1.2848   1.1716 C.2            1 S1                 0.0000
     30 ****        -4.1945   2.3579   1.0742 O.2            1 S1                 0.0000
     31 ****        -8.0589   0.8227   3.1473 H              1 S1                 0.0000
     32 ****        -7.6881   0.1151   4.7172 H              1 S1                 0.0000
     33 ****        -7.8028  -0.9138   3.2964 H              1 S1                 0.0000
     34 ****        -5.4396  -0.5352   3.9217 H              1 S1                 0.0000
     35 ****        -5.9330   2.4410   3.4454 H              1 S1                 0.0000
     36 ****        -4.4072   1.6978   3.9248 H              1 S1                 0.0000
     37 ****        -5.7693   1.6832   5.0266 H              1 S1                 0.0000
     38 ****        -6.0546  -0.8554   1.5282 H              1 S1                 0.0000
     39 ****        -6.2024   0.8524   1.3083 H              1 S1                 0.0000
     40 ****        -3.9675  -1.7746   2.4132 H              1 S1                 0.0000
     41 ****        -3.7496  -1.6775   0.6803 H              1 S1                 0.0000
     42 ****        -1.8207  -0.6826   2.8311 H              1 S1                 0.0000
     43 ****        -1.5650  -2.0114   1.7104 H              1 S1                 0.0000
     44 ****         2.4857   0.7027   2.5364 H              1 S1                 0.0000
     45 ****         1.1770  -2.1958  -3.0651 H              1 S1                 0.0000
     46 ****         4.3079  -1.8126  -1.0185 H              1 S1                 0.0000
     47 ****         3.6872  -2.5576  -2.4535 H              1 S1                 0.0000
     48 ****         3.2572  -1.2178  -4.5552 H              1 S1                 0.0000
     49 ****         2.4704   0.1198  -3.7417 H              1 S1                 0.0000
     50 ****         3.3784   0.7289  -5.6926 H              1 S1                 0.0000
     51 ****         4.8228   1.6171  -2.7123 H              1 S1                 0.0000
     52 ****         3.5842   1.1561  -1.5889 H              1 S1                 0.0000
     53 ****         5.7549   1.7114  -0.4716 H              1 S1                 0.0000
     54 ****         5.3324   0.0502  -0.1359 H              1 S1                 0.0000
     55 ****         7.7698  -1.2226  -2.4834 H              1 S1                 0.0000
     56 ****         6.5469  -1.7134  -1.3381 H              1 S1                 0.0000
     57 ****         5.7047  -1.9696  -3.6925 H              1 S1                 0.0000
     58 ****         6.1450  -0.3198  -4.0267 H              1 S1                 0.0000
     59 ****        -1.6179   1.8174   1.6884 H              1 S1                 0.0000
     60 ****        -2.1842   3.0034  -0.4655 H              1 S1                 0.0000
     61 ****        -2.1466   1.4581  -1.3097 H              1 S1                 0.0000
     62 ****        -0.6819   2.1207  -0.5919 H              1 S1                 0.0000
     63 ****        -1.8317  -0.4123  -0.0350 LP             1 S1                 0.0000
     64 ****         0.1791   0.7789   2.5716 LP             1 S1                 0.0000
     65 ****         3.6990  -0.2590   0.7421 LP             1 S1                 0.0000
     66 ****        -0.8642  -1.4864  -1.8144 LP             1 S1                 0.0000
     67 ****         4.8590   0.2866  -5.3159 LP             1 S1                 0.0000
     68 ****         4.1297   1.5230  -4.5373 LP             1 S1                 0.0000
     69 ****         7.5480   0.3207  -0.7999 LP             1 S1                 0.0000
     70 ****         7.1006   0.9850  -2.2230 LP             1 S1                 0.0000
     71 ****        -5.1695   2.4087   1.2905 LP             1 S1                 0.0000
     72 ****        -3.7045   3.1780   0.7789 LP             1 S1                 0.0000
@<TRIPOS>BOND
    1    1    2 1     
    2    1   31 1     
    3    1   32 1     
    4    1   33 1     
    5    2    3 1     
    6    2    4 1     
    7    2   34 1     
    8    3   35 1     
    9    3   36 1     
   10    3   37 1     
   11    4    5 1     
   12    4   38 1     
   13    4   39 1     
   14    5   29 am    
   15    5    6 1     
   16    6    7 1     
   17    6   40 1     
   18    6   41 1     
   19    7    8 1     
   20    7   42 1     
   21    7   43 1     
   22    8    9 1     
   23    8   27 1     
   24    9   14 ar    
   25    9   10 ar    
   26   10   11 ar    
   27   11   12 ar    
   28   11   44 1     
   29   12   13 ar    
   30   13   17 1     
   31   13   14 ar    
   32   14   15 1     
   33   15   16 2     
   34   16   17 1     
   35   16   45 1     
   36   17   18 1     
   37   18   19 1     
   38   18   46 1     
   39   18   47 1     
   40   19   26 1     
   41   19   20 1     
   42   19   22 1     
   43   20   21 1     
   44   20   48 1     
   45   20   49 1     
   46   21   50 1     
   47   22   23 1     
   48   22   51 1     
   49   22   52 1     
   50   23   24 1     
   51   23   53 1     
   52   23   54 1     
   53   24   25 1     
   54   25   26 1     
   55   25   55 1     
   56   25   56 1     
   57   26   57 1     
   58   26   58 1     
   59   27   28 1     
   60   27   29 1     
   61   27   59 1     
   62   28   60 1     
   63   28   61 1     
   64   28   62 1     
   65   29   30 2     
   66    8   63 1     
   67   10   64 1     
   68   12   65 1     
   69   15   66 1     
   70   21   67 1     
   71   21   68 1     
   72   24   69 1     
   73   24   70 1     
   74   30   71 1     
   75   30   72 1     
@<TRIPOS>SUBSTRUCTURE
      1 S1             1
@<TRIPOS>SET
LONE_PAIRS      STATIC     ATOMS    <user>   **** ""
10 63 64 65 66 67 68 69 70 71 72
DONOR_HYDROGENS      STATIC     ATOMS    <user>   **** ""
1 50
ATOM$BLUE        STATIC     ATOMS    COLORGROUP SYSTEM
10 63 64 65 66 67 68 69 70 71 72
ATOM$RED        STATIC     ATOMS    COLORGROUP SYSTEM
1 50
