AV-unprocessed.smi:702|AV-procd|sdf|3423|dock9
  -GOLD-   22720 0403D 1   1.00000     0.00000
 Structure written by MMmdl.
 50 52  0  0  0  0  0  0  0  0  2 V2000
  145.6695  138.1810  154.8546 C   0  0  0  0  0  0  0  0  0  0  0  0
  147.0390  137.4848  154.7286 C   0  0  1  0  0  0  0  0  0  0  0  0
  146.9955  136.5821  153.5717 N   0  0  0  0  0  0  0  0  0  0  0  0
  145.9978  135.7488  153.2405 C   0  0  0  0  0  0  0  0  0  0  0  0
  144.9511  135.6444  153.8787 O   0  0  0  0  0  0  0  0  0  0  0  0
  146.3108  135.0361  152.1446 N   0  0  0  0  0  0  0  0  0  0  0  0
  145.5473  134.0267  151.4985 C   0  0  0  0  0  0  0  0  0  0  0  0
  146.1377  133.3626  150.4005 C   0  0  0  0  0  0  0  0  0  0  0  0
  145.4126  132.3638  149.7193 C   0  0  0  0  0  0  0  0  0  0  0  0
  144.1583  132.0566  150.1139 N   0  3  0  0  0  0  0  0  0  0  0  0
  143.5465  132.6735  151.1474 C   0  0  0  0  0  0  0  0  0  0  0  0
  144.2220  133.6805  151.8666 C   0  0  0  0  0  0  0  0  0  0  0  0
  148.2545  138.4856  154.6646 C   0  0  0  0  0  0  0  0  0  0  0  0
  149.5532  137.7537  154.5412 N   0  0  0  0  0  0  0  0  0  0  0  0
  149.7866  136.7021  155.5450 C   0  0  0  0  0  0  0  0  0  0  0  0
  151.0833  135.9202  155.2784 C   0  0  0  0  0  0  0  0  0  0  0  0
  152.1831  136.8204  155.2493 O   0  0  0  0  0  0  0  0  0  0  0  0
  152.0356  137.8177  154.2471 C   0  0  0  0  0  0  0  0  0  0  0  0
  150.7420  138.6157  154.4858 C   0  0  0  0  0  0  0  0  0  0  0  0
  148.0231  139.4994  153.4981 C   0  0  0  0  0  0  0  0  0  0  0  0
  147.6460  140.8435  154.1249 C   0  0  0  0  0  0  0  0  0  0  0  0
  148.3497  140.8370  155.4737 C   0  0  0  0  0  0  0  0  0  0  0  0
  148.2265  139.3869  155.9437 C   0  0  0  0  0  0  0  0  0  0  0  0
  145.6114  138.7946  155.7534 H   0  0  0  0  0  0  0  0  0  0  0  0
  144.8651  137.4474  154.9167 H   0  0  0  0  0  0  0  0  0  0  0  0
  145.4605  138.8249  154.0005 H   0  0  0  0  0  0  0  0  0  0  0  0
  147.1531  136.8582  155.6116 H   0  0  0  0  0  0  0  0  0  0  0  0
  147.8149  136.5851  152.9821 H   0  0  0  0  0  0  0  0  0  0  0  0
  147.2391  135.1810  151.7750 H   0  0  0  0  0  0  0  0  0  0  0  0
  147.1408  133.6094  150.0835 H   0  0  0  0  0  0  0  0  0  0  0  0
  145.7950  131.8068  148.8762 H   0  0  0  0  0  0  0  0  0  0  0  0
  142.5390  132.3496  151.3639 H   0  0  0  0  0  0  0  0  0  0  0  0
  143.7068  134.1740  152.6763 H   0  0  0  0  0  0  0  0  0  0  0  0
  149.8442  137.1277  156.5456 H   0  0  0  0  0  0  0  0  0  0  0  0
  148.9703  135.9835  155.5626 H   0  0  0  0  0  0  0  0  0  0  0  0
  151.2489  135.1826  156.0639 H   0  0  0  0  0  0  0  0  0  0  0  0
  151.0209  135.3757  154.3350 H   0  0  0  0  0  0  0  0  0  0  0  0
  152.8998  138.4815  154.2759 H   0  0  0  0  0  0  0  0  0  0  0  0
  152.0237  137.3524  153.2603 H   0  0  0  0  0  0  0  0  0  0  0  0
  150.6673  139.3393  153.6779 H   0  0  0  0  0  0  0  0  0  0  0  0
  150.8378  139.1847  155.4109 H   0  0  0  0  0  0  0  0  0  0  0  0
  148.9214  139.6483  152.9021 H   0  0  0  0  0  0  0  0  0  0  0  0
  147.2660  139.1668  152.7875 H   0  0  0  0  0  0  0  0  0  0  0  0
  147.9370  141.6913  153.5043 H   0  0  0  0  0  0  0  0  0  0  0  0
  146.5668  140.8952  154.2726 H   0  0  0  0  0  0  0  0  0  0  0  0
  149.3988  141.1042  155.3434 H   0  0  0  0  0  0  0  0  0  0  0  0
  147.9118  141.5450  156.1778 H   0  0  0  0  0  0  0  0  0  0  0  0
  147.2857  139.3039  156.4861 H   0  0  0  0  0  0  0  0  0  0  0  0
  148.9841  139.1242  156.6821 H   0  0  0  0  0  0  0  0  0  0  0  0
  143.6494  131.3316  149.6070 H   0  0  0  0  0  0  0  0  0  0  0  0
  1  2  1  0  0  0  0
  1 24  1  0  0  0  0
  1 25  1  0  0  0  0
  1 26  1  0  0  0  0
  2  3  1  0  0  0  0
  2 13  1  0  0  0  0
  2 27  1  0  0  0  0
  3  4  1  0  0  0  0
  3 28  1  0  0  0  0
  4  5  2  0  0  0  0
  4  6  1  0  0  0  0
  6  7  1  0  0  0  0
  6 29  1  0  0  0  0
  7 12  1  0  0  0  0
  7  8  2  0  0  0  0
  8  9  1  0  0  0  0
  8 30  1  0  0  0  0
  9 10  2  0  0  0  0
  9 31  1  0  0  0  0
 10 11  1  0  0  0  0
 10 50  1  0  0  0  0
 11 12  2  0  0  0  0
 11 32  1  0  0  0  0
 12 33  1  0  0  0  0
 13 23  1  0  0  0  0
 13 14  1  0  0  0  0
 13 20  1  0  0  0  0
 14 19  1  0  0  0  0
 14 15  1  0  0  0  0
 15 16  1  0  0  0  0
 15 34  1  0  0  0  0
 15 35  1  0  0  0  0
 16 17  1  0  0  0  0
 16 36  1  0  0  0  0
 16 37  1  0  0  0  0
 17 18  1  0  0  0  0
 18 19  1  0  0  0  0
 18 38  1  0  0  0  0
 18 39  1  0  0  0  0
 19 40  1  0  0  0  0
 19 41  1  0  0  0  0
 20 21  1  0  0  0  0
 20 42  1  0  0  0  0
 20 43  1  0  0  0  0
 21 22  1  0  0  0  0
 21 44  1  0  0  0  0
 21 45  1  0  0  0  0
 22 23  1  0  0  0  0
 22 46  1  0  0  0  0
 22 47  1  0  0  0  0
 23 48  1  0  0  0  0
 23 49  1  0  0  0  0
M  CHG  1  10   1
M  END
> <s_m_source_file>
AV-unprocessed.smi

> <i_m_source_file_index>
702

> <i_lp_mmshare_version>
43012

> <i_f3d_flags>
0

> <s_epik_input>
W0NIMl0xW0NIMl1PW0NIMl1bQ0gyXU4xQzIoW0NIMl1bQ0gyXVtDSDJdW0NIMl0yKVtDQEhdKFtDSDNdKVtOSF1DKD1PKVtOSF1jM1tjSF1bY0hdbltjSF1bY0hdMw==

> <s_epik_cmdline>
J2VwaWtfcHl0aG9uJywgJy1waCcsICc3LjAnLCAnLXRuJywgJzgnLCAnLW1hJywgJzIwMCcsICctbWV0YWxfYmluZGluZycsICctaW1hZScsICc8aW5maWxlLm1hZT4nLCAnLW9tYWUnLCAnPG91dGZpbGUubWFlPic=

> <r_epik_Ionization_Penalty>
1.54019

> <r_epik_Ionization_Penalty_Charging>
1.02845

> <r_epik_Ionization_Penalty_Neutral>
0.511739

> <r_epik_State_Penalty>
1.62583

> <r_epik_Charging_Adjusted_Penalty>
2.65428

> <i_epik_Tot_Q>
1

> <i_epik_Tot_abs_Q>
1

> <r_epik_Metal_State_Penalty>
1.71803

> <b_epik_Metal_Only>
0

> <s_lp_Force_Field>
OPLS_2005

> <r_lp_Energy>
72.2563

> <b_lp_Chiralities_Consistent>
1

> <s_lp_Variant>
AV-unprocessed.smi:702-8

> <Gold.Version>
5.8.1

> <Gold.Id.Protein>
6NUR|6NUR_protein|mol2

> <Gold.PLP.Fitness>
40.0271

> <Gold.PLP.PLP>
-32.9628

> <Gold.PLP.part.hbond>
-3.0000

> <Gold.PLP.part.metal>
0.0000

> <Gold.PLP.part.buried>
-2.1727

> <Gold.PLP.part.nonpolar>
-28.4477

> <Gold.PLP.part.repulsive>
0.4440

> <Gold.PLP.ligand.clash>
0.0000

> <Gold.PLP.ligand.torsion>
0.2306

> <Gold.PLP.Chemscore.Hbond>
2.4678

> <Gold.PLP.Chemscore.CHOScore>
0.0000

> <Gold.PLP.Chemscore.Metal>
0.0000

> <Gold.Chemscore.Hbonds>
donor molecule, donor type, donor heavy atom, donor atom, acceptor molecule, acceptor atom, score
      L1  H     3    28       P1  7948  1.00
      L1  H     6    29       P1  7948  0.98
      P1  H 10752 10765       L1    17  0.26

> <Gold.PLP.Chemscore.Internal.Correction>
0.1222

> <Gold.Rescore>
     Score         DG    S(hbond)    S(metal)    S(lipo)     H(rot)  DE(clash)    DE(int)     intcor
     14.69     -19.12       1.93        0.00      92.89       1.44       1.60       2.83       ----

> <Gold.Chemscore.Fitness>
14.6937

> <Gold.Chemscore.DG>
-19.1180

> <Gold.Chemscore.ZeroCoef>
-5.4800

> <Gold.Chemscore.Hbond>
1.9325

> <Gold.Chemscore.Metal>
0.0000

> <Gold.Chemscore.Lipo>
92.8906

> <Gold.Chemscore.Internal_Hbond>
0.0000

> <Gold.Chemscore.DEClash>
1.5963

> <Gold.Chemscore.DEInternal>
2.8280

> <Gold.Chemscore.Rot>
1.4394

> <Gold.Chemscore.Internal.Correction>
   9.000000E+99

> <Gold.Chemscore.Hbonds>
donor molecule, donor type, donor heavy atom, donor atom, acceptor molecule, acceptor atom, score
      L1  H     3    28       P1  7948  0.99
      L1  H     6    29       P1  7948  0.88

> <Gold.Chemscore.Hbond.Weighted>
-6.4547

> <Gold.Chemscore.Metal.Weighted>
-0.0000

> <Gold.Chemscore.Lipo.Weighted>
-10.8682

> <Gold.Chemscore.Internal_Hbond.Weighted>
0.0000

> <Gold.Chemscore.DEClash.Weighted>
1.5963

> <Gold.Chemscore.DEInternal.Weighted>
2.8280

> <Gold.Chemscore.Rot.Weighted>
3.6848

> <Gold.Chemscore.Internal.Correction.Weighted>
   9.000000E+99

> <Gold.Protein.RotatedTorsions>
[ 6907 6896 6895 6894 ] final -128.06 input  -60.11 | X-H torsion
[ 7974 7965 7964 7962 ] final  161.53 input  175.53 | X-H torsion
[ 8008 7997 7996 7995 ] final   31.06 input   59.86 | X-H torsion
[ 10167 10162 10161 10158 ] final  -90.66 input  -65.29 | X-H torsion
[ 10718 10713 10712 10709 ] final -124.96 input   66.30 | X-H torsion
[ 10763 10752 10751 10750 ] final -160.00 input  -60.55 | X-H torsion
[ 11005 11000 10999 10996 ] final  123.96 input  -57.11 | X-H torsion

> <Gold.Protein.ActiveResidues>
 VAL166  LYS551  ARG553  GLY616  TRP617  ASP618  TYR619  PRO620  LYS621  CYS622 
 ASP623  PHE694  ASN695  SER759  ASP760  ASP761  ALA762  ILE779  LEU786  VAL792 
 PHE793  MET794  SER795  GLU796  ALA797  LYS798  CYS799  TRP800  GLU811  SER814 

> <Gold.Protein.RotatedAtoms>
  150.9139  133.6963  159.2847 H   0  0  0  0  0  0  0  0  0  0  0  0  # atno 6907 bound_to 6896
  151.4440  135.1022  159.9688 H   0  0  0  0  0  0  0  0  0  0  0  0  # atno 6908 bound_to 6896
  152.4944  133.8541  159.7271 H   0  0  0  0  0  0  0  0  0  0  0  0  # atno 6909 bound_to 6896
  144.7681  139.7912  143.6307 H   0  0  0  0  0  0  0  0  0  0  0  0  # atno 7974 bound_to 7965
  155.1003  140.3229  155.4549 H   0  0  0  0  0  0  0  0  0  0  0  0  # atno 8008 bound_to 7997
  156.2719  140.2062  156.6076 H   0  0  0  0  0  0  0  0  0  0  0  0  # atno 8009 bound_to 7997
  154.6834  140.0524  157.0277 H   0  0  0  0  0  0  0  0  0  0  0  0  # atno 8010 bound_to 7997
  140.3527  143.2883  151.9707 H   0  0  0  0  0  0  0  0  0  0  0  0  # atno 10167 bound_to 10162
  156.1633  130.6617  151.0080 H   0  0  0  0  0  0  0  0  0  0  0  0  # atno 10718 bound_to 10713
  154.7427  135.3072  154.8699 H   0  0  0  0  0  0  0  0  0  0  0  0  # atno 10763 bound_to 10752
  153.9509  135.6764  153.4748 H   0  0  0  0  0  0  0  0  0  0  0  0  # atno 10764 bound_to 10752
  153.1025  135.4905  154.8818 H   0  0  0  0  0  0  0  0  0  0  0  0  # atno 10765 bound_to 10752
  139.9336  134.9640  156.8337 H   0  0  0  0  0  0  0  0  0  0  0  0  # atno 11005 bound_to 11000
  146.1805  139.4996  142.9869 LP  0  0  0  0  0  0  0  0  0  0  0  0  # atno 17320 bound_to 7965
  145.6408  141.0285  143.1813 LP  0  0  0  0  0  0  0  0  0  0  0  0  # atno 17321 bound_to 7965
  139.4824  144.6062  151.7517 LP  0  0  0  0  0  0  0  0  0  0  0  0  # atno 17342 bound_to 10162
  140.5203  144.0889  150.6021 LP  0  0  0  0  0  0  0  0  0  0  0  0  # atno 17343 bound_to 10162
  157.6749  131.0853  150.7520 LP  0  0  0  0  0  0  0  0  0  0  0  0  # atno 17370 bound_to 10713
  156.7581  130.4790  149.5442 LP  0  0  0  0  0  0  0  0  0  0  0  0  # atno 17371 bound_to 10713
  140.6135  134.0061  155.7587 LP  0  0  0  0  0  0  0  0  0  0  0  0  # atno 17394 bound_to 11000
  141.0939  133.9874  157.3193 LP  0  0  0  0  0  0  0  0  0  0  0  0  # atno 17395 bound_to 11000

$$$$
