AV-unprocessed.smi:2302|AV-procd|sdf|9237|dock1
  -GOLD-   2272012453D 1   1.00000     0.00000
 Structure written by MMmdl.
 40 41  0  0  0  0  0  0  0  0  2 V2000
  153.4633  142.2242  160.9661 C   0  0  0  0  0  0  0  0  0  0  0  0
  152.4960  143.2063  160.3393 C   0  0  0  0  0  0  0  0  0  0  0  0
  152.2511  144.4597  160.9334 C   0  0  0  0  0  0  0  0  0  0  0  0
  151.3391  145.3250  160.3033 C   0  0  0  0  0  0  0  0  0  0  0  0
  150.7120  144.9034  159.1149 C   0  0  0  0  0  0  0  0  0  0  0  0
  151.0116  143.6281  158.5855 C   0  0  0  0  0  0  0  0  0  0  0  0
  150.3263  143.2966  157.3862 N   0  0  0  0  0  0  0  0  0  0  0  0
  150.0605  142.0741  156.8933 C   0  0  0  0  0  0  0  0  0  0  0  0
  150.3816  141.0072  157.4180 O   0  0  0  0  0  0  0  0  0  0  0  0
  149.3898  142.1494  155.7347 N   0  0  0  0  0  0  0  0  0  0  0  0
  148.9395  140.9998  154.9569 C   0  0  0  0  0  0  0  0  0  0  0  0
  149.9886  139.8736  154.9302 C   0  0  1  0  0  0  0  0  0  0  0  0
  149.6113  138.7656  153.9237 C   0  0  0  0  0  0  0  0  0  0  0  0
  150.6724  137.7346  153.8249 N   0  3  2  0  0  0  0  0  0  0  0  0
  150.6758  136.7706  154.9499 C   0  0  0  0  0  0  0  0  0  0  0  0
  151.9944  138.3516  153.5641 C   0  0  0  0  0  0  0  0  0  0  0  0
  152.2945  139.4800  154.5683 C   0  0  0  0  0  0  0  0  0  0  0  0
  151.2400  140.4344  154.5436 O   0  0  0  0  0  0  0  0  0  0  0  0
  151.8946  142.8017  159.1998 N   0  0  0  0  0  0  0  0  0  0  0  0
  154.1147  142.7199  161.6866 H   0  0  0  0  0  0  0  0  0  0  0  0
  154.0923  141.7629  160.2040 H   0  0  0  0  0  0  0  0  0  0  0  0
  152.9162  141.4361  161.4840 H   0  0  0  0  0  0  0  0  0  0  0  0
  152.7468  144.7520  161.8477 H   0  0  0  0  0  0  0  0  0  0  0  0
  151.1226  146.2956  160.7245 H   0  0  0  0  0  0  0  0  0  0  0  0
  150.0074  145.5555  158.6195 H   0  0  0  0  0  0  0  0  0  0  0  0
  149.9951  144.0817  156.8454 H   0  0  0  0  0  0  0  0  0  0  0  0
  149.1668  143.0636  155.3688 H   0  0  0  0  0  0  0  0  0  0  0  0
  147.9991  140.6310  155.3702 H   0  0  0  0  0  0  0  0  0  0  0  0
  148.7205  141.3335  153.9422 H   0  0  0  0  0  0  0  0  0  0  0  0
  150.0769  139.4442  155.9293 H   0  0  0  0  0  0  0  0  0  0  0  0
  148.6620  138.3013  154.1944 H   0  0  0  0  0  0  0  0  0  0  0  0
  149.4702  139.2042  152.9349 H   0  0  0  0  0  0  0  0  0  0  0  0
  150.9143  137.2511  155.8987 H   0  0  0  0  0  0  0  0  0  0  0  0
  151.4102  135.9841  154.7753 H   0  0  0  0  0  0  0  0  0  0  0  0
  149.7001  136.2934  155.0474 H   0  0  0  0  0  0  0  0  0  0  0  0
  152.7793  137.5945  153.5833 H   0  0  0  0  0  0  0  0  0  0  0  0
  151.9855  138.7627  152.5537 H   0  0  0  0  0  0  0  0  0  0  0  0
  152.4268  139.0899  155.5783 H   0  0  0  0  0  0  0  0  0  0  0  0
  153.2256  139.9797  154.3003 H   0  0  0  0  0  0  0  0  0  0  0  0
  150.4527  137.1820  153.0081 H   0  0  0  0  0  0  0  0  0  0  0  0
  1  2  1  0  0  0  0
  1 20  1  0  0  0  0
  1 21  1  0  0  0  0
  1 22  1  0  0  0  0
  2 19  1  0  0  0  0
  2  3  2  0  0  0  0
  3  4  1  0  0  0  0
  3 23  1  0  0  0  0
  4  5  2  0  0  0  0
  4 24  1  0  0  0  0
  5  6  1  0  0  0  0
  5 25  1  0  0  0  0
  6  7  1  0  0  0  0
  6 19  2  0  0  0  0
  7  8  1  0  0  0  0
  7 26  1  0  0  0  0
  8  9  2  0  0  0  0
  8 10  1  0  0  0  0
 10 11  1  0  0  0  0
 10 27  1  0  0  0  0
 11 12  1  0  0  0  0
 11 28  1  0  0  0  0
 11 29  1  0  0  0  0
 12 18  1  0  0  0  0
 12 13  1  0  0  0  0
 12 30  1  0  0  0  0
 13 14  1  0  0  0  0
 13 31  1  0  0  0  0
 13 32  1  0  0  0  0
 14 15  1  0  0  0  0
 14 16  1  0  0  0  0
 14 40  1  0  0  0  0
 15 33  1  0  0  0  0
 15 34  1  0  0  0  0
 15 35  1  0  0  0  0
 16 17  1  0  0  0  0
 16 36  1  0  0  0  0
 16 37  1  0  0  0  0
 17 18  1  0  0  0  0
 17 38  1  0  0  0  0
 17 39  1  0  0  0  0
M  CHG  1  14   1
M  END
> <s_m_source_file>
AV-unprocessed.smi

> <i_m_source_file_index>
2302

> <i_lp_mmshare_version>
43012

> <i_f3d_flags>
0

> <s_epik_input>
W0NIM11jMVtjSF1bY0hdW2NIXWMobjEpW05IXUMoPU8pW05IXVtDSDJdW0NAQEhdMltDSDJdTihbQ0gzXSlbQ0gyXVtDSDJdTzI=

> <s_epik_cmdline>
J2VwaWtfcHl0aG9uJywgJy1waCcsICc3LjAnLCAnLXRuJywgJzgnLCAnLW1hJywgJzIwMCcsICctbWV0YWxfYmluZGluZycsICctaW1hZScsICc8aW5maWxlLm1hZT4nLCAnLW9tYWUnLCAnPG91dGZpbGUubWFlPic=

> <r_epik_Ionization_Penalty>
0.204647

> <r_epik_Ionization_Penalty_Charging>
0.204578

> <r_epik_Ionization_Penalty_Neutral>
6.91954e-05

> <r_epik_State_Penalty>
0.194513

> <r_epik_Charging_Adjusted_Penalty>
0.399091

> <i_epik_Tot_Q>
1

> <i_epik_Tot_abs_Q>
1

> <r_epik_Metal_State_Penalty>
0.194515

> <b_epik_Metal_Only>
0

> <s_lp_Force_Field>
OPLS_2005

> <r_lp_Energy>
17.5871

> <b_lp_Chiralities_Consistent>
1

> <s_lp_Variant>
AV-unprocessed.smi:2302-2

> <Gold.Version>
5.8.1

> <Gold.Id.Protein>
6NUR|6NUR_protein|mol2

> <Gold.PLP.Fitness>
55.5772

> <Gold.PLP.PLP>
-42.6126

> <Gold.PLP.part.hbond>
-4.2529

> <Gold.PLP.part.metal>
0.0000

> <Gold.PLP.part.buried>
-7.2356

> <Gold.PLP.part.nonpolar>
-33.0057

> <Gold.PLP.part.repulsive>
0.3006

> <Gold.PLP.ligand.clash>
0.0000

> <Gold.PLP.ligand.torsion>
0.2999

> <Gold.PLP.Chemscore.Hbond>
4.5200

> <Gold.PLP.Chemscore.CHOScore>
0.0000

> <Gold.PLP.Chemscore.Metal>
0.0000

> <Gold.Chemscore.Hbonds>
donor molecule, donor type, donor heavy atom, donor atom, acceptor molecule, acceptor atom, score
      L1  H     7    26       P1  8028  1.00
      L1  H    10    27       P1  8028  0.99
      L1  H    14    40       P1  7948  0.56
      P1  H  7989  7998       L1    18  0.09

> <Gold.PLP.Chemscore.Internal.Correction>
0.0043

> <Gold.Rescore>
     Score         DG    S(hbond)    S(metal)    S(lipo)     H(rot)  DE(clash)    DE(int)     intcor
     20.35     -22.95       2.98        0.00      91.98       1.27       0.04       2.56       ----

> <Gold.Chemscore.Fitness>
20.3453

> <Gold.Chemscore.DG>
-22.9453

> <Gold.Chemscore.ZeroCoef>
-5.4800

> <Gold.Chemscore.Hbond>
2.9833

> <Gold.Chemscore.Metal>
0.0000

> <Gold.Chemscore.Lipo>
91.9781

> <Gold.Chemscore.Internal_Hbond>
0.0000

> <Gold.Chemscore.DEClash>
0.0407

> <Gold.Chemscore.DEInternal>
2.5594

> <Gold.Chemscore.Rot>
1.2736

> <Gold.Chemscore.Internal.Correction>
   9.000000E+99

> <Gold.Chemscore.Hbonds>
donor molecule, donor type, donor heavy atom, donor atom, acceptor molecule, acceptor atom, score
      L1  H     7    26       P1  8028  0.91
      L1  H    10    27       P1  8028  0.94
      P1  H  7989  7998       L1    18  0.01

> <Gold.Chemscore.Hbond.Weighted>
-9.9641

> <Gold.Chemscore.Metal.Weighted>
-0.0000

> <Gold.Chemscore.Lipo.Weighted>
-10.7614

> <Gold.Chemscore.Internal_Hbond.Weighted>
0.0000

> <Gold.Chemscore.DEClash.Weighted>
0.0407

> <Gold.Chemscore.DEInternal.Weighted>
2.5594

> <Gold.Chemscore.Rot.Weighted>
3.2603

> <Gold.Chemscore.Internal.Correction.Weighted>
   9.000000E+99

> <Gold.Protein.RotatedTorsions>
[ 6907 6896 6895 6894 ] final  -15.59 input  -60.11 | X-H torsion
[ 7974 7965 7964 7962 ] final   55.35 input  175.53 | X-H torsion
[ 8008 7997 7996 7995 ] final    9.87 input   59.86 | X-H torsion
[ 10167 10162 10161 10158 ] final  -59.39 input  -65.29 | X-H torsion
[ 10718 10713 10712 10709 ] final  -23.71 input   66.30 | X-H torsion
[ 10763 10752 10751 10750 ] final -142.68 input  -60.55 | X-H torsion
[ 11005 11000 10999 10996 ] final   69.25 input  -57.11 | X-H torsion

> <Gold.Protein.ActiveResidues>
 VAL166  LYS551  ARG553  GLY616  TRP617  ASP618  TYR619  PRO620  LYS621  CYS622 
 ASP623  PHE694  ASN695  SER759  ASP760  ASP761  ALA762  ILE779  LEU786  VAL792 
 PHE793  MET794  SER795  GLU796  ALA797  LYS798  CYS799  TRP800  GLU811  SER814 

> <Gold.Protein.RotatedAtoms>
  151.3216  135.0820  159.9307 H   0  0  0  0  0  0  0  0  0  0  0  0  # atno 6907 bound_to 6896
  152.5255  133.9633  159.7738 H   0  0  0  0  0  0  0  0  0  0  0  0  # atno 6908 bound_to 6896
  150.9955  133.6055  159.2732 H   0  0  0  0  0  0  0  0  0  0  0  0  # atno 6909 bound_to 6896
  145.9514  139.3975  143.0304 H   0  0  0  0  0  0  0  0  0  0  0  0  # atno 7974 bound_to 7965
  154.7857  140.2827  155.6029 H   0  0  0  0  0  0  0  0  0  0  0  0  # atno 8008 bound_to 7997
  156.2957  140.2614  156.2622 H   0  0  0  0  0  0  0  0  0  0  0  0  # atno 8009 bound_to 7997
  154.9730  140.0376  157.2233 H   0  0  0  0  0  0  0  0  0  0  0  0  # atno 8010 bound_to 7997
  140.6138  143.2395  151.5646 H   0  0  0  0  0  0  0  0  0  0  0  0  # atno 10167 bound_to 10162
  156.4874  130.4558  149.6775 H   0  0  0  0  0  0  0  0  0  0  0  0  # atno 10718 bound_to 10713
  154.8500  135.3489  154.6066 H   0  0  0  0  0  0  0  0  0  0  0  0  # atno 10763 bound_to 10752
  153.6675  135.6986  153.5162 H   0  0  0  0  0  0  0  0  0  0  0  0  # atno 10764 bound_to 10752
  153.2769  135.4275  155.0998 H   0  0  0  0  0  0  0  0  0  0  0  0  # atno 10765 bound_to 10752
  139.9664  134.6973  156.0536 H   0  0  0  0  0  0  0  0  0  0  0  0  # atno 11005 bound_to 11000
  145.8166  140.9700  143.0920 LP  0  0  0  0  0  0  0  0  0  0  0  0  # atno 17320 bound_to 7965
  144.6796  139.9989  143.7484 LP  0  0  0  0  0  0  0  0  0  0  0  0  # atno 17321 bound_to 7965
  139.5382  144.2721  152.1296 LP  0  0  0  0  0  0  0  0  0  0  0  0  # atno 17342 bound_to 10162
  140.1926  144.4737  150.6471 LP  0  0  0  0  0  0  0  0  0  0  0  0  # atno 17343 bound_to 10162
  156.3461  130.7407  151.2360 LP  0  0  0  0  0  0  0  0  0  0  0  0  # atno 17370 bound_to 10713
  157.7477  131.0390  150.4530 LP  0  0  0  0  0  0  0  0  0  0  0  0  # atno 17371 bound_to 10713
  141.1344  133.6578  156.3553 LP  0  0  0  0  0  0  0  0  0  0  0  0  # atno 17394 bound_to 11000
  140.5387  134.6142  157.5373 LP  0  0  0  0  0  0  0  0  0  0  0  0  # atno 17395 bound_to 11000

$$$$
