AV-unprocessed.smi:21|AV-procd|sdf|153|dock7
  -GOLD-   2262015373D 1   1.00000     0.00000
 Structure written by MMmdl.
 61 64  0  0  0  0  0  0  0  0  1 V2000
  152.6495  145.4373  160.3841 C   0  0  0  0  0  0  0  0  0  0  0  0
  151.6746  144.9832  159.4587 O   0  0  0  0  0  0  0  0  0  0  0  0
  152.1788  144.0364  158.5265 C   0  0  1  0  0  0  0  0  0  0  0  0
  152.5802  142.7165  159.2074 C   0  0  0  0  0  0  0  0  0  0  0  0
  151.8925  141.6375  158.3640 C   0  0  1  0  0  0  0  0  0  0  0  0
  151.6900  140.3078  159.1215 C   0  0  0  0  0  0  0  0  0  0  0  0
  152.5219  139.2224  158.6014 N   0  0  0  0  0  0  0  0  0  0  0  0
  153.9718  139.3696  158.7079 C   0  0  0  0  0  0  0  0  0  0  0  0
  152.0403  138.5815  157.5035 C   0  0  0  0  0  0  0  0  0  0  0  0
  152.5629  138.8615  156.2789 N   0  0  0  0  0  0  0  0  0  0  0  0
  152.0987  138.2476  155.1873 C   0  0  0  0  0  0  0  0  0  0  0  0
  151.1364  137.3291  155.0934 N   0  0  0  0  0  0  0  0  0  0  0  0
  150.6140  137.0305  156.3163 C   0  0  0  0  0  0  0  0  0  0  0  0
  151.0001  137.6092  157.5597 C   0  0  0  0  0  0  0  0  0  0  0  0
  150.2455  137.0576  158.5872 N   0  0  0  0  0  0  0  0  0  0  0  0
  149.4530  136.2136  157.9875 C   0  0  0  0  0  0  0  0  0  0  0  0
  149.6191  136.1171  156.6242 N   0  0  0  0  0  0  0  0  0  0  0  0
  148.8743  135.2495  155.7216 C   0  0  0  0  0  0  0  0  0  0  0  0
  148.0450  134.1422  156.4302 C   0  0  2  0  0  0  0  0  0  0  0  0
  148.8838  132.8777  156.7342 C   0  0  0  0  0  0  0  0  0  0  0  0
  149.9130  133.1616  157.6593 O   0  0  0  0  0  0  0  0  0  0  0  0
  146.7525  133.7858  155.6502 C   0  0  2  0  0  0  0  0  0  0  0  0
  146.9864  133.2544  154.2452 C   0  0  0  0  0  0  0  0  0  0  0  0
  145.6157  133.4282  153.6018 C   0  0  0  0  0  0  0  0  0  0  0  0
  145.0545  134.5872  154.2067 O   0  0  0  0  0  0  0  0  0  0  0  0
  145.8382  134.9744  155.3308 C   0  0  0  0  0  0  0  0  0  0  0  0
  150.6639  142.2733  157.9183 N   0  0  0  0  0  0  0  0  0  0  0  0
  150.0023  141.5794  156.8213 C   0  0  0  0  0  0  0  0  0  0  0  0
  151.0689  143.6196  157.5514 C   0  0  0  0  0  0  0  0  0  0  0  0
  153.0098  144.4617  157.9610 H   0  0  0  0  0  0  0  0  0  0  0  0
  152.5148  141.4562  157.4865 H   0  0  0  0  0  0  0  0  0  0  0  0
  152.2001  146.1652  161.0597 H   0  0  0  0  0  0  0  0  0  0  0  0
  153.4808  145.9241  159.8727 H   0  0  0  0  0  0  0  0  0  0  0  0
  153.0425  144.6197  160.9892 H   0  0  0  0  0  0  0  0  0  0  0  0
  153.6610  142.5821  159.2608 H   0  0  0  0  0  0  0  0  0  0  0  0
  152.1889  142.6951  160.2241 H   0  0  0  0  0  0  0  0  0  0  0  0
  151.8558  140.4670  160.1870 H   0  0  0  0  0  0  0  0  0  0  0  0
  150.6520  139.9876  159.0310 H   0  0  0  0  0  0  0  0  0  0  0  0
  154.4819  138.4466  158.4284 H   0  0  0  0  0  0  0  0  0  0  0  0
  154.2678  139.6045  159.7296 H   0  0  0  0  0  0  0  0  0  0  0  0
  154.3257  140.1714  158.0588 H   0  0  0  0  0  0  0  0  0  0  0  0
  152.5658  138.5323  154.2561 H   0  0  0  0  0  0  0  0  0  0  0  0
  148.7270  135.6258  158.5300 H   0  0  0  0  0  0  0  0  0  0  0  0
  148.2109  135.8807  155.1293 H   0  0  0  0  0  0  0  0  0  0  0  0
  149.5707  134.8155  155.0044 H   0  0  0  0  0  0  0  0  0  0  0  0
  147.7310  134.5517  157.3915 H   0  0  0  0  0  0  0  0  0  0  0  0
  148.2655  132.0980  157.1780 H   0  0  0  0  0  0  0  0  0  0  0  0
  149.3134  132.4551  155.8259 H   0  0  0  0  0  0  0  0  0  0  0  0
  150.7453  132.9965  157.2430 H   0  0  0  0  0  0  0  0  0  0  0  0
  146.1712  133.0545  156.2134 H   0  0  0  0  0  0  0  0  0  0  0  0
  147.7223  133.8682  153.7235 H   0  0  0  0  0  0  0  0  0  0  0  0
  147.3284  132.2209  154.2142 H   0  0  0  0  0  0  0  0  0  0  0  0
  145.6729  133.5308  152.5182 H   0  0  0  0  0  0  0  0  0  0  0  0
  144.9775  132.5734  153.8297 H   0  0  0  0  0  0  0  0  0  0  0  0
  145.2001  135.2496  156.1709 H   0  0  0  0  0  0  0  0  0  0  0  0
  146.4254  135.8504  155.0513 H   0  0  0  0  0  0  0  0  0  0  0  0
  149.1190  142.1303  156.4967 H   0  0  0  0  0  0  0  0  0  0  0  0
  149.6746  140.5860  157.1269 H   0  0  0  0  0  0  0  0  0  0  0  0
  150.6670  141.4696  155.9632 H   0  0  0  0  0  0  0  0  0  0  0  0
  150.2212  144.3056  157.5606 H   0  0  0  0  0  0  0  0  0  0  0  0
  151.4771  143.6209  156.5394 H   0  0  0  0  0  0  0  0  0  0  0  0
  1  2  1  0  0  0  0
  1 32  1  0  0  0  0
  1 33  1  0  0  0  0
  1 34  1  0  0  0  0
  2  3  1  0  0  0  0
  3 30  1  0  0  0  0
  3 29  1  0  0  0  0
  3  4  1  0  0  0  0
  4  5  1  0  0  0  0
  4 35  1  0  0  0  0
  4 36  1  0  0  0  0
  5 31  1  0  0  0  0
  5  6  1  0  0  0  0
  5 27  1  0  0  0  0
  6  7  1  0  0  0  0
  6 37  1  0  0  0  0
  6 38  1  0  0  0  0
  7  8  1  0  0  0  0
  7  9  1  0  0  0  0
  8 39  1  0  0  0  0
  8 40  1  0  0  0  0
  8 41  1  0  0  0  0
  9 14  1  0  0  0  0
  9 10  2  0  0  0  0
 10 11  1  0  0  0  0
 11 12  2  0  0  0  0
 11 42  1  0  0  0  0
 12 13  1  0  0  0  0
 13 17  1  0  0  0  0
 13 14  2  0  0  0  0
 14 15  1  0  0  0  0
 15 16  2  0  0  0  0
 16 17  1  0  0  0  0
 16 43  1  0  0  0  0
 17 18  1  0  0  0  0
 18 19  1  0  0  0  0
 18 44  1  0  0  0  0
 18 45  1  0  0  0  0
 19 20  1  0  0  0  0
 19 22  1  0  0  0  0
 19 46  1  0  0  0  0
 20 21  1  0  0  0  0
 20 47  1  0  0  0  0
 20 48  1  0  0  0  0
 21 49  1  0  0  0  0
 22 26  1  0  0  0  0
 22 23  1  0  0  0  0
 22 50  1  0  0  0  0
 23 24  1  0  0  0  0
 23 51  1  0  0  0  0
 23 52  1  0  0  0  0
 24 25  1  0  0  0  0
 24 53  1  0  0  0  0
 24 54  1  0  0  0  0
 25 26  1  0  0  0  0
 26 55  1  0  0  0  0
 26 56  1  0  0  0  0
 27 28  1  0  0  0  0
 27 29  1  0  0  0  0
 28 57  1  0  0  0  0
 28 58  1  0  0  0  0
 28 59  1  0  0  0  0
 29 60  1  0  0  0  0
 29 61  1  0  0  0  0
M  END
> <s_m_source_file>
AV-unprocessed.smi

> <i_m_source_file_index>
21

> <i_lp_mmshare_version>
43012

> <i_f3d_flags>
0

> <s_epik_input>
W0NIM11PW0NASF0xW0NIMl1bQ0BIXShOKFtDSDNdKVtDSDJdMSlbQ0gyXU4oW0NIM10pYyhuW2NIXW4yKWMoYzIzKW5bY0hdbjNbQ0gyXVtDQEhdKFtDSDJdW09IXSlbQ0BASF00W0NIMl1bQ0gyXU9bQ0gyXTQ=

> <s_epik_cmdline>
J2VwaWtfcHl0aG9uJywgJy1waCcsICc3LjAnLCAnLXRuJywgJzgnLCAnLW1hJywgJzIwMCcsICctbWV0YWxfYmluZGluZycsICctaW1hZScsICc8aW5maWxlLm1hZT4nLCAnLW9tYWUnLCAnPG91dGZpbGUubWFlPic=

> <r_lp_tautomer_probability>
1

> <r_epik_Ionization_Penalty>
2.17574

> <r_epik_Ionization_Penalty_Charging>
0

> <r_epik_Ionization_Penalty_Neutral>
2.17574

> <r_epik_State_Penalty>
2.31336

> <r_epik_Charging_Adjusted_Penalty>
2.31336

> <i_epik_Tot_Q>
0

> <i_epik_Tot_abs_Q>
0

> <r_epik_Metal_State_Penalty>
2.31025

> <b_epik_Metal_Only>
0

> <s_lp_Force_Field>
OPLS_2005

> <r_lp_Energy>
70.2261

> <b_lp_Chiralities_Consistent>
1

> <s_lp_Variant>
AV-unprocessed.smi:21-33

> <Gold.Version>
5.8.1

> <Gold.Id.Protein>
6NUR|6NUR_protein|mol2

> <Gold.PLP.Fitness>
48.7951

> <Gold.PLP.PLP>
-45.5698

> <Gold.PLP.part.hbond>
-2.7623

> <Gold.PLP.part.metal>
0.0000

> <Gold.PLP.part.buried>
-2.7956

> <Gold.PLP.part.nonpolar>
-40.9034

> <Gold.PLP.part.repulsive>
0.7371

> <Gold.PLP.ligand.clash>
0.0000

> <Gold.PLP.ligand.torsion>
2.4994

> <Gold.PLP.Chemscore.Hbond>
2.4736

> <Gold.PLP.Chemscore.CHOScore>
0.0000

> <Gold.PLP.Chemscore.Metal>
0.0000

> <Gold.Chemscore.Hbonds>
donor molecule, donor type, donor heavy atom, donor atom, acceptor molecule, acceptor atom, score
      P1  H  6896  6909       L1    21  0.10
      P1  H  7997  8008       L1    10  0.50

> <Gold.PLP.Chemscore.Internal.Correction>
0.8034

> <Gold.Rescore>
     Score         DG    S(hbond)    S(metal)    S(lipo)     H(rot)  DE(clash)    DE(int)     intcor
     12.39     -14.94       1.47        0.00     104.71       3.00       0.11       2.43       ----

> <Gold.Chemscore.Fitness>
12.3943

> <Gold.Chemscore.DG>
-14.9386

> <Gold.Chemscore.ZeroCoef>
-5.4800

> <Gold.Chemscore.Hbond>
1.4656

> <Gold.Chemscore.Metal>
0.0000

> <Gold.Chemscore.Lipo>
104.7137

> <Gold.Chemscore.Internal_Hbond>
0.0000

> <Gold.Chemscore.DEClash>
0.1126

> <Gold.Chemscore.DEInternal>
2.4318

> <Gold.Chemscore.Rot>
3.0031

> <Gold.Chemscore.Internal.Correction>
   9.000000E+99

> <Gold.Chemscore.Hbonds>
donor molecule, donor type, donor heavy atom, donor atom, acceptor molecule, acceptor atom, score
      P1  H  7997  8008       L1    10  0.27

> <Gold.Chemscore.Hbond.Weighted>
-4.8951

> <Gold.Chemscore.Metal.Weighted>
-0.0000

> <Gold.Chemscore.Lipo.Weighted>
-12.2515

> <Gold.Chemscore.Internal_Hbond.Weighted>
0.0000

> <Gold.Chemscore.DEClash.Weighted>
0.1126

> <Gold.Chemscore.DEInternal.Weighted>
2.4318

> <Gold.Chemscore.Rot.Weighted>
7.6880

> <Gold.Chemscore.Internal.Correction.Weighted>
   9.000000E+99

> <Gold.Protein.RotatedTorsions>
[ 6907 6896 6895 6894 ] final  -24.03 input  -60.11 | X-H torsion
[ 7974 7965 7964 7962 ] final  -49.36 input  175.53 | X-H torsion
[ 8008 7997 7996 7995 ] final  -64.14 input   59.86 | X-H torsion
[ 10167 10162 10161 10158 ] final   89.20 input  -65.29 | X-H torsion
[ 10718 10713 10712 10709 ] final   87.47 input   66.30 | X-H torsion
[ 10763 10752 10751 10750 ] final  -84.99 input  -60.55 | X-H torsion
[ 11005 11000 10999 10996 ] final  -64.76 input  -57.11 | X-H torsion

> <Gold.Protein.ActiveResidues>
 VAL166  LYS551  ARG553  GLY616  TRP617  ASP618  TYR619  PRO620  LYS621  CYS622 
 ASP623  PHE694  ASN695  SER759  ASP760  ASP761  ALA762  ILE779  LEU786  VAL792 
 PHE793  MET794  SER795  GLU796  ALA797  LYS798  CYS799  TRP800  GLU811  SER814 

> <Gold.Protein.RotatedAtoms>
  151.1954  135.0420  159.8849 H   0  0  0  0  0  0  0  0  0  0  0  0  # atno 6907 bound_to 6896
  152.5436  134.0910  159.8287 H   0  0  0  0  0  0  0  0  0  0  0  0  # atno 6908 bound_to 6896
  151.1043  133.5172  159.2640 H   0  0  0  0  0  0  0  0  0  0  0  0  # atno 6909 bound_to 6896
  145.9414  140.7659  142.9550 H   0  0  0  0  0  0  0  0  0  0  0  0  # atno 7974 bound_to 7965
  154.4594  140.0960  156.6851 H   0  0  0  0  0  0  0  0  0  0  0  0  # atno 8008 bound_to 7997
  155.5039  140.3474  155.4357 H   0  0  0  0  0  0  0  0  0  0  0  0  # atno 8009 bound_to 7997
  156.0841  140.1380  156.9664 H   0  0  0  0  0  0  0  0  0  0  0  0  # atno 8010 bound_to 7997
  139.8597  144.6550  150.9073 H   0  0  0  0  0  0  0  0  0  0  0  0  # atno 10167 bound_to 10162
  157.6940  131.0257  150.3129 H   0  0  0  0  0  0  0  0  0  0  0  0  # atno 10718 bound_to 10713
  154.6059  135.5501  153.7423 H   0  0  0  0  0  0  0  0  0  0  0  0  # atno 10763 bound_to 10752
  153.0174  135.6378  154.1647 H   0  0  0  0  0  0  0  0  0  0  0  0  # atno 10764 bound_to 10752
  154.1586  135.2898  155.3095 H   0  0  0  0  0  0  0  0  0  0  0  0  # atno 10765 bound_to 10752
  141.1434  133.6671  156.5883 H   0  0  0  0  0  0  0  0  0  0  0  0  # atno 11005 bound_to 11000
  144.6780  140.2286  143.7358 LP  0  0  0  0  0  0  0  0  0  0  0  0  # atno 17320 bound_to 7965
  145.8295  139.2079  143.1891 LP  0  0  0  0  0  0  0  0  0  0  0  0  # atno 17321 bound_to 7965
  140.7777  143.3755  151.1571 LP  0  0  0  0  0  0  0  0  0  0  0  0  # atno 17342 bound_to 10162
  139.7386  143.8960  152.3042 LP  0  0  0  0  0  0  0  0  0  0  0  0  # atno 17343 bound_to 10162
  156.3628  130.3850  149.7238 LP  0  0  0  0  0  0  0  0  0  0  0  0  # atno 17370 bound_to 10713
  156.4678  130.7982  151.3001 LP  0  0  0  0  0  0  0  0  0  0  0  0  # atno 17371 bound_to 10713
  140.3783  134.7545  157.4644 LP  0  0  0  0  0  0  0  0  0  0  0  0  # atno 17394 bound_to 11000
  140.0657  134.5933  155.8698 LP  0  0  0  0  0  0  0  0  0  0  0  0  # atno 17395 bound_to 11000

$$$$
