AV-unprocessed.smi:3323|AV-procd|sdf|12777|dock9
  -GOLD-   2272019123D 1   1.00000     0.00000
 Structure written by MMmdl.
 37 38  0  0  0  0  0  0  0  0  1 V2000
  153.8261  141.1512  160.0744 C   0  0  0  0  0  0  0  0  0  0  0  0
  152.7117  142.1972  160.1847 C   0  0  2  0  0  0  0  0  0  0  0  0
  152.5815  143.0386  158.9001 C   0  0  0  0  0  0  0  0  0  0  0  0
  151.5089  144.1369  159.0456 C   0  0  1  0  0  0  0  0  0  0  0  0
  150.0527  143.6157  159.0157 C   0  0  0  0  0  0  0  0  0  0  0  0
  149.5917  143.3386  157.6576 N   0  0  0  0  0  0  0  0  0  0  0  0
  149.1938  142.1432  157.1978 C   0  0  0  0  0  0  0  0  0  0  0  0
  149.1557  141.1277  157.8917 O   0  0  0  0  0  0  0  0  0  0  0  0
  148.8483  142.2170  155.9006 N   0  0  0  0  0  0  0  0  0  0  0  0
  148.4025  141.1869  155.0271 C   0  0  0  0  0  0  0  0  0  0  0  0
  147.4613  141.3619  153.9826 C   0  0  0  0  0  0  0  0  0  0  0  0
  147.0985  140.2482  153.2004 C   0  0  0  0  0  0  0  0  0  0  0  0
  147.6829  139.0008  153.4923 C   0  0  0  0  0  0  0  0  0  0  0  0
  148.5736  138.8170  154.4889 N   0  0  0  0  0  0  0  0  0  0  0  0
  148.9169  139.8890  155.2341 C   0  0  0  0  0  0  0  0  0  0  0  0
  151.8099  144.9393  160.3241 C   0  0  0  0  0  0  0  0  0  0  0  0
  151.9985  144.0176  161.5426 C   0  0  0  0  0  0  0  0  0  0  0  0
  153.0160  143.0575  161.2788 O   0  0  0  0  0  0  0  0  0  0  0  0
  153.6294  140.4549  159.2588 H   0  0  0  0  0  0  0  0  0  0  0  0
  153.9081  140.5708  160.9935 H   0  0  0  0  0  0  0  0  0  0  0  0
  154.7924  141.6209  159.8891 H   0  0  0  0  0  0  0  0  0  0  0  0
  151.7751  141.6765  160.3888 H   0  0  0  0  0  0  0  0  0  0  0  0
  153.5418  143.5119  158.6911 H   0  0  0  0  0  0  0  0  0  0  0  0
  152.3769  142.3981  158.0428 H   0  0  0  0  0  0  0  0  0  0  0  0
  151.6157  144.8167  158.1991 H   0  0  0  0  0  0  0  0  0  0  0  0
  149.9335  142.7394  159.6536 H   0  0  0  0  0  0  0  0  0  0  0  0
  149.3893  144.3747  159.4310 H   0  0  0  0  0  0  0  0  0  0  0  0
  149.5851  144.1180  157.0160 H   0  0  0  0  0  0  0  0  0  0  0  0
  148.8880  143.1377  155.4883 H   0  0  0  0  0  0  0  0  0  0  0  0
  147.0020  142.3133  153.7679 H   0  0  0  0  0  0  0  0  0  0  0  0
  146.3850  140.3478  152.3960 H   0  0  0  0  0  0  0  0  0  0  0  0
  147.4247  138.1268  152.9128 H   0  0  0  0  0  0  0  0  0  0  0  0
  149.6296  139.7026  156.0243 H   0  0  0  0  0  0  0  0  0  0  0  0
  152.7248  145.5151  160.1771 H   0  0  0  0  0  0  0  0  0  0  0  0
  151.0210  145.6668  160.5171 H   0  0  0  0  0  0  0  0  0  0  0  0
  152.2929  144.6065  162.4114 H   0  0  0  0  0  0  0  0  0  0  0  0
  151.0679  143.5142  161.8071 H   0  0  0  0  0  0  0  0  0  0  0  0
  1  2  1  0  0  0  0
  1 19  1  0  0  0  0
  1 20  1  0  0  0  0
  1 21  1  0  0  0  0
  2 18  1  0  0  0  0
  2  3  1  0  0  0  0
  2 22  1  0  0  0  0
  3  4  1  0  0  0  0
  3 23  1  0  0  0  0
  3 24  1  0  0  0  0
  4  5  1  0  0  0  0
  4 16  1  0  0  0  0
  4 25  1  0  0  0  0
  5  6  1  0  0  0  0
  5 26  1  0  0  0  0
  5 27  1  0  0  0  0
  6  7  1  0  0  0  0
  6 28  1  0  0  0  0
  7  8  2  0  0  0  0
  7  9  1  0  0  0  0
  9 10  1  0  0  0  0
  9 29  1  0  0  0  0
 10 15  1  0  0  0  0
 10 11  2  0  0  0  0
 11 12  1  0  0  0  0
 11 30  1  0  0  0  0
 12 13  2  0  0  0  0
 12 31  1  0  0  0  0
 13 14  1  0  0  0  0
 13 32  1  0  0  0  0
 14 15  2  0  0  0  0
 15 33  1  0  0  0  0
 16 17  1  0  0  0  0
 16 34  1  0  0  0  0
 16 35  1  0  0  0  0
 17 18  1  0  0  0  0
 17 36  1  0  0  0  0
 17 37  1  0  0  0  0
M  END
> <s_m_source_file>
AV-unprocessed.smi

> <i_m_source_file_index>
3323

> <i_lp_mmshare_version>
43012

> <i_f3d_flags>
0

> <s_epik_input>
W0NIM11bQ0BASF0xW0NIMl1bQ0BIXShbQ0gyXVtDSDJdTzEpW0NIMl1bTkhdQyg9TylbTkhdYzJbY0hdW2NIXVtjSF1uW2NIXTI=

> <s_epik_cmdline>
J2VwaWtfcHl0aG9uJywgJy1waCcsICc3LjAnLCAnLXRuJywgJzgnLCAnLW1hJywgJzIwMCcsICctbWV0YWxfYmluZGluZycsICctaW1hZScsICc8aW5maWxlLm1hZT4nLCAnLW9tYWUnLCAnPG91dGZpbGUubWFlPic=

> <r_epik_Ionization_Penalty>
0.00485293

> <r_epik_Ionization_Penalty_Charging>
0

> <r_epik_Ionization_Penalty_Neutral>
0.00485293

> <r_epik_State_Penalty>
0.00349083

> <r_epik_Charging_Adjusted_Penalty>
0.00349083

> <i_epik_Tot_Q>
0

> <i_epik_Tot_abs_Q>
0

> <r_epik_Metal_State_Penalty>
-0

> <b_epik_Metal_Only>
0

> <s_lp_Force_Field>
OPLS_2005

> <r_lp_Energy>
13.5955

> <b_lp_Chiralities_Consistent>
1

> <s_lp_Variant>
AV-unprocessed.smi:3323-1

> <Gold.Version>
5.8.1

> <Gold.Id.Protein>
6NUR|6NUR_protein|mol2

> <Gold.PLP.Fitness>
44.7285

> <Gold.PLP.PLP>
-36.7649

> <Gold.PLP.part.hbond>
-2.4771

> <Gold.PLP.part.metal>
0.0000

> <Gold.PLP.part.buried>
-1.4280

> <Gold.PLP.part.nonpolar>
-33.9025

> <Gold.PLP.part.repulsive>
0.3617

> <Gold.PLP.ligand.clash>
0.0000

> <Gold.PLP.ligand.torsion>
0.4302

> <Gold.PLP.Chemscore.Hbond>
1.9440

> <Gold.PLP.Chemscore.CHOScore>
0.9958

> <Gold.PLP.Chemscore.Metal>
0.0000

> <Gold.Chemscore.Hbonds>
donor molecule, donor type, donor heavy atom, donor atom, acceptor molecule, acceptor atom, score
      L1  H     6    28       P1  8028  0.91
      L1  H     9    29       P1  8028  1.00
      L1  C    13    32       P1  7948  0.73

> <Gold.PLP.Chemscore.Internal.Correction>
0.0045

> <Gold.Rescore>
     Score         DG    S(hbond)    S(metal)    S(lipo)     H(rot)  DE(clash)    DE(int)     intcor
     19.00     -20.75       1.81        0.00     105.81       1.23       0.08       1.68       ----

> <Gold.Chemscore.Fitness>
19.0006

> <Gold.Chemscore.DG>
-20.7534

> <Gold.Chemscore.ZeroCoef>
-5.4800

> <Gold.Chemscore.Hbond>
1.8071

> <Gold.Chemscore.Metal>
0.0000

> <Gold.Chemscore.Lipo>
105.8077

> <Gold.Chemscore.Internal_Hbond>
0.0000

> <Gold.Chemscore.DEClash>
0.0753

> <Gold.Chemscore.DEInternal>
1.6776

> <Gold.Chemscore.Rot>
1.2273

> <Gold.Chemscore.Internal.Correction>
   9.000000E+99

> <Gold.Chemscore.Hbonds>
donor molecule, donor type, donor heavy atom, donor atom, acceptor molecule, acceptor atom, score
      L1  H     6    28       P1  8028  0.54
      L1  H     9    29       P1  8028  0.92

> <Gold.Chemscore.Hbond.Weighted>
-6.0357

> <Gold.Chemscore.Metal.Weighted>
-0.0000

> <Gold.Chemscore.Lipo.Weighted>
-12.3795

> <Gold.Chemscore.Internal_Hbond.Weighted>
0.0000

> <Gold.Chemscore.DEClash.Weighted>
0.0753

> <Gold.Chemscore.DEInternal.Weighted>
1.6776

> <Gold.Chemscore.Rot.Weighted>
3.1418

> <Gold.Chemscore.Internal.Correction.Weighted>
   9.000000E+99

> <Gold.Protein.RotatedTorsions>
[ 6907 6896 6895 6894 ] final -173.91 input  -60.11 | X-H torsion
[ 7974 7965 7964 7962 ] final  117.24 input  175.53 | X-H torsion
[ 8008 7997 7996 7995 ] final   97.93 input   59.86 | X-H torsion
[ 10167 10162 10161 10158 ] final -162.71 input  -65.29 | X-H torsion
[ 10718 10713 10712 10709 ] final -149.09 input   66.30 | X-H torsion
[ 10763 10752 10751 10750 ] final  -11.49 input  -60.55 | X-H torsion
[ 11005 11000 10999 10996 ] final  105.17 input  -57.11 | X-H torsion

> <Gold.Protein.ActiveResidues>
 VAL166  LYS551  ARG553  GLY616  TRP617  ASP618  TYR619  PRO620  LYS621  CYS622 
 ASP623  PHE694  ASN695  SER759  ASP760  ASP761  ALA762  ILE779  LEU786  VAL792 
 PHE793  MET794  SER795  GLU796  ALA797  LYS798  CYS799  TRP800  GLU811  SER814 

> <Gold.Protein.RotatedAtoms>
  151.5639  133.3399  159.2976 H   0  0  0  0  0  0  0  0  0  0  0  0  # atno 6907 bound_to 6896
  150.8407  134.7700  159.6941 H   0  0  0  0  0  0  0  0  0  0  0  0  # atno 6908 bound_to 6896
  152.4475  134.5472  159.9908 H   0  0  0  0  0  0  0  0  0  0  0  0  # atno 6909 bound_to 6896
  145.1698  139.3108  143.4474 H   0  0  0  0  0  0  0  0  0  0  0  0  # atno 7974 bound_to 7965
  156.0952  140.3251  155.7869 H   0  0  0  0  0  0  0  0  0  0  0  0  # atno 8008 bound_to 7997
  155.4929  140.0563  157.2968 H   0  0  0  0  0  0  0  0  0  0  0  0  # atno 8009 bound_to 7997
  154.4662  140.1990  156.0127 H   0  0  0  0  0  0  0  0  0  0  0  0  # atno 8010 bound_to 7997
  139.6373  144.0326  152.2064 H   0  0  0  0  0  0  0  0  0  0  0  0  # atno 10167 bound_to 10162
  156.4286  130.8064  151.2290 H   0  0  0  0  0  0  0  0  0  0  0  0  # atno 10718 bound_to 10713
  153.4846  135.7017  153.5919 H   0  0  0  0  0  0  0  0  0  0  0  0  # atno 10763 bound_to 10752
  153.4117  135.3847  155.2055 H   0  0  0  0  0  0  0  0  0  0  0  0  # atno 10764 bound_to 10752
  154.8720  135.3906  154.4299 H   0  0  0  0  0  0  0  0  0  0  0  0  # atno 10765 bound_to 10752
  139.8799  134.9326  156.5473 H   0  0  0  0  0  0  0  0  0  0  0  0  # atno 11005 bound_to 11000
  146.3470  140.1839  142.8589 LP  0  0  0  0  0  0  0  0  0  0  0  0  # atno 17320 bound_to 7965
  145.0245  140.8821  143.5147 LP  0  0  0  0  0  0  0  0  0  0  0  0  # atno 17321 bound_to 7965
  140.0007  144.6295  150.7732 LP  0  0  0  0  0  0  0  0  0  0  0  0  # atno 17342 bound_to 10162
  140.7472  143.2902  151.3351 LP  0  0  0  0  0  0  0  0  0  0  0  0  # atno 17343 bound_to 10162
  157.7508  131.0205  150.3713 LP  0  0  0  0  0  0  0  0  0  0  0  0  # atno 17370 bound_to 10713
  156.4045  130.3922  149.6935 LP  0  0  0  0  0  0  0  0  0  0  0  0  # atno 17371 bound_to 10713
  140.8266  133.8312  155.8945 LP  0  0  0  0  0  0  0  0  0  0  0  0  # atno 17394 bound_to 11000
  140.9368  134.1951  157.4825 LP  0  0  0  0  0  0  0  0  0  0  0  0  # atno 17395 bound_to 11000

$$$$
