AV-unprocessed.smi:1005|AV-procd|sdf|4389|dock10
  -GOLD-   22720 2313D 1   1.00000     0.00000
 Structure written by MMmdl.
 55 57  0  0  0  0  0  0  0  0  1 V2000
  153.4055  142.4931  161.8517 C   0  0  0  0  0  0  0  0  0  0  0  0
  152.7859  142.1702  160.5035 C   0  0  0  0  0  0  0  0  0  0  0  0
  153.1646  140.9811  159.8394 C   0  0  0  0  0  0  0  0  0  0  0  0
  152.6164  140.6480  158.5812 C   0  0  0  0  0  0  0  0  0  0  0  0
  152.8395  139.5545  157.7613 N   0  0  0  0  0  0  0  0  0  0  0  0
  152.0444  139.8253  156.7295 C   0  0  0  0  0  0  0  0  0  0  0  0
  151.3320  140.9664  156.7855 N   0  0  0  0  0  0  0  0  0  0  0  0
  150.4145  141.4882  155.7908 C   0  0  0  0  0  0  0  0  0  0  0  0
  148.9481  141.3917  156.2580 C   0  0  1  0  0  0  0  0  0  0  0  0
  148.6585  142.4866  157.1033 O   0  0  0  0  0  0  0  0  0  0  0  0
  147.9385  141.4006  155.0928 C   0  0  0  0  0  0  0  0  0  0  0  0
  147.8359  140.1477  154.3435 N   0  0  0  0  0  0  0  0  0  0  0  0
  147.0638  140.3265  153.1199 C   0  0  0  0  0  0  0  0  0  0  0  0
  146.9570  139.0204  152.3152 C   0  0  0  0  0  0  0  0  0  0  0  0
  146.4049  137.9985  153.1390 O   0  0  0  0  0  0  0  0  0  0  0  0
  147.1744  137.7508  154.3141 C   0  0  2  0  0  0  0  0  0  0  0  0
  146.5305  136.6135  155.1302 C   0  0  0  0  0  0  0  0  0  0  0  0
  146.6142  135.2796  154.5326 N   0  0  0  0  0  0  0  0  0  0  0  0
  146.1201  135.2454  153.1614 C   0  0  0  0  0  0  0  0  0  0  0  0
  145.9028  134.3057  155.3485 C   0  0  0  0  0  0  0  0  0  0  0  0
  147.2458  139.0611  155.1218 C   0  0  0  0  0  0  0  0  0  0  0  0
  151.6734  141.5456  158.0017 C   0  0  0  0  0  0  0  0  0  0  0  0
  151.2835  142.7279  158.6548 C   0  0  0  0  0  0  0  0  0  0  0  0
  151.8397  143.0451  159.9111 C   0  0  0  0  0  0  0  0  0  0  0  0
  151.4117  144.3254  160.6064 C   0  0  0  0  0  0  0  0  0  0  0  0
  154.1184  141.7266  162.1568 H   0  0  0  0  0  0  0  0  0  0  0  0
  152.6349  142.5591  162.6199 H   0  0  0  0  0  0  0  0  0  0  0  0
  153.9362  143.4445  161.8100 H   0  0  0  0  0  0  0  0  0  0  0  0
  153.8837  140.3136  160.2910 H   0  0  0  0  0  0  0  0  0  0  0  0
  151.9809  139.1599  155.8810 H   0  0  0  0  0  0  0  0  0  0  0  0
  150.6846  142.5190  155.5572 H   0  0  0  0  0  0  0  0  0  0  0  0
  150.5632  140.9135  154.8761 H   0  0  0  0  0  0  0  0  0  0  0  0
  148.8109  140.4931  156.8592 H   0  0  0  0  0  0  0  0  0  0  0  0
  148.6330  143.2719  156.5784 H   0  0  0  0  0  0  0  0  0  0  0  0
  146.9531  141.6722  155.4749 H   0  0  0  0  0  0  0  0  0  0  0  0
  148.2233  142.1989  154.4059 H   0  0  0  0  0  0  0  0  0  0  0  0
  146.0612  140.6811  153.3644 H   0  0  0  0  0  0  0  0  0  0  0  0
  147.5241  141.0957  152.4990 H   0  0  0  0  0  0  0  0  0  0  0  0
  146.3167  139.1619  151.4445 H   0  0  0  0  0  0  0  0  0  0  0  0
  147.9364  138.7111  151.9472 H   0  0  0  0  0  0  0  0  0  0  0  0
  148.1865  137.4547  154.0312 H   0  0  0  0  0  0  0  0  0  0  0  0
  147.0432  136.5786  156.0926 H   0  0  0  0  0  0  0  0  0  0  0  0
  145.4928  136.8621  155.3580 H   0  0  0  0  0  0  0  0  0  0  0  0
  146.1442  134.2290  152.7669 H   0  0  0  0  0  0  0  0  0  0  0  0
  146.7384  135.8554  152.5040 H   0  0  0  0  0  0  0  0  0  0  0  0
  145.0925  135.6064  153.1025 H   0  0  0  0  0  0  0  0  0  0  0  0
  146.0064  133.3027  154.9329 H   0  0  0  0  0  0  0  0  0  0  0  0
  144.8392  134.5416  155.4063 H   0  0  0  0  0  0  0  0  0  0  0  0
  146.3023  134.2830  156.3629 H   0  0  0  0  0  0  0  0  0  0  0  0
  147.8354  138.8760  156.0181 H   0  0  0  0  0  0  0  0  0  0  0  0
  146.2462  139.3430  155.4566 H   0  0  0  0  0  0  0  0  0  0  0  0
  150.5629  143.3849  158.1911 H   0  0  0  0  0  0  0  0  0  0  0  0
  150.6801  144.8749  160.0132 H   0  0  0  0  0  0  0  0  0  0  0  0
  152.2696  144.9786  160.7674 H   0  0  0  0  0  0  0  0  0  0  0  0
  150.9586  144.1023  161.5726 H   0  0  0  0  0  0  0  0  0  0  0  0
  1  2  1  0  0  0  0
  1 26  1  0  0  0  0
  1 27  1  0  0  0  0
  1 28  1  0  0  0  0
  2 24  1  0  0  0  0
  2  3  2  0  0  0  0
  3  4  1  0  0  0  0
  3 29  1  0  0  0  0
  4 22  2  0  0  0  0
  4  5  1  0  0  0  0
  5  6  2  0  0  0  0
  6  7  1  0  0  0  0
  6 30  1  0  0  0  0
  7  8  1  0  0  0  0
  7 22  1  0  0  0  0
  8  9  1  0  0  0  0
  8 31  1  0  0  0  0
  8 32  1  0  0  0  0
  9 10  1  0  0  0  0
  9 11  1  0  0  0  0
  9 33  1  0  0  0  0
 10 34  1  0  0  0  0
 11 12  1  0  0  0  0
 11 35  1  0  0  0  0
 11 36  1  0  0  0  0
 12 21  1  0  0  0  0
 12 13  1  0  0  0  0
 13 14  1  0  0  0  0
 13 37  1  0  0  0  0
 13 38  1  0  0  0  0
 14 15  1  0  0  0  0
 14 39  1  0  0  0  0
 14 40  1  0  0  0  0
 15 16  1  0  0  0  0
 16 17  1  0  0  0  0
 16 21  1  0  0  0  0
 16 41  1  0  0  0  0
 17 18  1  0  0  0  0
 17 42  1  0  0  0  0
 17 43  1  0  0  0  0
 18 19  1  0  0  0  0
 18 20  1  0  0  0  0
 19 44  1  0  0  0  0
 19 45  1  0  0  0  0
 19 46  1  0  0  0  0
 20 47  1  0  0  0  0
 20 48  1  0  0  0  0
 20 49  1  0  0  0  0
 21 50  1  0  0  0  0
 21 51  1  0  0  0  0
 22 23  1  0  0  0  0
 23 24  2  0  0  0  0
 23 52  1  0  0  0  0
 24 25  1  0  0  0  0
 25 53  1  0  0  0  0
 25 54  1  0  0  0  0
 25 55  1  0  0  0  0
M  END
> <s_m_source_file>
AV-unprocessed.smi

> <i_m_source_file_index>
1005

> <i_lp_mmshare_version>
43012

> <i_f3d_flags>
0

> <s_epik_input>
W0NIM11jKFtjSF0xKWMoW0NIM10pW2NIXWMoYzEyKW4oW2NIXW4yKVtDSDJdW0NASF0oW09IXSlbQ0gyXU4zW0NIMl1bQ0gyXU9bQ0BIXShbQ0gyXTMpW0NIMl1OKFtDSDNdKVtDSDNd

> <s_epik_cmdline>
J2VwaWtfcHl0aG9uJywgJy1waCcsICc3LjAnLCAnLXRuJywgJzgnLCAnLW1hJywgJzIwMCcsICctbWV0YWxfYmluZGluZycsICctaW1hZScsICc8aW5maWxlLm1hZT4nLCAnLW9tYWUnLCAnPG91dGZpbGUubWFlPic=

> <r_epik_Ionization_Penalty>
2.78613

> <r_epik_Ionization_Penalty_Charging>
0

> <r_epik_Ionization_Penalty_Neutral>
2.78613

> <r_epik_State_Penalty>
2.57336

> <r_epik_Charging_Adjusted_Penalty>
2.57336

> <i_epik_Tot_Q>
0

> <i_epik_Tot_abs_Q>
0

> <r_epik_Metal_State_Penalty>
2.49087

> <b_epik_Metal_Only>
0

> <s_lp_Force_Field>
OPLS_2005

> <r_lp_Energy>
32.9837

> <b_lp_Chiralities_Consistent>
1

> <s_lp_Variant>
AV-unprocessed.smi:1005-28

> <Gold.Version>
5.8.1

> <Gold.Id.Protein>
6NUR|6NUR_protein|mol2

> <Gold.PLP.Fitness>
46.1765

> <Gold.PLP.PLP>
-41.2645

> <Gold.PLP.part.hbond>
-2.0000

> <Gold.PLP.part.metal>
0.0000

> <Gold.PLP.part.buried>
-4.0234

> <Gold.PLP.part.nonpolar>
-35.0438

> <Gold.PLP.part.repulsive>
0.3998

> <Gold.PLP.ligand.clash>
0.0000

> <Gold.PLP.ligand.torsion>
0.5868

> <Gold.PLP.Chemscore.Hbond>
2.0000

> <Gold.PLP.Chemscore.CHOScore>
0.0000

> <Gold.PLP.Chemscore.Metal>
0.0000

> <Gold.Chemscore.Hbonds>
donor molecule, donor type, donor heavy atom, donor atom, acceptor molecule, acceptor atom, score
      L1  H    10    34       P1  8028  1.00
      P1  H  7997  8010       L1     5  0.95

> <Gold.PLP.Chemscore.Internal.Correction>
0.0856

> <Gold.Rescore>
     Score         DG    S(hbond)    S(metal)    S(lipo)     H(rot)  DE(clash)    DE(int)     intcor
     14.70     -16.82       0.93        0.00     120.42       2.29       0.11       2.02       ----

> <Gold.Chemscore.Fitness>
14.7024

> <Gold.Chemscore.DG>
-16.8242

> <Gold.Chemscore.ZeroCoef>
-5.4800

> <Gold.Chemscore.Hbond>
0.9331

> <Gold.Chemscore.Metal>
0.0000

> <Gold.Chemscore.Lipo>
120.4162

> <Gold.Chemscore.Internal_Hbond>
0.0000

> <Gold.Chemscore.DEClash>
0.1056

> <Gold.Chemscore.DEInternal>
2.0162

> <Gold.Chemscore.Rot>
2.2895

> <Gold.Chemscore.Internal.Correction>
   9.000000E+99

> <Gold.Chemscore.Hbonds>
donor molecule, donor type, donor heavy atom, donor atom, acceptor molecule, acceptor atom, score
      L1  H    10    34       P1  8028  0.74
      P1  H  7997  8010       L1     5  0.05

> <Gold.Chemscore.Hbond.Weighted>
-3.1167

> <Gold.Chemscore.Metal.Weighted>
-0.0000

> <Gold.Chemscore.Lipo.Weighted>
-14.0887

> <Gold.Chemscore.Internal_Hbond.Weighted>
0.0000

> <Gold.Chemscore.DEClash.Weighted>
0.1056

> <Gold.Chemscore.DEInternal.Weighted>
2.0162

> <Gold.Chemscore.Rot.Weighted>
5.8612

> <Gold.Chemscore.Internal.Correction.Weighted>
   9.000000E+99

> <Gold.Protein.RotatedTorsions>
[ 6907 6896 6895 6894 ] final  119.12 input  -60.11 | X-H torsion
[ 7974 7965 7964 7962 ] final  141.81 input  175.53 | X-H torsion
[ 8008 7997 7996 7995 ] final   37.53 input   59.86 | X-H torsion
[ 10167 10162 10161 10158 ] final  107.83 input  -65.29 | X-H torsion
[ 10718 10713 10712 10709 ] final  -55.90 input   66.30 | X-H torsion
[ 10763 10752 10751 10750 ] final -179.95 input  -60.55 | X-H torsion
[ 11005 11000 10999 10996 ] final  -85.11 input  -57.11 | X-H torsion

> <Gold.Protein.ActiveResidues>
 VAL166  LYS551  ARG553  GLY616  TRP617  ASP618  TYR619  PRO620  LYS621  CYS622 
 ASP623  PHE694  ASN695  SER759  ASP760  ASP761  ALA762  ILE779  LEU786  VAL792 
 PHE793  MET794  SER795  GLU796  ALA797  LYS798  CYS799  TRP800  GLU811  SER814 

> <Gold.Protein.RotatedAtoms>
  152.4495  133.7601  159.6741 H   0  0  0  0  0  0  0  0  0  0  0  0  # atno 6907 bound_to 6896
  150.8403  133.7937  159.3070 H   0  0  0  0  0  0  0  0  0  0  0  0  # atno 6908 bound_to 6896
  151.5564  135.1069  160.0014 H   0  0  0  0  0  0  0  0  0  0  0  0  # atno 6909 bound_to 6896
  144.9063  139.5354  143.5730 H   0  0  0  0  0  0  0  0  0  0  0  0  # atno 7974 bound_to 7965
  155.2052  140.3319  155.4337 H   0  0  0  0  0  0  0  0  0  0  0  0  # atno 8008 bound_to 7997
  156.2391  140.1886  156.7086 H   0  0  0  0  0  0  0  0  0  0  0  0  # atno 8009 bound_to 7997
  154.6114  140.0608  156.9485 H   0  0  0  0  0  0  0  0  0  0  0  0  # atno 8010 bound_to 7997
  139.6895  144.7109  151.1373 H   0  0  0  0  0  0  0  0  0  0  0  0  # atno 10167 bound_to 10162
  156.1331  130.4158  150.0233 H   0  0  0  0  0  0  0  0  0  0  0  0  # atno 10718 bound_to 10713
  154.5285  135.2798  155.1200 H   0  0  0  0  0  0  0  0  0  0  0  0  # atno 10763 bound_to 10752
  154.2730  135.6300  153.5321 H   0  0  0  0  0  0  0  0  0  0  0  0  # atno 10764 bound_to 10752
  152.9952  135.5633  154.5793 H   0  0  0  0  0  0  0  0  0  0  0  0  # atno 10765 bound_to 10752
  141.1644  133.7381  156.8966 H   0  0  0  0  0  0  0  0  0  0  0  0  # atno 11005 bound_to 11000
  146.3135  139.7833  142.9001 LP  0  0  0  0  0  0  0  0  0  0  0  0  # atno 17320 bound_to 7965
  145.3531  141.0311  143.3327 LP  0  0  0  0  0  0  0  0  0  0  0  0  # atno 17321 bound_to 7965
  140.7678  143.5580  150.9130 LP  0  0  0  0  0  0  0  0  0  0  0  0  # atno 17342 bound_to 10162
  139.9257  143.6553  152.3087 LP  0  0  0  0  0  0  0  0  0  0  0  0  # atno 17343 bound_to 10162
  156.8140  130.9335  151.3643 LP  0  0  0  0  0  0  0  0  0  0  0  0  # atno 17370 bound_to 10713
  157.6507  130.8882  149.9627 LP  0  0  0  0  0  0  0  0  0  0  0  0  # atno 17371 bound_to 10713
  140.1611  134.9165  157.2716 LP  0  0  0  0  0  0  0  0  0  0  0  0  # atno 17394 bound_to 11000
  140.2610  134.3571  155.7407 LP  0  0  0  0  0  0  0  0  0  0  0  0  # atno 17395 bound_to 11000

$$$$
