AV-unprocessed.smi:571|AV-procd|sdf|2963|dock10
  -GOLD-   2262023463D 1   1.00000     0.00000
 Structure written by MMmdl.
 44 45  0  0  0  0  0  0  0  0  2 V2000
  148.3233  133.6690  155.1559 C   0  0  0  0  0  0  0  0  0  0  0  0
  148.0217  135.1765  155.1731 C   0  0  2  0  0  0  0  0  0  0  0  0
  146.7275  135.5280  154.3939 C   0  0  0  0  0  0  0  0  0  0  0  0
  146.7845  135.1492  152.9579 N   0  3  0  0  0  0  0  0  0  0  0  0
  146.3909  133.7373  152.7190 C   0  0  0  0  0  0  0  0  0  0  0  0
  146.6397  133.3392  151.2545 C   0  0  0  0  0  0  0  0  0  0  0  0
  145.9005  134.2827  150.2964 C   0  0  0  0  0  0  0  0  0  0  0  0
  146.2899  135.7381  150.5883 C   0  0  0  0  0  0  0  0  0  0  0  0
  146.0524  136.0873  152.0673 C   0  0  0  0  0  0  0  0  0  0  0  0
  149.1876  135.9600  154.7504 N   0  0  0  0  0  0  0  0  0  0  0  0
  150.3423  136.1182  155.4192 C   0  0  0  0  0  0  0  0  0  0  0  0
  150.5483  135.6400  156.5349 O   0  0  0  0  0  0  0  0  0  0  0  0
  151.4279  136.9317  154.7031 C   0  0  0  0  0  0  0  0  0  0  0  0
  151.5797  138.2810  155.2703 N   0  0  0  0  0  0  0  0  0  0  0  0
  151.1025  139.3515  154.4868 C   0  0  0  0  0  0  0  0  0  0  0  0
  151.2010  140.6272  154.8920 C   0  0  0  0  0  0  0  0  0  0  0  0
  151.8159  140.8908  156.1715 C   0  0  0  0  0  0  0  0  0  0  0  0
  152.2802  139.8750  156.9262 C   0  0  0  0  0  0  0  0  0  0  0  0
  152.1810  138.4791  156.4841 C   0  0  0  0  0  0  0  0  0  0  0  0
  152.6154  137.5472  157.1612 O   0  0  0  0  0  0  0  0  0  0  0  0
  147.4905  133.1005  155.5705 H   0  0  0  0  0  0  0  0  0  0  0  0
  149.2073  133.4382  155.7513 H   0  0  0  0  0  0  0  0  0  0  0  0
  148.4995  133.3035  154.1439 H   0  0  0  0  0  0  0  0  0  0  0  0
  147.8611  135.4519  156.2156 H   0  0  0  0  0  0  0  0  0  0  0  0
  145.8945  134.9999  154.8602 H   0  0  0  0  0  0  0  0  0  0  0  0
  146.4959  136.5898  154.4910 H   0  0  0  0  0  0  0  0  0  0  0  0
  146.9682  133.0779  153.3682 H   0  0  0  0  0  0  0  0  0  0  0  0
  145.3399  133.6009  152.9784 H   0  0  0  0  0  0  0  0  0  0  0  0
  147.7100  133.3676  151.0450 H   0  0  0  0  0  0  0  0  0  0  0  0
  146.3192  132.3105  151.0873 H   0  0  0  0  0  0  0  0  0  0  0  0
  146.1332  134.0296  149.2615 H   0  0  0  0  0  0  0  0  0  0  0  0
  144.8232  134.1584  150.4143 H   0  0  0  0  0  0  0  0  0  0  0  0
  147.3412  135.8923  150.3404 H   0  0  0  0  0  0  0  0  0  0  0  0
  145.7190  136.4126  149.9491 H   0  0  0  0  0  0  0  0  0  0  0  0
  144.9863  136.0542  152.2969 H   0  0  0  0  0  0  0  0  0  0  0  0
  146.3828  137.1102  152.2455 H   0  0  0  0  0  0  0  0  0  0  0  0
  149.1141  136.4123  153.8500 H   0  0  0  0  0  0  0  0  0  0  0  0
  152.3816  136.4047  154.7661 H   0  0  0  0  0  0  0  0  0  0  0  0
  151.1922  136.9660  153.6385 H   0  0  0  0  0  0  0  0  0  0  0  0
  150.6621  139.0678  153.5417 H   0  0  0  0  0  0  0  0  0  0  0  0
  150.8329  141.4351  154.2767 H   0  0  0  0  0  0  0  0  0  0  0  0
  151.9041  141.9073  156.5256 H   0  0  0  0  0  0  0  0  0  0  0  0
  152.7375  140.0916  157.8805 H   0  0  0  0  0  0  0  0  0  0  0  0
  147.7594  135.2071  152.7001 H   0  0  0  0  0  0  0  0  0  0  0  0
  1  2  1  0  0  0  0
  1 21  1  0  0  0  0
  1 22  1  0  0  0  0
  1 23  1  0  0  0  0
  2  3  1  0  0  0  0
  2 10  1  0  0  0  0
  2 24  1  0  0  0  0
  3  4  1  0  0  0  0
  3 25  1  0  0  0  0
  3 26  1  0  0  0  0
  4  9  1  0  0  0  0
  4  5  1  0  0  0  0
  4 44  1  0  0  0  0
  5  6  1  0  0  0  0
  5 27  1  0  0  0  0
  5 28  1  0  0  0  0
  6  7  1  0  0  0  0
  6 29  1  0  0  0  0
  6 30  1  0  0  0  0
  7  8  1  0  0  0  0
  7 31  1  0  0  0  0
  7 32  1  0  0  0  0
  8  9  1  0  0  0  0
  8 33  1  0  0  0  0
  8 34  1  0  0  0  0
  9 35  1  0  0  0  0
  9 36  1  0  0  0  0
 10 11  1  0  0  0  0
 10 37  1  0  0  0  0
 11 12  2  0  0  0  0
 11 13  1  0  0  0  0
 13 14  1  0  0  0  0
 13 38  1  0  0  0  0
 13 39  1  0  0  0  0
 14 19  1  0  0  0  0
 14 15  1  0  0  0  0
 15 16  2  0  0  0  0
 15 40  1  0  0  0  0
 16 17  1  0  0  0  0
 16 41  1  0  0  0  0
 17 18  2  0  0  0  0
 17 42  1  0  0  0  0
 18 19  1  0  0  0  0
 18 43  1  0  0  0  0
 19 20  2  0  0  0  0
M  CHG  1   4   1
M  END
> <s_m_source_file>
AV-unprocessed.smi

> <i_m_source_file_index>
571

> <i_lp_mmshare_version>
43012

> <i_f3d_flags>
0

> <s_epik_input>
W0NIMl0xW0NIMl1bQ0gyXVtDSDJdW0NIMl1OMVtDSDJdW0NAQEhdKFtDSDNdKVtOSF1DKD1PKVtDSDJdbjJbY0hdW2NIXVtjSF1bY0hdYzI9Tw==

> <s_epik_cmdline>
J2VwaWtfcHl0aG9uJywgJy1waCcsICc3LjAnLCAnLXRuJywgJzgnLCAnLW1hJywgJzIwMCcsICctbWV0YWxfYmluZGluZycsICctaW1hZScsICc8aW5maWxlLm1hZT4nLCAnLW9tYWUnLCAnPG91dGZpbGUubWFlPic=

> <r_lp_tautomer_probability>
1

> <r_epik_Ionization_Penalty>
0.00237248

> <r_epik_Ionization_Penalty_Charging>
0.0023724

> <r_epik_Ionization_Penalty_Neutral>
8.2065e-08

> <r_epik_State_Penalty>
0.00163922

> <r_epik_Charging_Adjusted_Penalty>
0.00401161

> <i_epik_Tot_Q>
1

> <i_epik_Tot_abs_Q>
1

> <r_epik_Metal_State_Penalty>
-0

> <b_epik_Metal_Only>
0

> <s_lp_Force_Field>
OPLS_2005

> <r_lp_Energy>
32.5109

> <b_lp_Chiralities_Consistent>
1

> <s_lp_Variant>
AV-unprocessed.smi:571-1

> <Gold.Version>
5.8.1

> <Gold.Id.Protein>
6NUR|6NUR_protein|mol2

> <Gold.PLP.Fitness>
53.7449

> <Gold.PLP.PLP>
-38.8452

> <Gold.PLP.part.hbond>
-4.0000

> <Gold.PLP.part.metal>
0.0000

> <Gold.PLP.part.buried>
-1.5318

> <Gold.PLP.part.nonpolar>
-32.1539

> <Gold.PLP.part.repulsive>
0.0848

> <Gold.PLP.ligand.clash>
0.0000

> <Gold.PLP.ligand.torsion>
0.8643

> <Gold.PLP.Chemscore.Hbond>
4.4960

> <Gold.PLP.Chemscore.CHOScore>
0.9991

> <Gold.PLP.Chemscore.Metal>
0.0000

> <Gold.Chemscore.Hbonds>
donor molecule, donor type, donor heavy atom, donor atom, acceptor molecule, acceptor atom, score
      L1  H     4    44       P1  7948  1.76
      L1  H    10    37       P1  7948  0.96
      L1  C    15    40       P1  7957  0.42

> <Gold.PLP.Chemscore.Internal.Correction>
0.1430

> <Gold.Rescore>
     Score         DG    S(hbond)    S(metal)    S(lipo)     H(rot)  DE(clash)    DE(int)     intcor
     17.11     -18.49       2.97        0.00      66.81       1.84       0.04       1.34       ----

> <Gold.Chemscore.Fitness>
17.1056

> <Gold.Chemscore.DG>
-18.4869

> <Gold.Chemscore.ZeroCoef>
-5.4800

> <Gold.Chemscore.Hbond>
2.9653

> <Gold.Chemscore.Metal>
0.0000

> <Gold.Chemscore.Lipo>
66.8081

> <Gold.Chemscore.Internal_Hbond>
0.0000

> <Gold.Chemscore.DEClash>
0.0426

> <Gold.Chemscore.DEInternal>
1.3387

> <Gold.Chemscore.Rot>
1.8413

> <Gold.Chemscore.Internal.Correction>
   9.000000E+99

> <Gold.Chemscore.Hbonds>
donor molecule, donor type, donor heavy atom, donor atom, acceptor molecule, acceptor atom, score
      L1  H     4    44       P1  7948  0.86
      L1  H    10    37       P1  7948  0.88

> <Gold.Chemscore.Hbond.Weighted>
-9.9041

> <Gold.Chemscore.Metal.Weighted>
-0.0000

> <Gold.Chemscore.Lipo.Weighted>
-7.8165

> <Gold.Chemscore.Internal_Hbond.Weighted>
0.0000

> <Gold.Chemscore.DEClash.Weighted>
0.0426

> <Gold.Chemscore.DEInternal.Weighted>
1.3387

> <Gold.Chemscore.Rot.Weighted>
4.7137

> <Gold.Chemscore.Internal.Correction.Weighted>
   9.000000E+99

> <Gold.Protein.RotatedTorsions>
[ 6907 6896 6895 6894 ] final   41.95 input  -60.11 | X-H torsion
[ 7974 7965 7964 7962 ] final  111.91 input  175.53 | X-H torsion
[ 8008 7997 7996 7995 ] final  -60.59 input   59.86 | X-H torsion
[ 10167 10162 10161 10158 ] final  108.72 input  -65.29 | X-H torsion
[ 10718 10713 10712 10709 ] final -129.43 input   66.30 | X-H torsion
[ 10763 10752 10751 10750 ] final   59.22 input  -60.55 | X-H torsion
[ 11005 11000 10999 10996 ] final  -17.64 input  -57.11 | X-H torsion

> <Gold.Protein.ActiveResidues>
 VAL166  LYS551  ARG553  GLY616  TRP617  ASP618  TYR619  PRO620  LYS621  CYS622 
 ASP623  PHE694  ASN695  SER759  ASP760  ASP761  ALA762  ILE779  LEU786  VAL792 
 PHE793  MET794  SER795  GLU796  ALA797  LYS798  CYS799  TRP800  GLU811  SER814 

> <Gold.Protein.RotatedAtoms>
  152.2018  134.8581  160.0506 H   0  0  0  0  0  0  0  0  0  0  0  0  # atno 6907 bound_to 6896
  151.9432  133.3639  159.3981 H   0  0  0  0  0  0  0  0  0  0  0  0  # atno 6908 bound_to 6896
  150.6956  134.4342  159.5306 H   0  0  0  0  0  0  0  0  0  0  0  0  # atno 6909 bound_to 6896
  145.2363  139.2798  143.4141 H   0  0  0  0  0  0  0  0  0  0  0  0  # atno 7974 bound_to 7965
  154.4406  140.1036  156.6297 H   0  0  0  0  0  0  0  0  0  0  0  0  # atno 8008 bound_to 7997
  155.5618  140.3487  155.4474 H   0  0  0  0  0  0  0  0  0  0  0  0  # atno 8009 bound_to 7997
  156.0454  140.1291  157.0099 H   0  0  0  0  0  0  0  0  0  0  0  0  # atno 8010 bound_to 7997
  139.6824  144.7117  151.1492 H   0  0  0  0  0  0  0  0  0  0  0  0  # atno 10167 bound_to 10162
  156.2046  130.6879  151.0579 H   0  0  0  0  0  0  0  0  0  0  0  0  # atno 10718 bound_to 10713
  152.9889  135.5579  154.5677 H   0  0  0  0  0  0  0  0  0  0  0  0  # atno 10763 bound_to 10752
  154.5084  135.2801  155.1365 H   0  0  0  0  0  0  0  0  0  0  0  0  # atno 10764 bound_to 10752
  154.2767  135.6352  153.5384 H   0  0  0  0  0  0  0  0  0  0  0  0  # atno 10765 bound_to 10752
  140.8188  133.8084  155.9638 H   0  0  0  0  0  0  0  0  0  0  0  0  # atno 11005 bound_to 11000
  146.3340  140.2713  142.8606 LP  0  0  0  0  0  0  0  0  0  0  0  0  # atno 17320 bound_to 7965
  144.9630  140.8294  143.5502 LP  0  0  0  0  0  0  0  0  0  0  0  0  # atno 17321 bound_to 7965
  140.7656  143.5680  150.9027 LP  0  0  0  0  0  0  0  0  0  0  0  0  # atno 17342 bound_to 10162
  139.9352  143.6446  152.3067 LP  0  0  0  0  0  0  0  0  0  0  0  0  # atno 17343 bound_to 10162
  157.7005  131.0778  150.6836 LP  0  0  0  0  0  0  0  0  0  0  0  0  # atno 17370 bound_to 10713
  156.6894  130.4590  149.5604 LP  0  0  0  0  0  0  0  0  0  0  0  0  # atno 17371 bound_to 10713
  140.9121  134.2248  157.4979 LP  0  0  0  0  0  0  0  0  0  0  0  0  # atno 17394 bound_to 11000
  139.8709  134.9754  156.4884 LP  0  0  0  0  0  0  0  0  0  0  0  0  # atno 17395 bound_to 11000

$$$$
