#       Name:                AV-unprocessed.smi:828
#       Creating user name   scv26
#       Creation time:       Fri Mar 27 01:31:23 2020


#       File generated by GOLD software.
#

@<TRIPOS>MOLECULE
AV-unprocessed.smi:828
    39    40     1
SMALL
NO_CHARGES


@<TRIPOS>ATOM
      1 ****        -5.8821   3.5879  -0.0981 C.3            1 S1                 0.0000
      2 ****        -4.8410   2.7640  -0.7748 C.2            1 S1                 0.0000
      3 ****        -4.5035   2.9388  -2.0545 N.2            1 S1                 0.0000
      4 ****        -3.5130   2.0559  -2.4593 N.2            1 S1                 0.0000
      5 ****        -3.1103   1.2330  -1.4809 C.2            1 S1                 0.0000
      6 ****        -2.1619   0.3007  -1.6706 N.pl3          1 S1                -1.0000
      7 ****        -0.8913   0.5403  -1.2771 C.2            1 S1                 0.0000
      8 ****        -0.4782   1.5602  -0.7208 O.2            1 S1                 0.0000
      9 ****        -0.0496  -0.4700  -1.5375 N.am           1 S1                 0.0000
     10 ****         1.3727  -0.5147  -1.2133 C.3            1 S1                 0.0000
     11 ****         1.6366  -1.2751   0.1010 C.3            1 S1                 0.0000
     12 ****         1.0016  -0.6381   1.3422 C.3            1 S1                 0.0000
     13 ****         1.8478  -1.1910   2.4792 C.3            1 S1                 0.0000
     14 ****         3.2534  -1.2524   1.8775 C.3            1 S1                 0.0000
     15 ****         3.0852  -1.3491   0.4074 N.4            1 S1                 1.0000
     16 ****         3.7765  -2.5084  -0.1983 C.3            1 S1                 0.0000
     17 ****        -3.9587   1.4863   0.0445 S.3            1 S1                 0.0000
     18 ****        -5.5295   4.6130   0.0168 H              1 S1                 0.0000
     19 ****        -6.1060   3.1817   0.8884 H              1 S1                 0.0000
     20 ****        -6.7983   3.5946  -0.6888 H              1 S1                 0.0000
     21 ****        -0.4367  -1.2797  -2.0005 H              1 S1                 0.0000
     22 ****         1.8763  -1.0174  -2.0389 H              1 S1                 0.0000
     23 ****         1.7972   0.4897  -1.1684 H              1 S1                 0.0000
     24 ****         1.2491  -2.2923   0.0148 H              1 S1                 0.0000
     25 ****         1.1020   0.4478   1.3080 H              1 S1                 0.0000
     26 ****        -0.0575  -0.8758   1.4480 H              1 S1                 0.0000
     27 ****         1.7982  -0.5815   3.3822 H              1 S1                 0.0000
     28 ****         1.5086  -2.1963   2.7327 H              1 S1                 0.0000
     29 ****         3.7970  -0.3324   2.0947 H              1 S1                 0.0000
     30 ****         3.8292  -2.0797   2.2951 H              1 S1                 0.0000
     31 ****         3.3810  -3.4483   0.1888 H              1 S1                 0.0000
     32 ****         4.8442  -2.4704   0.0200 H              1 S1                 0.0000
     33 ****         3.6571  -2.5065  -1.2819 H              1 S1                 0.0000
     34 ****         3.5026  -0.5136   0.0224 H              1 S1                 0.0000
     35 ****        -4.9166   3.6262  -2.6518 LP             1 S1                 0.0000
     36 ****        -3.1378   2.0355  -3.3861 LP             1 S1                 0.0000
     37 ****        -2.3959  -0.5702  -2.1028 LP             1 S1                 0.0000
     38 ****        -1.1081   2.3106  -0.5206 LP             1 S1                 0.0000
     39 ****         0.4868   1.6369  -0.4698 LP             1 S1                 0.0000
@<TRIPOS>BOND
    1    1    2 1     
    2    1   18 1     
    3    1   19 1     
    4    1   20 1     
    5    2   17 1     
    6    2    3 2     
    7    3    4 1     
    8    4    5 2     
    9    5    6 1     
   10    5   17 1     
   11    6    7 1     
   12    7    8 2     
   13    7    9 am    
   14    9   10 1     
   15    9   21 1     
   16   10   11 1     
   17   10   22 1     
   18   10   23 1     
   19   11   15 1     
   20   11   12 1     
   21   11   24 1     
   22   12   13 1     
   23   12   25 1     
   24   12   26 1     
   25   13   14 1     
   26   13   27 1     
   27   13   28 1     
   28   14   15 1     
   29   14   29 1     
   30   14   30 1     
   31   15   16 1     
   32   15   34 1     
   33   16   31 1     
   34   16   32 1     
   35   16   33 1     
   36    3   35 1     
   37    4   36 1     
   38    6   37 1     
   39    8   38 1     
   40    8   39 1     
@<TRIPOS>SUBSTRUCTURE
      1 S1             1
@<TRIPOS>SET
LONE_PAIRS      STATIC     ATOMS    <user>   **** ""
5 35 36 37 38 39
DONOR_HYDROGENS      STATIC     ATOMS    <user>   **** ""
2 21 34
ATOM$BLUE        STATIC     ATOMS    COLORGROUP SYSTEM
5 35 36 37 38 39
ATOM$RED        STATIC     ATOMS    COLORGROUP SYSTEM
2 21 34
