AV-unprocessed.smi:1110|AV-procd|sdf|4791|dock1
  -GOLD-   22720 3333D 1   1.00000     0.00000
 Structure written by MMmdl.
 44 45  0  0  0  0  0  0  0  0  2 V2000
  146.9651  133.1025  156.8317 C   0  0  0  0  0  0  0  0  0  0  0  0
  146.8248  133.2384  155.3087 C   0  0  0  0  0  0  0  0  0  0  0  0
  147.5423  134.4740  154.7006 C   0  0  1  0  0  0  0  0  0  0  0  0
  149.0456  134.5056  155.0790 C   0  0  0  0  0  0  0  0  0  0  0  0
  149.6742  135.7544  154.6631 N   0  0  0  0  0  0  0  0  0  0  0  0
  150.7544  136.3160  155.2291 C   0  0  0  0  0  0  0  0  0  0  0  0
  151.3423  135.8128  156.1852 O   0  0  0  0  0  0  0  0  0  0  0  0
  151.2596  137.6519  154.6565 C   0  0  0  0  0  0  0  0  0  0  0  0
  151.2771  138.7694  155.6185 N   0  0  0  0  0  0  0  0  0  0  0  0
  151.7596  138.4877  156.9122 C   0  0  0  0  0  0  0  0  0  0  0  0
  151.8091  139.4253  157.8717 C   0  0  0  0  0  0  0  0  0  0  0  0
  151.3524  140.7564  157.5488 C   0  0  0  0  0  0  0  0  0  0  0  0
  150.8844  141.0356  156.3159 C   0  0  0  0  0  0  0  0  0  0  0  0
  150.8202  140.0115  155.2669 C   0  0  0  0  0  0  0  0  0  0  0  0
  150.3724  140.2510  154.1459 O   0  0  0  0  0  0  0  0  0  0  0  0
  147.3474  134.5125  153.2191 N   0  3  0  0  0  0  0  0  0  0  0  0
  147.6741  133.2538  152.5003 C   0  0  0  0  0  0  0  0  0  0  0  0
  146.6361  133.0830  151.3827 C   0  0  0  0  0  0  0  0  0  0  0  0
  145.9115  134.4217  151.3188 C   0  0  0  0  0  0  0  0  0  0  0  0
  146.0049  134.9263  152.7532 C   0  0  0  0  0  0  0  0  0  0  0  0
  146.3286  132.2997  157.2048 H   0  0  0  0  0  0  0  0  0  0  0  0
  146.6708  134.0208  157.3404 H   0  0  0  0  0  0  0  0  0  0  0  0
  147.9868  132.8625  157.1256 H   0  0  0  0  0  0  0  0  0  0  0  0
  147.1797  132.3236  154.8323 H   0  0  0  0  0  0  0  0  0  0  0  0
  145.7576  133.2857  155.0941 H   0  0  0  0  0  0  0  0  0  0  0  0
  147.0813  135.3726  155.1140 H   0  0  0  0  0  0  0  0  0  0  0  0
  149.1653  134.3545  156.1525 H   0  0  0  0  0  0  0  0  0  0  0  0
  149.5815  133.6760  154.6193 H   0  0  0  0  0  0  0  0  0  0  0  0
  149.2621  136.2284  153.8721 H   0  0  0  0  0  0  0  0  0  0  0  0
  152.2621  137.4906  154.2572 H   0  0  0  0  0  0  0  0  0  0  0  0
  150.6510  137.9063  153.7870 H   0  0  0  0  0  0  0  0  0  0  0  0
  152.0786  137.4678  157.0716 H   0  0  0  0  0  0  0  0  0  0  0  0
  152.1810  139.1909  158.8584 H   0  0  0  0  0  0  0  0  0  0  0  0
  151.3885  141.5330  158.2987 H   0  0  0  0  0  0  0  0  0  0  0  0
  150.5484  142.0377  156.0921 H   0  0  0  0  0  0  0  0  0  0  0  0
  148.6833  133.3271  152.0940 H   0  0  0  0  0  0  0  0  0  0  0  0
  147.6438  132.3877  153.1632 H   0  0  0  0  0  0  0  0  0  0  0  0
  147.0865  132.8060  150.4290 H   0  0  0  0  0  0  0  0  0  0  0  0
  145.9298  132.2975  151.6557 H   0  0  0  0  0  0  0  0  0  0  0  0
  146.4427  135.1009  150.6504 H   0  0  0  0  0  0  0  0  0  0  0  0
  144.8837  134.3335  150.9648 H   0  0  0  0  0  0  0  0  0  0  0  0
  145.2377  134.4452  153.3625 H   0  0  0  0  0  0  0  0  0  0  0  0
  145.8632  136.0058  152.8133 H   0  0  0  0  0  0  0  0  0  0  0  0
  147.9827  135.2100  152.8589 H   0  0  0  0  0  0  0  0  0  0  0  0
  1  2  1  0  0  0  0
  1 21  1  0  0  0  0
  1 22  1  0  0  0  0
  1 23  1  0  0  0  0
  2  3  1  0  0  0  0
  2 24  1  0  0  0  0
  2 25  1  0  0  0  0
  3  4  1  0  0  0  0
  3 16  1  0  0  0  0
  3 26  1  0  0  0  0
  4  5  1  0  0  0  0
  4 27  1  0  0  0  0
  4 28  1  0  0  0  0
  5  6  1  0  0  0  0
  5 29  1  0  0  0  0
  6  7  2  0  0  0  0
  6  8  1  0  0  0  0
  8  9  1  0  0  0  0
  8 30  1  0  0  0  0
  8 31  1  0  0  0  0
  9 14  1  0  0  0  0
  9 10  1  0  0  0  0
 10 11  2  0  0  0  0
 10 32  1  0  0  0  0
 11 12  1  0  0  0  0
 11 33  1  0  0  0  0
 12 13  2  0  0  0  0
 12 34  1  0  0  0  0
 13 14  1  0  0  0  0
 13 35  1  0  0  0  0
 14 15  2  0  0  0  0
 16 20  1  0  0  0  0
 16 17  1  0  0  0  0
 16 44  1  0  0  0  0
 17 18  1  0  0  0  0
 17 36  1  0  0  0  0
 17 37  1  0  0  0  0
 18 19  1  0  0  0  0
 18 38  1  0  0  0  0
 18 39  1  0  0  0  0
 19 20  1  0  0  0  0
 19 40  1  0  0  0  0
 19 41  1  0  0  0  0
 20 42  1  0  0  0  0
 20 43  1  0  0  0  0
M  CHG  1  16   1
M  END
> <s_m_source_file>
AV-unprocessed.smi

> <i_m_source_file_index>
1110

> <i_lp_mmshare_version>
43012

> <i_f3d_flags>
0

> <s_epik_input>
W0NIMl0xW0NIMl1bQ0gyXVtDSDJdTjFbQ0BIXShbQ0gyXVtDSDNdKVtDSDJdW05IXUMoPU8pW0NIMl1uMltjSF1bY0hdW2NIXVtjSF1jMj1P

> <s_epik_cmdline>
J2VwaWtfcHl0aG9uJywgJy1waCcsICc3LjAnLCAnLXRuJywgJzgnLCAnLW1hJywgJzIwMCcsICctbWV0YWxfYmluZGluZycsICctaW1hZScsICc8aW5maWxlLm1hZT4nLCAnLW9tYWUnLCAnPG91dGZpbGUubWFlPic=

> <r_lp_tautomer_probability>
1

> <r_epik_Ionization_Penalty>
0.00361135

> <r_epik_Ionization_Penalty_Charging>
0.00361127

> <r_epik_Ionization_Penalty_Neutral>
7.8489e-08

> <r_epik_State_Penalty>
0.00256751

> <r_epik_Charging_Adjusted_Penalty>
0.00617878

> <i_epik_Tot_Q>
1

> <i_epik_Tot_abs_Q>
1

> <r_epik_Metal_State_Penalty>
-0

> <b_epik_Metal_Only>
0

> <s_lp_Force_Field>
OPLS_2005

> <r_lp_Energy>
49.2182

> <b_lp_Chiralities_Consistent>
1

> <s_lp_Variant>
AV-unprocessed.smi:1110-2

> <Gold.Version>
5.8.1

> <Gold.Id.Protein>
6NUR|6NUR_protein|mol2

> <Gold.PLP.Fitness>
44.7825

> <Gold.PLP.PLP>
-31.1048

> <Gold.PLP.part.hbond>
-3.8481

> <Gold.PLP.part.metal>
0.0000

> <Gold.PLP.part.buried>
-2.4413

> <Gold.PLP.part.nonpolar>
-25.3583

> <Gold.PLP.part.repulsive>
0.2534

> <Gold.PLP.ligand.clash>
0.0000

> <Gold.PLP.ligand.torsion>
0.6244

> <Gold.PLP.Chemscore.Hbond>
4.9120

> <Gold.PLP.Chemscore.CHOScore>
0.0000

> <Gold.PLP.Chemscore.Metal>
0.0000

> <Gold.Chemscore.Hbonds>
donor molecule, donor type, donor heavy atom, donor atom, acceptor molecule, acceptor atom, score
      L1  H     5    29       P1  7948  0.91
      L1  H    16    44       P1  7948  2.00
      P1  H  7989  7998       L1    15  1.00
      P1  H 10752 10765       L1     7  0.50

> <Gold.PLP.Chemscore.Internal.Correction>
0.1905

> <Gold.Rescore>
     Score         DG    S(hbond)    S(metal)    S(lipo)     H(rot)  DE(clash)    DE(int)     intcor
     15.58     -17.97       3.16        0.00      59.99       1.99       0.28       2.12       ----

> <Gold.Chemscore.Fitness>
15.5758

> <Gold.Chemscore.DG>
-17.9705

> <Gold.Chemscore.ZeroCoef>
-5.4800

> <Gold.Chemscore.Hbond>
3.1629

> <Gold.Chemscore.Metal>
0.0000

> <Gold.Chemscore.Lipo>
59.9928

> <Gold.Chemscore.Internal_Hbond>
0.0000

> <Gold.Chemscore.DEClash>
0.2753

> <Gold.Chemscore.DEInternal>
2.1193

> <Gold.Chemscore.Rot>
1.9893

> <Gold.Chemscore.Internal.Correction>
   9.000000E+99

> <Gold.Chemscore.Hbonds>
donor molecule, donor type, donor heavy atom, donor atom, acceptor molecule, acceptor atom, score
      L1  H     5    29       P1  7948  0.77
      L1  H    16    44       P1  7948  0.99
      P1  H  7989  7998       L1    15  0.27
      P1  H 10752 10765       L1     7  0.10

> <Gold.Chemscore.Hbond.Weighted>
-10.5640

> <Gold.Chemscore.Metal.Weighted>
-0.0000

> <Gold.Chemscore.Lipo.Weighted>
-7.0192

> <Gold.Chemscore.Internal_Hbond.Weighted>
0.0000

> <Gold.Chemscore.DEClash.Weighted>
0.2753

> <Gold.Chemscore.DEInternal.Weighted>
2.1193

> <Gold.Chemscore.Rot.Weighted>
5.0927

> <Gold.Chemscore.Internal.Correction.Weighted>
   9.000000E+99

> <Gold.Protein.RotatedTorsions>
[ 6907 6896 6895 6894 ] final  125.71 input  -60.11 | X-H torsion
[ 7974 7965 7964 7962 ] final   -1.52 input  175.53 | X-H torsion
[ 8008 7997 7996 7995 ] final   71.97 input   59.86 | X-H torsion
[ 10167 10162 10161 10158 ] final   29.59 input  -65.29 | X-H torsion
[ 10718 10713 10712 10709 ] final  -43.65 input   66.30 | X-H torsion
[ 10763 10752 10751 10750 ] final -138.40 input  -60.55 | X-H torsion
[ 11005 11000 10999 10996 ] final   83.22 input  -57.11 | X-H torsion

> <Gold.Protein.ActiveResidues>
 VAL166  LYS551  ARG553  GLY616  TRP617  ASP618  TYR619  PRO620  LYS621  CYS622 
 ASP623  PHE694  ASN695  SER759  ASP760  ASP761  ALA762  ILE779  LEU786  VAL792 
 PHE793  MET794  SER795  GLU796  ALA797  LYS798  CYS799  TRP800  GLU811  SER814 

> <Gold.Protein.RotatedAtoms>
  152.3968  133.6759  159.6282 H   0  0  0  0  0  0  0  0  0  0  0  0  # atno 6907 bound_to 6896
  150.7866  133.8860  159.3308 H   0  0  0  0  0  0  0  0  0  0  0  0  # atno 6908 bound_to 6896
  151.6635  135.0987  160.0235 H   0  0  0  0  0  0  0  0  0  0  0  0  # atno 6909 bound_to 6896
  146.2416  140.1433  142.8335 H   0  0  0  0  0  0  0  0  0  0  0  0  # atno 7974 bound_to 7965
  155.7618  140.3486  155.5202 H   0  0  0  0  0  0  0  0  0  0  0  0  # atno 8008 bound_to 7997
  155.8906  140.1017  157.1442 H   0  0  0  0  0  0  0  0  0  0  0  0  # atno 8009 bound_to 7997
  154.4033  140.1305  156.4298 H   0  0  0  0  0  0  0  0  0  0  0  0  # atno 8010 bound_to 7997
  140.4752  144.0701  150.6248 H   0  0  0  0  0  0  0  0  0  0  0  0  # atno 10167 bound_to 10162
  156.2467  130.4184  149.8696 H   0  0  0  0  0  0  0  0  0  0  0  0  # atno 10718 bound_to 10713
  154.8638  135.3613  154.5378 H   0  0  0  0  0  0  0  0  0  0  0  0  # atno 10763 bound_to 10752
  153.6001  135.7013  153.5393 H   0  0  0  0  0  0  0  0  0  0  0  0  # atno 10764 bound_to 10752
  153.3298  135.4127  155.1447 H   0  0  0  0  0  0  0  0  0  0  0  0  # atno 10765 bound_to 10752
  139.9038  134.8128  156.2279 H   0  0  0  0  0  0  0  0  0  0  0  0  # atno 11005 bound_to 11000
  145.0228  140.8808  143.5156 LP  0  0  0  0  0  0  0  0  0  0  0  0  # atno 17320 bound_to 7965
  145.1484  139.2529  143.5453 LP  0  0  0  0  0  0  0  0  0  0  0  0  # atno 17321 bound_to 7965
  140.3927  143.2744  152.0041 LP  0  0  0  0  0  0  0  0  0  0  0  0  # atno 17342 bound_to 10162
  139.4824  144.6064  151.7514 LP  0  0  0  0  0  0  0  0  0  0  0  0  # atno 17343 bound_to 10162
  156.6259  130.8646  151.3485 LP  0  0  0  0  0  0  0  0  0  0  0  0  # atno 17370 bound_to 10713
  157.7198  130.9543  150.1394 LP  0  0  0  0  0  0  0  0  0  0  0  0  # atno 17371 bound_to 10713
  141.0364  133.6961  156.1519 LP  0  0  0  0  0  0  0  0  0  0  0  0  # atno 17394 bound_to 11000
  140.7021  134.4553  157.5585 LP  0  0  0  0  0  0  0  0  0  0  0  0  # atno 17395 bound_to 11000

$$$$
