#       Name:                AV-unprocessed.smi:190
#       Creating user name   scv26
#       Creation time:       Thu Mar 26 19:31:12 2020


#       File generated by GOLD software.
#

@<TRIPOS>MOLECULE
AV-unprocessed.smi:190
    63    67     1
SMALL
NO_CHARGES


@<TRIPOS>ATOM
      1 ****        -2.7400   5.2902   1.5763 O.3            1 S1                 0.0000
      2 ****        -2.9676   4.4525   0.4601 C.3            1 S1                 0.0000
      3 ****        -2.4206   3.0127   0.6772 C.3            1 S1                 0.0000
      4 ****        -0.8788   3.1243   0.8888 C.3            1 S1                 0.0000
      5 ****        -0.1589   1.8612   0.9726 N.pl3          1 S1                 0.0000
      6 ****         0.0841   1.1223   2.1067 C.2            1 S1                 0.0000
      7 ****         0.7657   0.0264   1.9187 N.2            1 S1                 0.0000
      8 ****         1.0299   0.0069   0.5524 C.ar           1 S1                 0.0000
      9 ****         1.7246  -0.8838  -0.3239 C.ar           1 S1                 0.0000
     10 ****         2.3263  -2.0420   0.0804 N.pl3          1 S1                 0.0000
     11 ****         1.8495  -2.7240   1.2795 C.3            1 S1                 0.0000
     12 ****         2.4602  -4.1284   1.2540 C.3            1 S1                 0.0000
     13 ****         3.5629  -4.0309   0.2013 C.3            1 S1                 0.0000
     14 ****         3.0157  -2.9986  -0.7982 C.3            1 S1                 0.0000
     15 ****         2.0864  -3.6728  -1.8198 C.3            1 S1                 0.0000
     16 ****         2.9760  -3.8149  -3.0487 C.3            1 S1                 0.0000
     17 ****         3.7484  -2.6273  -3.0177 O.3            1 S1                 0.0000
     18 ****         4.1461  -2.4048  -1.6707 C.3            1 S1                 0.0000
     19 ****         1.7836  -0.5228  -1.6334 N.ar           1 S1                 0.0000
     20 ****         1.2095   0.6014  -2.0669 C.ar           1 S1                 0.0000
     21 ****         0.5300   1.5102  -1.3691 N.ar           1 S1                 0.0000
     22 ****         0.4646   1.1686  -0.0513 C.ar           1 S1                 0.0000
     23 ****        -3.1059   2.3256   1.8872 C.3            1 S1                 0.0000
     24 ****        -4.5949   2.0268   1.6335 C.3            1 S1                 0.0000
     25 ****        -4.7347   1.2132   0.4753 O.3            1 S1                 0.0000
     26 ****        -4.2513   1.8386  -0.7071 C.3            1 S1                 0.0000
     27 ****        -2.7478   2.1424  -0.5651 C.3            1 S1                 0.0000
     28 ****        -3.0772   6.1511   1.3799 H              1 S1                 0.0000
     29 ****        -4.0374   4.4616   0.2600 H              1 S1                 0.0000
     30 ****        -2.4937   4.9093  -0.4094 H              1 S1                 0.0000
     31 ****        -0.4356   3.7023   0.0769 H              1 S1                 0.0000
     32 ****        -0.6621   3.6825   1.8004 H              1 S1                 0.0000
     33 ****        -0.2661   1.4214   3.0841 H              1 S1                 0.0000
     34 ****         2.2032  -2.1863   2.1596 H              1 S1                 0.0000
     35 ****         0.7602  -2.7663   1.3151 H              1 S1                 0.0000
     36 ****         2.8354  -4.4422   2.2283 H              1 S1                 0.0000
     37 ****         1.7072  -4.8516   0.9388 H              1 S1                 0.0000
     38 ****         4.4708  -3.6521   0.6743 H              1 S1                 0.0000
     39 ****         3.8047  -4.9926  -0.2528 H              1 S1                 0.0000
     40 ****         1.6848  -4.6310  -1.4891 H              1 S1                 0.0000
     41 ****         1.2332  -3.0430  -2.0694 H              1 S1                 0.0000
     42 ****         3.6309  -4.6832  -2.9617 H              1 S1                 0.0000
     43 ****         2.4060  -3.9013  -3.9738 H              1 S1                 0.0000
     44 ****         4.3376  -1.3476  -1.4868 H              1 S1                 0.0000
     45 ****         5.0874  -2.9315  -1.5069 H              1 S1                 0.0000
     46 ****         1.3098   0.7994  -3.1239 H              1 S1                 0.0000
     47 ****        -2.6192   1.3749   2.1004 H              1 S1                 0.0000
     48 ****        -2.9943   2.9271   2.7897 H              1 S1                 0.0000
     49 ****        -5.0133   1.4900   2.4850 H              1 S1                 0.0000
     50 ****        -5.1786   2.9415   1.5274 H              1 S1                 0.0000
     51 ****        -4.4119   1.1600  -1.5452 H              1 S1                 0.0000
     52 ****        -4.8300   2.7362  -0.9251 H              1 S1                 0.0000
     53 ****        -2.3742   2.6180  -1.4726 H              1 S1                 0.0000
     54 ****        -2.2408   1.1807  -0.4961 H              1 S1                 0.0000
     55 ****        -1.7588   5.3465   1.7610 LP             1 S1                 0.0000
     56 ****        -3.2093   4.9191   2.3776 LP             1 S1                 0.0000
     57 ****         1.0379  -0.6494   2.6037 LP             1 S1                 0.0000
     58 ****         3.2008  -1.8563  -3.3428 LP             1 S1                 0.0000
     59 ****         4.5559  -2.7310  -3.5984 LP             1 S1                 0.0000
     60 ****         2.2658  -1.1101  -2.2834 LP             1 S1                 0.0000
     61 ****         0.1216   2.3347  -1.7607 LP             1 S1                 0.0000
     62 ****        -5.7040   1.0016   0.3500 LP             1 S1                 0.0000
     63 ****        -4.2242   0.3653   0.6184 LP             1 S1                 0.0000
@<TRIPOS>BOND
    1    1    2 1     
    2    1   28 1     
    3    2    3 1     
    4    2   29 1     
    5    2   30 1     
    6    3   27 1     
    7    3    4 1     
    8    3   23 1     
    9    4    5 1     
   10    4   31 1     
   11    4   32 1     
   12    5   22 1     
   13    5    6 1     
   14    6    7 2     
   15    6   33 1     
   16    7    8 1     
   17    8   22 ar    
   18    8    9 ar    
   19    9   10 1     
   20    9   19 ar    
   21   10   14 1     
   22   10   11 1     
   23   11   12 1     
   24   11   34 1     
   25   11   35 1     
   26   12   13 1     
   27   12   36 1     
   28   12   37 1     
   29   13   14 1     
   30   13   38 1     
   31   13   39 1     
   32   14   18 1     
   33   14   15 1     
   34   15   16 1     
   35   15   40 1     
   36   15   41 1     
   37   16   17 1     
   38   16   42 1     
   39   16   43 1     
   40   17   18 1     
   41   18   44 1     
   42   18   45 1     
   43   19   20 ar    
   44   20   21 ar    
   45   20   46 1     
   46   21   22 ar    
   47   23   24 1     
   48   23   47 1     
   49   23   48 1     
   50   24   25 1     
   51   24   49 1     
   52   24   50 1     
   53   25   26 1     
   54   26   27 1     
   55   26   51 1     
   56   26   52 1     
   57   27   53 1     
   58   27   54 1     
   59    1   55 1     
   60    1   56 1     
   61    7   57 1     
   62   17   58 1     
   63   17   59 1     
   64   19   60 1     
   65   21   61 1     
   66   25   62 1     
   67   25   63 1     
@<TRIPOS>SUBSTRUCTURE
      1 S1             1
@<TRIPOS>SET
LONE_PAIRS      STATIC     ATOMS    <user>   **** ""
9 55 56 57 58 59 60 61 62 63
DONOR_HYDROGENS      STATIC     ATOMS    <user>   **** ""
1 28
ATOM$BLUE        STATIC     ATOMS    COLORGROUP SYSTEM
9 55 56 57 58 59 60 61 62 63
ATOM$RED        STATIC     ATOMS    COLORGROUP SYSTEM
1 28
