AV-unprocessed.smi:1137|AV-procd|sdf|4866|dock3
  -GOLD-   22720 3433D 1   1.00000     0.00000
 Structure written by MMmdl.
 18 18  0  0  0  0  0  0  0  0  3 V2000
  152.8067  139.2021  155.8159 O   0  0  0  0  0  0  0  0  0  0  0  0
  151.8515  139.9161  156.1925 C   0  0  0  0  0  0  0  0  0  0  0  0
  150.9756  140.4057  155.4443 O   0  5  0  0  0  0  0  0  0  0  0  0
  151.7364  140.1706  157.7020 C   0  0  1  0  0  0  0  0  0  0  0  0
  152.7420  139.4675  158.4095 O   0  0  0  0  0  0  0  0  0  0  0  0
  151.8095  141.6777  157.9024 C   0  0  0  0  0  0  0  0  0  0  0  0
  152.7149  142.2294  158.8368 C   0  0  0  0  0  0  0  0  0  0  0  0
  152.7590  143.6272  159.0190 C   0  0  0  0  0  0  0  0  0  0  0  0
  151.8931  144.4454  158.2652 C   0  0  0  0  0  0  0  0  0  0  0  0
  151.0372  143.8848  157.3831 N   0  3  0  0  0  0  0  0  0  0  0  0
  150.9661  142.5515  157.1783 C   0  0  0  0  0  0  0  0  0  0  0  0
  150.7706  139.8025  158.0517 H   0  0  0  0  0  0  0  0  0  0  0  0
  153.5709  139.8934  158.2565 H   0  0  0  0  0  0  0  0  0  0  0  0
  153.3657  141.5876  159.4129 H   0  0  0  0  0  0  0  0  0  0  0  0
  153.4444  144.0640  159.7304 H   0  0  0  0  0  0  0  0  0  0  0  0
  151.8566  145.5221  158.3432 H   0  0  0  0  0  0  0  0  0  0  0  0
  150.2347  142.2236  156.4536 H   0  0  0  0  0  0  0  0  0  0  0  0
  150.4143  144.4929  156.8511 H   0  0  0  0  0  0  0  0  0  0  0  0
  1  2  2  0  0  0  0
  2  3  1  0  0  0  0
  2  4  1  0  0  0  0
  4  5  1  0  0  0  0
  4  6  1  0  0  0  0
  4 12  1  0  0  0  0
  5 13  1  0  0  0  0
  6 11  1  0  0  0  0
  6  7  2  0  0  0  0
  7  8  1  0  0  0  0
  7 14  1  0  0  0  0
  8  9  2  0  0  0  0
  8 15  1  0  0  0  0
  9 10  1  0  0  0  0
  9 16  1  0  0  0  0
 10 11  2  0  0  0  0
 10 18  1  0  0  0  0
 11 17  1  0  0  0  0
M  CHG  1   3  -1
M  CHG  1  10   1
M  END
> <s_m_source_file>
AV-unprocessed.smi

> <i_m_source_file_index>
1137

> <i_lp_mmshare_version>
43012

> <i_f3d_flags>
0

> <s_epik_input>
Tz1DKFtPSF0pW0NASF0oW09IXSljMVtjSF1bY0hdW2NIXW5bY0hdMQ==

> <s_epik_cmdline>
J2VwaWtfcHl0aG9uJywgJy1waCcsICc3LjAnLCAnLXRuJywgJzgnLCAnLW1hJywgJzIwMCcsICctbWV0YWxfYmluZGluZycsICctaW1hZScsICc8aW5maWxlLm1hZT4nLCAnLW9tYWUnLCAnPG91dGZpbGUubWFlPic=

> <r_epik_Ionization_Penalty>
2.03958

> <r_epik_Ionization_Penalty_Charging>
2.03958

> <r_epik_Ionization_Penalty_Neutral>
5.11681e-08

> <r_epik_State_Penalty>
2.1712

> <r_epik_Charging_Adjusted_Penalty>
4.21078

> <i_epik_Tot_Q>
0

> <i_epik_Tot_abs_Q>
2

> <r_epik_Metal_State_Penalty>
6.24859

> <b_epik_Metal_Only>
0

> <s_lp_Force_Field>
OPLS_2005

> <r_lp_Energy>
7.29674

> <b_lp_Chiralities_Consistent>
1

> <s_lp_Variant>
AV-unprocessed.smi:1137-4

> <Gold.Version>
5.8.1

> <Gold.Id.Protein>
6NUR|6NUR_protein|mol2

> <Gold.PLP.Fitness>
40.2508

> <Gold.PLP.PLP>
-25.5063

> <Gold.PLP.part.hbond>
-3.0000

> <Gold.PLP.part.metal>
0.0000

> <Gold.PLP.part.buried>
-4.5197

> <Gold.PLP.part.nonpolar>
-18.1383

> <Gold.PLP.part.repulsive>
0.0450

> <Gold.PLP.ligand.clash>
0.0000

> <Gold.PLP.ligand.torsion>
0.1267

> <Gold.PLP.Chemscore.Hbond>
4.9920

> <Gold.PLP.Chemscore.CHOScore>
0.0000

> <Gold.PLP.Chemscore.Metal>
0.0000

> <Gold.Chemscore.Hbonds>
donor molecule, donor type, donor heavy atom, donor atom, acceptor molecule, acceptor atom, score
      L1  H    10    18       P1  8028  2.00
      P1  H  7989  7998       L1     3  0.82
      P1  H  7997  8010       L1     1  2.00

> <Gold.PLP.Chemscore.Internal.Correction>
0.0219

> <Gold.Rescore>
     Score         DG    S(hbond)    S(metal)    S(lipo)     H(rot)  DE(clash)    DE(int)     intcor
     14.48     -16.05       2.74        0.00      59.43       2.16       0.01       1.56       ----

> <Gold.Chemscore.Fitness>
14.4816

> <Gold.Chemscore.DG>
-16.0490

> <Gold.Chemscore.ZeroCoef>
-5.4800

> <Gold.Chemscore.Hbond>
2.7368

> <Gold.Chemscore.Metal>
0.0000

> <Gold.Chemscore.Lipo>
59.4329

> <Gold.Chemscore.Internal_Hbond>
0.0000

> <Gold.Chemscore.DEClash>
0.0073

> <Gold.Chemscore.DEInternal>
1.5600

> <Gold.Chemscore.Rot>
2.1584

> <Gold.Chemscore.Internal.Correction>
   9.000000E+99

> <Gold.Chemscore.Hbonds>
donor molecule, donor type, donor heavy atom, donor atom, acceptor molecule, acceptor atom, score
      L1  H    10    18       P1  8028  0.87
      P1  H  7989  7998       L1     3  0.69
      P1  H  7997  8010       L1     1  0.69

> <Gold.Chemscore.Hbond.Weighted>
-9.1409

> <Gold.Chemscore.Metal.Weighted>
-0.0000

> <Gold.Chemscore.Lipo.Weighted>
-6.9536

> <Gold.Chemscore.Internal_Hbond.Weighted>
0.0000

> <Gold.Chemscore.DEClash.Weighted>
0.0073

> <Gold.Chemscore.DEInternal.Weighted>
1.5600

> <Gold.Chemscore.Rot.Weighted>
5.5256

> <Gold.Chemscore.Internal.Correction.Weighted>
   9.000000E+99

> <Gold.Protein.RotatedTorsions>
[ 6907 6896 6895 6894 ] final  -19.75 input  -60.11 | X-H torsion
[ 7974 7965 7964 7962 ] final  150.59 input  175.53 | X-H torsion
[ 8008 7997 7996 7995 ] final   99.22 input   59.86 | X-H torsion
[ 10167 10162 10161 10158 ] final  -25.45 input  -65.29 | X-H torsion
[ 10718 10713 10712 10709 ] final  125.08 input   66.30 | X-H torsion
[ 10763 10752 10751 10750 ] final  139.38 input  -60.55 | X-H torsion
[ 11005 11000 10999 10996 ] final  139.82 input  -57.11 | X-H torsion

> <Gold.Protein.ActiveResidues>
 VAL166  LYS551  ARG553  GLY616  TRP617  ASP618  TYR619  PRO620  LYS621  CYS622 
 ASP623  PHE694  ASN695  SER759  ASP760  ASP761  ALA762  ILE779  LEU786  VAL792 
 PHE793  MET794  SER795  GLU796  ALA797  LYS798  CYS799  TRP800  GLU811  SER814 

> <Gold.Protein.RotatedAtoms>
  151.2584  135.0646  159.9088 H   0  0  0  0  0  0  0  0  0  0  0  0  # atno 6907 bound_to 6896
  152.5369  134.0257  159.8012 H   0  0  0  0  0  0  0  0  0  0  0  0  # atno 6908 bound_to 6896
  151.0476  133.5602  159.2676 H   0  0  0  0  0  0  0  0  0  0  0  0  # atno 6909 bound_to 6896
  144.8353  139.6427  143.6040 H   0  0  0  0  0  0  0  0  0  0  0  0  # atno 7974 bound_to 7965
  156.1083  140.3232  155.8037 H   0  0  0  0  0  0  0  0  0  0  0  0  # atno 8008 bound_to 7997
  155.4717  140.0547  157.2996 H   0  0  0  0  0  0  0  0  0  0  0  0  # atno 8009 bound_to 7997
  154.4743  140.2025  155.9932 H   0  0  0  0  0  0  0  0  0  0  0  0  # atno 8010 bound_to 7997
  140.7286  143.4263  151.0871 H   0  0  0  0  0  0  0  0  0  0  0  0  # atno 10167 bound_to 10162
  157.5533  131.1093  150.8666 H   0  0  0  0  0  0  0  0  0  0  0  0  # atno 10718 bound_to 10713
  153.9052  135.3017  155.3448 H   0  0  0  0  0  0  0  0  0  0  0  0  # atno 10763 bound_to 10752
  154.7651  135.4915  153.9541 H   0  0  0  0  0  0  0  0  0  0  0  0  # atno 10764 bound_to 10752
  153.1223  135.6785  153.9416 H   0  0  0  0  0  0  0  0  0  0  0  0  # atno 10765 bound_to 10752
  140.0282  134.9364  157.0611 H   0  0  0  0  0  0  0  0  0  0  0  0  # atno 11005 bound_to 11000
  146.2653  139.6504  142.9334 LP  0  0  0  0  0  0  0  0  0  0  0  0  # atno 17320 bound_to 7965
  145.4807  141.0438  143.2647 LP  0  0  0  0  0  0  0  0  0  0  0  0  # atno 17321 bound_to 7965
  139.7915  143.8212  152.3152 LP  0  0  0  0  0  0  0  0  0  0  0  0  # atno 17342 bound_to 10162
  139.8197  144.7301  150.9588 LP  0  0  0  0  0  0  0  0  0  0  0  0  # atno 17343 bound_to 10162
  156.9184  130.5306  149.5279 LP  0  0  0  0  0  0  0  0  0  0  0  0  # atno 17370 bound_to 10713
  156.0595  130.5651  150.9164 LP  0  0  0  0  0  0  0  0  0  0  0  0  # atno 17371 bound_to 10713
  140.4270  134.1820  155.7166 LP  0  0  0  0  0  0  0  0  0  0  0  0  # atno 17394 bound_to 11000
  141.1815  133.8403  157.1239 LP  0  0  0  0  0  0  0  0  0  0  0  0  # atno 17395 bound_to 11000

$$$$
