AV-unprocessed.smi:2062|AV-procd|sdf|8401|dock6
  -GOLD-   2272011 83D 1   1.00000     0.00000
 Structure written by MMmdl.
 42 43  0  0  0  0  0  0  0  0  1 V2000
  151.0587  137.5299  154.3616 C   0  0  0  0  0  0  0  0  0  0  0  0
  151.6649  138.9087  154.6676 C   0  0  0  0  0  0  0  0  0  0  0  0
  152.8611  138.7521  155.6225 C   0  0  0  0  0  0  0  0  0  0  0  0
  150.5956  139.8707  155.2373 C   0  0  0  0  0  0  0  0  0  0  0  0
  149.4826  140.1834  154.3394 N   0  0  0  0  0  0  0  0  0  0  0  0
  148.8292  141.4485  154.6639 C   0  0  0  0  0  0  0  0  0  0  0  0
  147.6395  141.7372  153.7326 C   0  0  0  0  0  0  0  0  0  0  0  0
  146.7190  140.6530  153.7838 O   0  0  0  0  0  0  0  0  0  0  0  0
  147.3059  139.4094  153.4073 C   0  0  2  0  0  0  0  0  0  0  0  0
  146.2245  138.3174  153.4776 C   0  0  0  0  0  0  0  0  0  0  0  0
  146.6004  137.1368  152.7070 N   0  0  0  0  0  0  0  0  0  0  0  0
  145.7391  136.2481  152.1923 C   0  0  0  0  0  0  0  0  0  0  0  0
  144.5167  136.3527  152.2924 O   0  0  0  0  0  0  0  0  0  0  0  0
  146.3848  135.2485  151.5700 N   0  0  0  0  0  0  0  0  0  0  0  0
  145.8207  134.1143  150.9352 C   0  0  0  0  0  0  0  0  0  0  0  0
  144.5044  134.0839  150.7184 N   0  0  0  0  0  0  0  0  0  0  0  0
  144.1044  132.9059  150.0806 C   0  0  0  0  0  0  0  0  0  0  0  0
  145.1385  132.0419  149.8177 C   0  0  0  0  0  0  0  0  0  0  0  0
  146.6683  132.6750  150.3628 S   0  0  0  0  0  0  0  0  0  0  0  0
  148.4861  139.1169  154.3545 C   0  0  0  0  0  0  0  0  0  0  0  0
  150.6605  137.0625  155.2627 H   0  0  0  0  0  0  0  0  0  0  0  0
  151.8045  136.8564  153.9386 H   0  0  0  0  0  0  0  0  0  0  0  0
  150.2450  137.6097  153.6399 H   0  0  0  0  0  0  0  0  0  0  0  0
  152.0313  139.3080  153.7207 H   0  0  0  0  0  0  0  0  0  0  0  0
  152.5528  138.3171  156.5737 H   0  0  0  0  0  0  0  0  0  0  0  0
  153.3374  139.7081  155.8375 H   0  0  0  0  0  0  0  0  0  0  0  0
  153.6216  138.1001  155.1920 H   0  0  0  0  0  0  0  0  0  0  0  0
  150.1771  139.4124  156.1345 H   0  0  0  0  0  0  0  0  0  0  0  0
  151.0668  140.7918  155.5845 H   0  0  0  0  0  0  0  0  0  0  0  0
  148.4831  141.4325  155.6986 H   0  0  0  0  0  0  0  0  0  0  0  0
  149.5389  142.2707  154.5806 H   0  0  0  0  0  0  0  0  0  0  0  0
  147.1311  142.6515  154.0389 H   0  0  0  0  0  0  0  0  0  0  0  0
  147.9789  141.8872  152.7064 H   0  0  0  0  0  0  0  0  0  0  0  0
  147.6797  139.4846  152.3845 H   0  0  0  0  0  0  0  0  0  0  0  0
  146.0359  138.0354  154.5150 H   0  0  0  0  0  0  0  0  0  0  0  0
  145.2813  138.6984  153.0849 H   0  0  0  0  0  0  0  0  0  0  0  0
  147.5887  136.9732  152.5808 H   0  0  0  0  0  0  0  0  0  0  0  0
  147.3929  135.2957  151.5619 H   0  0  0  0  0  0  0  0  0  0  0  0
  143.0591  132.7642  149.8492 H   0  0  0  0  0  0  0  0  0  0  0  0
  145.0934  131.0756  149.3378 H   0  0  0  0  0  0  0  0  0  0  0  0
  148.9526  138.1745  154.0646 H   0  0  0  0  0  0  0  0  0  0  0  0
  148.1106  138.9783  155.3699 H   0  0  0  0  0  0  0  0  0  0  0  0
  1  2  1  0  0  0  0
  1 21  1  0  0  0  0
  1 22  1  0  0  0  0
  1 23  1  0  0  0  0
  2  3  1  0  0  0  0
  2  4  1  0  0  0  0
  2 24  1  0  0  0  0
  3 25  1  0  0  0  0
  3 26  1  0  0  0  0
  3 27  1  0  0  0  0
  4  5  1  0  0  0  0
  4 28  1  0  0  0  0
  4 29  1  0  0  0  0
  5 20  1  0  0  0  0
  5  6  1  0  0  0  0
  6  7  1  0  0  0  0
  6 30  1  0  0  0  0
  6 31  1  0  0  0  0
  7  8  1  0  0  0  0
  7 32  1  0  0  0  0
  7 33  1  0  0  0  0
  8  9  1  0  0  0  0
  9 10  1  0  0  0  0
  9 20  1  0  0  0  0
  9 34  1  0  0  0  0
 10 11  1  0  0  0  0
 10 35  1  0  0  0  0
 10 36  1  0  0  0  0
 11 12  1  0  0  0  0
 11 37  1  0  0  0  0
 12 13  2  0  0  0  0
 12 14  1  0  0  0  0
 14 15  1  0  0  0  0
 14 38  1  0  0  0  0
 15 19  1  0  0  0  0
 15 16  2  0  0  0  0
 16 17  1  0  0  0  0
 17 18  2  0  0  0  0
 17 39  1  0  0  0  0
 18 19  1  0  0  0  0
 18 40  1  0  0  0  0
 20 41  1  0  0  0  0
 20 42  1  0  0  0  0
M  END
> <s_m_source_file>
AV-unprocessed.smi

> <i_m_source_file_index>
2062

> <i_lp_mmshare_version>
43012

> <i_f3d_flags>
0

> <s_epik_input>
W0NIM11bQ0hdKFtDSDNdKVtDSDJdTjFbQ0gyXVtDSDJdT1tDQEhdKFtDSDJdMSlbQ0gyXVtOSF1DKD1PKVtOSF1jMm5bY0hdW2NIXXMy

> <s_epik_cmdline>
J2VwaWtfcHl0aG9uJywgJy1waCcsICc3LjAnLCAnLXRuJywgJzgnLCAnLW1hJywgJzIwMCcsICctbWV0YWxfYmluZGluZycsICctaW1hZScsICc8aW5maWxlLm1hZT4nLCAnLW9tYWUnLCAnPG91dGZpbGUubWFlPic=

> <r_lp_tautomer_probability>
0.999

> <r_epik_Ionization_Penalty>
1.11227

> <r_epik_Ionization_Penalty_Charging>
0

> <r_epik_Ionization_Penalty_Neutral>
1.11227

> <r_epik_State_Penalty>
1.17021

> <r_epik_Charging_Adjusted_Penalty>
1.17021

> <i_epik_Tot_Q>
0

> <i_epik_Tot_abs_Q>
0

> <r_epik_Metal_State_Penalty>
1.22349

> <b_epik_Metal_Only>
0

> <s_lp_Force_Field>
OPLS_2005

> <r_lp_Energy>
23.0648

> <b_lp_Chiralities_Consistent>
1

> <s_lp_Variant>
AV-unprocessed.smi:2062-6

> <Gold.Version>
5.8.1

> <Gold.Id.Protein>
6NUR|6NUR_protein|mol2

> <Gold.PLP.Fitness>
44.8405

> <Gold.PLP.PLP>
-37.0216

> <Gold.PLP.part.hbond>
-2.1279

> <Gold.PLP.part.metal>
0.0000

> <Gold.PLP.part.buried>
-3.9341

> <Gold.PLP.part.nonpolar>
-32.0284

> <Gold.PLP.part.repulsive>
0.7505

> <Gold.PLP.ligand.clash>
0.0000

> <Gold.PLP.ligand.torsion>
0.6080

> <Gold.PLP.Chemscore.Hbond>
2.0000

> <Gold.PLP.Chemscore.CHOScore>
1.0000

> <Gold.PLP.Chemscore.Metal>
0.0000

> <Gold.Chemscore.Hbonds>
donor molecule, donor type, donor heavy atom, donor atom, acceptor molecule, acceptor atom, score
      L1  H    11    37       P1  7948  1.00
      L1  H    14    38       P1  7948  1.00
      L1  C    17    39       P1 10186  0.70

> <Gold.PLP.Chemscore.Internal.Correction>
0.0348

> <Gold.Rescore>
     Score         DG    S(hbond)    S(metal)    S(lipo)     H(rot)  DE(clash)    DE(int)     intcor
     15.43     -17.76       1.95        0.00      86.75       1.72       0.13       2.20       ----

> <Gold.Chemscore.Fitness>
15.4256

> <Gold.Chemscore.DG>
-17.7551

> <Gold.Chemscore.ZeroCoef>
-5.4800

> <Gold.Chemscore.Hbond>
1.9542

> <Gold.Chemscore.Metal>
0.0000

> <Gold.Chemscore.Lipo>
86.7509

> <Gold.Chemscore.Internal_Hbond>
0.0000

> <Gold.Chemscore.DEClash>
0.1333

> <Gold.Chemscore.DEInternal>
2.1962

> <Gold.Chemscore.Rot>
1.7195

> <Gold.Chemscore.Internal.Correction>
   9.000000E+99

> <Gold.Chemscore.Hbonds>
donor molecule, donor type, donor heavy atom, donor atom, acceptor molecule, acceptor atom, score
      L1  H    11    37       P1  7948  0.98
      L1  H    14    38       P1  7948  0.87

> <Gold.Chemscore.Hbond.Weighted>
-6.5271

> <Gold.Chemscore.Metal.Weighted>
-0.0000

> <Gold.Chemscore.Lipo.Weighted>
-10.1499

> <Gold.Chemscore.Internal_Hbond.Weighted>
0.0000

> <Gold.Chemscore.DEClash.Weighted>
0.1333

> <Gold.Chemscore.DEInternal.Weighted>
2.1962

> <Gold.Chemscore.Rot.Weighted>
4.4019

> <Gold.Chemscore.Internal.Correction.Weighted>
   9.000000E+99

> <Gold.Protein.RotatedTorsions>
[ 6907 6896 6895 6894 ] final   14.94 input  -60.11 | X-H torsion
[ 7974 7965 7964 7962 ] final -111.93 input  175.53 | X-H torsion
[ 8008 7997 7996 7995 ] final  112.22 input   59.86 | X-H torsion
[ 10167 10162 10161 10158 ] final  -86.68 input  -65.29 | X-H torsion
[ 10718 10713 10712 10709 ] final  129.45 input   66.30 | X-H torsion
[ 10763 10752 10751 10750 ] final -170.98 input  -60.55 | X-H torsion
[ 11005 11000 10999 10996 ] final  -43.56 input  -57.11 | X-H torsion

> <Gold.Protein.ActiveResidues>
 VAL166  LYS551  ARG553  GLY616  TRP617  ASP618  TYR619  PRO620  LYS621  CYS622 
 ASP623  PHE694  ASN695  SER759  ASP760  ASP761  ALA762  ILE779  LEU786  VAL792 
 PHE793  MET794  SER795  GLU796  ALA797  LYS798  CYS799  TRP800  GLU811  SER814 

> <Gold.Protein.RotatedAtoms>
  151.8103  135.0683  160.0411 H   0  0  0  0  0  0  0  0  0  0  0  0  # atno 6907 bound_to 6896
  152.3025  133.5666  159.5636 H   0  0  0  0  0  0  0  0  0  0  0  0  # atno 6908 bound_to 6896
  150.7280  134.0186  159.3736 H   0  0  0  0  0  0  0  0  0  0  0  0  # atno 6909 bound_to 6896
  145.1502  140.8825  143.3651 H   0  0  0  0  0  0  0  0  0  0  0  0  # atno 7974 bound_to 7965
  156.2177  140.3004  155.9879 H   0  0  0  0  0  0  0  0  0  0  0  0  # atno 8008 bound_to 7997
  155.2562  140.0428  157.3009 H   0  0  0  0  0  0  0  0  0  0  0  0  # atno 8009 bound_to 7997
  154.5793  140.2370  155.8085 H   0  0  0  0  0  0  0  0  0  0  0  0  # atno 8010 bound_to 7997
  140.3918  143.2701  151.9255 H   0  0  0  0  0  0  0  0  0  0  0  0  # atno 10167 bound_to 10162
  157.5153  131.1097  150.9234 H   0  0  0  0  0  0  0  0  0  0  0  0  # atno 10718 bound_to 10713
  154.6356  135.2892  155.0165 H   0  0  0  0  0  0  0  0  0  0  0  0  # atno 10763 bound_to 10752
  154.1310  135.6533  153.4926 H   0  0  0  0  0  0  0  0  0  0  0  0  # atno 10764 bound_to 10752
  153.0301  135.5310  154.7201 H   0  0  0  0  0  0  0  0  0  0  0  0  # atno 10765 bound_to 10752
  141.0392  133.6787  156.2751 H   0  0  0  0  0  0  0  0  0  0  0  0  # atno 11005 bound_to 11000
  145.0439  139.3237  143.5962 LP  0  0  0  0  0  0  0  0  0  0  0  0  # atno 17320 bound_to 7965
  146.3495  139.9823  142.8694 LP  0  0  0  0  0  0  0  0  0  0  0  0  # atno 17321 bound_to 7965
  139.4788  144.5720  151.8073 LP  0  0  0  0  0  0  0  0  0  0  0  0  # atno 17342 bound_to 10162
  140.4832  144.1420  150.5936 LP  0  0  0  0  0  0  0  0  0  0  0  0  # atno 17343 bound_to 10162
  156.9861  130.5545  149.5300 LP  0  0  0  0  0  0  0  0  0  0  0  0  # atno 17370 bound_to 10713
  156.0316  130.5407  150.8548 LP  0  0  0  0  0  0  0  0  0  0  0  0  # atno 17371 bound_to 10713
  140.6265  134.5307  157.5554 LP  0  0  0  0  0  0  0  0  0  0  0  0  # atno 17394 bound_to 11000
  139.9263  134.8049  156.1059 LP  0  0  0  0  0  0  0  0  0  0  0  0  # atno 17395 bound_to 11000

$$$$
