#       Name:                AV-unprocessed.smi:2933
#       Creating user name   scv26
#       Creation time:       Fri Mar 27 16:14:40 2020


#       File generated by GOLD software.
#

@<TRIPOS>MOLECULE
AV-unprocessed.smi:2933
    55    57     1
SMALL
NO_CHARGES


@<TRIPOS>ATOM
      1 ****        -0.1557  -2.8389  -0.0543 C.3            1 S1                 0.0000
      2 ****        -0.9437  -1.6061   0.3524 C.ar           1 S1                 0.0000
      3 ****        -2.2838  -1.7657   0.3992 N.ar           1 S1                 0.0000
      4 ****        -3.0673  -0.7189   0.7550 C.ar           1 S1                 0.0000
      5 ****        -4.4660  -0.9124   0.7876 N.3            1 S1                 0.0000
      6 ****        -4.9988  -2.1533   0.2271 C.3            1 S1                 0.0000
      7 ****        -6.5266  -2.0630   0.0771 C.3            1 S1                 0.0000
      8 ****        -7.1112  -1.7332   1.3323 O.3            1 S1                 0.0000
      9 ****        -6.6658  -0.4664   1.8053 C.3            1 S1                 0.0000
     10 ****        -5.1413  -0.4922   2.0133 C.3            1 S1                 0.0000
     11 ****        -2.5104   0.5394   1.0807 C.ar           1 S1                 0.0000
     12 ****        -1.1140   0.7083   1.0318 C.ar           1 S1                 0.0000
     13 ****        -0.2996  -0.3823   0.6475 C.ar           1 S1                 0.0000
     14 ****         1.1200  -0.3138   0.5814 N.am           1 S1                 0.0000
     15 ****         1.8928   0.7603   0.3481 C.2            1 S1                 0.0000
     16 ****         1.4830   1.9101   0.1898 O.2            1 S1                 0.0000
     17 ****         3.1877   0.4171   0.2851 N.am           1 S1                 0.0000
     18 ****         4.2990   1.3252   0.0130 C.3            1 S1                 0.0000
     19 ****         5.5126   0.9015   0.8518 C.3            1 S1                 0.0000
     20 ****         4.6132   1.3361  -1.4845 C.3            1 S1                 0.0000
     21 ****         5.6604   2.3124  -2.0426 C.3            1 S1                 0.0000
     22 ****         4.8170   2.4184  -3.3162 C.3            1 S1                 0.0000
     23 ****         3.6204   1.9529  -2.4827 C.3            1 S1                 0.0000
     24 ****         0.4452  -2.6300  -0.9398 H              1 S1                 0.0000
     25 ****        -0.8139  -3.6775  -0.2857 H              1 S1                 0.0000
     26 ****         0.5110  -3.1459   0.7518 H              1 S1                 0.0000
     27 ****        -4.5532  -2.3502  -0.7490 H              1 S1                 0.0000
     28 ****        -4.7364  -2.9864   0.8805 H              1 S1                 0.0000
     29 ****        -6.8011  -1.3183  -0.6721 H              1 S1                 0.0000
     30 ****        -6.9271  -3.0182  -0.2627 H              1 S1                 0.0000
     31 ****        -6.9486   0.3168   1.0999 H              1 S1                 0.0000
     32 ****        -7.1685  -0.2426   2.7462 H              1 S1                 0.0000
     33 ****        -4.8854  -1.1899   2.8115 H              1 S1                 0.0000
     34 ****        -4.8149   0.4943   2.3386 H              1 S1                 0.0000
     35 ****        -3.1329   1.3786   1.3528 H              1 S1                 0.0000
     36 ****        -0.6966   1.6669   1.2980 H              1 S1                 0.0000
     37 ****         1.5970  -1.2027   0.6156 H              1 S1                 0.0000
     38 ****         3.4244  -0.5544   0.4227 H              1 S1                 0.0000
     39 ****         4.0253   2.3331   0.3305 H              1 S1                 0.0000
     40 ****         6.3477   1.5877   0.7092 H              1 S1                 0.0000
     41 ****         5.8543  -0.0980   0.5805 H              1 S1                 0.0000
     42 ****         5.2726   0.8948   1.9155 H              1 S1                 0.0000
     43 ****         4.8669   0.3310  -1.8296 H              1 S1                 0.0000
     44 ****         5.7031   3.2511  -1.4877 H              1 S1                 0.0000
     45 ****         6.6530   1.8841  -2.1850 H              1 S1                 0.0000
     46 ****         4.7266   3.4260  -3.7226 H              1 S1                 0.0000
     47 ****         5.1088   1.6954  -4.0797 H              1 S1                 0.0000
     48 ****         2.9678   1.2336  -2.9781 H              1 S1                 0.0000
     49 ****         3.0543   2.7849  -2.0602 H              1 S1                 0.0000
     50 ****        -2.6946  -2.6490   0.1732 LP             1 S1                 0.0000
     51 ****        -4.7270  -0.2365   0.0984 LP             1 S1                 0.0000
     52 ****        -6.8615  -2.4344   2.0001 LP             1 S1                 0.0000
     53 ****        -8.1057  -1.7094   1.2302 LP             1 S1                 0.0000
     54 ****         0.5023   2.1015   0.2309 LP             1 S1                 0.0000
     55 ****         2.1307   2.6528   0.0201 LP             1 S1                 0.0000
@<TRIPOS>BOND
    1    1    2 1     
    2    1   24 1     
    3    1   25 1     
    4    1   26 1     
    5    2   13 ar    
    6    2    3 ar    
    7    3    4 ar    
    8    4    5 1     
    9    4   11 ar    
   10    5   10 1     
   11    5    6 1     
   12    6    7 1     
   13    6   27 1     
   14    6   28 1     
   15    7    8 1     
   16    7   29 1     
   17    7   30 1     
   18    8    9 1     
   19    9   10 1     
   20    9   31 1     
   21    9   32 1     
   22   10   33 1     
   23   10   34 1     
   24   11   12 ar    
   25   11   35 1     
   26   12   13 ar    
   27   12   36 1     
   28   13   14 1     
   29   14   15 am    
   30   14   37 1     
   31   15   16 2     
   32   15   17 am    
   33   17   18 1     
   34   17   38 1     
   35   18   19 1     
   36   18   20 1     
   37   18   39 1     
   38   19   40 1     
   39   19   41 1     
   40   19   42 1     
   41   20   23 1     
   42   20   21 1     
   43   20   43 1     
   44   21   22 1     
   45   21   44 1     
   46   21   45 1     
   47   22   23 1     
   48   22   46 1     
   49   22   47 1     
   50   23   48 1     
   51   23   49 1     
   52    3   50 1     
   53    5   51 1     
   54    8   52 1     
   55    8   53 1     
   56   16   54 1     
   57   16   55 1     
@<TRIPOS>SUBSTRUCTURE
      1 S1             1
@<TRIPOS>SET
LONE_PAIRS      STATIC     ATOMS    <user>   **** ""
6 50 51 52 53 54 55
DONOR_HYDROGENS      STATIC     ATOMS    <user>   **** ""
2 37 38
ATOM$BLUE        STATIC     ATOMS    COLORGROUP SYSTEM
6 50 51 52 53 54 55
ATOM$RED        STATIC     ATOMS    COLORGROUP SYSTEM
2 37 38
