#       Name:                AV-unprocessed.smi:2587
#       Creating user name   scv26
#       Creation time:       Fri Mar 27 14:15:50 2020


#       File generated by GOLD software.
#

@<TRIPOS>MOLECULE
AV-unprocessed.smi:2587
    46    47     1
SMALL
NO_CHARGES


@<TRIPOS>ATOM
      1 ****        -1.0763   5.4876   0.9780 C.2            1 S1                 0.0000
      2 ****        -1.1997   4.1584   1.1075 C.2            1 S1                 0.0000
      3 ****        -0.1180   3.2489   1.6546 C.3            1 S1                 0.0000
      4 ****         0.2363   2.1720   0.7305 N.pl3          1 S1                 0.0000
      5 ****         1.4789   2.2921  -0.0275 C.3            1 S1                 0.0000
      6 ****         2.6919   1.7633   0.7527 C.3            1 S1                 0.0000
      7 ****         3.8577   1.9259  -0.0243 O.3            1 S1                 0.0000
      8 ****        -0.5029   0.9636   0.7259 C.ar           1 S1                 0.0000
      9 ****        -0.0679  -0.1891   0.0233 C.ar           1 S1                 0.0000
     10 ****        -0.8818  -1.3457   0.0822 C.ar           1 S1                 0.0000
     11 ****        -0.5087  -2.5276  -0.5937 N.3            1 S1                 0.0000
     12 ****        -1.2662  -3.7455  -0.3114 C.3            1 S1                 0.0000
     13 ****        -0.5472  -4.9719  -0.8983 C.3            1 S1                 0.0000
     14 ****        -0.3199  -4.7749  -2.2897 O.3            1 S1                 0.0000
     15 ****         0.5132  -3.6468  -2.5352 C.3            1 S1                 0.0000
     16 ****        -0.1656  -2.3719  -2.0053 C.3            1 S1                 0.0000
     17 ****        -2.0310  -1.3387   0.7986 N.ar           1 S1                 0.0000
     18 ****        -2.3572  -0.2090   1.4249 C.ar           1 S1                 0.0000
     19 ****        -1.6630   0.9285   1.4248 N.ar           1 S1                 0.0000
     20 ****        -0.1677   5.9976   1.2633 H              1 S1                 0.0000
     21 ****        -1.8857   6.0835   0.5830 H              1 S1                 0.0000
     22 ****        -2.1253   3.6845   0.8143 H              1 S1                 0.0000
     23 ****         0.7693   3.8441   1.8745 H              1 S1                 0.0000
     24 ****        -0.4448   2.8393   2.6108 H              1 S1                 0.0000
     25 ****         1.3886   1.8009  -0.9961 H              1 S1                 0.0000
     26 ****         1.6350   3.3470  -0.2571 H              1 S1                 0.0000
     27 ****         2.8136   2.3023   1.6926 H              1 S1                 0.0000
     28 ****         2.5739   0.7070   0.9956 H              1 S1                 0.0000
     29 ****         4.5953   1.5991   0.4677 H              1 S1                 0.0000
     30 ****         0.8615  -0.2070  -0.5228 H              1 S1                 0.0000
     31 ****        -1.3829  -3.8778   0.7651 H              1 S1                 0.0000
     32 ****        -2.2654  -3.6575  -0.7402 H              1 S1                 0.0000
     33 ****         0.3998  -5.1494  -0.3856 H              1 S1                 0.0000
     34 ****        -1.1559  -5.8655  -0.7602 H              1 S1                 0.0000
     35 ****         1.4876  -3.7917  -2.0657 H              1 S1                 0.0000
     36 ****         0.6872  -3.5610  -3.6078 H              1 S1                 0.0000
     37 ****        -1.0787  -2.1747  -2.5684 H              1 S1                 0.0000
     38 ****         0.4976  -1.5243  -2.1712 H              1 S1                 0.0000
     39 ****        -3.2772  -0.2155   1.9904 H              1 S1                 0.0000
     40 ****         3.9929   2.8950  -0.2305 LP             1 S1                 0.0000
     41 ****         3.7681   1.4128  -0.8780 LP             1 S1                 0.0000
     42 ****         0.3586  -2.7028  -0.1277 LP             1 S1                 0.0000
     43 ****        -1.1991  -4.6329  -2.7443 LP             1 S1                 0.0000
     44 ****         0.1212  -5.5905  -2.6642 LP             1 S1                 0.0000
     45 ****        -2.6124  -2.1503   0.8553 LP             1 S1                 0.0000
     46 ****        -1.9881   1.7311   1.9249 LP             1 S1                 0.0000
@<TRIPOS>BOND
    1    1    2 2     
    2    1   20 1     
    3    1   21 1     
    4    2    3 1     
    5    2   22 1     
    6    3    4 1     
    7    3   23 1     
    8    3   24 1     
    9    4    5 1     
   10    4    8 1     
   11    5    6 1     
   12    5   25 1     
   13    5   26 1     
   14    6    7 1     
   15    6   27 1     
   16    6   28 1     
   17    7   29 1     
   18    8   19 ar    
   19    8    9 ar    
   20    9   10 ar    
   21    9   30 1     
   22   10   11 1     
   23   10   17 ar    
   24   11   16 1     
   25   11   12 1     
   26   12   13 1     
   27   12   31 1     
   28   12   32 1     
   29   13   14 1     
   30   13   33 1     
   31   13   34 1     
   32   14   15 1     
   33   15   16 1     
   34   15   35 1     
   35   15   36 1     
   36   16   37 1     
   37   16   38 1     
   38   17   18 ar    
   39   18   19 ar    
   40   18   39 1     
   41    7   40 1     
   42    7   41 1     
   43   11   42 1     
   44   14   43 1     
   45   14   44 1     
   46   17   45 1     
   47   19   46 1     
@<TRIPOS>SUBSTRUCTURE
      1 S1             1
@<TRIPOS>SET
LONE_PAIRS      STATIC     ATOMS    <user>   **** ""
7 40 41 42 43 44 45 46
DONOR_HYDROGENS      STATIC     ATOMS    <user>   **** ""
1 29
ATOM$BLUE        STATIC     ATOMS    COLORGROUP SYSTEM
7 40 41 42 43 44 45 46
ATOM$RED        STATIC     ATOMS    COLORGROUP SYSTEM
1 29
