AV-unprocessed.smi:787|AV-procd|sdf|3729|dock8
  -GOLD-   22720 1163D 1   1.00000     0.00000
 Structure written by MMmdl.
 46 48  0  0  0  0  0  0  0  0  1 V2000
  150.9315  137.0942  154.5439 C   0  0  0  0  0  0  0  0  0  0  0  0
  149.9799  138.0126  153.9388 N   0  0  0  0  0  0  0  0  0  0  0  0
  149.8367  139.3155  154.4366 C   0  0  0  0  0  0  0  0  0  0  0  0
  150.8283  139.8725  155.1704 N   0  0  0  0  0  0  0  0  0  0  0  0
  150.6409  141.1148  155.6349 C   0  0  0  0  0  0  0  0  0  0  0  0
  149.5816  141.9247  155.4818 N   0  0  0  0  0  0  0  0  0  0  0  0
  148.5969  141.3843  154.7511 C   0  0  0  0  0  0  0  0  0  0  0  0
  147.3942  141.9910  154.4316 N   0  0  0  0  0  0  0  0  0  0  0  0
  146.7990  141.0468  153.7067 C   0  0  0  0  0  0  0  0  0  0  0  0
  147.4672  139.8913  153.5221 N   0  0  0  0  0  0  0  0  0  0  0  0
  147.0138  138.7299  152.7779 C   0  0  0  0  0  0  0  0  0  0  0  0
  145.9198  137.9510  153.5313 C   0  0  2  0  0  0  0  0  0  0  0  0
  146.3245  137.8408  154.8804 O   0  0  0  0  0  0  0  0  0  0  0  0
  145.7081  136.5265  152.9722 C   0  0  0  0  0  0  0  0  0  0  0  0
  144.8191  136.4235  151.8084 N   0  0  0  0  0  0  0  0  0  0  0  0
  143.5319  135.8729  152.2150 C   0  0  0  0  0  0  0  0  0  0  0  0
  145.3714  135.5883  150.7349 C   0  0  0  0  0  0  0  0  0  0  0  0
  145.1875  134.0906  150.8965 C   0  0  0  0  0  0  0  0  0  0  0  0
  146.1610  133.3231  151.5710 C   0  0  0  0  0  0  0  0  0  0  0  0
  145.9955  131.9307  151.7050 C   0  0  0  0  0  0  0  0  0  0  0  0
  144.8643  131.2994  151.1529 C   0  0  0  0  0  0  0  0  0  0  0  0
  143.8973  132.0612  150.4694 C   0  0  0  0  0  0  0  0  0  0  0  0
  144.0548  133.4549  150.3463 C   0  0  0  0  0  0  0  0  0  0  0  0
  148.6720  140.0714  154.1969 C   0  0  0  0  0  0  0  0  0  0  0  0
  150.8928  136.1311  154.0352 H   0  0  0  0  0  0  0  0  0  0  0  0
  150.6981  136.9334  155.5967 H   0  0  0  0  0  0  0  0  0  0  0  0
  151.9481  137.4807  154.4648 H   0  0  0  0  0  0  0  0  0  0  0  0
  149.3088  137.6533  153.2749 H   0  0  0  0  0  0  0  0  0  0  0  0
  151.4540  141.5196  156.2188 H   0  0  0  0  0  0  0  0  0  0  0  0
  145.8148  141.2021  153.2890 H   0  0  0  0  0  0  0  0  0  0  0  0
  146.6548  139.0519  151.7993 H   0  0  0  0  0  0  0  0  0  0  0  0
  147.8794  138.0935  152.5906 H   0  0  0  0  0  0  0  0  0  0  0  0
  145.0036  138.5355  153.5125 H   0  0  0  0  0  0  0  0  0  0  0  0
  146.1268  136.9682  155.1841 H   0  0  0  0  0  0  0  0  0  0  0  0
  146.6687  136.0772  152.7198 H   0  0  0  0  0  0  0  0  0  0  0  0
  145.3231  135.9156  153.7906 H   0  0  0  0  0  0  0  0  0  0  0  0
  142.8461  135.8213  151.3687 H   0  0  0  0  0  0  0  0  0  0  0  0
  143.0634  136.5005  152.9738 H   0  0  0  0  0  0  0  0  0  0  0  0
  143.6438  134.8683  152.6254 H   0  0  0  0  0  0  0  0  0  0  0  0
  144.9631  135.9014  149.7726 H   0  0  0  0  0  0  0  0  0  0  0  0
  146.4474  135.7542  150.6679 H   0  0  0  0  0  0  0  0  0  0  0  0
  147.0328  133.8028  151.9914 H   0  0  0  0  0  0  0  0  0  0  0  0
  146.7383  131.3467  152.2282 H   0  0  0  0  0  0  0  0  0  0  0  0
  144.7374  130.2317  151.2547 H   0  0  0  0  0  0  0  0  0  0  0  0
  143.0292  131.5773  150.0467 H   0  0  0  0  0  0  0  0  0  0  0  0
  143.3044  134.0320  149.8259 H   0  0  0  0  0  0  0  0  0  0  0  0
  1  2  1  0  0  0  0
  1 25  1  0  0  0  0
  1 26  1  0  0  0  0
  1 27  1  0  0  0  0
  2  3  1  0  0  0  0
  2 28  1  0  0  0  0
  3 24  1  0  0  0  0
  3  4  2  0  0  0  0
  4  5  1  0  0  0  0
  5  6  2  0  0  0  0
  5 29  1  0  0  0  0
  6  7  1  0  0  0  0
  7 24  2  0  0  0  0
  7  8  1  0  0  0  0
  8  9  2  0  0  0  0
  9 10  1  0  0  0  0
  9 30  1  0  0  0  0
 10 11  1  0  0  0  0
 10 24  1  0  0  0  0
 11 12  1  0  0  0  0
 11 31  1  0  0  0  0
 11 32  1  0  0  0  0
 12 13  1  0  0  0  0
 12 14  1  0  0  0  0
 12 33  1  0  0  0  0
 13 34  1  0  0  0  0
 14 15  1  0  0  0  0
 14 35  1  0  0  0  0
 14 36  1  0  0  0  0
 15 16  1  0  0  0  0
 15 17  1  0  0  0  0
 16 37  1  0  0  0  0
 16 38  1  0  0  0  0
 16 39  1  0  0  0  0
 17 18  1  0  0  0  0
 17 40  1  0  0  0  0
 17 41  1  0  0  0  0
 18 23  1  0  0  0  0
 18 19  2  0  0  0  0
 19 20  1  0  0  0  0
 19 42  1  0  0  0  0
 20 21  2  0  0  0  0
 20 43  1  0  0  0  0
 21 22  1  0  0  0  0
 21 44  1  0  0  0  0
 22 23  2  0  0  0  0
 22 45  1  0  0  0  0
 23 46  1  0  0  0  0
M  END
> <s_m_source_file>
AV-unprocessed.smi

> <i_m_source_file_index>
787

> <i_lp_mmshare_version>
43012

> <i_f3d_flags>
0

> <s_epik_input>
bjFbY0hdbmMoW05IXVtDSDNdKWMoYzEyKW4oW2NIXW4yKVtDSDJdW0NASF0oW09IXSlbQ0gyXU4oW0NIM10pW0NIMl1jM1tjSF1bY0hdW2NIXVtjSF1bY0hdMw==

> <s_epik_cmdline>
J2VwaWtfcHl0aG9uJywgJy1waCcsICc3LjAnLCAnLXRuJywgJzgnLCAnLW1hJywgJzIwMCcsICctbWV0YWxfYmluZGluZycsICctaW1hZScsICc8aW5maWxlLm1hZT4nLCAnLW9tYWUnLCAnPG91dGZpbGUubWFlPic=

> <r_lp_tautomer_probability>
0.999987

> <r_epik_Ionization_Penalty>
1.52367

> <r_epik_Ionization_Penalty_Charging>
0

> <r_epik_Ionization_Penalty_Neutral>
1.52367

> <r_epik_State_Penalty>
1.60995

> <r_epik_Charging_Adjusted_Penalty>
1.60995

> <i_epik_Tot_Q>
0

> <i_epik_Tot_abs_Q>
0

> <r_epik_Metal_State_Penalty>
1.60969

> <b_epik_Metal_Only>
0

> <s_lp_Force_Field>
OPLS_2005

> <r_lp_Energy>
20.724

> <b_lp_Chiralities_Consistent>
1

> <s_lp_Variant>
AV-unprocessed.smi:787-5

> <Gold.Version>
5.8.1

> <Gold.Id.Protein>
6NUR|6NUR_protein|mol2

> <Gold.PLP.Fitness>
45.8835

> <Gold.PLP.PLP>
-43.0686

> <Gold.PLP.part.hbond>
-2.0000

> <Gold.PLP.part.metal>
0.0000

> <Gold.PLP.part.buried>
-6.2245

> <Gold.PLP.part.nonpolar>
-37.6789

> <Gold.PLP.part.repulsive>
2.2112

> <Gold.PLP.ligand.clash>
0.0000

> <Gold.PLP.ligand.torsion>
1.8485

> <Gold.PLP.Chemscore.Hbond>
1.0585

> <Gold.PLP.Chemscore.CHOScore>
1.0000

> <Gold.PLP.Chemscore.Metal>
0.0000

> <Gold.Chemscore.Hbonds>
donor molecule, donor type, donor heavy atom, donor atom, acceptor molecule, acceptor atom, score
      L1  H     2    28       P1  7948  0.88
      P1  H  7989  7998       L1     4  0.11
      L1  C     9    30       P1 10175  1.00

> <Gold.PLP.Chemscore.Internal.Correction>
0.3364

> <Gold.Rescore>
     Score         DG    S(hbond)    S(metal)    S(lipo)     H(rot)  DE(clash)    DE(int)     intcor
      8.66     -10.66       0.84        0.00      88.30       3.11       0.11       1.89       ----

> <Gold.Chemscore.Fitness>
8.6595

> <Gold.Chemscore.DG>
-10.6570

> <Gold.Chemscore.ZeroCoef>
-5.4800

> <Gold.Chemscore.Hbond>
0.8386

> <Gold.Chemscore.Metal>
0.0000

> <Gold.Chemscore.Lipo>
88.3018

> <Gold.Chemscore.Internal_Hbond>
0.0000

> <Gold.Chemscore.DEClash>
0.1106

> <Gold.Chemscore.DEInternal>
1.8870

> <Gold.Chemscore.Rot>
3.1075

> <Gold.Chemscore.Internal.Correction>
   9.000000E+99

> <Gold.Chemscore.Hbonds>
donor molecule, donor type, donor heavy atom, donor atom, acceptor molecule, acceptor atom, score
      L1  H     2    28       P1  7948  0.81

> <Gold.Chemscore.Hbond.Weighted>
-2.8008

> <Gold.Chemscore.Metal.Weighted>
-0.0000

> <Gold.Chemscore.Lipo.Weighted>
-10.3313

> <Gold.Chemscore.Internal_Hbond.Weighted>
0.0000

> <Gold.Chemscore.DEClash.Weighted>
0.1106

> <Gold.Chemscore.DEInternal.Weighted>
1.8870

> <Gold.Chemscore.Rot.Weighted>
7.9551

> <Gold.Chemscore.Internal.Correction.Weighted>
   9.000000E+99

> <Gold.Protein.RotatedTorsions>
[ 6907 6896 6895 6894 ] final   58.64 input  -60.11 | X-H torsion
[ 7974 7965 7964 7962 ] final   19.88 input  175.53 | X-H torsion
[ 8008 7997 7996 7995 ] final   72.80 input   59.86 | X-H torsion
[ 10167 10162 10161 10158 ] final   92.57 input  -65.29 | X-H torsion
[ 10718 10713 10712 10709 ] final  132.41 input   66.30 | X-H torsion
[ 10763 10752 10751 10750 ] final  154.97 input  -60.55 | X-H torsion
[ 11005 11000 10999 10996 ] final  -20.77 input  -57.11 | X-H torsion

> <Gold.Protein.ActiveResidues>
 VAL166  LYS551  ARG553  GLY616  TRP617  ASP618  TYR619  PRO620  LYS621  CYS622 
 ASP623  PHE694  ASN695  SER759  ASP760  ASP761  ALA762  ILE779  LEU786  VAL792 
 PHE793  MET794  SER795  GLU796  ALA797  LYS798  CYS799  TRP800  GLU811  SER814 

> <Gold.Protein.RotatedAtoms>
  152.3843  134.6542  160.0131 H   0  0  0  0  0  0  0  0  0  0  0  0  # atno 6907 bound_to 6896
  151.6796  133.3306  159.3224 H   0  0  0  0  0  0  0  0  0  0  0  0  # atno 6908 bound_to 6896
  150.7773  134.6729  159.6446 H   0  0  0  0  0  0  0  0  0  0  0  0  # atno 6909 bound_to 6896
  146.2133  139.8249  142.8672 H   0  0  0  0  0  0  0  0  0  0  0  0  # atno 7974 bound_to 7965
  155.7743  140.3483  155.5263 H   0  0  0  0  0  0  0  0  0  0  0  0  # atno 8008 bound_to 7997
  155.8791  140.0999  157.1518 H   0  0  0  0  0  0  0  0  0  0  0  0  # atno 8009 bound_to 7997
  154.4023  140.1326  156.4162 H   0  0  0  0  0  0  0  0  0  0  0  0  # atno 8010 bound_to 7997
  139.8264  144.6708  150.9455 H   0  0  0  0  0  0  0  0  0  0  0  0  # atno 10167 bound_to 10162
  157.4874  131.1089  150.9602 H   0  0  0  0  0  0  0  0  0  0  0  0  # atno 10718 bound_to 10713
  154.1609  135.2810  155.3109 H   0  0  0  0  0  0  0  0  0  0  0  0  # atno 10763 bound_to 10752
  154.6147  135.5487  153.7514 H   0  0  0  0  0  0  0  0  0  0  0  0  # atno 10764 bound_to 10752
  153.0192  135.6424  154.1751 H   0  0  0  0  0  0  0  0  0  0  0  0  # atno 10765 bound_to 10752
  140.8496  133.7866  155.9952 H   0  0  0  0  0  0  0  0  0  0  0  0  # atno 11005 bound_to 11000
  145.3057  141.0206  143.3583 LP  0  0  0  0  0  0  0  0  0  0  0  0  # atno 17320 bound_to 7965
  144.8973  139.4696  143.6649 LP  0  0  0  0  0  0  0  0  0  0  0  0  # atno 17321 bound_to 7965
  140.7810  143.4043  151.1097 LP  0  0  0  0  0  0  0  0  0  0  0  0  # atno 17342 bound_to 10162
  139.7700  143.8509  152.3118 LP  0  0  0  0  0  0  0  0  0  0  0  0  # atno 17343 bound_to 10162
  157.0315  130.5713  149.5344 LP  0  0  0  0  0  0  0  0  0  0  0  0  # atno 17370 bound_to 10713
  156.0154  130.5248  150.8119 LP  0  0  0  0  0  0  0  0  0  0  0  0  # atno 17371 bound_to 10713
  140.8804  134.2618  157.5147 LP  0  0  0  0  0  0  0  0  0  0  0  0  # atno 17394 bound_to 11000
  139.8704  134.9612  156.4389 LP  0  0  0  0  0  0  0  0  0  0  0  0  # atno 17395 bound_to 11000

$$$$
