AV-unprocessed.smi:1946|AV-procd|sdf|7864|dock9
  -GOLD-   2272010 13D 1   1.00000     0.00000
 Structure written by MMmdl.
 39 41  0  0  0  0  0  0  0  0  2 V2000
  143.6751  144.2433  155.2382 C   0  0  0  0  0  0  0  0  0  0  0  0
  143.8986  142.7725  156.3189 S   0  0  0  0  0  0  0  0  0  0  0  0
  143.9039  143.2297  157.7172 O   0  0  0  0  0  0  0  0  0  0  0  0
  142.9374  141.7436  155.8927 O   0  0  0  0  0  0  0  0  0  0  0  0
  145.5437  142.1984  155.9145 C   0  0  0  0  0  0  0  0  0  0  0  0
  145.9794  142.2175  154.5749 C   0  0  0  0  0  0  0  0  0  0  0  0
  147.2856  141.7951  154.2616 C   0  0  0  0  0  0  0  0  0  0  0  0
  148.1599  141.3625  155.2837 C   0  0  0  0  0  0  0  0  0  0  0  0
  149.5768  140.9162  154.9514 C   0  0  1  0  0  0  0  0  0  0  0  0
  149.7864  140.8111  153.5590 O   0  0  0  0  0  0  0  0  0  0  0  0
  150.6443  141.8697  155.5252 C   0  0  0  0  0  0  0  0  0  0  0  0
  151.1497  141.4328  156.8328 N   0  0  0  0  0  0  0  0  0  0  0  0
  151.2975  140.1775  157.3368 C   0  0  0  0  0  0  0  0  0  0  0  0
  151.8165  140.2968  158.5903 N   0  3  0  0  0  0  0  0  0  0  0  0
  151.9993  141.6481  158.8927 C   0  0  0  0  0  0  0  0  0  0  0  0
  152.4947  142.2680  160.0357 C   0  0  0  0  0  0  0  0  0  0  0  0
  152.5488  143.6775  160.0183 C   0  0  0  0  0  0  0  0  0  0  0  0
  152.1199  144.4158  158.8960 C   0  0  0  0  0  0  0  0  0  0  0  0
  151.6189  143.7770  157.7424 C   0  0  0  0  0  0  0  0  0  0  0  0
  151.5703  142.3838  157.7678 C   0  0  0  0  0  0  0  0  0  0  0  0
  147.7184  141.3642  156.6251 C   0  0  0  0  0  0  0  0  0  0  0  0
  146.4128  141.7855  156.9436 C   0  0  0  0  0  0  0  0  0  0  0  0
  142.6879  144.6717  155.4102 H   0  0  0  0  0  0  0  0  0  0  0  0
  143.7638  143.9449  154.1937 H   0  0  0  0  0  0  0  0  0  0  0  0
  144.4380  144.9859  155.4707 H   0  0  0  0  0  0  0  0  0  0  0  0
  145.3200  142.5528  153.7881 H   0  0  0  0  0  0  0  0  0  0  0  0
  147.6168  141.8086  153.2335 H   0  0  0  0  0  0  0  0  0  0  0  0
  149.7321  139.9176  155.3610 H   0  0  0  0  0  0  0  0  0  0  0  0
  149.1052  140.2674  153.1932 H   0  0  0  0  0  0  0  0  0  0  0  0
  151.4934  141.9612  154.8462 H   0  0  0  0  0  0  0  0  0  0  0  0
  150.2369  142.8744  155.6482 H   0  0  0  0  0  0  0  0  0  0  0  0
  151.0529  139.2543  156.8310 H   0  0  0  0  0  0  0  0  0  0  0  0
  152.8225  141.7057  160.8980 H   0  0  0  0  0  0  0  0  0  0  0  0
  152.9259  144.2031  160.8835 H   0  0  0  0  0  0  0  0  0  0  0  0
  152.1754  145.4945  158.9205 H   0  0  0  0  0  0  0  0  0  0  0  0
  151.2917  144.3515  156.8883 H   0  0  0  0  0  0  0  0  0  0  0  0
  148.3815  141.0464  157.4165 H   0  0  0  0  0  0  0  0  0  0  0  0
  146.0855  141.7897  157.9727 H   0  0  0  0  0  0  0  0  0  0  0  0
  152.0275  139.5118  159.1932 H   0  0  0  0  0  0  0  0  0  0  0  0
  1  2  1  0  0  0  0
  1 23  1  0  0  0  0
  1 24  1  0  0  0  0
  1 25  1  0  0  0  0
  2  3  2  0  0  0  0
  2  4  2  0  0  0  0
  2  5  1  0  0  0  0
  5 22  1  0  0  0  0
  5  6  2  0  0  0  0
  6  7  1  0  0  0  0
  6 26  1  0  0  0  0
  7  8  2  0  0  0  0
  7 27  1  0  0  0  0
  8  9  1  0  0  0  0
  8 21  1  0  0  0  0
  9 10  1  0  0  0  0
  9 11  1  0  0  0  0
  9 28  1  0  0  0  0
 10 29  1  0  0  0  0
 11 12  1  0  0  0  0
 11 30  1  0  0  0  0
 11 31  1  0  0  0  0
 12 20  1  0  0  0  0
 12 13  1  0  0  0  0
 13 14  2  0  0  0  0
 13 32  1  0  0  0  0
 14 15  1  0  0  0  0
 14 39  1  0  0  0  0
 15 20  2  0  0  0  0
 15 16  1  0  0  0  0
 16 17  2  0  0  0  0
 16 33  1  0  0  0  0
 17 18  1  0  0  0  0
 17 34  1  0  0  0  0
 18 19  2  0  0  0  0
 18 35  1  0  0  0  0
 19 20  1  0  0  0  0
 19 36  1  0  0  0  0
 21 22  2  0  0  0  0
 21 37  1  0  0  0  0
 22 38  1  0  0  0  0
M  CHG  1  14   1
M  END
> <s_m_source_file>
AV-unprocessed.smi

> <i_m_source_file_index>
1946

> <i_lp_mmshare_version>
43012

> <i_f3d_flags>
0

> <s_epik_input>
W0NIM11TKD1PKSg9TyljMVtjSF1bY0hdYyhbY0hdW2NIXTEpW0NASF0oW09IXSlbQ0gyXW4oW2NIXW4yKWMoYzIzKVtjSF1bY0hdW2NIXVtjSF0z

> <s_epik_cmdline>
J2VwaWtfcHl0aG9uJywgJy1waCcsICc3LjAnLCAnLXRuJywgJzgnLCAnLW1hJywgJzIwMCcsICctbWV0YWxfYmluZGluZycsICctaW1hZScsICc8aW5maWxlLm1hZT4nLCAnLW9tYWUnLCAnPG91dGZpbGUubWFlPic=

> <r_epik_Ionization_Penalty>
1.3029

> <r_epik_Ionization_Penalty_Charging>
1.3029

> <r_epik_Ionization_Penalty_Neutral>
1.34362e-06

> <r_epik_State_Penalty>
1.377

> <r_epik_Charging_Adjusted_Penalty>
2.6799

> <i_epik_Tot_Q>
1

> <i_epik_Tot_abs_Q>
1

> <r_epik_Metal_State_Penalty>
5.40879

> <b_epik_Metal_Only>
0

> <s_lp_Force_Field>
OPLS_2005

> <r_lp_Energy>
16.9066

> <b_lp_Chiralities_Consistent>
1

> <s_lp_Variant>
AV-unprocessed.smi:1946-4

> <Gold.Version>
5.8.1

> <Gold.Id.Protein>
6NUR|6NUR_protein|mol2

> <Gold.PLP.Fitness>
48.8029

> <Gold.PLP.PLP>
-46.6206

> <Gold.PLP.part.hbond>
-2.7757

> <Gold.PLP.part.metal>
0.0000

> <Gold.PLP.part.buried>
-3.7386

> <Gold.PLP.part.nonpolar>
-39.7725

> <Gold.PLP.part.repulsive>
0.3666

> <Gold.PLP.ligand.clash>
0.0000

> <Gold.PLP.ligand.torsion>
2.1163

> <Gold.PLP.Chemscore.Hbond>
1.4558

> <Gold.PLP.Chemscore.CHOScore>
0.0000

> <Gold.PLP.Chemscore.Metal>
0.0000

> <Gold.Chemscore.Hbonds>
donor molecule, donor type, donor heavy atom, donor atom, acceptor molecule, acceptor atom, score
      L1  H    10    29       P1  7957  0.08
      P1  H  7989  7998       L1    10  0.37
      P1  H  8011  8017       L1    10  1.00

> <Gold.PLP.Chemscore.Internal.Correction>
2.0476

> <Gold.Rescore>
     Score         DG    S(hbond)    S(metal)    S(lipo)     H(rot)  DE(clash)    DE(int)     intcor
     14.43     -16.86       0.84        0.00     118.02       2.04       0.15       2.29       ----

> <Gold.Chemscore.Fitness>
14.4264

> <Gold.Chemscore.DG>
-16.8647

> <Gold.Chemscore.ZeroCoef>
-5.4800

> <Gold.Chemscore.Hbond>
0.8365

> <Gold.Chemscore.Metal>
0.0000

> <Gold.Chemscore.Lipo>
118.0209

> <Gold.Chemscore.Internal_Hbond>
0.0000

> <Gold.Chemscore.DEClash>
0.1483

> <Gold.Chemscore.DEInternal>
2.2900

> <Gold.Chemscore.Rot>
2.0382

> <Gold.Chemscore.Internal.Correction>
   9.000000E+99

> <Gold.Chemscore.Hbonds>
donor molecule, donor type, donor heavy atom, donor atom, acceptor molecule, acceptor atom, score
      L1  H    10    29       P1  7957  0.10
      P1  H  7989  7998       L1    10  0.12
      P1  H  8011  8017       L1    10  0.36

> <Gold.Chemscore.Hbond.Weighted>
-2.7939

> <Gold.Chemscore.Metal.Weighted>
-0.0000

> <Gold.Chemscore.Lipo.Weighted>
-13.8084

> <Gold.Chemscore.Internal_Hbond.Weighted>
0.0000

> <Gold.Chemscore.DEClash.Weighted>
0.1483

> <Gold.Chemscore.DEInternal.Weighted>
2.2900

> <Gold.Chemscore.Rot.Weighted>
5.2177

> <Gold.Chemscore.Internal.Correction.Weighted>
   9.000000E+99

> <Gold.Protein.RotatedTorsions>
[ 6907 6896 6895 6894 ] final  164.67 input  -60.11 | X-H torsion
[ 7974 7965 7964 7962 ] final  -29.79 input  175.53 | X-H torsion
[ 8008 7997 7996 7995 ] final    5.92 input   59.86 | X-H torsion
[ 10167 10162 10161 10158 ] final   35.67 input  -65.29 | X-H torsion
[ 10718 10713 10712 10709 ] final -148.07 input   66.30 | X-H torsion
[ 10763 10752 10751 10750 ] final -119.22 input  -60.55 | X-H torsion
[ 11005 11000 10999 10996 ] final    6.58 input  -57.11 | X-H torsion

> <Gold.Protein.ActiveResidues>
 VAL166  LYS551  ARG553  GLY616  TRP617  ASP618  TYR619  PRO620  LYS621  CYS622 
 ASP623  PHE694  ASN695  SER759  ASP760  ASP761  ALA762  ILE779  LEU786  VAL792 
 PHE793  MET794  SER795  GLU796  ALA797  LYS798  CYS799  TRP800  GLU811  SER814 

> <Gold.Protein.RotatedAtoms>
  151.9063  133.3550  159.3847 H   0  0  0  0  0  0  0  0  0  0  0  0  # atno 6907 bound_to 6896
  150.7068  134.4777  159.5465 H   0  0  0  0  0  0  0  0  0  0  0  0  # atno 6908 bound_to 6896
  152.2375  134.8261  160.0516 H   0  0  0  0  0  0  0  0  0  0  0  0  # atno 6909 bound_to 6896
  146.1191  140.5457  142.8743 H   0  0  0  0  0  0  0  0  0  0  0  0  # atno 7974 bound_to 7965
  154.7345  140.2737  155.6427 H   0  0  0  0  0  0  0  0  0  0  0  0  # atno 8008 bound_to 7997
  156.2858  140.2709  156.1980 H   0  0  0  0  0  0  0  0  0  0  0  0  # atno 8009 bound_to 7997
  155.0339  140.0371  157.2474 H   0  0  0  0  0  0  0  0  0  0  0  0  # atno 8010 bound_to 7997
  140.4200  144.1473  150.6147 H   0  0  0  0  0  0  0  0  0  0  0  0  # atno 10167 bound_to 10162
  156.4155  130.8003  151.2223 H   0  0  0  0  0  0  0  0  0  0  0  0  # atno 10718 bound_to 10713
  154.8611  135.4246  154.2264 H   0  0  0  0  0  0  0  0  0  0  0  0  # atno 10763 bound_to 10752
  153.3258  135.6985  153.6996 H   0  0  0  0  0  0  0  0  0  0  0  0  # atno 10764 bound_to 10752
  153.6033  135.3533  155.2926 H   0  0  0  0  0  0  0  0  0  0  0  0  # atno 10765 bound_to 10752
  140.5579  134.0221  155.7960 H   0  0  0  0  0  0  0  0  0  0  0  0  # atno 11005 bound_to 11000
  144.7580  140.5354  143.6755 LP  0  0  0  0  0  0  0  0  0  0  0  0  # atno 17320 bound_to 7965
  145.5504  139.1476  143.3397 LP  0  0  0  0  0  0  0  0  0  0  0  0  # atno 17321 bound_to 7965
  140.4544  143.2474  151.9304 LP  0  0  0  0  0  0  0  0  0  0  0  0  # atno 17342 bound_to 10162
  139.4782  144.5530  151.8356 LP  0  0  0  0  0  0  0  0  0  0  0  0  # atno 17343 bound_to 10162
  157.7508  131.0244  150.3876 LP  0  0  0  0  0  0  0  0  0  0  0  0  # atno 17370 bound_to 10713
  156.4182  130.3947  149.6843 LP  0  0  0  0  0  0  0  0  0  0  0  0  # atno 17371 bound_to 10713
  141.1132  133.9582  157.2871 LP  0  0  0  0  0  0  0  0  0  0  0  0  # atno 17394 bound_to 11000
  139.9422  135.0189  156.8744 LP  0  0  0  0  0  0  0  0  0  0  0  0  # atno 17395 bound_to 11000

$$$$
