#       Name:                AV-unprocessed.smi:1588
#       Creating user name   scv26
#       Creation time:       Fri Mar 27 07:02:41 2020


#       File generated by GOLD software.
#

@<TRIPOS>MOLECULE
AV-unprocessed.smi:1588
    40    41     1
SMALL
NO_CHARGES


@<TRIPOS>ATOM
      1 ****        -2.6206  -2.7382  -0.8919 C.3            1 S1                 0.0000
      2 ****        -3.1165  -1.8105   0.2257 C.3            1 S1                 0.0000
      3 ****        -2.0611  -1.5356   1.2285 N.4            1 S1                 1.0000
      4 ****        -2.5636  -0.9473   2.4887 C.3            1 S1                 0.0000
      5 ****        -1.4099  -0.1085   3.0312 C.3            1 S1                 0.0000
      6 ****        -0.7929   0.4657   1.7592 C.3            1 S1                 0.0000
      7 ****         0.6425   0.9943   1.9445 C.3            1 S1                 0.0000
      8 ****         1.1431   1.6550   0.7425 N.am           1 S1                 0.0000
      9 ****         1.8655   1.0721  -0.2250 C.2            1 S1                 0.0000
     10 ****         2.1868  -0.1163  -0.2129 O.2            1 S1                 0.0000
     11 ****         2.1788   1.9468  -1.1946 N.am           1 S1                 0.0000
     12 ****         2.9171   1.6919  -2.3780 C.2            1 S1                 0.0000
     13 ****         3.2182   2.6653  -3.3692 C.2            1 S1                 0.0000
     14 ****         3.9208   2.1415  -4.3635 N.2            1 S1                 0.0000
     15 ****         4.0713   0.8433  -4.0164 N.pl3          1 S1                 0.0000
     16 ****         3.4769   0.5242  -2.8155 C.2            1 S1                 0.0000
     17 ****        -0.9430  -0.6857   0.7511 C.3            1 S1                 0.0000
     18 ****         4.5771   0.1946  -4.6030 H              1 S1                 0.0000
     19 ****        -3.4247  -2.9596  -1.5940 H              1 S1                 0.0000
     20 ****        -2.2651  -3.6861  -0.4872 H              1 S1                 0.0000
     21 ****        -1.8052  -2.2889  -1.4589 H              1 S1                 0.0000
     22 ****        -3.4896  -0.8731  -0.1899 H              1 S1                 0.0000
     23 ****        -3.9592  -2.2895   0.7263 H              1 S1                 0.0000
     24 ****        -3.4163  -0.2983   2.2809 H              1 S1                 0.0000
     25 ****        -2.8898  -1.7166   3.1890 H              1 S1                 0.0000
     26 ****        -1.7399   0.6625   3.7283 H              1 S1                 0.0000
     27 ****        -0.6932  -0.7488   3.5480 H              1 S1                 0.0000
     28 ****        -1.4298   1.2887   1.4294 H              1 S1                 0.0000
     29 ****         0.6568   1.7287   2.7502 H              1 S1                 0.0000
     30 ****         1.3135   0.1910   2.2544 H              1 S1                 0.0000
     31 ****         0.9320   2.6377   0.6461 H              1 S1                 0.0000
     32 ****         1.8545   2.8955  -1.0760 H              1 S1                 0.0000
     33 ****         2.9556   3.7127  -3.3997 H              1 S1                 0.0000
     34 ****         3.5096  -0.4728  -2.4014 H              1 S1                 0.0000
     35 ****        -0.0482  -1.3080   0.7318 H              1 S1                 0.0000
     36 ****        -1.0996  -0.3027  -0.2583 H              1 S1                 0.0000
     37 ****        -1.6514  -2.4246   1.4785 H              1 S1                 0.0000
     38 ****         1.9072  -0.7021   0.5478 LP             1 S1                 0.0000
     39 ****         2.7273  -0.4958  -0.9638 LP             1 S1                 0.0000
     40 ****         4.2618   2.6014  -5.1833 LP             1 S1                 0.0000
@<TRIPOS>BOND
    1    1    2 1     
    2    1   19 1     
    3    1   20 1     
    4    1   21 1     
    5    2    3 1     
    6    2   22 1     
    7    2   23 1     
    8    3   17 1     
    9    3    4 1     
   10    3   37 1     
   11    4    5 1     
   12    4   24 1     
   13    4   25 1     
   14    5    6 1     
   15    5   26 1     
   16    5   27 1     
   17    6    7 1     
   18    6   17 1     
   19    6   28 1     
   20    7    8 1     
   21    7   29 1     
   22    7   30 1     
   23    8    9 am    
   24    8   31 1     
   25    9   10 2     
   26    9   11 am    
   27   11   12 1     
   28   11   32 1     
   29   12   16 2     
   30   12   13 1     
   31   13   14 2     
   32   13   33 1     
   33   14   15 1     
   34   15   18 1     
   35   15   16 1     
   36   16   34 1     
   37   17   35 1     
   38   17   36 1     
   39   10   38 1     
   40   10   39 1     
   41   14   40 1     
@<TRIPOS>SUBSTRUCTURE
      1 S1             1
@<TRIPOS>SET
LONE_PAIRS      STATIC     ATOMS    <user>   **** ""
3 38 39 40
DONOR_HYDROGENS      STATIC     ATOMS    <user>   **** ""
4 37 31 32 18
ATOM$BLUE        STATIC     ATOMS    COLORGROUP SYSTEM
3 38 39 40
ATOM$RED        STATIC     ATOMS    COLORGROUP SYSTEM
4 37 31 32 18
