AV-unprocessed.smi:739|AV-procd|sdf|3545|dock2
  -GOLD-   22720 0533D 1   1.00000     0.00000
 Structure written by MMmdl.
 33 35  0  0  0  0  0  0  0  0  2 V2000
  148.1164  143.0776  154.0453 O   0  0  0  0  0  0  0  0  0  0  0  0
  146.8904  142.3721  154.0181 C   0  0  1  0  0  0  0  0  0  0  0  0
  146.9762  141.1472  154.9500 C   0  0  0  0  0  0  0  0  0  0  0  0
  147.7637  140.0483  154.3765 N   0  0  0  0  0  0  0  0  0  0  0  0
  147.4278  139.1350  153.4254 C   0  0  0  0  0  0  0  0  0  0  0  0
  148.5044  138.3210  153.2403 N   0  3  0  0  0  0  0  0  0  0  0  0
  149.5422  138.7204  154.0859 C   0  0  0  0  0  0  0  0  0  0  0  0
  150.8243  138.2099  154.2623 C   0  0  0  0  0  0  0  0  0  0  0  0
  151.6398  138.8560  155.2150 C   0  0  0  0  0  0  0  0  0  0  0  0
  152.8976  138.4009  155.4251 F   0  0  0  0  0  0  0  0  0  0  0  0
  151.1713  139.9651  155.9514 C   0  0  0  0  0  0  0  0  0  0  0  0
  151.9870  140.5559  156.8564 F   0  0  0  0  0  0  0  0  0  0  0  0
  149.8688  140.4732  155.7644 C   0  0  0  0  0  0  0  0  0  0  0  0
  149.0716  139.8294  154.8195 C   0  0  0  0  0  0  0  0  0  0  0  0
  145.7073  143.2565  154.3784 C   0  0  0  0  0  0  0  0  0  0  0  0
  145.3143  144.2956  153.5077 C   0  0  0  0  0  0  0  0  0  0  0  0
  144.2140  145.1139  153.8294 C   0  0  0  0  0  0  0  0  0  0  0  0
  143.4982  144.8960  155.0222 C   0  0  0  0  0  0  0  0  0  0  0  0
  142.4404  145.6828  155.3306 F   0  0  0  0  0  0  0  0  0  0  0  0
  143.8825  143.8582  155.8930 C   0  0  0  0  0  0  0  0  0  0  0  0
  144.9834  143.0403  155.5722 C   0  0  0  0  0  0  0  0  0  0  0  0
  148.7852  142.5017  154.3839 H   0  0  0  0  0  0  0  0  0  0  0  0
  146.7559  142.0270  152.9922 H   0  0  0  0  0  0  0  0  0  0  0  0
  147.4398  141.4213  155.8988 H   0  0  0  0  0  0  0  0  0  0  0  0
  145.9817  140.7689  155.1905 H   0  0  0  0  0  0  0  0  0  0  0  0
  146.4783  139.0666  152.9137 H   0  0  0  0  0  0  0  0  0  0  0  0
  151.1864  137.3610  153.7011 H   0  0  0  0  0  0  0  0  0  0  0  0
  149.5195  141.3218  156.3335 H   0  0  0  0  0  0  0  0  0  0  0  0
  145.8546  144.4696  152.5884 H   0  0  0  0  0  0  0  0  0  0  0  0
  143.9182  145.9084  153.1601 H   0  0  0  0  0  0  0  0  0  0  0  0
  143.3323  143.6887  156.8067 H   0  0  0  0  0  0  0  0  0  0  0  0
  145.2680  142.2448  156.2453 H   0  0  0  0  0  0  0  0  0  0  0  0
  148.5248  137.5503  152.5845 H   0  0  0  0  0  0  0  0  0  0  0  0
  1  2  1  0  0  0  0
  1 22  1  0  0  0  0
  2  3  1  0  0  0  0
  2 15  1  0  0  0  0
  2 23  1  0  0  0  0
  3  4  1  0  0  0  0
  3 24  1  0  0  0  0
  3 25  1  0  0  0  0
  4 14  1  0  0  0  0
  4  5  1  0  0  0  0
  5  6  2  0  0  0  0
  5 26  1  0  0  0  0
  6  7  1  0  0  0  0
  6 33  1  0  0  0  0
  7 14  2  0  0  0  0
  7  8  1  0  0  0  0
  8  9  2  0  0  0  0
  8 27  1  0  0  0  0
  9 10  1  0  0  0  0
  9 11  1  0  0  0  0
 11 12  1  0  0  0  0
 11 13  2  0  0  0  0
 13 14  1  0  0  0  0
 13 28  1  0  0  0  0
 15 21  1  0  0  0  0
 15 16  2  0  0  0  0
 16 17  1  0  0  0  0
 16 29  1  0  0  0  0
 17 18  2  0  0  0  0
 17 30  1  0  0  0  0
 18 19  1  0  0  0  0
 18 20  1  0  0  0  0
 20 21  2  0  0  0  0
 20 31  1  0  0  0  0
 21 32  1  0  0  0  0
M  CHG  1   6   1
M  END
> <s_m_source_file>
AV-unprocessed.smi

> <i_m_source_file_index>
739

> <i_lp_mmshare_version>
43012

> <i_f3d_flags>
0

> <s_epik_input>
W2NIXTFbY0hdYyhGKVtjSF1bY0hdYzFbQ0BIXShbT0hdKVtDSDJdbihbY0hdbjIpYyhjMjMpW2NIXWMoRiljKEYpW2NIXTM=

> <s_epik_cmdline>
J2VwaWtfcHl0aG9uJywgJy1waCcsICc3LjAnLCAnLXRuJywgJzgnLCAnLW1hJywgJzIwMCcsICctbWV0YWxfYmluZGluZycsICctaW1hZScsICc8aW5maWxlLm1hZT4nLCAnLW9tYWUnLCAnPG91dGZpbGUubWFlPic=

> <r_epik_Ionization_Penalty>
2.16139

> <r_epik_Ionization_Penalty_Charging>
2.16138

> <r_epik_Ionization_Penalty_Neutral>
1.79538e-06

> <r_epik_State_Penalty>
2.30198

> <r_epik_Charging_Adjusted_Penalty>
4.46337

> <i_epik_Tot_Q>
1

> <i_epik_Tot_abs_Q>
1

> <r_epik_Metal_State_Penalty>
6.38245

> <b_epik_Metal_Only>
0

> <s_lp_Force_Field>
OPLS_2005

> <r_lp_Energy>
14.9103

> <b_lp_Chiralities_Consistent>
1

> <s_lp_Variant>
AV-unprocessed.smi:739-4

> <Gold.Version>
5.8.1

> <Gold.Id.Protein>
6NUR|6NUR_protein|mol2

> <Gold.PLP.Fitness>
51.5680

> <Gold.PLP.PLP>
-43.8630

> <Gold.PLP.part.hbond>
-4.4758

> <Gold.PLP.part.metal>
0.0000

> <Gold.PLP.part.buried>
-4.4554

> <Gold.PLP.part.nonpolar>
-36.1248

> <Gold.PLP.part.repulsive>
0.0518

> <Gold.PLP.ligand.clash>
0.0000

> <Gold.PLP.ligand.torsion>
0.5500

> <Gold.PLP.Chemscore.Hbond>
2.9280

> <Gold.PLP.Chemscore.CHOScore>
0.0000

> <Gold.PLP.Chemscore.Metal>
0.0000

> <Gold.Chemscore.Hbonds>
donor molecule, donor type, donor heavy atom, donor atom, acceptor molecule, acceptor atom, score
      L1  H     6    33       P1  7948  2.00
      P1  H  8022  8030       L1     1  0.93

> <Gold.PLP.Chemscore.Internal.Correction>
0.0210

> <Gold.Rescore>
     Score         DG    S(hbond)    S(metal)    S(lipo)     H(rot)  DE(clash)    DE(int)     intcor
     15.74     -16.41       1.95        0.00      84.02       2.12       0.08       0.59       ----

> <Gold.Chemscore.Fitness>
15.7368

> <Gold.Chemscore.DG>
-16.4056

> <Gold.Chemscore.ZeroCoef>
-5.4800

> <Gold.Chemscore.Hbond>
1.9511

> <Gold.Chemscore.Metal>
0.0000

> <Gold.Chemscore.Lipo>
84.0171

> <Gold.Chemscore.Internal_Hbond>
0.0000

> <Gold.Chemscore.DEClash>
0.0834

> <Gold.Chemscore.DEInternal>
0.5854

> <Gold.Chemscore.Rot>
2.1176

> <Gold.Chemscore.Internal.Correction>
   9.000000E+99

> <Gold.Chemscore.Hbonds>
donor molecule, donor type, donor heavy atom, donor atom, acceptor molecule, acceptor atom, score
      L1  H     6    33       P1  7948  0.94
      P1  H  8022  8030       L1     1  0.88

> <Gold.Chemscore.Hbond.Weighted>
-6.5167

> <Gold.Chemscore.Metal.Weighted>
-0.0000

> <Gold.Chemscore.Lipo.Weighted>
-9.8300

> <Gold.Chemscore.Internal_Hbond.Weighted>
0.0000

> <Gold.Chemscore.DEClash.Weighted>
0.0834

> <Gold.Chemscore.DEInternal.Weighted>
0.5854

> <Gold.Chemscore.Rot.Weighted>
5.4211

> <Gold.Chemscore.Internal.Correction.Weighted>
   9.000000E+99

> <Gold.Protein.RotatedTorsions>
[ 6907 6896 6895 6894 ] final   33.15 input  -60.11 | X-H torsion
[ 7974 7965 7964 7962 ] final  172.13 input  175.53 | X-H torsion
[ 8008 7997 7996 7995 ] final  -87.44 input   59.86 | X-H torsion
[ 10167 10162 10161 10158 ] final  174.47 input  -65.29 | X-H torsion
[ 10718 10713 10712 10709 ] final  176.95 input   66.30 | X-H torsion
[ 10763 10752 10751 10750 ] final  172.09 input  -60.55 | X-H torsion
[ 11005 11000 10999 10996 ] final -161.20 input  -57.11 | X-H torsion

> <Gold.Protein.ActiveResidues>
 VAL166  LYS551  ARG553  GLY616  TRP617  ASP618  TYR619  PRO620  LYS621  CYS622 
 ASP623  PHE694  ASN695  SER759  ASP760  ASP761  ALA762  ILE779  LEU786  VAL792 
 PHE793  MET794  SER795  GLU796  ALA797  LYS798  CYS799  TRP800  GLU811  SER814 

> <Gold.Protein.RotatedAtoms>
  152.0845  134.9449  160.0572 H   0  0  0  0  0  0  0  0  0  0  0  0  # atno 6907 bound_to 6896
  152.0724  133.4108  159.4473 H   0  0  0  0  0  0  0  0  0  0  0  0  # atno 6908 bound_to 6896
  150.6836  134.2996  159.4744 H   0  0  0  0  0  0  0  0  0  0  0  0  # atno 6909 bound_to 6896
  144.7276  139.9453  143.6430 H   0  0  0  0  0  0  0  0  0  0  0  0  # atno 7974 bound_to 7965
  154.6633  140.0566  157.0086 H   0  0  0  0  0  0  0  0  0  0  0  0  # atno 8008 bound_to 7997
  155.1196  140.3246  155.4482 H   0  0  0  0  0  0  0  0  0  0  0  0  # atno 8009 bound_to 7997
  156.2627  140.2000  156.6318 H   0  0  0  0  0  0  0  0  0  0  0  0  # atno 8010 bound_to 7997
  139.5143  144.3143  152.0262 H   0  0  0  0  0  0  0  0  0  0  0  0  # atno 10167 bound_to 10162
  156.9126  130.9915  151.3018 H   0  0  0  0  0  0  0  0  0  0  0  0  # atno 10718 bound_to 10713
  154.4212  135.2758  155.1974 H   0  0  0  0  0  0  0  0  0  0  0  0  # atno 10763 bound_to 10752
  154.3919  135.6064  153.5852 H   0  0  0  0  0  0  0  0  0  0  0  0  # atno 10764 bound_to 10752
  152.9833  135.5905  154.4508 H   0  0  0  0  0  0  0  0  0  0  0  0  # atno 10765 bound_to 10752
  140.6230  134.4731  157.5225 H   0  0  0  0  0  0  0  0  0  0  0  0  # atno 11005 bound_to 11000
  146.0753  139.3741  143.0498 LP  0  0  0  0  0  0  0  0  0  0  0  0  # atno 17320 bound_to 7965
  145.7913  140.9813  143.1047 LP  0  0  0  0  0  0  0  0  0  0  0  0  # atno 17321 bound_to 7965
  140.2586  144.4091  150.6194 LP  0  0  0  0  0  0  0  0  0  0  0  0  # atno 17342 bound_to 10162
  140.6173  143.2173  151.6766 LP  0  0  0  0  0  0  0  0  0  0  0  0  # atno 17343 bound_to 10162
  157.5958  130.8476  149.8727 LP  0  0  0  0  0  0  0  0  0  0  0  0  # atno 17370 bound_to 10713
  156.0529  130.3714  150.1160 LP  0  0  0  0  0  0  0  0  0  0  0  0  # atno 17371 bound_to 10713
  139.9146  134.8273  156.1411 LP  0  0  0  0  0  0  0  0  0  0  0  0  # atno 17394 bound_to 11000
  141.0729  133.6788  156.2177 LP  0  0  0  0  0  0  0  0  0  0  0  0  # atno 17395 bound_to 11000

$$$$
