AV-unprocessed.smi:16|AV-procd|sdf|93|dock3
  -GOLD-   2262015233D 1   1.00000     0.00000
 Structure written by MMmdl.
 60 64  0  0  0  0  0  0  0  0  2 V2000
  151.9871  139.2943  154.9795 C   0  0  0  0  0  0  0  0  0  0  0  0
  150.6840  138.4884  154.8420 C   0  0  0  0  0  0  0  0  0  0  0  0
  149.5016  139.1273  155.4739 N   0  3  1  0  0  0  0  0  0  0  0  0
  149.7242  139.5809  156.8696 C   0  0  0  0  0  0  0  0  0  0  0  0
  148.3883  139.9628  157.5254 C   0  0  0  0  0  0  0  0  0  0  0  0
  147.6427  141.0272  156.6894 C   0  0  2  0  0  0  0  0  0  0  0  0
  146.3788  141.3829  157.2535 O   0  0  0  0  0  0  0  0  0  0  0  0
  145.3797  140.3687  157.1671 C   0  0  0  0  0  0  0  0  0  0  0  0
  145.1874  139.9429  155.7047 C   0  0  0  0  0  0  0  0  0  0  0  0
  146.4618  139.5313  155.1266 N   0  0  0  0  0  0  0  0  0  0  0  0
  146.3279  138.9557  153.9111 C   0  0  0  0  0  0  0  0  0  0  0  0
  146.8852  139.5333  152.8151 N   0  0  0  0  0  0  0  0  0  0  0  0
  146.7787  138.9368  151.6235 C   0  0  0  0  0  0  0  0  0  0  0  0
  146.1775  137.7843  151.3174 N   0  0  0  0  0  0  0  0  0  0  0  0
  145.6175  137.2058  152.4190 C   0  0  0  0  0  0  0  0  0  0  0  0
  145.6504  137.7205  153.7440 C   0  0  0  0  0  0  0  0  0  0  0  0
  145.0030  136.8528  154.6138 N   0  0  0  0  0  0  0  0  0  0  0  0
  144.6056  135.8768  153.8432 C   0  0  0  0  0  0  0  0  0  0  0  0
  144.9105  136.0191  152.5077 N   0  0  0  0  0  0  0  0  0  0  0  0
  144.6364  135.0747  151.4649 C   0  0  0  0  0  0  0  0  0  0  0  0
  144.1245  133.6666  151.7769 C   0  0  0  0  0  0  0  0  0  0  0  0
  144.8814  133.1265  150.5428 C   0  0  0  0  0  0  0  0  0  0  0  0
  145.5645  131.7656  150.7633 C   0  0  0  0  0  0  0  0  0  0  0  0
  146.4976  131.4702  149.7448 O   0  0  0  0  0  0  0  0  0  0  0  0
  144.0218  133.0637  149.2623 C   0  0  0  0  0  0  0  0  0  0  0  0
  142.9670  132.1305  149.3713 O   0  0  0  0  0  0  0  0  0  0  0  0
  145.7730  134.3782  150.7143 C   0  0  0  0  0  0  0  0  0  0  0  0
  147.4803  140.5832  155.2157 C   0  0  2  0  0  0  0  0  0  0  0  0
  148.8632  140.1799  154.6432 C   0  0  0  0  0  0  0  0  0  0  0  0
  148.2471  141.9351  156.7036 H   0  0  0  0  0  0  0  0  0  0  0  0
  147.1132  141.4353  154.6413 H   0  0  0  0  0  0  0  0  0  0  0  0
  152.8118  138.7645  154.5024 H   0  0  0  0  0  0  0  0  0  0  0  0
  152.2631  139.4471  156.0226 H   0  0  0  0  0  0  0  0  0  0  0  0
  151.9135  140.2706  154.5009 H   0  0  0  0  0  0  0  0  0  0  0  0
  150.4665  138.3263  153.7854 H   0  0  0  0  0  0  0  0  0  0  0  0
  150.8199  137.4971  155.2755 H   0  0  0  0  0  0  0  0  0  0  0  0
  150.1979  138.7851  157.4455 H   0  0  0  0  0  0  0  0  0  0  0  0
  150.4026  140.4346  156.8838 H   0  0  0  0  0  0  0  0  0  0  0  0
  147.7904  139.0581  157.6297 H   0  0  0  0  0  0  0  0  0  0  0  0
  148.5613  140.3361  158.5350 H   0  0  0  0  0  0  0  0  0  0  0  0
  145.6380  139.5136  157.7910 H   0  0  0  0  0  0  0  0  0  0  0  0
  144.4450  140.7651  157.5638 H   0  0  0  0  0  0  0  0  0  0  0  0
  144.4684  139.1244  155.6480 H   0  0  0  0  0  0  0  0  0  0  0  0
  144.7743  140.7754  155.1332 H   0  0  0  0  0  0  0  0  0  0  0  0
  147.2439  139.4548  150.7978 H   0  0  0  0  0  0  0  0  0  0  0  0
  144.0725  135.0203  154.2303 H   0  0  0  0  0  0  0  0  0  0  0  0
  143.9692  135.5833  150.7669 H   0  0  0  0  0  0  0  0  0  0  0  0
  144.5130  133.2851  152.7231 H   0  0  0  0  0  0  0  0  0  0  0  0
  143.0397  133.5625  151.7337 H   0  0  0  0  0  0  0  0  0  0  0  0
  146.1045  131.7531  151.7104 H   0  0  0  0  0  0  0  0  0  0  0  0
  144.8330  130.9587  150.8183 H   0  0  0  0  0  0  0  0  0  0  0  0
  147.3043  131.1892  150.1486 H   0  0  0  0  0  0  0  0  0  0  0  0
  143.6005  134.0407  149.0237 H   0  0  0  0  0  0  0  0  0  0  0  0
  144.6222  132.7770  148.3989 H   0  0  0  0  0  0  0  0  0  0  0  0
  142.1463  132.5946  149.3079 H   0  0  0  0  0  0  0  0  0  0  0  0
  146.0677  134.8694  149.7867 H   0  0  0  0  0  0  0  0  0  0  0  0
  146.6417  134.1936  151.3492 H   0  0  0  0  0  0  0  0  0  0  0  0
  149.5083  141.0589  154.6219 H   0  0  0  0  0  0  0  0  0  0  0  0
  148.7811  139.8465  153.6082 H   0  0  0  0  0  0  0  0  0  0  0  0
  148.8164  138.3873  155.5388 H   0  0  0  0  0  0  0  0  0  0  0  0
  1  2  1  0  0  0  0
  1 32  1  0  0  0  0
  1 33  1  0  0  0  0
  1 34  1  0  0  0  0
  2  3  1  0  0  0  0
  2 35  1  0  0  0  0
  2 36  1  0  0  0  0
  3 29  1  0  0  0  0
  3  4  1  0  0  0  0
  3 60  1  0  0  0  0
  4  5  1  0  0  0  0
  4 37  1  0  0  0  0
  4 38  1  0  0  0  0
  5  6  1  0  0  0  0
  5 39  1  0  0  0  0
  5 40  1  0  0  0  0
  6 30  1  0  0  0  0
  6 28  1  0  0  0  0
  6  7  1  0  0  0  0
  7  8  1  0  0  0  0
  8  9  1  0  0  0  0
  8 41  1  0  0  0  0
  8 42  1  0  0  0  0
  9 10  1  0  0  0  0
  9 43  1  0  0  0  0
  9 44  1  0  0  0  0
 10 11  1  0  0  0  0
 10 28  1  0  0  0  0
 11 16  1  0  0  0  0
 11 12  2  0  0  0  0
 12 13  1  0  0  0  0
 13 14  2  0  0  0  0
 13 45  1  0  0  0  0
 14 15  1  0  0  0  0
 15 19  1  0  0  0  0
 15 16  2  0  0  0  0
 16 17  1  0  0  0  0
 17 18  2  0  0  0  0
 18 19  1  0  0  0  0
 18 46  1  0  0  0  0
 19 20  1  0  0  0  0
 20 27  1  0  0  0  0
 20 21  1  0  0  0  0
 20 47  1  0  0  0  0
 21 22  1  0  0  0  0
 21 48  1  0  0  0  0
 21 49  1  0  0  0  0
 22 23  1  0  0  0  0
 22 25  1  0  0  0  0
 22 27  1  0  0  0  0
 23 24  1  0  0  0  0
 23 50  1  0  0  0  0
 23 51  1  0  0  0  0
 24 52  1  0  0  0  0
 25 26  1  0  0  0  0
 25 53  1  0  0  0  0
 25 54  1  0  0  0  0
 26 55  1  0  0  0  0
 27 56  1  0  0  0  0
 27 57  1  0  0  0  0
 28 31  1  0  0  0  0
 28 29  1  0  0  0  0
 29 58  1  0  0  0  0
 29 59  1  0  0  0  0
M  CHG  1   3   1
M  END
> <s_m_source_file>
AV-unprocessed.smi

> <i_m_source_file_index>
16

> <i_lp_mmshare_version>
43012

> <i_f3d_flags>
0

> <s_epik_input>
W0NIM11bQ0gyXU4oW0NIMl1bQ0gyXTEpW0NIMl1bQ0BASF0oW0NAQEhdMTIpTihbQ0gyXVtDSDJdTzIpYyhuW2NIXW4zKWMoYzM0KW5bY0hdbjRbQ0hdKFtDSDJdNSlbQ0gyXUM1KFtDSDJdW09IXSlbQ0gyXVtPSF0=

> <s_epik_cmdline>
J2VwaWtfcHl0aG9uJywgJy1waCcsICc3LjAnLCAnLXRuJywgJzgnLCAnLW1hJywgJzIwMCcsICctbWV0YWxfYmluZGluZycsICctaW1hZScsICc8aW5maWxlLm1hZT4nLCAnLW9tYWUnLCAnPG91dGZpbGUubWFlPic=

> <r_lp_tautomer_probability>
1

> <r_epik_Ionization_Penalty>
0.0135603

> <r_epik_Ionization_Penalty_Charging>
0.0131385

> <r_epik_Ionization_Penalty_Neutral>
0.000421734

> <r_epik_State_Penalty>
0.0102091

> <r_epik_Charging_Adjusted_Penalty>
0.0233476

> <i_epik_Tot_Q>
1

> <i_epik_Tot_abs_Q>
1

> <r_epik_Metal_State_Penalty>
0.0103746

> <b_epik_Metal_Only>
0

> <s_lp_Force_Field>
OPLS_2005

> <r_lp_Energy>
64.3007

> <b_lp_Chiralities_Consistent>
1

> <s_lp_Variant>
AV-unprocessed.smi:16-7

> <Gold.Version>
5.8.1

> <Gold.Id.Protein>
6NUR|6NUR_protein|mol2

> <Gold.PLP.Fitness>
47.8518

> <Gold.PLP.PLP>
-38.5985

> <Gold.PLP.part.hbond>
-3.7631

> <Gold.PLP.part.metal>
0.0000

> <Gold.PLP.part.buried>
-6.8606

> <Gold.PLP.part.nonpolar>
-31.5754

> <Gold.PLP.part.repulsive>
2.4476

> <Gold.PLP.ligand.clash>
0.0000

> <Gold.PLP.ligand.torsion>
0.6477

> <Gold.PLP.Chemscore.Hbond>
2.5683

> <Gold.PLP.Chemscore.CHOScore>
0.7203

> <Gold.PLP.Chemscore.Metal>
0.0000

> <Gold.Chemscore.Hbonds>
donor molecule, donor type, donor heavy atom, donor atom, acceptor molecule, acceptor atom, score
      L1  H    24    52       P1 10747  1.00
      L1  H    26    55       P1 10186  0.70
      P1  H 10785 10796       L1    26  0.83
      L1  C    13    45       P1  7957  0.72

> <Gold.PLP.Chemscore.Internal.Correction>
0.6831

> <Gold.Rescore>
     Score         DG    S(hbond)    S(metal)    S(lipo)     H(rot)  DE(clash)    DE(int)     intcor
     10.47     -14.08       2.43        0.00      77.02       3.33       1.53       2.09       ----

> <Gold.Chemscore.Fitness>
10.4657

> <Gold.Chemscore.DG>
-14.0822

> <Gold.Chemscore.ZeroCoef>
-5.4800

> <Gold.Chemscore.Hbond>
2.4259

> <Gold.Chemscore.Metal>
0.0000

> <Gold.Chemscore.Lipo>
77.0230

> <Gold.Chemscore.Internal_Hbond>
0.0000

> <Gold.Chemscore.DEClash>
1.5302

> <Gold.Chemscore.DEInternal>
2.0863

> <Gold.Chemscore.Rot>
3.3251

> <Gold.Chemscore.Internal.Correction>
   9.000000E+99

> <Gold.Chemscore.Hbonds>
donor molecule, donor type, donor heavy atom, donor atom, acceptor molecule, acceptor atom, score
      L1  H    24    52       P1 10747  0.99
      L1  H    26    55       P1 10186  0.66
      P1  H 10785 10796       L1    26  0.80

> <Gold.Chemscore.Hbond.Weighted>
-8.1027

> <Gold.Chemscore.Metal.Weighted>
-0.0000

> <Gold.Chemscore.Lipo.Weighted>
-9.0117

> <Gold.Chemscore.Internal_Hbond.Weighted>
0.0000

> <Gold.Chemscore.DEClash.Weighted>
1.5302

> <Gold.Chemscore.DEInternal.Weighted>
2.0863

> <Gold.Chemscore.Rot.Weighted>
8.5122

> <Gold.Chemscore.Internal.Correction.Weighted>
   9.000000E+99

> <Gold.Protein.RotatedTorsions>
[ 6907 6896 6895 6894 ] final  148.64 input  -60.11 | X-H torsion
[ 7974 7965 7964 7962 ] final  137.18 input  175.53 | X-H torsion
[ 8008 7997 7996 7995 ] final  130.17 input   59.86 | X-H torsion
[ 10167 10162 10161 10158 ] final    6.51 input  -65.29 | X-H torsion
[ 10718 10713 10712 10709 ] final  -87.66 input   66.30 | X-H torsion
[ 10763 10752 10751 10750 ] final -133.27 input  -60.55 | X-H torsion
[ 11005 11000 10999 10996 ] final  131.78 input  -57.11 | X-H torsion

> <Gold.Protein.ActiveResidues>
 VAL166  LYS551  ARG553  GLY616  TRP617  ASP618  TYR619  PRO620  LYS621  CYS622 
 ASP623  PHE694  ASN695  SER759  ASP760  ASP761  ALA762  ILE779  LEU786  VAL792 
 PHE793  MET794  SER795  GLU796  ALA797  LYS798  CYS799  TRP800  GLU811  SER814 

> <Gold.Protein.RotatedAtoms>
  152.1388  133.4451  159.4756 H   0  0  0  0  0  0  0  0  0  0  0  0  # atno 6907 bound_to 6896
  150.6884  134.2331  159.4451 H   0  0  0  0  0  0  0  0  0  0  0  0  # atno 6908 bound_to 6896
  152.0220  134.9817  160.0621 H   0  0  0  0  0  0  0  0  0  0  0  0  # atno 6909 bound_to 6896
  144.9493  139.4838  143.5534 H   0  0  0  0  0  0  0  0  0  0  0  0  # atno 7974 bound_to 7965
  156.2950  140.2602  156.2718 H   0  0  0  0  0  0  0  0  0  0  0  0  # atno 8008 bound_to 7997
  154.9687  140.0391  157.2243 H   0  0  0  0  0  0  0  0  0  0  0  0  # atno 8009 bound_to 7997
  154.7878  140.2806  155.6019 H   0  0  0  0  0  0  0  0  0  0  0  0  # atno 8010 bound_to 7997
  140.6424  143.7744  150.7447 H   0  0  0  0  0  0  0  0  0  0  0  0  # atno 10167 bound_to 10162
  155.9985  130.4808  150.4901 H   0  0  0  0  0  0  0  0  0  0  0  0  # atno 10718 bound_to 10713
  154.8734  135.3771  154.4545 H   0  0  0  0  0  0  0  0  0  0  0  0  # atno 10763 bound_to 10752
  153.5219  135.7029  153.5732 H   0  0  0  0  0  0  0  0  0  0  0  0  # atno 10764 bound_to 10752
  153.3976  135.3956  155.1931 H   0  0  0  0  0  0  0  0  0  0  0  0  # atno 10765 bound_to 10752
  139.9751  134.9566  156.9488 H   0  0  0  0  0  0  0  0  0  0  0  0  # atno 11005 bound_to 11000
  146.3315  139.8567  142.8863 LP  0  0  0  0  0  0  0  0  0  0  0  0  # atno 17320 bound_to 7965
  145.2869  141.0156  143.3685 LP  0  0  0  0  0  0  0  0  0  0  0  0  # atno 17321 bound_to 7965
  140.1378  143.4468  152.2213 LP  0  0  0  0  0  0  0  0  0  0  0  0  # atno 17342 bound_to 10162
  139.5633  144.7419  151.4093 LP  0  0  0  0  0  0  0  0  0  0  0  0  # atno 17343 bound_to 10162
  157.2897  131.0623  151.2142 LP  0  0  0  0  0  0  0  0  0  0  0  0  # atno 17370 bound_to 10713
  157.3159  130.6913  149.6242 LP  0  0  0  0  0  0  0  0  0  0  0  0  # atno 17371 bound_to 10713
  140.5212  134.0905  155.7292 LP  0  0  0  0  0  0  0  0  0  0  0  0  # atno 17394 bound_to 11000
  141.1428  133.9108  157.2285 LP  0  0  0  0  0  0  0  0  0  0  0  0  # atno 17395 bound_to 11000

$$$$
