AV-unprocessed.smi:1006|AV-procd|sdf|4391|dock1
  -GOLD-   22720 2323D 1   1.00000     0.00000
 Structure written by MMmdl.
 45 47  0  0  0  0  0  0  0  0  1 V2000
  145.8089  143.6440  158.8720 C   0  0  0  0  0  0  0  0  0  0  0  0
  145.3949  143.3525  157.4450 C   0  0  0  0  0  0  0  0  0  0  0  0
  144.0629  143.5292  157.0134 C   0  0  0  0  0  0  0  0  0  0  0  0
  143.8011  143.2268  155.6604 C   0  0  0  0  0  0  0  0  0  0  0  0
  142.5195  143.3670  155.1339 N   0  0  0  0  0  0  0  0  0  0  0  0
  144.7708  142.7930  154.8264 N   0  0  0  0  0  0  0  0  0  0  0  0
  145.9935  142.6653  155.3474 C   0  0  0  0  0  0  0  0  0  0  0  0
  147.2479  142.0824  154.2157 S   0  0  0  0  0  0  0  0  0  0  0  0
  148.0428  140.7513  155.1679 C   0  0  0  0  0  0  0  0  0  0  0  0
  149.5489  140.6231  154.8740 C   0  0  1  0  0  0  0  0  0  0  0  0
  149.7739  140.8094  153.4914 O   0  0  0  0  0  0  0  0  0  0  0  0
  150.4132  141.6492  155.6351 C   0  0  0  0  0  0  0  0  0  0  0  0
  151.1689  141.0527  156.7222 N   0  0  0  0  0  0  0  0  0  0  0  0
  151.5487  139.7656  156.8334 C   0  0  0  0  0  0  0  0  0  0  0  0
  152.2288  139.4235  157.9239 N   0  0  0  0  0  0  0  0  0  0  0  0
  152.2980  140.6296  158.6000 C   0  0  0  0  0  0  0  0  0  0  0  0
  152.8853  140.9522  159.8430 C   0  0  0  0  0  0  0  0  0  0  0  0
  152.8286  142.2693  160.3520 C   0  0  0  0  0  0  0  0  0  0  0  0
  153.4720  142.5709  161.6941 C   0  0  0  0  0  0  0  0  0  0  0  0
  152.1763  143.2889  159.6134 C   0  0  0  0  0  0  0  0  0  0  0  0
  152.0977  144.7102  160.1416 C   0  0  0  0  0  0  0  0  0  0  0  0
  151.5883  142.9849  158.3682 C   0  0  0  0  0  0  0  0  0  0  0  0
  151.6490  141.6699  157.8732 C   0  0  0  0  0  0  0  0  0  0  0  0
  146.3619  142.9213  156.6067 N   0  0  0  0  0  0  0  0  0  0  0  0
  146.0485  144.7011  158.9857 H   0  0  0  0  0  0  0  0  0  0  0  0
  146.6865  143.0603  159.1525 H   0  0  0  0  0  0  0  0  0  0  0  0
  145.0039  143.3974  159.5647 H   0  0  0  0  0  0  0  0  0  0  0  0
  143.2891  143.8766  157.6824 H   0  0  0  0  0  0  0  0  0  0  0  0
  141.7465  143.6864  155.6995 H   0  0  0  0  0  0  0  0  0  0  0  0
  142.3236  143.1516  154.1671 H   0  0  0  0  0  0  0  0  0  0  0  0
  147.8816  140.9252  156.2326 H   0  0  0  0  0  0  0  0  0  0  0  0
  147.5361  139.8220  154.9088 H   0  0  0  0  0  0  0  0  0  0  0  0
  149.8780  139.6165  155.1350 H   0  0  0  0  0  0  0  0  0  0  0  0
  149.3246  140.1234  153.0212 H   0  0  0  0  0  0  0  0  0  0  0  0
  151.1147  142.1323  154.9535 H   0  0  0  0  0  0  0  0  0  0  0  0
  149.7871  142.4412  156.0477 H   0  0  0  0  0  0  0  0  0  0  0  0
  151.3078  139.0377  156.0722 H   0  0  0  0  0  0  0  0  0  0  0  0
  153.3795  140.1746  160.4066 H   0  0  0  0  0  0  0  0  0  0  0  0
  154.2210  143.3567  161.5919 H   0  0  0  0  0  0  0  0  0  0  0  0
  153.9667  141.6905  162.1057 H   0  0  0  0  0  0  0  0  0  0  0  0
  152.7199  142.8994  162.4116 H   0  0  0  0  0  0  0  0  0  0  0  0
  151.5046  145.3462  159.4840 H   0  0  0  0  0  0  0  0  0  0  0  0
  153.0953  145.1430  160.2186 H   0  0  0  0  0  0  0  0  0  0  0  0
  151.6346  144.7283  161.1283 H   0  0  0  0  0  0  0  0  0  0  0  0
  151.0858  143.7512  157.7968 H   0  0  0  0  0  0  0  0  0  0  0  0
  1  2  1  0  0  0  0
  1 25  1  0  0  0  0
  1 26  1  0  0  0  0
  1 27  1  0  0  0  0
  2 24  1  0  0  0  0
  2  3  2  0  0  0  0
  3  4  1  0  0  0  0
  3 28  1  0  0  0  0
  4  5  1  0  0  0  0
  4  6  2  0  0  0  0
  5 29  1  0  0  0  0
  5 30  1  0  0  0  0
  6  7  1  0  0  0  0
  7  8  1  0  0  0  0
  7 24  2  0  0  0  0
  8  9  1  0  0  0  0
  9 10  1  0  0  0  0
  9 31  1  0  0  0  0
  9 32  1  0  0  0  0
 10 11  1  0  0  0  0
 10 12  1  0  0  0  0
 10 33  1  0  0  0  0
 11 34  1  0  0  0  0
 12 13  1  0  0  0  0
 12 35  1  0  0  0  0
 12 36  1  0  0  0  0
 13 23  1  0  0  0  0
 13 14  1  0  0  0  0
 14 15  2  0  0  0  0
 14 37  1  0  0  0  0
 15 16  1  0  0  0  0
 16 23  2  0  0  0  0
 16 17  1  0  0  0  0
 17 18  2  0  0  0  0
 17 38  1  0  0  0  0
 18 19  1  0  0  0  0
 18 20  1  0  0  0  0
 19 39  1  0  0  0  0
 19 40  1  0  0  0  0
 19 41  1  0  0  0  0
 20 21  1  0  0  0  0
 20 22  2  0  0  0  0
 21 42  1  0  0  0  0
 21 43  1  0  0  0  0
 21 44  1  0  0  0  0
 22 23  1  0  0  0  0
 22 45  1  0  0  0  0
M  END
> <s_m_source_file>
AV-unprocessed.smi

> <i_m_source_file_index>
1006

> <i_lp_mmshare_version>
43012

> <i_f3d_flags>
0

> <s_epik_input>
W0NIM11jMVtjSF1jKFtOSDJdKW5jKG4xKVNbQ0gyXVtDQEhdKFtPSF0pW0NIMl1uKFtjSF1uMiljKGMyMylbY0hdYyhbQ0gzXSljKFtjSF0zKVtDSDNd

> <s_epik_cmdline>
J2VwaWtfcHl0aG9uJywgJy1waCcsICc3LjAnLCAnLXRuJywgJzgnLCAnLW1hJywgJzIwMCcsICctbWV0YWxfYmluZGluZycsICctaW1hZScsICc8aW5maWxlLm1hZT4nLCAnLW9tYWUnLCAnPG91dGZpbGUubWFlPic=

> <r_lp_tautomer_probability>
1

> <r_epik_Ionization_Penalty>
0.490208

> <r_epik_Ionization_Penalty_Charging>
0

> <r_epik_Ionization_Penalty_Neutral>
0.490208

> <r_epik_State_Penalty>
0.473203

> <r_epik_Charging_Adjusted_Penalty>
0.473203

> <i_epik_Tot_Q>
0

> <i_epik_Tot_abs_Q>
0

> <r_epik_Metal_State_Penalty>
0.354099

> <b_epik_Metal_Only>
0

> <s_lp_Force_Field>
OPLS_2005

> <r_lp_Energy>
2.6746

> <b_lp_Chiralities_Consistent>
1

> <s_lp_Variant>
AV-unprocessed.smi:1006-2

> <Gold.Version>
5.8.1

> <Gold.Id.Protein>
6NUR|6NUR_protein|mol2

> <Gold.PLP.Fitness>
52.8951

> <Gold.PLP.PLP>
-47.6643

> <Gold.PLP.part.hbond>
-3.4368

> <Gold.PLP.part.metal>
0.0000

> <Gold.PLP.part.buried>
-5.8212

> <Gold.PLP.part.nonpolar>
-37.7219

> <Gold.PLP.part.repulsive>
0.3827

> <Gold.PLP.ligand.clash>
0.0000

> <Gold.PLP.ligand.torsion>
1.5530

> <Gold.PLP.Chemscore.Hbond>
2.7200

> <Gold.PLP.Chemscore.CHOScore>
0.0000

> <Gold.PLP.Chemscore.Metal>
0.0000

> <Gold.Chemscore.Hbonds>
donor molecule, donor type, donor heavy atom, donor atom, acceptor molecule, acceptor atom, score
      L1  H     5    30       P1 10174  0.68
      L1  H    11    34       P1  7957  0.34
      P1  H  7989  7998       L1    11  0.34
      P1  H  8011  8017       L1    11  1.00

> <Gold.PLP.Chemscore.Internal.Correction>
0.1767

> <Gold.Rescore>
     Score         DG    S(hbond)    S(metal)    S(lipo)     H(rot)  DE(clash)    DE(int)     intcor
     17.70     -19.37       2.36        0.00     113.04       2.82       0.15       1.52       ----

> <Gold.Chemscore.Fitness>
17.7046

> <Gold.Chemscore.DG>
-19.3679

> <Gold.Chemscore.ZeroCoef>
-5.4800

> <Gold.Chemscore.Hbond>
2.3603

> <Gold.Chemscore.Metal>
0.0000

> <Gold.Chemscore.Lipo>
113.0417

> <Gold.Chemscore.Internal_Hbond>
0.0000

> <Gold.Chemscore.DEClash>
0.1466

> <Gold.Chemscore.DEInternal>
1.5167

> <Gold.Chemscore.Rot>
2.8209

> <Gold.Chemscore.Internal.Correction>
   9.000000E+99

> <Gold.Chemscore.Hbonds>
donor molecule, donor type, donor heavy atom, donor atom, acceptor molecule, acceptor atom, score
      L1  H     5    30       P1 10174  0.68
      L1  H    11    34       P1  7957  0.34
      P1  H  7989  7998       L1    11  0.10
      P1  H  8011  8017       L1    11  0.63

> <Gold.Chemscore.Hbond.Weighted>
-7.8835

> <Gold.Chemscore.Metal.Weighted>
-0.0000

> <Gold.Chemscore.Lipo.Weighted>
-13.2259

> <Gold.Chemscore.Internal_Hbond.Weighted>
0.0000

> <Gold.Chemscore.DEClash.Weighted>
0.1466

> <Gold.Chemscore.DEInternal.Weighted>
1.5167

> <Gold.Chemscore.Rot.Weighted>
7.2215

> <Gold.Chemscore.Internal.Correction.Weighted>
   9.000000E+99

> <Gold.Protein.RotatedTorsions>
[ 6907 6896 6895 6894 ] final   56.09 input  -60.11 | X-H torsion
[ 7974 7965 7964 7962 ] final   36.71 input  175.53 | X-H torsion
[ 8008 7997 7996 7995 ] final  166.20 input   59.86 | X-H torsion
[ 10167 10162 10161 10158 ] final   76.93 input  -65.29 | X-H torsion
[ 10718 10713 10712 10709 ] final   35.09 input   66.30 | X-H torsion
[ 10763 10752 10751 10750 ] final  -71.61 input  -60.55 | X-H torsion
[ 11005 11000 10999 10996 ] final  -83.70 input  -57.11 | X-H torsion

> <Gold.Protein.ActiveResidues>
 VAL166  LYS551  ARG553  GLY616  TRP617  ASP618  TYR619  PRO620  LYS621  CYS622 
 ASP623  PHE694  ASN695  SER759  ASP760  ASP761  ALA762  ILE779  LEU786  VAL792 
 PHE793  MET794  SER795  GLU796  ALA797  LYS798  CYS799  TRP800  GLU811  SER814 

> <Gold.Protein.RotatedAtoms>
  152.3602  134.6882  160.0209 H   0  0  0  0  0  0  0  0  0  0  0  0  # atno 6907 bound_to 6896
  151.7208  133.3309  159.3323 H   0  0  0  0  0  0  0  0  0  0  0  0  # atno 6908 bound_to 6896
  150.7600  134.6384  159.6268 H   0  0  0  0  0  0  0  0  0  0  0  0  # atno 6909 bound_to 6896
  146.1191  139.5984  142.9301 H   0  0  0  0  0  0  0  0  0  0  0  0  # atno 7974 bound_to 7965
  156.1738  140.1650  156.8400 H   0  0  0  0  0  0  0  0  0  0  0  0  # atno 8008 bound_to 7997
  154.5285  140.0762  156.8336 H   0  0  0  0  0  0  0  0  0  0  0  0  # atno 8009 bound_to 7997
  155.3457  140.3387  155.4241 H   0  0  0  0  0  0  0  0  0  0  0  0  # atno 8010 bound_to 7997
  139.9869  144.5785  150.7851 H   0  0  0  0  0  0  0  0  0  0  0  0  # atno 10167 bound_to 10162
  157.3184  130.7435  149.6769 H   0  0  0  0  0  0  0  0  0  0  0  0  # atno 10718 bound_to 10713
  154.4342  135.5956  153.6088 H   0  0  0  0  0  0  0  0  0  0  0  0  # atno 10763 bound_to 10752
  152.9801  135.5982  154.3802 H   0  0  0  0  0  0  0  0  0  0  0  0  # atno 10764 bound_to 10752
  154.3644  135.2841  155.2281 H   0  0  0  0  0  0  0  0  0  0  0  0  # atno 10765 bound_to 10752
  141.1656  133.7307  156.8758 H   0  0  0  0  0  0  0  0  0  0  0  0  # atno 11005 bound_to 11000
  145.5503  141.0414  143.2282 LP  0  0  0  0  0  0  0  0  0  0  0  0  # atno 17320 bound_to 7965
  144.7581  139.7025  143.7246 LP  0  0  0  0  0  0  0  0  0  0  0  0  # atno 17321 bound_to 7965
  140.7469  143.2897  151.3364 LP  0  0  0  0  0  0  0  0  0  0  0  0  # atno 17342 bound_to 10162
  139.6368  144.0615  152.2522 LP  0  0  0  0  0  0  0  0  0  0  0  0  # atno 17343 bound_to 10162
  155.9683  130.4230  150.4544 LP  0  0  0  0  0  0  0  0  0  0  0  0  # atno 17370 bound_to 10713
  157.2555  131.0555  151.2353 LP  0  0  0  0  0  0  0  0  0  0  0  0  # atno 17371 bound_to 10713
  140.1749  134.9074  157.2879 LP  0  0  0  0  0  0  0  0  0  0  0  0  # atno 17394 bound_to 11000
  140.2460  134.3739  155.7461 LP  0  0  0  0  0  0  0  0  0  0  0  0  # atno 17395 bound_to 11000

$$$$
