#       Name:                AV-unprocessed.smi:2114
#       Creating user name   scv26
#       Creation time:       Fri Mar 27 11:36:14 2020


#       File generated by GOLD software.
#

@<TRIPOS>MOLECULE
AV-unprocessed.smi:2114
    55    56     1
SMALL
NO_CHARGES


@<TRIPOS>ATOM
      1 ****        -5.6087   0.2439  -3.2551 C.3            1 S1                 0.0000
      2 ****        -5.0886   0.8674  -2.0943 O.3            1 S1                 0.0000
      3 ****        -5.5810   0.2867  -0.8971 C.3            1 S1                 0.0000
      4 ****        -4.9729   1.0155   0.3109 C.3            1 S1                 0.0000
      5 ****        -5.5866   0.5246   1.6322 C.3            1 S1                 0.0000
      6 ****        -3.5264   0.8163   0.3197 N.am           1 S1                 0.0000
      7 ****        -2.6300   1.6366   0.8915 C.2            1 S1                 0.0000
      8 ****        -2.9368   2.6456   1.5270 O.2            1 S1                 0.0000
      9 ****        -1.1960   1.2108   0.7696 C.ar           1 S1                 0.0000
     10 ****        -0.2665   1.5156   1.7854 C.ar           1 S1                 0.0000
     11 ****         1.0754   1.1190   1.6289 C.ar           1 S1                 0.0000
     12 ****         1.4602   0.4326   0.4531 C.ar           1 S1                 0.0000
     13 ****         2.7995   0.0234   0.2783 N.3            1 S1                 0.0000
     14 ****         3.2093  -0.4296  -1.0489 C.3            1 S1                 0.0000
     15 ****         4.7423  -0.5515  -1.1261 C.3            1 S1                 0.0000
     16 ****         5.2061  -1.1375  -2.4636 C.3            1 S1                 0.0000
     17 ****         5.1957  -1.4068  -0.0806 O.3            1 S1                 0.0000
     18 ****         4.8856  -0.8964   1.2132 C.3            1 S1                 0.0000
     19 ****         5.4968  -1.8349   2.2583 C.3            1 S1                 0.0000
     20 ****         3.3565  -0.7835   1.3602 C.3            1 S1                 0.0000
     21 ****         0.5694   0.1579  -0.5313 N.ar           1 S1                 0.0000
     22 ****        -0.7162   0.5384  -0.3762 C.ar           1 S1                 0.0000
     23 ****        -5.1983   0.7239  -4.1435 H              1 S1                 0.0000
     24 ****        -6.6951   0.3314  -3.2967 H              1 S1                 0.0000
     25 ****        -5.3405  -0.8128  -3.2891 H              1 S1                 0.0000
     26 ****        -6.6687   0.3733  -0.8740 H              1 S1                 0.0000
     27 ****        -5.3377  -0.7769  -0.8629 H              1 S1                 0.0000
     28 ****        -5.1871   2.0807   0.2053 H              1 S1                 0.0000
     29 ****        -6.6667   0.6733   1.6406 H              1 S1                 0.0000
     30 ****        -5.1768   1.0660   2.4854 H              1 S1                 0.0000
     31 ****        -5.3958  -0.5376   1.7887 H              1 S1                 0.0000
     32 ****        -3.1798  -0.0008  -0.1620 H              1 S1                 0.0000
     33 ****        -0.5704   2.0442   2.6774 H              1 S1                 0.0000
     34 ****         1.7924   1.3583   2.4001 H              1 S1                 0.0000
     35 ****         2.7435  -1.3936  -1.2592 H              1 S1                 0.0000
     36 ****         2.8634   0.2734  -1.8079 H              1 S1                 0.0000
     37 ****         5.1959   0.4337  -1.0037 H              1 S1                 0.0000
     38 ****         4.8896  -0.5104  -3.2974 H              1 S1                 0.0000
     39 ****         4.7961  -2.1356  -2.6204 H              1 S1                 0.0000
     40 ****         6.2929  -1.2140  -2.4996 H              1 S1                 0.0000
     41 ****         5.3391   0.0901   1.3271 H              1 S1                 0.0000
     42 ****         5.2996  -1.4781   3.2695 H              1 S1                 0.0000
     43 ****         6.5778  -1.9030   2.1347 H              1 S1                 0.0000
     44 ****         5.0875  -2.8418   2.1720 H              1 S1                 0.0000
     45 ****         3.1219  -0.3625   2.3368 H              1 S1                 0.0000
     46 ****         2.9021  -1.7745   1.3254 H              1 S1                 0.0000
     47 ****        -1.3729   0.2982  -1.1996 H              1 S1                 0.0000
     48 ****        -5.3421   1.8346  -2.1092 LP             1 S1                 0.0000
     49 ****        -4.0921   0.7838  -2.1048 LP             1 S1                 0.0000
     50 ****        -3.8993   2.8922   1.6395 LP             1 S1                 0.0000
     51 ****        -2.2234   3.2185   1.9305 LP             1 S1                 0.0000
     52 ****         3.2465   0.9154   0.3461 LP             1 S1                 0.0000
     53 ****         6.1877  -1.5082  -0.1564 LP             1 S1                 0.0000
     54 ****         4.7603  -2.3008  -0.1858 LP             1 S1                 0.0000
     55 ****         0.8606  -0.3197  -1.3603 LP             1 S1                 0.0000
@<TRIPOS>BOND
    1    1    2 1     
    2    1   23 1     
    3    1   24 1     
    4    1   25 1     
    5    2    3 1     
    6    3    4 1     
    7    3   26 1     
    8    3   27 1     
    9    4    5 1     
   10    4    6 1     
   11    4   28 1     
   12    5   29 1     
   13    5   30 1     
   14    5   31 1     
   15    6    7 am    
   16    6   32 1     
   17    7    8 2     
   18    7    9 1     
   19    9   22 ar    
   20    9   10 ar    
   21   10   11 ar    
   22   10   33 1     
   23   11   12 ar    
   24   11   34 1     
   25   12   13 1     
   26   12   21 ar    
   27   13   20 1     
   28   13   14 1     
   29   14   15 1     
   30   14   35 1     
   31   14   36 1     
   32   15   16 1     
   33   15   17 1     
   34   15   37 1     
   35   16   38 1     
   36   16   39 1     
   37   16   40 1     
   38   17   18 1     
   39   18   19 1     
   40   18   20 1     
   41   18   41 1     
   42   19   42 1     
   43   19   43 1     
   44   19   44 1     
   45   20   45 1     
   46   20   46 1     
   47   21   22 ar    
   48   22   47 1     
   49    2   48 1     
   50    2   49 1     
   51    8   50 1     
   52    8   51 1     
   53   13   52 1     
   54   17   53 1     
   55   17   54 1     
   56   21   55 1     
@<TRIPOS>SUBSTRUCTURE
      1 S1             1
@<TRIPOS>SET
LONE_PAIRS      STATIC     ATOMS    <user>   **** ""
8 48 49 50 51 52 53 54 55
DONOR_HYDROGENS      STATIC     ATOMS    <user>   **** ""
1 32
ATOM$BLUE        STATIC     ATOMS    COLORGROUP SYSTEM
8 48 49 50 51 52 53 54 55
ATOM$RED        STATIC     ATOMS    COLORGROUP SYSTEM
1 32
