AV-unprocessed.smi:1852|AV-procd|sdf|7525|dock2
  -GOLD-   22720 9233D 1   1.00000     0.00000
 Structure written by MMmdl.
 45 47  0  0  0  0  0  0  0  0  1 V2000
  154.3456  140.4206  162.3247 C   0  0  0  0  0  0  0  0  0  0  0  0
  153.5645  141.5702  161.7220 C   0  0  0  0  0  0  0  0  0  0  0  0
  153.1604  142.6547  162.5247 C   0  0  0  0  0  0  0  0  0  0  0  0
  152.4362  143.7179  161.9560 C   0  0  0  0  0  0  0  0  0  0  0  0
  152.1123  143.7045  160.5835 C   0  0  0  0  0  0  0  0  0  0  0  0
  151.3344  144.8615  159.9851 C   0  0  0  0  0  0  0  0  0  0  0  0
  152.5132  142.6226  159.7661 C   0  0  0  0  0  0  0  0  0  0  0  0
  152.1627  142.6719  158.4333 O   0  0  0  0  0  0  0  0  0  0  0  0
  152.2837  141.4910  157.6518 C   0  0  0  0  0  0  0  0  0  0  0  0
  150.9507  140.7291  157.6780 C   0  0  0  0  0  0  0  0  0  0  0  0
  150.4326  140.4841  156.3393 N   0  0  0  0  0  0  0  0  0  0  0  0
  150.9816  139.7376  155.3478 C   0  0  0  0  0  0  0  0  0  0  0  0
  152.2812  139.0057  155.5188 C   0  0  0  0  0  0  0  0  0  0  0  0
  152.1898  138.1256  156.6796 N   0  0  0  0  0  0  0  0  0  0  0  0
  153.1395  137.2649  157.0725 C   0  0  0  0  0  0  0  0  0  0  0  0
  154.2197  137.1120  156.5048 O   0  0  0  0  0  0  0  0  0  0  0  0
  150.2935  139.6943  154.2062 N   0  0  0  0  0  0  0  0  0  0  0  0
  149.1942  140.4829  154.4827 C   0  0  0  0  0  0  0  0  0  0  0  0
  148.0890  140.8335  153.6749 C   0  0  0  0  0  0  0  0  0  0  0  0
  147.0725  141.6705  154.1802 C   0  0  0  0  0  0  0  0  0  0  0  0
  147.1459  142.1670  155.4978 C   0  0  0  0  0  0  0  0  0  0  0  0
  148.2369  141.8269  156.3201 C   0  0  0  0  0  0  0  0  0  0  0  0
  149.2499  140.9924  155.8106 C   0  0  0  0  0  0  0  0  0  0  0  0
  153.2428  141.5557  160.3497 C   0  0  0  0  0  0  0  0  0  0  0  0
  154.4221  140.5158  163.4083 H   0  0  0  0  0  0  0  0  0  0  0  0
  155.3543  140.3937  161.9120 H   0  0  0  0  0  0  0  0  0  0  0  0
  153.8575  139.4714  162.1020 H   0  0  0  0  0  0  0  0  0  0  0  0
  153.4036  142.6764  163.5771 H   0  0  0  0  0  0  0  0  0  0  0  0
  152.1312  144.5456  162.5795 H   0  0  0  0  0  0  0  0  0  0  0  0
  150.4049  144.5043  159.5408 H   0  0  0  0  0  0  0  0  0  0  0  0
  151.9221  145.3499  159.2070 H   0  0  0  0  0  0  0  0  0  0  0  0
  151.0838  145.6080  160.7392 H   0  0  0  0  0  0  0  0  0  0  0  0
  152.5415  141.7467  156.6230 H   0  0  0  0  0  0  0  0  0  0  0  0
  153.0739  140.8532  158.0500 H   0  0  0  0  0  0  0  0  0  0  0  0
  151.0636  139.7821  158.2051 H   0  0  0  0  0  0  0  0  0  0  0  0
  150.2082  141.3003  158.2359 H   0  0  0  0  0  0  0  0  0  0  0  0
  152.5106  138.4383  154.6152 H   0  0  0  0  0  0  0  0  0  0  0  0
  153.0957  139.7154  155.6600 H   0  0  0  0  0  0  0  0  0  0  0  0
  151.3382  138.1699  157.2198 H   0  0  0  0  0  0  0  0  0  0  0  0
  152.8212  136.7141  157.9710 H   0  0  0  0  0  0  0  0  0  0  0  0
  148.0241  140.4587  152.6642 H   0  0  0  0  0  0  0  0  0  0  0  0
  146.2328  141.9333  153.5537 H   0  0  0  0  0  0  0  0  0  0  0  0
  146.3649  142.8095  155.8767 H   0  0  0  0  0  0  0  0  0  0  0  0
  148.2983  142.2085  157.3283 H   0  0  0  0  0  0  0  0  0  0  0  0
  153.5665  140.7102  159.7619 H   0  0  0  0  0  0  0  0  0  0  0  0
  1  2  1  0  0  0  0
  1 25  1  0  0  0  0
  1 26  1  0  0  0  0
  1 27  1  0  0  0  0
  2 24  1  0  0  0  0
  2  3  2  0  0  0  0
  3  4  1  0  0  0  0
  3 28  1  0  0  0  0
  4  5  2  0  0  0  0
  4 29  1  0  0  0  0
  5  6  1  0  0  0  0
  5  7  1  0  0  0  0
  6 30  1  0  0  0  0
  6 31  1  0  0  0  0
  6 32  1  0  0  0  0
  7  8  1  0  0  0  0
  7 24  2  0  0  0  0
  8  9  1  0  0  0  0
  9 10  1  0  0  0  0
  9 33  1  0  0  0  0
  9 34  1  0  0  0  0
 10 11  1  0  0  0  0
 10 35  1  0  0  0  0
 10 36  1  0  0  0  0
 11 23  1  0  0  0  0
 11 12  1  0  0  0  0
 12 13  1  0  0  0  0
 12 17  2  0  0  0  0
 13 14  1  0  0  0  0
 13 37  1  0  0  0  0
 13 38  1  0  0  0  0
 14 15  1  0  0  0  0
 14 39  1  0  0  0  0
 15 16  2  0  0  0  0
 15 40  1  0  0  0  0
 17 18  1  0  0  0  0
 18 23  2  0  0  0  0
 18 19  1  0  0  0  0
 19 20  2  0  0  0  0
 19 41  1  0  0  0  0
 20 21  1  0  0  0  0
 20 42  1  0  0  0  0
 21 22  2  0  0  0  0
 21 43  1  0  0  0  0
 22 23  1  0  0  0  0
 22 44  1  0  0  0  0
 24 45  1  0  0  0  0
M  END
> <s_m_source_file>
AV-unprocessed.smi

> <i_m_source_file_index>
1852

> <i_lp_mmshare_version>
43012

> <i_f3d_flags>
0

> <s_epik_input>
W0NIM11jMVtjSF1bY0hdYyhbQ0gzXSljKFtjSF0xKU9bQ0gyXVtDSDJdbihjKG4yKVtDSDJdW05IXVtDSF09TyljKGMyMylbY0hdW2NIXVtjSF1bY0hdMw==

> <s_epik_cmdline>
J2VwaWtfcHl0aG9uJywgJy1waCcsICc3LjAnLCAnLXRuJywgJzgnLCAnLW1hJywgJzIwMCcsICctbWV0YWxfYmluZGluZycsICctaW1hZScsICc8aW5maWxlLm1hZT4nLCAnLW9tYWUnLCAnPG91dGZpbGUubWFlPic=

> <r_lp_tautomer_probability>
1

> <r_epik_Ionization_Penalty>
0.0587233

> <r_epik_Ionization_Penalty_Charging>
0

> <r_epik_Ionization_Penalty_Neutral>
0.0587233

> <r_epik_State_Penalty>
0.0508012

> <r_epik_Charging_Adjusted_Penalty>
0.0508012

> <i_epik_Tot_Q>
0

> <i_epik_Tot_abs_Q>
0

> <r_epik_Metal_State_Penalty>
0.0461886

> <b_epik_Metal_Only>
0

> <s_lp_Force_Field>
OPLS_2005

> <r_lp_Energy>
11.3216

> <b_lp_Chiralities_Consistent>
1

> <s_lp_Variant>
AV-unprocessed.smi:1852-1

> <Gold.Version>
5.8.1

> <Gold.Id.Protein>
6NUR|6NUR_protein|mol2

> <Gold.PLP.Fitness>
51.9032

> <Gold.PLP.PLP>
-51.5674

> <Gold.PLP.part.hbond>
-2.1217

> <Gold.PLP.part.metal>
0.0000

> <Gold.PLP.part.buried>
-4.4745

> <Gold.PLP.part.nonpolar>
-44.0257

> <Gold.PLP.part.repulsive>
0.3526

> <Gold.PLP.ligand.clash>
0.0000

> <Gold.PLP.ligand.torsion>
0.7835

> <Gold.PLP.Chemscore.Hbond>
0.6063

> <Gold.PLP.Chemscore.CHOScore>
0.0000

> <Gold.PLP.Chemscore.Metal>
0.0000

> <Gold.Chemscore.Hbonds>
donor molecule, donor type, donor heavy atom, donor atom, acceptor molecule, acceptor atom, score
      P1  H  7989  7998       L1    17  0.35
      P1  H 10752 10765       L1    16  0.45

> <Gold.PLP.Chemscore.Internal.Correction>
0.0839

> <Gold.Rescore>
     Score         DG    S(hbond)    S(metal)    S(lipo)     H(rot)  DE(clash)    DE(int)     intcor
     17.06     -18.11       0.82        0.00     136.66       2.38       0.13       0.92       ----

> <Gold.Chemscore.Fitness>
17.0572

> <Gold.Chemscore.DG>
-18.1064

> <Gold.Chemscore.ZeroCoef>
-5.4800

> <Gold.Chemscore.Hbond>
0.8165

> <Gold.Chemscore.Metal>
0.0000

> <Gold.Chemscore.Lipo>
136.6646

> <Gold.Chemscore.Internal_Hbond>
0.0000

> <Gold.Chemscore.DEClash>
0.1321

> <Gold.Chemscore.DEInternal>
0.9172

> <Gold.Chemscore.Rot>
2.3791

> <Gold.Chemscore.Internal.Correction>
   9.000000E+99

> <Gold.Chemscore.Hbonds>
donor molecule, donor type, donor heavy atom, donor atom, acceptor molecule, acceptor atom, score
      P1  H 10752 10765       L1    16  0.35

> <Gold.Chemscore.Hbond.Weighted>
-2.7273

> <Gold.Chemscore.Metal.Weighted>
-0.0000

> <Gold.Chemscore.Lipo.Weighted>
-15.9898

> <Gold.Chemscore.Internal_Hbond.Weighted>
0.0000

> <Gold.Chemscore.DEClash.Weighted>
0.1321

> <Gold.Chemscore.DEInternal.Weighted>
0.9172

> <Gold.Chemscore.Rot.Weighted>
6.0906

> <Gold.Chemscore.Internal.Correction.Weighted>
   9.000000E+99

> <Gold.Protein.RotatedTorsions>
[ 6907 6896 6895 6894 ] final  -18.25 input  -60.11 | X-H torsion
[ 7974 7965 7964 7962 ] final  -53.74 input  175.53 | X-H torsion
[ 8008 7997 7996 7995 ] final   28.79 input   59.86 | X-H torsion
[ 10167 10162 10161 10158 ] final -179.81 input  -65.29 | X-H torsion
[ 10718 10713 10712 10709 ] final  -87.93 input   66.30 | X-H torsion
[ 10763 10752 10751 10750 ] final  -82.24 input  -60.55 | X-H torsion
[ 11005 11000 10999 10996 ] final -159.69 input  -57.11 | X-H torsion

> <Gold.Protein.ActiveResidues>
 VAL166  LYS551  ARG553  GLY616  TRP617  ASP618  TYR619  PRO620  LYS621  CYS622 
 ASP623  PHE694  ASN695  SER759  ASP760  ASP761  ALA762  ILE779  LEU786  VAL792 
 PHE793  MET794  SER795  GLU796  ALA797  LYS798  CYS799  TRP800  GLU811  SER814 

> <Gold.Protein.RotatedAtoms>
  151.2810  135.0713  159.9168 H   0  0  0  0  0  0  0  0  0  0  0  0  # atno 6907 bound_to 6896
  152.5334  134.0031  159.7914 H   0  0  0  0  0  0  0  0  0  0  0  0  # atno 6908 bound_to 6896
  151.0285  133.5761  159.2694 H   0  0  0  0  0  0  0  0  0  0  0  0  # atno 6909 bound_to 6896
  145.8934  140.8052  142.9780 H   0  0  0  0  0  0  0  0  0  0  0  0  # atno 7974 bound_to 7965
  155.0642  140.3193  155.4651 H   0  0  0  0  0  0  0  0  0  0  0  0  # atno 8008 bound_to 7997
  156.2806  140.2123  156.5714 H   0  0  0  0  0  0  0  0  0  0  0  0  # atno 8009 bound_to 7997
  154.7107  140.0498  157.0535 H   0  0  0  0  0  0  0  0  0  0  0  0  # atno 8010 bound_to 7997
  139.5370  144.2470  152.0814 H   0  0  0  0  0  0  0  0  0  0  0  0  # atno 10167 bound_to 10162
  155.9984  130.4817  150.4941 H   0  0  0  0  0  0  0  0  0  0  0  0  # atno 10718 bound_to 10713
  154.5733  135.5598  153.7115 H   0  0  0  0  0  0  0  0  0  0  0  0  # atno 10763 bound_to 10752
  153.0056  135.6302  154.2084 H   0  0  0  0  0  0  0  0  0  0  0  0  # atno 10764 bound_to 10752
  154.2024  135.2877  155.2966 H   0  0  0  0  0  0  0  0  0  0  0  0  # atno 10765 bound_to 10752
  140.6398  134.4563  157.5233 H   0  0  0  0  0  0  0  0  0  0  0  0  # atno 11005 bound_to 11000
  144.6731  140.1565  143.7426 LP  0  0  0  0  0  0  0  0  0  0  0  0  # atno 17320 bound_to 7965
  145.8880  139.2360  143.1566 LP  0  0  0  0  0  0  0  0  0  0  0  0  # atno 17321 bound_to 7965
  140.1943  144.4721  150.6463 LP  0  0  0  0  0  0  0  0  0  0  0  0  # atno 17342 bound_to 10162
  140.6581  143.2243  151.5921 LP  0  0  0  0  0  0  0  0  0  0  0  0  # atno 17343 bound_to 10162
  157.2933  131.0630  151.2119 LP  0  0  0  0  0  0  0  0  0  0  0  0  # atno 17370 bound_to 10713
  157.3124  130.6896  149.6223 LP  0  0  0  0  0  0  0  0  0  0  0  0  # atno 17371 bound_to 10713
  139.9084  134.8397  156.1617 LP  0  0  0  0  0  0  0  0  0  0  0  0  # atno 17394 bound_to 11000
  141.0615  133.6839  156.1962 LP  0  0  0  0  0  0  0  0  0  0  0  0  # atno 17395 bound_to 11000

$$$$
