AV-unprocessed.smi:713|AV-procd|sdf|3476|dock1
  -GOLD-   22720 0463D 1   1.00000     0.00000
 Structure written by MMmdl.
 41 42  0  0  0  0  0  0  0  0  1 V2000
  145.6305  132.4058  150.2870 C   0  0  0  0  0  0  0  0  0  0  0  0
  146.2566  133.4489  151.2352 C   0  0  2  0  0  0  0  0  0  0  0  0
  146.8720  132.8168  152.4932 C   0  0  0  0  0  0  0  0  0  0  0  0
  146.5293  131.6943  152.8672 O   0  0  0  0  0  0  0  0  0  0  0  0
  147.7791  133.5613  153.1455 N   0  0  0  0  0  0  0  0  0  0  0  0
  148.4498  133.1806  154.3840 C   0  0  1  0  0  0  0  0  0  0  0  0
  149.2304  131.8722  154.1660 C   0  0  0  0  0  0  0  0  0  0  0  0
  150.0077  131.4693  155.4281 C   0  0  0  0  0  0  0  0  0  0  0  0
  150.9463  132.5958  155.8857 C   0  0  0  0  0  0  0  0  0  0  0  0
  150.1764  133.9085  156.1173 C   0  0  1  0  0  0  0  0  0  0  0  0
  151.3545  135.2416  156.6271 S   0  0  0  0  0  0  0  0  0  0  0  0
  151.2249  136.4509  155.2455 C   0  0  0  0  0  0  0  0  0  0  0  0
  150.8330  135.8744  157.8481 O   0  0  0  0  0  0  0  0  0  0  0  0
  152.7186  134.6916  156.6215 O   0  0  0  0  0  0  0  0  0  0  0  0
  149.3891  134.3103  154.8542 C   0  0  0  0  0  0  0  0  0  0  0  0
  145.3112  134.4945  151.6100 N   0  0  0  0  0  0  0  0  0  0  0  0
  144.1800  134.3735  152.3916 C   0  0  0  0  0  0  0  0  0  0  0  0
  143.5786  135.5984  152.4374 C   0  0  0  0  0  0  0  0  0  0  0  0
  144.4179  136.4170  151.6323 C   0  0  0  0  0  0  0  0  0  0  0  0
  145.4471  135.7538  151.1321 N   0  0  0  0  0  0  0  0  0  0  0  0
  146.3686  131.6661  149.9753 H   0  0  0  0  0  0  0  0  0  0  0  0
  145.2474  132.8832  149.3847 H   0  0  0  0  0  0  0  0  0  0  0  0
  144.8030  131.8695  150.7533 H   0  0  0  0  0  0  0  0  0  0  0  0
  147.0667  133.9325  150.6868 H   0  0  0  0  0  0  0  0  0  0  0  0
  148.0029  134.4709  152.7691 H   0  0  0  0  0  0  0  0  0  0  0  0
  147.6983  133.0016  155.1555 H   0  0  0  0  0  0  0  0  0  0  0  0
  148.5463  131.0704  153.8851 H   0  0  0  0  0  0  0  0  0  0  0  0
  149.9281  131.9902  153.3354 H   0  0  0  0  0  0  0  0  0  0  0  0
  149.3072  131.2289  156.2289 H   0  0  0  0  0  0  0  0  0  0  0  0
  150.5818  130.5623  155.2371 H   0  0  0  0  0  0  0  0  0  0  0  0
  151.4593  132.2957  156.7997 H   0  0  0  0  0  0  0  0  0  0  0  0
  151.7215  132.7516  155.1342 H   0  0  0  0  0  0  0  0  0  0  0  0
  149.4800  133.7676  156.9447 H   0  0  0  0  0  0  0  0  0  0  0  0
  151.8066  137.3390  155.4908 H   0  0  0  0  0  0  0  0  0  0  0  0
  150.1820  136.7321  155.1011 H   0  0  0  0  0  0  0  0  0  0  0  0
  151.6179  136.0140  154.3284 H   0  0  0  0  0  0  0  0  0  0  0  0
  150.0850  134.5627  154.0527 H   0  0  0  0  0  0  0  0  0  0  0  0
  148.8050  135.2092  155.0491 H   0  0  0  0  0  0  0  0  0  0  0  0
  143.8993  133.4342  152.8448 H   0  0  0  0  0  0  0  0  0  0  0  0
  142.6737  135.8678  152.9614 H   0  0  0  0  0  0  0  0  0  0  0  0
  144.3083  137.4649  151.3942 H   0  0  0  0  0  0  0  0  0  0  0  0
  1  2  1  0  0  0  0
  1 21  1  0  0  0  0
  1 22  1  0  0  0  0
  1 23  1  0  0  0  0
  2  3  1  0  0  0  0
  2 16  1  0  0  0  0
  2 24  1  0  0  0  0
  3  4  2  0  0  0  0
  3  5  1  0  0  0  0
  5  6  1  0  0  0  0
  5 25  1  0  0  0  0
  6 15  1  0  0  0  0
  6  7  1  0  0  0  0
  6 26  1  0  0  0  0
  7  8  1  0  0  0  0
  7 27  1  0  0  0  0
  7 28  1  0  0  0  0
  8  9  1  0  0  0  0
  8 29  1  0  0  0  0
  8 30  1  0  0  0  0
  9 10  1  0  0  0  0
  9 31  1  0  0  0  0
  9 32  1  0  0  0  0
 10 11  1  0  0  0  0
 10 15  1  0  0  0  0
 10 33  1  0  0  0  0
 11 12  1  0  0  0  0
 11 13  2  0  0  0  0
 11 14  2  0  0  0  0
 12 34  1  0  0  0  0
 12 35  1  0  0  0  0
 12 36  1  0  0  0  0
 15 37  1  0  0  0  0
 15 38  1  0  0  0  0
 16 20  1  0  0  0  0
 16 17  1  0  0  0  0
 17 18  2  0  0  0  0
 17 39  1  0  0  0  0
 18 19  1  0  0  0  0
 18 40  1  0  0  0  0
 19 20  2  0  0  0  0
 19 41  1  0  0  0  0
M  END
> <s_m_source_file>
AV-unprocessed.smi

> <i_m_source_file_index>
713

> <i_lp_mmshare_version>
43012

> <i_f3d_flags>
0

> <s_epik_input>
bjFbY0hdW2NIXVtjSF1uMVtDQEhdKFtDSDNdKUMoPU8pW05IXVtDQEBIXTJbQ0gyXVtDSDJdW0NIMl1bQ0BIXShbQ0gyXTIpUyg9TykoPU8pW0NIM10=

> <s_epik_cmdline>
J2VwaWtfcHl0aG9uJywgJy1waCcsICc3LjAnLCAnLXRuJywgJzgnLCAnLW1hJywgJzIwMCcsICctbWV0YWxfYmluZGluZycsICctaW1hZScsICc8aW5maWxlLm1hZT4nLCAnLW9tYWUnLCAnPG91dGZpbGUubWFlPic=

> <r_lp_tautomer_probability>
1

> <r_epik_Ionization_Penalty>
4.07816e-05

> <r_epik_Ionization_Penalty_Charging>
0

> <r_epik_Ionization_Penalty_Neutral>
4.07816e-05

> <r_epik_State_Penalty>
-0

> <r_epik_Charging_Adjusted_Penalty>
0

> <i_epik_Tot_Q>
0

> <i_epik_Tot_abs_Q>
0

> <r_epik_Metal_State_Penalty>
-0

> <b_epik_Metal_Only>
0

> <s_lp_Force_Field>
OPLS_2005

> <r_lp_Energy>
6.63175

> <b_lp_Chiralities_Consistent>
1

> <s_lp_Variant>
AV-unprocessed.smi:713-3

> <Gold.Version>
5.8.1

> <Gold.Id.Protein>
6NUR|6NUR_protein|mol2

> <Gold.PLP.Fitness>
43.9451

> <Gold.PLP.PLP>
-33.1075

> <Gold.PLP.part.hbond>
-2.7193

> <Gold.PLP.part.metal>
0.0000

> <Gold.PLP.part.buried>
-5.6359

> <Gold.PLP.part.nonpolar>
-25.4786

> <Gold.PLP.part.repulsive>
0.3443

> <Gold.PLP.ligand.clash>
0.0000

> <Gold.PLP.ligand.torsion>
0.6862

> <Gold.PLP.Chemscore.Hbond>
2.4018

> <Gold.PLP.Chemscore.CHOScore>
1.5755

> <Gold.PLP.Chemscore.Metal>
0.0000

> <Gold.Chemscore.Hbonds>
donor molecule, donor type, donor heavy atom, donor atom, acceptor molecule, acceptor atom, score
      L1  H     5    25       P1  7948  0.68
      P1  H  6896  6908       L1    13  0.43
      P1  H 10752 10765       L1    14  0.83
      L1  C    17    39       P1 10957  0.24
      L1  C    19    41       P1 10171  0.89

> <Gold.PLP.Chemscore.Internal.Correction>
0.2784

> <Gold.Rescore>
     Score         DG    S(hbond)    S(metal)    S(lipo)     H(rot)  DE(clash)    DE(int)     intcor
     16.11     -16.74       2.45        0.00      63.96       1.72       0.06       0.57       ----

> <Gold.Chemscore.Fitness>
16.1118

> <Gold.Chemscore.DG>
-16.7371

> <Gold.Chemscore.ZeroCoef>
-5.4800

> <Gold.Chemscore.Hbond>
2.4521

> <Gold.Chemscore.Metal>
0.0000

> <Gold.Chemscore.Lipo>
63.9559

> <Gold.Chemscore.Internal_Hbond>
0.0000

> <Gold.Chemscore.DEClash>
0.0560

> <Gold.Chemscore.DEInternal>
0.5693

> <Gold.Chemscore.Rot>
1.7249

> <Gold.Chemscore.Internal.Correction>
   9.000000E+99

> <Gold.Chemscore.Hbonds>
donor molecule, donor type, donor heavy atom, donor atom, acceptor molecule, acceptor atom, score
      L1  H     5    25       P1  7948  0.38
      P1  H  6896  6908       L1    13  0.41
      P1  H 10752 10765       L1    14  0.29

> <Gold.Chemscore.Hbond.Weighted>
-8.1900

> <Gold.Chemscore.Metal.Weighted>
-0.0000

> <Gold.Chemscore.Lipo.Weighted>
-7.4828

> <Gold.Chemscore.Internal_Hbond.Weighted>
0.0000

> <Gold.Chemscore.DEClash.Weighted>
0.0560

> <Gold.Chemscore.DEInternal.Weighted>
0.5693

> <Gold.Chemscore.Rot.Weighted>
4.4157

> <Gold.Chemscore.Internal.Correction.Weighted>
   9.000000E+99

> <Gold.Protein.RotatedTorsions>
[ 6907 6896 6895 6894 ] final -176.66 input  -60.11 | X-H torsion
[ 7974 7965 7964 7962 ] final  -96.50 input  175.53 | X-H torsion
[ 8008 7997 7996 7995 ] final  -16.86 input   59.86 | X-H torsion
[ 10167 10162 10161 10158 ] final  153.49 input  -65.29 | X-H torsion
[ 10718 10713 10712 10709 ] final  -63.09 input   66.30 | X-H torsion
[ 10763 10752 10751 10750 ] final -134.80 input  -60.55 | X-H torsion
[ 11005 11000 10999 10996 ] final  -56.23 input  -57.11 | X-H torsion

> <Gold.Protein.ActiveResidues>
 VAL166  LYS551  ARG553  GLY616  TRP617  ASP618  TYR619  PRO620  LYS621  CYS622 
 ASP623  PHE694  ASN695  SER759  ASP760  ASP761  ALA762  ILE779  LEU786  VAL792 
 PHE793  MET794  SER795  GLU796  ALA797  LYS798  CYS799  TRP800  GLU811  SER814 

> <Gold.Protein.RotatedAtoms>
  151.6084  133.3349  159.3061 H   0  0  0  0  0  0  0  0  0  0  0  0  # atno 6907 bound_to 6896
  150.8170  134.7360  159.6750 H   0  0  0  0  0  0  0  0  0  0  0  0  # atno 6908 bound_to 6896
  152.4265  134.5863  160.0013 H   0  0  0  0  0  0  0  0  0  0  0  0  # atno 6909 bound_to 6896
  145.3460  140.9468  143.2581 H   0  0  0  0  0  0  0  0  0  0  0  0  # atno 7974 bound_to 7965
  154.5021  140.2158  155.9324 H   0  0  0  0  0  0  0  0  0  0  0  0  # atno 8008 bound_to 7997
  156.1448  140.3173  155.8519 H   0  0  0  0  0  0  0  0  0  0  0  0  # atno 8009 bound_to 7997
  155.4052  140.0487  157.3025 H   0  0  0  0  0  0  0  0  0  0  0  0  # atno 8010 bound_to 7997
  139.4827  144.5269  151.7787 H   0  0  0  0  0  0  0  0  0  0  0  0  # atno 10167 bound_to 10162
  156.0813  130.4216  150.1227 H   0  0  0  0  0  0  0  0  0  0  0  0  # atno 10718 bound_to 10713
  154.8713  135.3723  154.4795 H   0  0  0  0  0  0  0  0  0  0  0  0  # atno 10763 bound_to 10752
  153.5449  135.7026  153.5624 H   0  0  0  0  0  0  0  0  0  0  0  0  # atno 10764 bound_to 10752
  153.3769  135.4007  155.1793 H   0  0  0  0  0  0  0  0  0  0  0  0  # atno 10765 bound_to 10752
  141.1110  133.6610  156.4588 H   0  0  0  0  0  0  0  0  0  0  0  0  # atno 11005 bound_to 11000
  144.8754  139.4979  143.6748 LP  0  0  0  0  0  0  0  0  0  0  0  0  # atno 17320 bound_to 7965
  146.2988  139.7360  142.9107 LP  0  0  0  0  0  0  0  0  0  0  0  0  # atno 17321 bound_to 7965
  140.4790  144.1477  150.5929 LP  0  0  0  0  0  0  0  0  0  0  0  0  # atno 17342 bound_to 10162
  140.4299  143.2573  151.9609 LP  0  0  0  0  0  0  0  0  0  0  0  0  # atno 17343 bound_to 10162
  156.9258  130.9698  151.3541 LP  0  0  0  0  0  0  0  0  0  0  0  0  # atno 17370 bound_to 10713
  157.5931  130.8458  149.8688 LP  0  0  0  0  0  0  0  0  0  0  0  0  # atno 17371 bound_to 10713
  140.4774  134.6696  157.5156 LP  0  0  0  0  0  0  0  0  0  0  0  0  # atno 17394 bound_to 11000
  140.0004  134.6845  155.9539 LP  0  0  0  0  0  0  0  0  0  0  0  0  # atno 17395 bound_to 11000

$$$$
