AV-unprocessed.smi:1047|AV-procd|sdf|4574|dock3
  -GOLD-   22720 3 33D 1   1.00000     0.00000
 Structure written by MMmdl.
 56 58  0  0  0  0  0  0  0  0  2 V2000
  143.9397  136.6494  152.4114 C   0  0  0  0  0  0  0  0  0  0  0  0
  143.7361  137.2042  153.8280 C   0  0  0  0  0  0  0  0  0  0  0  0
  144.4610  138.4841  154.0461 N   0  3  1  0  0  0  0  0  0  0  0  0
  144.1879  139.1387  155.3510 C   0  0  0  0  0  0  0  0  0  0  0  0
  144.9682  138.4635  156.4945 C   0  0  0  0  0  0  0  0  0  0  0  0
  146.3550  138.4418  156.1793 O   0  0  0  0  0  0  0  0  0  0  0  0
  146.6363  137.6973  154.9977 C   0  0  2  0  0  0  0  0  0  0  0  0
  148.1599  137.6700  154.8076 C   0  0  0  0  0  0  0  0  0  0  0  0
  148.7826  138.8360  155.4249 N   0  0  0  0  0  0  0  0  0  0  0  0
  148.9632  139.9552  154.5051 C   0  0  0  0  0  0  0  0  0  0  0  0
  149.0490  141.2919  155.2678 C   0  0  2  0  0  0  0  0  0  0  0  0
  148.4210  142.2938  154.4942 O   0  0  0  0  0  0  0  0  0  0  0  0
  150.4932  141.7619  155.5301 C   0  0  0  0  0  0  0  0  0  0  0  0
  151.0100  141.3111  156.8095 N   0  0  0  0  0  0  0  0  0  0  0  0
  151.1984  140.0366  157.2022 C   0  0  0  0  0  0  0  0  0  0  0  0
  151.6788  139.8412  158.4267 N   0  0  0  0  0  0  0  0  0  0  0  0
  151.8121  141.1410  158.8843 C   0  0  0  0  0  0  0  0  0  0  0  0
  152.2701  141.6325  160.1264 C   0  0  0  0  0  0  0  0  0  0  0  0
  152.3213  143.0213  160.3820 C   0  0  0  0  0  0  0  0  0  0  0  0
  152.8149  143.5060  161.7339 C   0  0  0  0  0  0  0  0  0  0  0  0
  151.9133  143.9428  159.3843 C   0  0  0  0  0  0  0  0  0  0  0  0
  151.9625  145.4395  159.6350 C   0  0  0  0  0  0  0  0  0  0  0  0
  151.4533  143.4690  158.1380 C   0  0  0  0  0  0  0  0  0  0  0  0
  151.4029  142.0844  157.8968 C   0  0  0  0  0  0  0  0  0  0  0  0
  145.9233  138.3838  153.8135 C   0  0  0  0  0  0  0  0  0  0  0  0
  143.4867  135.6622  152.3189 H   0  0  0  0  0  0  0  0  0  0  0  0
  144.9997  136.5482  152.1762 H   0  0  0  0  0  0  0  0  0  0  0  0
  143.4842  137.2844  151.6524 H   0  0  0  0  0  0  0  0  0  0  0  0
  142.6733  137.3154  154.0431 H   0  0  0  0  0  0  0  0  0  0  0  0
  144.1135  136.4597  154.5300 H   0  0  0  0  0  0  0  0  0  0  0  0
  144.4986  140.1816  155.2767 H   0  0  0  0  0  0  0  0  0  0  0  0
  143.1214  139.1571  155.5713 H   0  0  0  0  0  0  0  0  0  0  0  0
  144.8290  139.0214  157.4205 H   0  0  0  0  0  0  0  0  0  0  0  0
  144.6085  137.4513  156.6826 H   0  0  0  0  0  0  0  0  0  0  0  0
  146.2707  136.6742  155.1048 H   0  0  0  0  0  0  0  0  0  0  0  0
  148.5671  136.7645  155.2592 H   0  0  0  0  0  0  0  0  0  0  0  0
  148.4000  137.6235  153.7445 H   0  0  0  0  0  0  0  0  0  0  0  0
  148.2237  139.1372  156.2169 H   0  0  0  0  0  0  0  0  0  0  0  0
  149.8801  139.7929  153.9384 H   0  0  0  0  0  0  0  0  0  0  0  0
  148.1530  139.9908  153.7752 H   0  0  0  0  0  0  0  0  0  0  0  0
  148.5266  141.2101  156.2224 H   0  0  0  0  0  0  0  0  0  0  0  0
  148.8482  143.1184  154.6677 H   0  0  0  0  0  0  0  0  0  0  0  0
  151.1567  141.4065  154.7408 H   0  0  0  0  0  0  0  0  0  0  0  0
  150.5448  142.8514  155.5105 H   0  0  0  0  0  0  0  0  0  0  0  0
  150.9707  139.2053  156.5508 H   0  0  0  0  0  0  0  0  0  0  0  0
  152.5807  140.9300  160.8858 H   0  0  0  0  0  0  0  0  0  0  0  0
  152.0354  144.0724  162.2445 H   0  0  0  0  0  0  0  0  0  0  0  0
  153.6888  144.1472  161.6150 H   0  0  0  0  0  0  0  0  0  0  0  0
  153.0977  142.6722  162.3772 H   0  0  0  0  0  0  0  0  0  0  0  0
  151.6146  145.9999  158.7668 H   0  0  0  0  0  0  0  0  0  0  0  0
  152.9828  145.7571  159.8512 H   0  0  0  0  0  0  0  0  0  0  0  0
  151.3295  145.7064  160.4814 H   0  0  0  0  0  0  0  0  0  0  0  0
  151.1396  144.1611  157.3706 H   0  0  0  0  0  0  0  0  0  0  0  0
  146.1242  137.8574  152.8794 H   0  0  0  0  0  0  0  0  0  0  0  0
  146.3188  139.3925  153.6858 H   0  0  0  0  0  0  0  0  0  0  0  0
  144.1112  139.1079  153.3325 H   0  0  0  0  0  0  0  0  0  0  0  0
  1  2  1  0  0  0  0
  1 26  1  0  0  0  0
  1 27  1  0  0  0  0
  1 28  1  0  0  0  0
  2  3  1  0  0  0  0
  2 29  1  0  0  0  0
  2 30  1  0  0  0  0
  3 25  1  0  0  0  0
  3  4  1  0  0  0  0
  3 56  1  0  0  0  0
  4  5  1  0  0  0  0
  4 31  1  0  0  0  0
  4 32  1  0  0  0  0
  5  6  1  0  0  0  0
  5 33  1  0  0  0  0
  5 34  1  0  0  0  0
  6  7  1  0  0  0  0
  7  8  1  0  0  0  0
  7 25  1  0  0  0  0
  7 35  1  0  0  0  0
  8  9  1  0  0  0  0
  8 36  1  0  0  0  0
  8 37  1  0  0  0  0
  9 10  1  0  0  0  0
  9 38  1  0  0  0  0
 10 11  1  0  0  0  0
 10 39  1  0  0  0  0
 10 40  1  0  0  0  0
 11 12  1  0  0  0  0
 11 13  1  0  0  0  0
 11 41  1  0  0  0  0
 12 42  1  0  0  0  0
 13 14  1  0  0  0  0
 13 43  1  0  0  0  0
 13 44  1  0  0  0  0
 14 24  1  0  0  0  0
 14 15  1  0  0  0  0
 15 16  2  0  0  0  0
 15 45  1  0  0  0  0
 16 17  1  0  0  0  0
 17 24  2  0  0  0  0
 17 18  1  0  0  0  0
 18 19  2  0  0  0  0
 18 46  1  0  0  0  0
 19 20  1  0  0  0  0
 19 21  1  0  0  0  0
 20 47  1  0  0  0  0
 20 48  1  0  0  0  0
 20 49  1  0  0  0  0
 21 22  1  0  0  0  0
 21 23  2  0  0  0  0
 22 50  1  0  0  0  0
 22 51  1  0  0  0  0
 22 52  1  0  0  0  0
 23 24  1  0  0  0  0
 23 53  1  0  0  0  0
 25 54  1  0  0  0  0
 25 55  1  0  0  0  0
M  CHG  1   3   1
M  END
> <s_m_source_file>
AV-unprocessed.smi

> <i_m_source_file_index>
1047

> <i_lp_mmshare_version>
43012

> <i_f3d_flags>
0

> <s_epik_input>
W0NIM11bQ0gyXU4xW0NIMl1bQ0gyXU9bQ0BIXShbQ0gyXTEpW0NIMl1bTkhdW0NIMl1bQ0BIXShbT0hdKVtDSDJdbihbY0hdbjIpYyhjMjMpW2NIXWMoW0NIM10pYyhbY0hdMylbQ0gzXQ==

> <s_epik_cmdline>
J2VwaWtfcHl0aG9uJywgJy1waCcsICc3LjAnLCAnLXRuJywgJzgnLCAnLW1hJywgJzIwMCcsICctbWV0YWxfYmluZGluZycsICctaW1hZScsICc8aW5maWxlLm1hZT4nLCAnLW9tYWUnLCAnPG91dGZpbGUubWFlPic=

> <r_epik_Ionization_Penalty>
1.19246

> <r_epik_Ionization_Penalty_Charging>
0.210041

> <r_epik_Ionization_Penalty_Neutral>
0.982415

> <r_epik_State_Penalty>
1.57595

> <r_epik_Charging_Adjusted_Penalty>
1.78599

> <i_epik_Tot_Q>
1

> <i_epik_Tot_abs_Q>
1

> <r_epik_Metal_State_Penalty>
1.46172

> <b_epik_Metal_Only>
0

> <s_lp_Force_Field>
OPLS_2005

> <r_lp_Energy>
32.9743

> <b_lp_Chiralities_Consistent>
1

> <s_lp_Variant>
AV-unprocessed.smi:1047-15

> <Gold.Version>
5.8.1

> <Gold.Id.Protein>
6NUR|6NUR_protein|mol2

> <Gold.PLP.Fitness>
48.1892

> <Gold.PLP.PLP>
-42.5386

> <Gold.PLP.part.hbond>
-2.7377

> <Gold.PLP.part.metal>
0.0000

> <Gold.PLP.part.buried>
-4.4648

> <Gold.PLP.part.nonpolar>
-34.7900

> <Gold.PLP.part.repulsive>
0.0000

> <Gold.PLP.ligand.clash>
0.0000

> <Gold.PLP.ligand.torsion>
1.6996

> <Gold.PLP.Chemscore.Hbond>
3.0000

> <Gold.PLP.Chemscore.CHOScore>
0.0000

> <Gold.PLP.Chemscore.Metal>
0.0000

> <Gold.Chemscore.Hbonds>
donor molecule, donor type, donor heavy atom, donor atom, acceptor molecule, acceptor atom, score
      L1  H     3    56       P1 10175  2.00
      L1  H    12    42       P1  8028  0.96

> <Gold.PLP.Chemscore.Internal.Correction>
0.0498

> <Gold.Rescore>
     Score         DG    S(hbond)    S(metal)    S(lipo)     H(rot)  DE(clash)    DE(int)     intcor
     17.34     -19.00       1.99        0.00     116.00       2.62       0.05       1.61       ----

> <Gold.Chemscore.Fitness>
17.3374

> <Gold.Chemscore.DG>
-18.9980

> <Gold.Chemscore.ZeroCoef>
-5.4800

> <Gold.Chemscore.Hbond>
1.9928

> <Gold.Chemscore.Metal>
0.0000

> <Gold.Chemscore.Lipo>
115.9979

> <Gold.Chemscore.Internal_Hbond>
0.0000

> <Gold.Chemscore.DEClash>
0.0514

> <Gold.Chemscore.DEInternal>
1.6092

> <Gold.Chemscore.Rot>
2.6209

> <Gold.Chemscore.Internal.Correction>
   9.000000E+99

> <Gold.Chemscore.Hbonds>
donor molecule, donor type, donor heavy atom, donor atom, acceptor molecule, acceptor atom, score
      L1  H     3    56       P1 10175  1.00
      L1  H    12    42       P1  8028  0.92

> <Gold.Chemscore.Hbond.Weighted>
-6.6558

> <Gold.Chemscore.Metal.Weighted>
-0.0000

> <Gold.Chemscore.Lipo.Weighted>
-13.5718

> <Gold.Chemscore.Internal_Hbond.Weighted>
0.0000

> <Gold.Chemscore.DEClash.Weighted>
0.0514

> <Gold.Chemscore.DEInternal.Weighted>
1.6092

> <Gold.Chemscore.Rot.Weighted>
6.7096

> <Gold.Chemscore.Internal.Correction.Weighted>
   9.000000E+99

> <Gold.Protein.RotatedTorsions>
[ 6907 6896 6895 6894 ] final   46.10 input  -60.11 | X-H torsion
[ 7974 7965 7964 7962 ] final -163.81 input  175.53 | X-H torsion
[ 8008 7997 7996 7995 ] final   -4.61 input   59.86 | X-H torsion
[ 10167 10162 10161 10158 ] final  144.60 input  -65.29 | X-H torsion
[ 10718 10713 10712 10709 ] final   59.96 input   66.30 | X-H torsion
[ 10763 10752 10751 10750 ] final -177.63 input  -60.55 | X-H torsion
[ 11005 11000 10999 10996 ] final  -20.88 input  -57.11 | X-H torsion

> <Gold.Protein.ActiveResidues>
 VAL166  LYS551  ARG553  GLY616  TRP617  ASP618  TYR619  PRO620  LYS621  CYS622 
 ASP623  PHE694  ASN695  SER759  ASP760  ASP761  ALA762  ILE779  LEU786  VAL792 
 PHE793  MET794  SER795  GLU796  ALA797  LYS798  CYS799  TRP800  GLU811  SER814 

> <Gold.Protein.RotatedAtoms>
  152.2524  134.8118  160.0443 H   0  0  0  0  0  0  0  0  0  0  0  0  # atno 6907 bound_to 6896
  151.8794  133.3487  159.3769 H   0  0  0  0  0  0  0  0  0  0  0  0  # atno 6908 bound_to 6896
  150.7088  134.4960  159.5583 H   0  0  0  0  0  0  0  0  0  0  0  0  # atno 6909 bound_to 6896
  144.7315  140.3053  143.6197 H   0  0  0  0  0  0  0  0  0  0  0  0  # atno 7974 bound_to 7965
  154.6125  140.2479  155.7651 H   0  0  0  0  0  0  0  0  0  0  0  0  # atno 8008 bound_to 7997
  156.2379  140.2943  156.0312 H   0  0  0  0  0  0  0  0  0  0  0  0  # atno 8009 bound_to 7997
  155.2029  140.0395  157.2911 H   0  0  0  0  0  0  0  0  0  0  0  0  # atno 8010 bound_to 7997
  139.4943  144.5961  151.6581 H   0  0  0  0  0  0  0  0  0  0  0  0  # atno 10167 bound_to 10162
  157.5716  130.8912  149.9277 H   0  0  0  0  0  0  0  0  0  0  0  0  # atno 10718 bound_to 10713
  154.5578  135.2818  155.0948 H   0  0  0  0  0  0  0  0  0  0  0  0  # atno 10763 bound_to 10752
  154.2369  135.6364  153.5197 H   0  0  0  0  0  0  0  0  0  0  0  0  # atno 10764 bound_to 10752
  153.0020  135.5550  154.6163 H   0  0  0  0  0  0  0  0  0  0  0  0  # atno 10765 bound_to 10752
  140.8507  133.7859  155.9963 H   0  0  0  0  0  0  0  0  0  0  0  0  # atno 11005 bound_to 11000
  145.7719  139.1860  143.2207 LP  0  0  0  0  0  0  0  0  0  0  0  0  # atno 17320 bound_to 7965
  146.0904  140.7663  142.9598 LP  0  0  0  0  0  0  0  0  0  0  0  0  # atno 17321 bound_to 7965
  140.5599  144.0286  150.6165 LP  0  0  0  0  0  0  0  0  0  0  0  0  # atno 17342 bound_to 10162
  140.3369  143.3043  152.0629 LP  0  0  0  0  0  0  0  0  0  0  0  0  # atno 17343 bound_to 10162
  156.0762  130.3678  150.0673 LP  0  0  0  0  0  0  0  0  0  0  0  0  # atno 17370 bound_to 10713
  156.8825  130.9561  151.3598 LP  0  0  0  0  0  0  0  0  0  0  0  0  # atno 17371 bound_to 10713
  140.8793  134.2630  157.5152 LP  0  0  0  0  0  0  0  0  0  0  0  0  # atno 17394 bound_to 11000
  139.8704  134.9607  156.4373 LP  0  0  0  0  0  0  0  0  0  0  0  0  # atno 17395 bound_to 11000

$$$$
