AV-unprocessed.smi:1352|AV-procd|sdf|5529|dock3
  -GOLD-   22720 5113D 1   1.00000     0.00000
 Structure written by MMmdl.
 47 48  0  0  0  0  0  0  0  0  2 V2000
  144.6578  132.3005  149.5753 C   0  0  0  0  0  0  0  0  0  0  0  0
  145.1681  132.7322  150.9573 C   0  0  1  0  0  0  0  0  0  0  0  0
  145.7177  131.5331  151.7503 C   0  0  0  0  0  0  0  0  0  0  0  0
  146.2729  131.9797  153.1140 C   0  0  1  0  0  0  0  0  0  0  0  0
  146.8472  130.7926  153.8999 C   0  0  0  0  0  0  0  0  0  0  0  0
  147.3289  133.0874  152.9170 C   0  0  0  0  0  0  0  0  0  0  0  0
  146.7886  134.2480  152.1613 N   0  3  2  0  0  0  0  0  0  0  0  0
  145.8896  135.1153  152.9687 C   0  0  0  0  0  0  0  0  0  0  0  0
  146.6180  135.7662  154.1602 C   0  0  0  0  0  0  0  0  0  0  0  0
  147.3571  136.9554  153.7529 N   0  0  0  0  0  0  0  0  0  0  0  0
  147.3999  138.1070  154.4398 C   0  0  0  0  0  0  0  0  0  0  0  0
  146.7868  138.2829  155.4937 O   0  0  0  0  0  0  0  0  0  0  0  0
  148.2493  139.2277  153.8229 C   0  0  0  0  0  0  0  0  0  0  0  0
  149.5881  139.3460  154.4245 N   0  0  0  0  0  0  0  0  0  0  0  0
  150.4958  138.2954  154.1830 C   0  0  0  0  0  0  0  0  0  0  0  0
  151.7411  138.3037  154.6838 C   0  0  0  0  0  0  0  0  0  0  0  0
  152.1445  139.4304  155.4917 C   0  0  0  0  0  0  0  0  0  0  0  0
  151.2855  140.4424  155.7259 C   0  0  0  0  0  0  0  0  0  0  0  0
  149.9242  140.4388  155.1777 C   0  0  0  0  0  0  0  0  0  0  0  0
  149.1344  141.3613  155.3819 O   0  0  0  0  0  0  0  0  0  0  0  0
  146.2420  133.8366  150.8389 C   0  0  0  0  0  0  0  0  0  0  0  0
  145.4612  131.8832  148.9672 H   0  0  0  0  0  0  0  0  0  0  0  0
  144.2336  133.1451  149.0317 H   0  0  0  0  0  0  0  0  0  0  0  0
  143.8793  131.5422  149.6636 H   0  0  0  0  0  0  0  0  0  0  0  0
  144.3119  133.1327  151.5006 H   0  0  0  0  0  0  0  0  0  0  0  0
  144.9308  130.7915  151.8940 H   0  0  0  0  0  0  0  0  0  0  0  0
  146.5048  131.0415  151.1765 H   0  0  0  0  0  0  0  0  0  0  0  0
  145.4486  132.3868  153.7010 H   0  0  0  0  0  0  0  0  0  0  0  0
  147.6814  130.3315  153.3701 H   0  0  0  0  0  0  0  0  0  0  0  0
  146.0899  130.0245  154.0602 H   0  0  0  0  0  0  0  0  0  0  0  0
  147.2081  131.1075  154.8796 H   0  0  0  0  0  0  0  0  0  0  0  0
  147.7259  133.4182  153.8776 H   0  0  0  0  0  0  0  0  0  0  0  0
  148.1793  132.6866  152.3634 H   0  0  0  0  0  0  0  0  0  0  0  0
  145.4201  135.8757  152.3452 H   0  0  0  0  0  0  0  0  0  0  0  0
  145.0760  134.5036  153.3598 H   0  0  0  0  0  0  0  0  0  0  0  0
  145.9086  136.0217  154.9493 H   0  0  0  0  0  0  0  0  0  0  0  0
  147.3369  135.0764  154.6004 H   0  0  0  0  0  0  0  0  0  0  0  0
  147.8874  136.8948  152.8954 H   0  0  0  0  0  0  0  0  0  0  0  0
  148.3371  139.0651  152.7469 H   0  0  0  0  0  0  0  0  0  0  0  0
  147.7000  140.1645  153.9257 H   0  0  0  0  0  0  0  0  0  0  0  0
  150.1193  137.4933  153.5648 H   0  0  0  0  0  0  0  0  0  0  0  0
  152.4245  137.4910  154.4853 H   0  0  0  0  0  0  0  0  0  0  0  0
  153.1399  139.4629  155.9092 H   0  0  0  0  0  0  0  0  0  0  0  0
  151.6051  141.2776  156.3319 H   0  0  0  0  0  0  0  0  0  0  0  0
  147.0726  133.4680  150.2354 H   0  0  0  0  0  0  0  0  0  0  0  0
  145.8456  134.6973  150.3016 H   0  0  0  0  0  0  0  0  0  0  0  0
  147.5911  134.8284  151.9626 H   0  0  0  0  0  0  0  0  0  0  0  0
  1  2  1  0  0  0  0
  1 22  1  0  0  0  0
  1 23  1  0  0  0  0
  1 24  1  0  0  0  0
  2 21  1  0  0  0  0
  2  3  1  0  0  0  0
  2 25  1  0  0  0  0
  3  4  1  0  0  0  0
  3 26  1  0  0  0  0
  3 27  1  0  0  0  0
  4  5  1  0  0  0  0
  4  6  1  0  0  0  0
  4 28  1  0  0  0  0
  5 29  1  0  0  0  0
  5 30  1  0  0  0  0
  5 31  1  0  0  0  0
  6  7  1  0  0  0  0
  6 32  1  0  0  0  0
  6 33  1  0  0  0  0
  7  8  1  0  0  0  0
  7 21  1  0  0  0  0
  7 47  1  0  0  0  0
  8  9  1  0  0  0  0
  8 34  1  0  0  0  0
  8 35  1  0  0  0  0
  9 10  1  0  0  0  0
  9 36  1  0  0  0  0
  9 37  1  0  0  0  0
 10 11  1  0  0  0  0
 10 38  1  0  0  0  0
 11 12  2  0  0  0  0
 11 13  1  0  0  0  0
 13 14  1  0  0  0  0
 13 39  1  0  0  0  0
 13 40  1  0  0  0  0
 14 19  1  0  0  0  0
 14 15  1  0  0  0  0
 15 16  2  0  0  0  0
 15 41  1  0  0  0  0
 16 17  1  0  0  0  0
 16 42  1  0  0  0  0
 17 18  2  0  0  0  0
 17 43  1  0  0  0  0
 18 19  1  0  0  0  0
 18 44  1  0  0  0  0
 19 20  2  0  0  0  0
 21 45  1  0  0  0  0
 21 46  1  0  0  0  0
M  CHG  1   7   1
M  END
> <s_m_source_file>
AV-unprocessed.smi

> <i_m_source_file_index>
1352

> <i_lp_mmshare_version>
43012

> <i_f3d_flags>
0

> <s_epik_input>
W0NIM11bQ0BASF0xW0NIMl1bQ0BASF0oW0NIM10pW0NIMl1OKFtDSDJdMSlbQ0gyXVtDSDJdW05IXUMoPU8pW0NIMl1uMltjSF1bY0hdW2NIXVtjSF1jMj1P

> <s_epik_cmdline>
J2VwaWtfcHl0aG9uJywgJy1waCcsICc3LjAnLCAnLXRuJywgJzgnLCAnLW1hJywgJzIwMCcsICctbWV0YWxfYmluZGluZycsICctaW1hZScsICc8aW5maWxlLm1hZT4nLCAnLW9tYWUnLCAnPG91dGZpbGUubWFlPic=

> <r_lp_tautomer_probability>
1

> <r_epik_Ionization_Penalty>
0.00156146

> <r_epik_Ionization_Penalty_Charging>
0.00156138

> <r_epik_Ionization_Penalty_Neutral>
8.12891e-08

> <r_epik_State_Penalty>
0.00104868

> <r_epik_Charging_Adjusted_Penalty>
0.00261006

> <i_epik_Tot_Q>
1

> <i_epik_Tot_abs_Q>
1

> <r_epik_Metal_State_Penalty>
-0

> <b_epik_Metal_Only>
0

> <s_lp_Force_Field>
OPLS_2005

> <r_lp_Energy>
27.4422

> <b_lp_Chiralities_Consistent>
1

> <s_lp_Variant>
AV-unprocessed.smi:1352-2

> <Gold.Version>
5.8.1

> <Gold.Id.Protein>
6NUR|6NUR_protein|mol2

> <Gold.PLP.Fitness>
49.0187

> <Gold.PLP.PLP>
-37.8976

> <Gold.PLP.part.hbond>
-1.9083

> <Gold.PLP.part.metal>
0.0000

> <Gold.PLP.part.buried>
-2.9301

> <Gold.PLP.part.nonpolar>
-32.9528

> <Gold.PLP.part.repulsive>
0.1515

> <Gold.PLP.ligand.clash>
0.0000

> <Gold.PLP.ligand.torsion>
0.6374

> <Gold.PLP.Chemscore.Hbond>
3.0000

> <Gold.PLP.Chemscore.CHOScore>
1.1139

> <Gold.PLP.Chemscore.Metal>
0.0000

> <Gold.Chemscore.Hbonds>
donor molecule, donor type, donor heavy atom, donor atom, acceptor molecule, acceptor atom, score
      L1  H     7    47       P1  7948  2.00
      L1  H    10    38       P1  7948  1.00
      L1  C    15    41       P1  7948  1.00
      L1  C    15    41       P1  7949  0.08

> <Gold.PLP.Chemscore.Internal.Correction>
0.0544

> <Gold.Rescore>
     Score         DG    S(hbond)    S(metal)    S(lipo)     H(rot)  DE(clash)    DE(int)     intcor
     16.45     -17.16       1.83        0.00      87.60       1.83       0.01       0.69       ----

> <Gold.Chemscore.Fitness>
16.4547

> <Gold.Chemscore.DG>
-17.1583

> <Gold.Chemscore.ZeroCoef>
-5.4800

> <Gold.Chemscore.Hbond>
1.8326

> <Gold.Chemscore.Metal>
0.0000

> <Gold.Chemscore.Lipo>
87.6021

> <Gold.Chemscore.Internal_Hbond>
0.0000

> <Gold.Chemscore.DEClash>
0.0144

> <Gold.Chemscore.DEInternal>
0.6892

> <Gold.Chemscore.Rot>
1.8329

> <Gold.Chemscore.Internal.Correction>
   9.000000E+99

> <Gold.Chemscore.Hbonds>
donor molecule, donor type, donor heavy atom, donor atom, acceptor molecule, acceptor atom, score
      L1  H     7    47       P1  7948  0.74
      L1  H    10    38       P1  7948  0.98

> <Gold.Chemscore.Hbond.Weighted>
-6.1210

> <Gold.Chemscore.Metal.Weighted>
-0.0000

> <Gold.Chemscore.Lipo.Weighted>
-10.2494

> <Gold.Chemscore.Internal_Hbond.Weighted>
0.0000

> <Gold.Chemscore.DEClash.Weighted>
0.0144

> <Gold.Chemscore.DEInternal.Weighted>
0.6892

> <Gold.Chemscore.Rot.Weighted>
4.6922

> <Gold.Chemscore.Internal.Correction.Weighted>
   9.000000E+99

> <Gold.Protein.RotatedTorsions>
[ 6907 6896 6895 6894 ] final   80.57 input  -60.11 | X-H torsion
[ 7974 7965 7964 7962 ] final   59.02 input  175.53 | X-H torsion
[ 8008 7997 7996 7995 ] final   77.62 input   59.86 | X-H torsion
[ 10167 10162 10161 10158 ] final -162.18 input  -65.29 | X-H torsion
[ 10718 10713 10712 10709 ] final  162.70 input   66.30 | X-H torsion
[ 10763 10752 10751 10750 ] final   33.89 input  -60.55 | X-H torsion
[ 11005 11000 10999 10996 ] final   -2.58 input  -57.11 | X-H torsion

> <Gold.Protein.ActiveResidues>
 VAL166  LYS551  ARG553  GLY616  TRP617  ASP618  TYR619  PRO620  LYS621  CYS622 
 ASP623  PHE694  ASN695  SER759  ASP760  ASP761  ALA762  ILE779  LEU786  VAL792 
 PHE793  MET794  SER795  GLU796  ALA797  LYS798  CYS799  TRP800  GLU811  SER814 

> <Gold.Protein.RotatedAtoms>
  152.5239  134.3337  159.9191 H   0  0  0  0  0  0  0  0  0  0  0  0  # atno 6907 bound_to 6896
  151.3287  133.4003  159.2668 H   0  0  0  0  0  0  0  0  0  0  0  0  # atno 6908 bound_to 6896
  150.9899  134.9253  159.7951 H   0  0  0  0  0  0  0  0  0  0  0  0  # atno 6909 bound_to 6896
  145.9118  139.3660  143.0531 H   0  0  0  0  0  0  0  0  0  0  0  0  # atno 7974 bound_to 7965
  155.8442  140.3461  155.5651 H   0  0  0  0  0  0  0  0  0  0  0  0  # atno 8008 bound_to 7997
  155.8108  140.0898  157.1924 H   0  0  0  0  0  0  0  0  0  0  0  0  # atno 8009 bound_to 7997
  154.4006  140.1448  156.3372 H   0  0  0  0  0  0  0  0  0  0  0  0  # atno 8010 bound_to 7997
  139.6411  144.0258  152.2092 H   0  0  0  0  0  0  0  0  0  0  0  0  # atno 10167 bound_to 10162
  157.1188  131.0487  151.2424 H   0  0  0  0  0  0  0  0  0  0  0  0  # atno 10718 bound_to 10713
  153.0190  135.6375  154.1583 H   0  0  0  0  0  0  0  0  0  0  0  0  # atno 10763 bound_to 10752
  154.1319  135.2840  155.3184 H   0  0  0  0  0  0  0  0  0  0  0  0  # atno 10764 bound_to 10752
  154.6188  135.5532  153.7614 H   0  0  0  0  0  0  0  0  0  0  0  0  # atno 10765 bound_to 10752
  140.6600  133.9329  155.8430 H   0  0  0  0  0  0  0  0  0  0  0  0  # atno 11005 bound_to 11000
  145.8662  140.9446  143.0674 LP  0  0  0  0  0  0  0  0  0  0  0  0  # atno 17320 bound_to 7965
  144.6744  140.0595  143.7476 LP  0  0  0  0  0  0  0  0  0  0  0  0  # atno 17321 bound_to 7965
  139.9948  144.6336  150.7782 LP  0  0  0  0  0  0  0  0  0  0  0  0  # atno 17342 bound_to 10162
  140.7491  143.2933  151.3272 LP  0  0  0  0  0  0  0  0  0  0  0  0  # atno 17343 bound_to 10162
  157.4494  130.7590  149.7138 LP  0  0  0  0  0  0  0  0  0  0  0  0  # atno 17370 bound_to 10713
  155.9833  130.4001  150.3370 LP  0  0  0  0  0  0  0  0  0  0  0  0  # atno 17371 bound_to 10713
  141.0473  134.0536  157.3828 LP  0  0  0  0  0  0  0  0  0  0  0  0  # atno 17394 bound_to 11000
  139.9016  135.0166  156.7296 LP  0  0  0  0  0  0  0  0  0  0  0  0  # atno 17395 bound_to 11000

$$$$
