#       Name:                AV-unprocessed.smi:1047
#       Creating user name   scv26
#       Creation time:       Fri Mar 27 03:01:32 2020


#       File generated by GOLD software.
#

@<TRIPOS>MOLECULE
AV-unprocessed.smi:1047
    62    64     1
SMALL
NO_CHARGES


@<TRIPOS>ATOM
      1 ****        -1.7406   5.5042  -0.0700 C.3            1 S1                 0.0000
      2 ****        -3.1106   5.0537  -0.5960 C.3            1 S1                 0.0000
      3 ****        -3.7862   4.0978   0.3215 N.4            1 S1                 1.0000
      4 ****        -5.2537   4.0222   0.1201 C.3            1 S1                 0.0000
      5 ****        -5.6023   3.1690  -1.1120 C.3            1 S1                 0.0000
      6 ****        -5.0300   1.8747  -0.9679 O.3            1 S1                 0.0000
      7 ****        -3.6085   1.9036  -0.8893 C.3            1 S1                 0.0000
      8 ****        -3.1287   0.4441  -0.8157 C.3            1 S1                 0.0000
      9 ****        -1.6604   0.3342  -0.9419 N.4            1 S1                 1.0000
     10 ****        -1.1586  -1.0546  -0.9056 C.3            1 S1                 0.0000
     11 ****         0.3768  -1.1001  -0.9756 C.3            1 S1                 0.0000
     12 ****         0.8988  -0.5448   0.2167 O.3            1 S1                 0.0000
     13 ****         0.8993  -2.5404  -1.1419 C.3            1 S1                 0.0000
     14 ****         2.3495  -2.6065  -1.1902 N.pl3          1 S1                 0.0000
     15 ****         3.1388  -2.3038  -2.2388 C.2            1 S1                 0.0000
     16 ****         4.4512  -2.4346  -2.0712 N.2            1 S1                 0.0000
     17 ****         4.5225  -2.8810  -0.7628 C.ar           1 S1                 0.0000
     18 ****         5.6408  -3.2157   0.0314 C.ar           1 S1                 0.0000
     19 ****         5.4778  -3.6572   1.3637 C.ar           1 S1                 0.0000
     20 ****         6.7087  -4.0107   2.1801 C.3            1 S1                 0.0000
     21 ****         4.1786  -3.7687   1.9211 C.ar           1 S1                 0.0000
     22 ****         3.9790  -4.2430   3.3498 C.3            1 S1                 0.0000
     23 ****         3.0504  -3.4360   1.1423 C.ar           1 S1                 0.0000
     24 ****         3.2253  -2.9997  -0.1831 C.ar           1 S1                 0.0000
     25 ****        -3.1965   2.7337   0.3500 C.3            1 S1                 0.0000
     26 ****        -1.3190   6.2761  -0.7143 H              1 S1                 0.0000
     27 ****        -1.0223   4.6858  -0.0373 H              1 S1                 0.0000
     28 ****        -1.8221   5.9229   0.9335 H              1 S1                 0.0000
     29 ****        -3.7317   5.9445  -0.6976 H              1 S1                 0.0000
     30 ****        -3.0144   4.6347  -1.5975 H              1 S1                 0.0000
     31 ****        -5.6993   3.5708   1.0076 H              1 S1                 0.0000
     32 ****        -5.6854   5.0203   0.0368 H              1 S1                 0.0000
     33 ****        -6.6839   3.0656  -1.1998 H              1 S1                 0.0000
     34 ****        -5.2537   3.6377  -2.0335 H              1 S1                 0.0000
     35 ****        -3.2155   2.3537  -1.8023 H              1 S1                 0.0000
     36 ****        -3.4537  -0.0148   0.1191 H              1 S1                 0.0000
     37 ****        -3.5855  -0.1271  -1.6252 H              1 S1                 0.0000
     38 ****        -1.3728   0.7542  -1.8143 H              1 S1                 0.0000
     39 ****        -1.5115  -1.5535  -0.0016 H              1 S1                 0.0000
     40 ****        -1.5828  -1.5945  -1.7533 H              1 S1                 0.0000
     41 ****         0.7231  -0.4973  -1.8165 H              1 S1                 0.0000
     42 ****         1.8424  -0.6070   0.1895 H              1 S1                 0.0000
     43 ****         0.5467  -3.1718  -0.3253 H              1 S1                 0.0000
     44 ****         0.5097  -2.9784  -2.0618 H              1 S1                 0.0000
     45 ****         2.7262  -1.9649  -3.1779 H              1 S1                 0.0000
     46 ****         6.6302  -3.1319  -0.3939 H              1 S1                 0.0000
     47 ****         6.7125  -5.0739   2.4202 H              1 S1                 0.0000
     48 ****         6.7285  -3.4450   3.1116 H              1 S1                 0.0000
     49 ****         7.6259  -3.7864   1.6350 H              1 S1                 0.0000
     50 ****         2.9206  -4.3264   3.5975 H              1 S1                 0.0000
     51 ****         4.4330  -3.5422   4.0505 H              1 S1                 0.0000
     52 ****         4.4337  -5.2227   3.4956 H              1 S1                 0.0000
     53 ****         2.0563  -3.5163   1.5568 H              1 S1                 0.0000
     54 ****        -2.1126   2.7816   0.4449 H              1 S1                 0.0000
     55 ****        -3.5545   2.2356   1.2522 H              1 S1                 0.0000
     56 ****        -1.2296   0.8402  -0.1807 H              1 S1                 0.0000
     57 ****        -3.6575   4.4881   1.2447 H              1 S1                 0.0000
     58 ****        -5.2949   1.3191  -1.7559 LP             1 S1                 0.0000
     59 ****        -5.3876   1.4590  -0.1316 LP             1 S1                 0.0000
     60 ****         0.5501  -1.0511   1.0054 LP             1 S1                 0.0000
     61 ****         0.6260   0.4146   0.2895 LP             1 S1                 0.0000
     62 ****         5.1916  -2.2572  -2.7194 LP             1 S1                 0.0000
@<TRIPOS>BOND
    1    1    2 1     
    2    1   26 1     
    3    1   27 1     
    4    1   28 1     
    5    2    3 1     
    6    2   29 1     
    7    2   30 1     
    8    3   25 1     
    9    3    4 1     
   10    3   57 1     
   11    4    5 1     
   12    4   31 1     
   13    4   32 1     
   14    5    6 1     
   15    5   33 1     
   16    5   34 1     
   17    6    7 1     
   18    7    8 1     
   19    7   25 1     
   20    7   35 1     
   21    8    9 1     
   22    8   36 1     
   23    8   37 1     
   24    9   10 1     
   25    9   38 1     
   26    9   56 1     
   27   10   11 1     
   28   10   39 1     
   29   10   40 1     
   30   11   12 1     
   31   11   13 1     
   32   11   41 1     
   33   12   42 1     
   34   13   14 1     
   35   13   43 1     
   36   13   44 1     
   37   14   24 1     
   38   14   15 1     
   39   15   16 2     
   40   15   45 1     
   41   16   17 1     
   42   17   24 ar    
   43   17   18 ar    
   44   18   19 ar    
   45   18   46 1     
   46   19   20 1     
   47   19   21 ar    
   48   20   47 1     
   49   20   48 1     
   50   20   49 1     
   51   21   22 1     
   52   21   23 ar    
   53   22   50 1     
   54   22   51 1     
   55   22   52 1     
   56   23   24 ar    
   57   23   53 1     
   58   25   54 1     
   59   25   55 1     
   60    6   58 1     
   61    6   59 1     
   62   12   60 1     
   63   12   61 1     
   64   16   62 1     
@<TRIPOS>SUBSTRUCTURE
      1 S1             1
@<TRIPOS>SET
LONE_PAIRS      STATIC     ATOMS    <user>   **** ""
5 58 59 60 61 62
DONOR_HYDROGENS      STATIC     ATOMS    <user>   **** ""
4 57 38 56 42
ATOM$BLUE        STATIC     ATOMS    COLORGROUP SYSTEM
5 58 59 60 61 62
ATOM$RED        STATIC     ATOMS    COLORGROUP SYSTEM
4 57 38 56 42
