AV-unprocessed.smi:2705|AV-procd|sdf|10443|dock3
  -GOLD-   2272014483D 1   1.00000     0.00000
 Structure written by MMmdl.
 36 37  0  0  0  0  0  0  0  0  1 V2000
  145.1903  134.5269  153.8985 C   0  0  0  0  0  0  0  0  0  0  0  0
  145.8893  133.9581  152.6419 C   0  0  0  0  0  0  0  0  0  0  0  0
  147.3387  133.8936  152.8763 N   0  0  0  0  0  0  0  0  0  0  0  0
  148.0168  133.1333  153.7554 C   0  0  0  0  0  0  0  0  0  0  0  0
  147.4944  132.3075  154.5027 O   0  0  0  0  0  0  0  0  0  0  0  0
  149.5273  133.3570  153.8093 C   0  0  0  0  0  0  0  0  0  0  0  0
  149.9635  133.5856  155.1744 N   0  0  0  0  0  0  0  0  0  0  0  0
  149.9179  132.8016  156.2541 C   0  0  0  0  0  0  0  0  0  0  0  0
  150.4382  133.3988  157.3151 N   0  0  0  0  0  0  0  0  0  0  0  0
  150.8208  134.6355  156.8231 N   0  0  0  0  0  0  0  0  0  0  0  0
  150.5420  134.7520  155.5537 N   0  0  0  0  0  0  0  0  0  0  0  0
  145.4065  132.4975  152.4498 C   0  0  0  0  0  0  0  0  0  0  0  0
  145.6888  131.8705  151.0722 C   0  0  0  0  0  0  0  0  0  0  0  0
  144.5399  132.1000  150.0747 C   0  0  0  0  0  0  0  0  0  0  0  0
  144.4060  133.5432  149.5657 C   0  0  0  0  0  0  0  0  0  0  0  0
  144.2765  134.6096  150.6684 C   0  0  0  0  0  0  0  0  0  0  0  0
  145.6034  134.8618  151.4075 C   0  0  0  0  0  0  0  0  0  0  0  0
  144.1066  134.5331  153.7793 H   0  0  0  0  0  0  0  0  0  0  0  0
  145.4897  135.5530  154.1116 H   0  0  0  0  0  0  0  0  0  0  0  0
  145.4171  133.9300  154.7828 H   0  0  0  0  0  0  0  0  0  0  0  0
  147.8898  134.5279  152.3165 H   0  0  0  0  0  0  0  0  0  0  0  0
  150.0489  132.4900  153.4005 H   0  0  0  0  0  0  0  0  0  0  0  0
  149.8057  134.2185  153.2007 H   0  0  0  0  0  0  0  0  0  0  0  0
  149.5130  131.8001  156.2605 H   0  0  0  0  0  0  0  0  0  0  0  0
  145.8701  131.8739  153.2162 H   0  0  0  0  0  0  0  0  0  0  0  0
  144.3375  132.4253  152.6545 H   0  0  0  0  0  0  0  0  0  0  0  0
  146.6405  132.2138  150.6648 H   0  0  0  0  0  0  0  0  0  0  0  0
  145.7955  130.7937  151.2081 H   0  0  0  0  0  0  0  0  0  0  0  0
  144.6878  131.4470  149.2142 H   0  0  0  0  0  0  0  0  0  0  0  0
  143.5976  131.7829  150.5231 H   0  0  0  0  0  0  0  0  0  0  0  0
  145.2522  133.7830  148.9209 H   0  0  0  0  0  0  0  0  0  0  0  0
  143.5260  133.5963  148.9239 H   0  0  0  0  0  0  0  0  0  0  0  0
  143.9799  135.5420  150.1870 H   0  0  0  0  0  0  0  0  0  0  0  0
  143.4711  134.3673  151.3623 H   0  0  0  0  0  0  0  0  0  0  0  0
  145.6196  135.9052  151.7255 H   0  0  0  0  0  0  0  0  0  0  0  0
  146.4186  134.7827  150.6864 H   0  0  0  0  0  0  0  0  0  0  0  0
  1  2  1  0  0  0  0
  1 18  1  0  0  0  0
  1 19  1  0  0  0  0
  1 20  1  0  0  0  0
  2 17  1  0  0  0  0
  2  3  1  0  0  0  0
  2 12  1  0  0  0  0
  3  4  1  0  0  0  0
  3 21  1  0  0  0  0
  4  5  2  0  0  0  0
  4  6  1  0  0  0  0
  6  7  1  0  0  0  0
  6 22  1  0  0  0  0
  6 23  1  0  0  0  0
  7 11  1  0  0  0  0
  7  8  1  0  0  0  0
  8  9  2  0  0  0  0
  8 24  1  0  0  0  0
  9 10  1  0  0  0  0
 10 11  2  0  0  0  0
 12 13  1  0  0  0  0
 12 25  1  0  0  0  0
 12 26  1  0  0  0  0
 13 14  1  0  0  0  0
 13 27  1  0  0  0  0
 13 28  1  0  0  0  0
 14 15  1  0  0  0  0
 14 29  1  0  0  0  0
 14 30  1  0  0  0  0
 15 16  1  0  0  0  0
 15 31  1  0  0  0  0
 15 32  1  0  0  0  0
 16 17  1  0  0  0  0
 16 33  1  0  0  0  0
 16 34  1  0  0  0  0
 17 35  1  0  0  0  0
 17 36  1  0  0  0  0
M  END
> <s_m_source_file>
AV-unprocessed.smi

> <i_m_source_file_index>
2705

> <i_lp_mmshare_version>
43012

> <i_f3d_flags>
0

> <s_epik_input>
W0NIMl0xW0NIMl1bQ0gyXVtDSDJdW0NIMl1bQ0gyXUMxKFtDSDNdKVtOSF1DKD1PKVtDSDJdbjJbY0hdbm5uMg==

> <s_epik_cmdline>
J2VwaWtfcHl0aG9uJywgJy1waCcsICc3LjAnLCAnLXRuJywgJzgnLCAnLW1hJywgJzIwMCcsICctbWV0YWxfYmluZGluZycsICctaW1hZScsICc8aW5maWxlLm1hZT4nLCAnLW9tYWUnLCAnPG91dGZpbGUubWFlPic=

> <r_lp_tautomer_probability>
1

> <r_epik_Ionization_Penalty>
4.39395e-07

> <r_epik_Ionization_Penalty_Charging>
0

> <r_epik_Ionization_Penalty_Neutral>
4.39395e-07

> <r_epik_State_Penalty>
-0

> <r_epik_Charging_Adjusted_Penalty>
0

> <i_epik_Tot_Q>
0

> <i_epik_Tot_abs_Q>
0

> <r_epik_Metal_State_Penalty>
-0

> <b_epik_Metal_Only>
0

> <s_lp_Force_Field>
OPLS_2005

> <r_lp_Energy>
20.5987

> <b_lp_Chiralities_Consistent>
1

> <s_lp_Variant>
AV-unprocessed.smi:2705-1

> <Gold.Version>
5.8.1

> <Gold.Id.Protein>
6NUR|6NUR_protein|mol2

> <Gold.PLP.Fitness>
33.0298

> <Gold.PLP.PLP>
-27.4537

> <Gold.PLP.part.hbond>
-2.3530

> <Gold.PLP.part.metal>
0.0000

> <Gold.PLP.part.buried>
-3.4909

> <Gold.PLP.part.nonpolar>
-22.0849

> <Gold.PLP.part.repulsive>
0.0975

> <Gold.PLP.ligand.clash>
0.0000

> <Gold.PLP.ligand.torsion>
0.1564

> <Gold.PLP.Chemscore.Hbond>
1.9600

> <Gold.PLP.Chemscore.CHOScore>
0.0000

> <Gold.PLP.Chemscore.Metal>
0.0000

> <Gold.Chemscore.Hbonds>
donor molecule, donor type, donor heavy atom, donor atom, acceptor molecule, acceptor atom, score
      L1  H     3    21       P1  7948  1.00
      P1  H  6896  6909       L1     9  0.98

> <Gold.PLP.Chemscore.Internal.Correction>
0.0088

> <Gold.Rescore>
     Score         DG    S(hbond)    S(metal)    S(lipo)     H(rot)  DE(clash)    DE(int)     intcor
     10.55     -12.15       1.52        0.00      55.21       1.91       0.13       1.47       ----

> <Gold.Chemscore.Fitness>
10.5527

> <Gold.Chemscore.DG>
-12.1474

> <Gold.Chemscore.ZeroCoef>
-5.4800

> <Gold.Chemscore.Hbond>
1.5229

> <Gold.Chemscore.Metal>
0.0000

> <Gold.Chemscore.Lipo>
55.2125

> <Gold.Chemscore.Internal_Hbond>
0.0000

> <Gold.Chemscore.DEClash>
0.1263

> <Gold.Chemscore.DEInternal>
1.4684

> <Gold.Chemscore.Rot>
1.9058

> <Gold.Chemscore.Internal.Correction>
   9.000000E+99

> <Gold.Chemscore.Hbonds>
donor molecule, donor type, donor heavy atom, donor atom, acceptor molecule, acceptor atom, score
      L1  H     3    21       P1  7948  0.42
      P1  H  6896  6909       L1     9  0.23

> <Gold.Chemscore.Hbond.Weighted>
-5.0864

> <Gold.Chemscore.Metal.Weighted>
-0.0000

> <Gold.Chemscore.Lipo.Weighted>
-6.4599

> <Gold.Chemscore.Internal_Hbond.Weighted>
0.0000

> <Gold.Chemscore.DEClash.Weighted>
0.1263

> <Gold.Chemscore.DEInternal.Weighted>
1.4684

> <Gold.Chemscore.Rot.Weighted>
4.8788

> <Gold.Chemscore.Internal.Correction.Weighted>
   9.000000E+99

> <Gold.Protein.RotatedTorsions>
[ 6907 6896 6895 6894 ] final  -16.22 input  -60.11 | X-H torsion
[ 7974 7965 7964 7962 ] final  114.00 input  175.53 | X-H torsion
[ 8008 7997 7996 7995 ] final   97.43 input   59.86 | X-H torsion
[ 10167 10162 10161 10158 ] final -127.99 input  -65.29 | X-H torsion
[ 10718 10713 10712 10709 ] final  -48.16 input   66.30 | X-H torsion
[ 10763 10752 10751 10750 ] final  -69.04 input  -60.55 | X-H torsion
[ 11005 11000 10999 10996 ] final  -68.68 input  -57.11 | X-H torsion

> <Gold.Protein.ActiveResidues>
 VAL166  LYS551  ARG553  GLY616  TRP617  ASP618  TYR619  PRO620  LYS621  CYS622 
 ASP623  PHE694  ASN695  SER759  ASP760  ASP761  ALA762  ILE779  LEU786  VAL792 
 PHE793  MET794  SER795  GLU796  ALA797  LYS798  CYS799  TRP800  GLU811  SER814 

> <Gold.Protein.RotatedAtoms>
  151.3119  135.0796  159.9274 H   0  0  0  0  0  0  0  0  0  0  0  0  # atno 6907 bound_to 6896
  152.5276  133.9727  159.7780 H   0  0  0  0  0  0  0  0  0  0  0  0  # atno 6908 bound_to 6896
  151.0032  133.5984  159.2722 H   0  0  0  0  0  0  0  0  0  0  0  0  # atno 6909 bound_to 6896
  145.2098  139.2911  143.4274 H   0  0  0  0  0  0  0  0  0  0  0  0  # atno 7974 bound_to 7965
  156.0900  140.3258  155.7803 H   0  0  0  0  0  0  0  0  0  0  0  0  # atno 8008 bound_to 7997
  155.5012  140.0569  157.2956 H   0  0  0  0  0  0  0  0  0  0  0  0  # atno 8009 bound_to 7997
  154.4632  140.1976  156.0204 H   0  0  0  0  0  0  0  0  0  0  0  0  # atno 8010 bound_to 7997
  139.9550  143.6013  152.2463 H   0  0  0  0  0  0  0  0  0  0  0  0  # atno 10167 bound_to 10162
  156.2015  130.4156  149.9235 H   0  0  0  0  0  0  0  0  0  0  0  0  # atno 10718 bound_to 10713
  154.3977  135.6038  153.5879 H   0  0  0  0  0  0  0  0  0  0  0  0  # atno 10763 bound_to 10752
  152.9788  135.5899  154.4222 H   0  0  0  0  0  0  0  0  0  0  0  0  # atno 10764 bound_to 10752
  154.4016  135.2843  155.2071 H   0  0  0  0  0  0  0  0  0  0  0  0  # atno 10765 bound_to 10752
  141.1537  133.6746  156.6484 H   0  0  0  0  0  0  0  0  0  0  0  0  # atno 11005 bound_to 11000
  146.3400  140.2370  142.8594 LP  0  0  0  0  0  0  0  0  0  0  0  0  # atno 17320 bound_to 7965
  144.9867  140.8509  143.5364 LP  0  0  0  0  0  0  0  0  0  0  0  0  # atno 17321 bound_to 7965
  139.6599  144.7662  151.1984 LP  0  0  0  0  0  0  0  0  0  0  0  0  # atno 17342 bound_to 10162
  140.7571  143.6027  150.8683 LP  0  0  0  0  0  0  0  0  0  0  0  0  # atno 17343 bound_to 10162
  156.6943  130.8908  151.3592 LP  0  0  0  0  0  0  0  0  0  0  0  0  # atno 17370 bound_to 10713
  157.6988  130.9310  150.0723 LP  0  0  0  0  0  0  0  0  0  0  0  0  # atno 17371 bound_to 10713
  140.3339  134.7905  157.4347 LP  0  0  0  0  0  0  0  0  0  0  0  0  # atno 17394 bound_to 11000
  140.0993  134.5494  155.8368 LP  0  0  0  0  0  0  0  0  0  0  0  0  # atno 17395 bound_to 11000

$$$$
