AV-unprocessed.smi:2749|AV-procd|sdf|10588|dock3
  -GOLD-   2272015 33D 1   1.00000     0.00000
 Structure written by MMmdl.
 32 34  0  0  0  0  0  0  0  0  1 V2000
  150.4825  140.6315  156.8588 O   0  0  0  0  0  0  0  0  0  0  0  0
  150.0709  141.7516  156.5614 C   0  0  0  0  0  0  0  0  0  0  0  0
  150.3160  142.8139  157.3588 N   0  0  0  0  0  0  0  0  0  0  0  0
  151.0160  142.9293  158.5964 C   0  0  0  0  0  0  0  0  0  0  0  0
  150.7326  144.1106  159.3198 C   0  0  0  0  0  0  0  0  0  0  0  0
  151.3670  144.3401  160.5563 C   0  0  0  0  0  0  0  0  0  0  0  0
  152.2731  143.3798  161.0391 C   0  0  0  0  0  0  0  0  0  0  0  0
  152.9078  143.5560  162.2221 F   0  0  0  0  0  0  0  0  0  0  0  0
  152.5036  142.2317  160.2600 C   0  0  0  0  0  0  0  0  0  0  0  0
  151.8952  142.0117  159.0751 N   0  0  0  0  0  0  0  0  0  0  0  0
  149.3665  141.9969  155.4449 N   0  0  0  0  0  0  0  0  0  0  0  0
  148.9781  141.0159  154.4358 C   0  0  1  0  0  0  0  0  0  0  0  0
  148.6446  139.6572  155.0603 C   0  0  0  0  0  0  0  0  0  0  0  0
  147.1878  139.4571  154.6210 C   0  0  2  0  0  0  0  0  0  0  0  0
  147.0688  139.1971  153.1120 C   0  0  0  0  0  0  0  0  0  0  0  0
  147.3612  140.5806  152.5301 C   0  0  0  0  0  0  0  0  0  0  0  0
  147.6316  141.3998  153.7989 C   0  0  1  0  0  0  0  0  0  0  0  0
  146.7156  140.7901  154.6940 O   0  0  0  0  0  0  0  0  0  0  0  0
  149.9518  143.6872  157.0069 H   0  0  0  0  0  0  0  0  0  0  0  0
  150.0341  144.8392  158.9342 H   0  0  0  0  0  0  0  0  0  0  0  0
  151.1618  145.2367  161.1223 H   0  0  0  0  0  0  0  0  0  0  0  0
  153.1934  141.4706  160.5942 H   0  0  0  0  0  0  0  0  0  0  0  0
  149.0710  142.9495  155.2823 H   0  0  0  0  0  0  0  0  0  0  0  0
  149.7450  140.9158  153.6656 H   0  0  0  0  0  0  0  0  0  0  0  0
  149.2980  138.8592  154.7060 H   0  0  0  0  0  0  0  0  0  0  0  0
  148.7110  139.6876  156.1490 H   0  0  0  0  0  0  0  0  0  0  0  0
  146.6330  138.7493  155.2374 H   0  0  0  0  0  0  0  0  0  0  0  0
  147.7683  138.4352  152.7667 H   0  0  0  0  0  0  0  0  0  0  0  0
  146.0592  138.8785  152.8503 H   0  0  0  0  0  0  0  0  0  0  0  0
  148.2065  140.5830  151.8411 H   0  0  0  0  0  0  0  0  0  0  0  0
  146.4881  140.9642  152.0010 H   0  0  0  0  0  0  0  0  0  0  0  0
  147.4860  142.4723  153.6646 H   0  0  0  0  0  0  0  0  0  0  0  0
  1  2  2  0  0  0  0
  2  3  1  0  0  0  0
  2 11  1  0  0  0  0
  3  4  1  0  0  0  0
  3 19  1  0  0  0  0
  4 10  1  0  0  0  0
  4  5  2  0  0  0  0
  5  6  1  0  0  0  0
  5 20  1  0  0  0  0
  6  7  2  0  0  0  0
  6 21  1  0  0  0  0
  7  8  1  0  0  0  0
  7  9  1  0  0  0  0
  9 10  2  0  0  0  0
  9 22  1  0  0  0  0
 11 12  1  0  0  0  0
 11 23  1  0  0  0  0
 12 17  1  0  0  0  0
 12 13  1  0  0  0  0
 12 24  1  0  0  0  0
 13 14  1  0  0  0  0
 13 25  1  0  0  0  0
 13 26  1  0  0  0  0
 14 18  1  0  0  0  0
 14 15  1  0  0  0  0
 14 27  1  0  0  0  0
 15 16  1  0  0  0  0
 15 28  1  0  0  0  0
 15 29  1  0  0  0  0
 16 17  1  0  0  0  0
 16 30  1  0  0  0  0
 16 31  1  0  0  0  0
 17 18  1  0  0  0  0
 17 32  1  0  0  0  0
M  END
> <s_m_source_file>
AV-unprocessed.smi

> <i_m_source_file_index>
2749

> <i_lp_mmshare_version>
43012

> <i_f3d_flags>
0

> <s_epik_input>
W0NIMl0xW0NIMl1bQ0BIXShPMilbQ0BASF0oW0NIMl1bQ0BASF0xMilbTkhdQyg9TylbTkhdYzNbY0hdW2NIXWMoRilbY0hdbjM=

> <s_epik_cmdline>
J2VwaWtfcHl0aG9uJywgJy1waCcsICc3LjAnLCAnLXRuJywgJzgnLCAnLW1hJywgJzIwMCcsICctbWV0YWxfYmluZGluZycsICctaW1hZScsICc8aW5maWxlLm1hZT4nLCAnLW9tYWUnLCAnPG91dGZpbGUubWFlPic=

> <r_lp_tautomer_probability>
1

> <r_epik_Ionization_Penalty>
3.37159e-05

> <r_epik_Ionization_Penalty_Charging>
0

> <r_epik_Ionization_Penalty_Neutral>
3.37159e-05

> <r_epik_State_Penalty>
-0

> <r_epik_Charging_Adjusted_Penalty>
0

> <i_epik_Tot_Q>
0

> <i_epik_Tot_abs_Q>
0

> <r_epik_Metal_State_Penalty>
-0

> <b_epik_Metal_Only>
0

> <s_lp_Force_Field>
OPLS_2005

> <r_lp_Energy>
42.1361

> <b_lp_Chiralities_Consistent>
1

> <s_lp_Variant>
AV-unprocessed.smi:2749-4

> <Gold.Version>
5.8.1

> <Gold.Id.Protein>
6NUR|6NUR_protein|mol2

> <Gold.PLP.Fitness>
38.4142

> <Gold.PLP.PLP>
-33.2459

> <Gold.PLP.part.hbond>
-2.0000

> <Gold.PLP.part.metal>
0.0000

> <Gold.PLP.part.buried>
-3.7120

> <Gold.PLP.part.nonpolar>
-27.7716

> <Gold.PLP.part.repulsive>
0.3031

> <Gold.PLP.ligand.clash>
0.0077

> <Gold.PLP.ligand.torsion>
0.4270

> <Gold.PLP.Chemscore.Hbond>
2.0000

> <Gold.PLP.Chemscore.CHOScore>
0.0000

> <Gold.PLP.Chemscore.Metal>
0.0000

> <Gold.Chemscore.Hbonds>
donor molecule, donor type, donor heavy atom, donor atom, acceptor molecule, acceptor atom, score
      L1  H     3    19       P1  8028  1.00
      L1  H    11    23       P1  8028  1.00

> <Gold.PLP.Chemscore.Internal.Correction>
0.0299

> <Gold.Rescore>
     Score         DG    S(hbond)    S(metal)    S(lipo)     H(rot)  DE(clash)    DE(int)     intcor
     15.03     -18.95       1.92        0.00      82.12       1.00       0.83       3.08       ----

> <Gold.Chemscore.Fitness>
15.0300

> <Gold.Chemscore.DG>
-18.9469

> <Gold.Chemscore.ZeroCoef>
-5.4800

> <Gold.Chemscore.Hbond>
1.9220

> <Gold.Chemscore.Metal>
0.0000

> <Gold.Chemscore.Lipo>
82.1158

> <Gold.Chemscore.Internal_Hbond>
0.0000

> <Gold.Chemscore.DEClash>
0.8327

> <Gold.Chemscore.DEInternal>
3.0842

> <Gold.Chemscore.Rot>
1.0000

> <Gold.Chemscore.Internal.Correction>
   9.000000E+99

> <Gold.Chemscore.Hbonds>
donor molecule, donor type, donor heavy atom, donor atom, acceptor molecule, acceptor atom, score
      L1  H     3    19       P1  8028  0.91
      L1  H    11    23       P1  8028  0.99

> <Gold.Chemscore.Hbond.Weighted>
-6.4194

> <Gold.Chemscore.Metal.Weighted>
-0.0000

> <Gold.Chemscore.Lipo.Weighted>
-9.6076

> <Gold.Chemscore.Internal_Hbond.Weighted>
0.0000

> <Gold.Chemscore.DEClash.Weighted>
0.8327

> <Gold.Chemscore.DEInternal.Weighted>
3.0842

> <Gold.Chemscore.Rot.Weighted>
2.5600

> <Gold.Chemscore.Internal.Correction.Weighted>
   9.000000E+99

> <Gold.Protein.RotatedTorsions>
[ 6907 6896 6895 6894 ] final -121.13 input  -60.11 | X-H torsion
[ 7974 7965 7964 7962 ] final  -96.89 input  175.53 | X-H torsion
[ 8008 7997 7996 7995 ] final  131.49 input   59.86 | X-H torsion
[ 10167 10162 10161 10158 ] final  -91.27 input  -65.29 | X-H torsion
[ 10718 10713 10712 10709 ] final  134.39 input   66.30 | X-H torsion
[ 10763 10752 10751 10750 ] final   49.72 input  -60.55 | X-H torsion
[ 11005 11000 10999 10996 ] final   57.25 input  -57.11 | X-H torsion

> <Gold.Protein.ActiveResidues>
 VAL166  LYS551  ARG553  GLY616  TRP617  ASP618  TYR619  PRO620  LYS621  CYS622 
 ASP623  PHE694  ASN695  SER759  ASP760  ASP761  ALA762  ILE779  LEU786  VAL792 
 PHE793  MET794  SER795  GLU796  ALA797  LYS798  CYS799  TRP800  GLU811  SER814 

> <Gold.Protein.RotatedAtoms>
  150.8455  133.7868  159.3044 H   0  0  0  0  0  0  0  0  0  0  0  0  # atno 6907 bound_to 6896
  151.5556  135.1065  159.9970 H   0  0  0  0  0  0  0  0  0  0  0  0  # atno 6908 bound_to 6896
  152.4510  133.7586  159.6790 H   0  0  0  0  0  0  0  0  0  0  0  0  # atno 6909 bound_to 6896
  145.3410  140.9460  143.2608 H   0  0  0  0  0  0  0  0  0  0  0  0  # atno 7974 bound_to 7965
  156.2970  140.2570  156.2935 H   0  0  0  0  0  0  0  0  0  0  0  0  # atno 8008 bound_to 7997
  154.9487  140.0394  157.2152 H   0  0  0  0  0  0  0  0  0  0  0  0  # atno 8009 bound_to 7997
  154.8057  140.2836  155.5894 H   0  0  0  0  0  0  0  0  0  0  0  0  # atno 8010 bound_to 7997
  140.3466  143.2913  151.9774 H   0  0  0  0  0  0  0  0  0  0  0  0  # atno 10167 bound_to 10162
  157.4678  131.1078  150.9841 H   0  0  0  0  0  0  0  0  0  0  0  0  # atno 10718 bound_to 10713
  152.9786  135.5902  154.4135 H   0  0  0  0  0  0  0  0  0  0  0  0  # atno 10763 bound_to 10752
  154.3767  135.2767  155.2237 H   0  0  0  0  0  0  0  0  0  0  0  0  # atno 10764 bound_to 10752
  154.4168  135.6068  153.6040 H   0  0  0  0  0  0  0  0  0  0  0  0  # atno 10765 bound_to 10752
  140.0467  134.5796  155.9314 H   0  0  0  0  0  0  0  0  0  0  0  0  # atno 11005 bound_to 11000
  144.8790  139.4930  143.6732 LP  0  0  0  0  0  0  0  0  0  0  0  0  # atno 17320 bound_to 7965
  146.3007  139.7419  142.9093 LP  0  0  0  0  0  0  0  0  0  0  0  0  # atno 17321 bound_to 7965
  139.4832  144.6112  151.7430 LP  0  0  0  0  0  0  0  0  0  0  0  0  # atno 17342 bound_to 10162
  140.5259  144.0807  150.6037 LP  0  0  0  0  0  0  0  0  0  0  0  0  # atno 17343 bound_to 10162
  157.0616  130.5828  149.5387 LP  0  0  0  0  0  0  0  0  0  0  0  0  # atno 17370 bound_to 10713
  156.0058  130.5145  150.7826 LP  0  0  0  0  0  0  0  0  0  0  0  0  # atno 17371 bound_to 10713
  141.1910  133.6570  156.5438 LP  0  0  0  0  0  0  0  0  0  0  0  0  # atno 17394 bound_to 11000
  140.3983  134.7380  157.4764 LP  0  0  0  0  0  0  0  0  0  0  0  0  # atno 17395 bound_to 11000

$$$$
