#       Name:                AV-unprocessed.smi:3254
#       Creating user name   scv26
#       Creation time:       Fri Mar 27 18:35:04 2020


#       File generated by GOLD software.
#

@<TRIPOS>MOLECULE
AV-unprocessed.smi:3254
    41    42     1
SMALL
NO_CHARGES


@<TRIPOS>ATOM
      1 ****        -3.5376  -4.1922  -2.0231 C.3            1 S1                 0.0000
      2 ****        -2.1214  -3.6190  -1.8746 C.3            1 S1                 0.0000
      3 ****        -1.9936  -2.7991  -0.6724 N.am           1 S1                 0.0000
      4 ****        -1.9776  -1.3484  -0.7622 C.3            1 S1                 0.0000
      5 ****        -1.6446  -0.8448   0.6593 C.3            1 S1                 0.0000
      6 ****        -0.2514  -0.2010   0.7392 C.2            1 S1                 0.0000
      7 ****         0.7491  -0.8427   0.4161 O.2            1 S1                 0.0000
      8 ****        -0.2008   1.0699   1.1671 N.am           1 S1                 0.0000
      9 ****         1.0209   1.8522   1.3106 C.3            1 S1                 0.0000
     10 ****         1.5163   2.3815  -0.0457 C.3            1 S1                 0.0000
     11 ****         2.7573   3.1445   0.0927 N.pl3          1 S1                 0.0000
     12 ****         4.0366   2.6510   0.1031 C.2            1 S1                 0.0000
     13 ****         4.8695   3.7291   0.2580 C.2            1 S1                 0.0000
     14 ****         4.0637   4.8335   0.3364 N.pl3          1 S1                 1.0000
     15 ****         2.7792   4.4758   0.2360 C.2            1 S1                 0.0000
     16 ****        -1.7447  -2.0907   1.5622 C.3            1 S1                 0.0000
     17 ****        -1.8869  -3.2446   0.5841 C.2            1 S1                 0.0000
     18 ****        -1.8899  -4.4221   0.9395 O.2            1 S1                 0.0000
     19 ****        -3.6218  -4.7825  -2.9355 H              1 S1                 0.0000
     20 ****        -4.2807  -3.3958  -2.0732 H              1 S1                 0.0000
     21 ****        -3.7961  -4.8407  -1.1856 H              1 S1                 0.0000
     22 ****        -1.3921  -4.4298  -1.8408 H              1 S1                 0.0000
     23 ****        -1.8744  -3.0208  -2.7524 H              1 S1                 0.0000
     24 ****        -1.2557  -1.0190  -1.5119 H              1 S1                 0.0000
     25 ****        -2.9609  -0.9966  -1.0771 H              1 S1                 0.0000
     26 ****        -2.3926  -0.1115   0.9660 H              1 S1                 0.0000
     27 ****        -1.0686   1.5232   1.4150 H              1 S1                 0.0000
     28 ****         0.8141   2.6853   1.9830 H              1 S1                 0.0000
     29 ****         1.7927   1.2489   1.7923 H              1 S1                 0.0000
     30 ****         1.7115   1.5618  -0.7383 H              1 S1                 0.0000
     31 ****         0.7658   3.0228  -0.5105 H              1 S1                 0.0000
     32 ****         4.2530   1.5969   0.0026 H              1 S1                 0.0000
     33 ****         5.9465   3.7913   0.3175 H              1 S1                 0.0000
     34 ****         1.9288   5.1335   0.2658 H              1 S1                 0.0000
     35 ****        -0.8749  -2.2404   2.2042 H              1 S1                 0.0000
     36 ****        -2.6283  -2.0448   2.1994 H              1 S1                 0.0000
     37 ****         4.3903   5.7847   0.4534 H              1 S1                 0.0000
     38 ****         0.6570  -1.7869   0.1001 LP             1 S1                 0.0000
     39 ****         1.6535  -0.4194   0.4698 LP             1 S1                 0.0000
     40 ****        -1.9783  -5.1495   0.2590 LP             1 S1                 0.0000
     41 ****        -1.8040  -4.6520   1.9089 LP             1 S1                 0.0000
@<TRIPOS>BOND
    1    1    2 1     
    2    1   19 1     
    3    1   20 1     
    4    1   21 1     
    5    2    3 1     
    6    2   22 1     
    7    2   23 1     
    8    3   17 am    
    9    3    4 1     
   10    4    5 1     
   11    4   24 1     
   12    4   25 1     
   13    5    6 1     
   14    5   16 1     
   15    5   26 1     
   16    6    7 2     
   17    6    8 am    
   18    8    9 1     
   19    8   27 1     
   20    9   10 1     
   21    9   28 1     
   22    9   29 1     
   23   10   11 1     
   24   10   30 1     
   25   10   31 1     
   26   11   15 1     
   27   11   12 1     
   28   12   13 2     
   29   12   32 1     
   30   13   14 1     
   31   13   33 1     
   32   14   15 2     
   33   14   37 1     
   34   15   34 1     
   35   16   17 1     
   36   16   35 1     
   37   16   36 1     
   38   17   18 2     
   39    7   38 1     
   40    7   39 1     
   41   18   40 1     
   42   18   41 1     
@<TRIPOS>SUBSTRUCTURE
      1 S1             1
@<TRIPOS>SET
LONE_PAIRS      STATIC     ATOMS    <user>   **** ""
4 38 39 40 41
DONOR_HYDROGENS      STATIC     ATOMS    <user>   **** ""
2 27 37
ATOM$BLUE        STATIC     ATOMS    COLORGROUP SYSTEM
4 38 39 40 41
ATOM$RED        STATIC     ATOMS    COLORGROUP SYSTEM
2 27 37
