#       Name:                AV-unprocessed.smi:13
#       Creating user name   scv26
#       Creation time:       Thu Mar 26 15:19:18 2020


#       File generated by GOLD software.
#

@<TRIPOS>MOLECULE
AV-unprocessed.smi:13
    64    68     1
SMALL
NO_CHARGES


@<TRIPOS>ATOM
      1 ****        -4.8224  -1.8530  -0.4828 C.3            1 S1                 0.0000
      2 ****        -3.6393  -1.3212   0.3369 C.3            1 S1                 0.0000
      3 ****        -4.2329  -0.5544   1.5182 C.3            1 S1                 0.0000
      4 ****        -2.5575  -2.3549   0.6862 C.3            1 S1                 0.0000
      5 ****        -1.8213  -1.8724  -0.4711 N.3            1 S1                 0.0000
      6 ****        -0.4122  -1.7974  -0.3103 C.ar           1 S1                 0.0000
      7 ****         0.3371  -2.3755  -1.2825 N.ar           1 S1                 0.0000
      8 ****         1.6716  -2.3473  -1.2359 C.ar           1 S1                 0.0000
      9 ****         2.4610  -1.7975  -0.3135 N.ar           1 S1                 0.0000
     10 ****         1.7256  -1.2100   0.6717 C.ar           1 S1                 0.0000
     11 ****         0.3038  -1.1656   0.7516 C.ar           1 S1                 0.0000
     12 ****        -0.0764  -0.4793   1.9001 N.2            1 S1                 0.0000
     13 ****         1.0504  -0.1416   2.4640 C.2            1 S1                 0.0000
     14 ****         2.1832  -0.5335   1.7889 N.pl3          1 S1                 0.0000
     15 ****         3.5614  -0.2856   2.1831 C.3            1 S1                 0.0000
     16 ****         4.0693   1.1177   1.7784 C.3            1 S1                 0.0000
     17 ****         3.3349   2.0955   2.4952 O.3            1 S1                 0.0000
     18 ****         3.9513   1.4205   0.2870 C.3            1 S1                 0.0000
     19 ****         5.1345   2.3441   0.0347 C.3            1 S1                 0.0000
     20 ****         6.1513   1.7676   0.8361 O.3            1 S1                 0.0000
     21 ****         5.5699   1.3321   2.0611 C.3            1 S1                 0.0000
     22 ****        -2.5154  -0.5915  -0.4288 C.3            1 S1                 0.0000
     23 ****        -2.7330  -0.0200  -1.8304 C.3            1 S1                 0.0000
     24 ****        -1.4939   0.6361  -2.4367 C.3            1 S1                 0.0000
     25 ****        -2.0774   1.5984  -3.4557 C.3            1 S1                 0.0000
     26 ****        -3.5157   1.8148  -2.9759 C.3            1 S1                 0.0000
     27 ****        -3.6333   1.0744  -1.7674 O.3            1 S1                 0.0000
     28 ****        -5.4664  -2.4972   0.1166 H              1 S1                 0.0000
     29 ****        -4.4886  -2.4439  -1.3362 H              1 S1                 0.0000
     30 ****        -5.4381  -1.0413  -0.8714 H              1 S1                 0.0000
     31 ****        -3.4522  -0.1497   2.1632 H              1 S1                 0.0000
     32 ****        -4.8625  -1.1941   2.1373 H              1 S1                 0.0000
     33 ****        -4.8416   0.2860   1.1827 H              1 S1                 0.0000
     34 ****        -2.0705  -2.1675   1.6434 H              1 S1                 0.0000
     35 ****        -2.8808  -3.3921   0.5936 H              1 S1                 0.0000
     36 ****         2.1785  -2.8324  -2.0568 H              1 S1                 0.0000
     37 ****         1.0869   0.4126   3.3908 H              1 S1                 0.0000
     38 ****         3.6407  -0.4228   3.2625 H              1 S1                 0.0000
     39 ****         4.1888  -1.0550   1.7315 H              1 S1                 0.0000
     40 ****         3.6584   2.9495   2.2522 H              1 S1                 0.0000
     41 ****         4.0916   0.5091  -0.2952 H              1 S1                 0.0000
     42 ****         2.9934   1.8554  -0.0021 H              1 S1                 0.0000
     43 ****         5.4232   2.3855  -1.0157 H              1 S1                 0.0000
     44 ****         4.9232   3.3581   0.3781 H              1 S1                 0.0000
     45 ****         5.7400   2.0837   2.8337 H              1 S1                 0.0000
     46 ****         6.0666   0.4168   2.3840 H              1 S1                 0.0000
     47 ****        -2.0180   0.1184   0.2329 H              1 S1                 0.0000
     48 ****        -3.1360  -0.7684  -2.5155 H              1 S1                 0.0000
     49 ****        -0.9500   1.1935  -1.6726 H              1 S1                 0.0000
     50 ****        -0.8070  -0.0851  -2.8801 H              1 S1                 0.0000
     51 ****        -1.5105   2.5290  -3.4989 H              1 S1                 0.0000
     52 ****        -2.0750   1.1560  -4.4525 H              1 S1                 0.0000
     53 ****        -3.7417   2.8670  -2.8022 H              1 S1                 0.0000
     54 ****        -4.2273   1.4305  -3.7081 H              1 S1                 0.0000
     55 ****        -1.8299  -2.4111  -1.3135 LP             1 S1                 0.0000
     56 ****        -0.1180  -2.8309  -2.0477 LP             1 S1                 0.0000
     57 ****         3.4605  -1.8140  -0.3408 LP             1 S1                 0.0000
     58 ****        -1.0040  -0.2880   2.2211 LP             1 S1                 0.0000
     59 ****         3.4561   1.9556   3.4780 LP             1 S1                 0.0000
     60 ****         2.3642   2.0242   2.2656 LP             1 S1                 0.0000
     61 ****         6.8602   2.4479   1.0224 LP             1 S1                 0.0000
     62 ****         6.5554   0.9874   0.3586 LP             1 S1                 0.0000
     63 ****        -3.4031   1.6580  -0.9887 LP             1 S1                 0.0000
     64 ****        -4.5694   0.7375  -1.6661 LP             1 S1                 0.0000
@<TRIPOS>BOND
    1    1    2 1     
    2    1   28 1     
    3    1   29 1     
    4    1   30 1     
    5    2   22 1     
    6    2    3 1     
    7    2    4 1     
    8    3   31 1     
    9    3   32 1     
   10    3   33 1     
   11    4    5 1     
   12    4   34 1     
   13    4   35 1     
   14    5    6 1     
   15    5   22 1     
   16    6   11 ar    
   17    6    7 ar    
   18    7    8 ar    
   19    8    9 ar    
   20    8   36 1     
   21    9   10 ar    
   22   10   14 1     
   23   10   11 ar    
   24   11   12 1     
   25   12   13 2     
   26   13   14 1     
   27   13   37 1     
   28   14   15 1     
   29   15   16 1     
   30   15   38 1     
   31   15   39 1     
   32   16   21 1     
   33   16   17 1     
   34   16   18 1     
   35   17   40 1     
   36   18   19 1     
   37   18   41 1     
   38   18   42 1     
   39   19   20 1     
   40   19   43 1     
   41   19   44 1     
   42   20   21 1     
   43   21   45 1     
   44   21   46 1     
   45   22   23 1     
   46   22   47 1     
   47   23   27 1     
   48   23   24 1     
   49   23   48 1     
   50   24   25 1     
   51   24   49 1     
   52   24   50 1     
   53   25   26 1     
   54   25   51 1     
   55   25   52 1     
   56   26   27 1     
   57   26   53 1     
   58   26   54 1     
   59    5   55 1     
   60    7   56 1     
   61    9   57 1     
   62   12   58 1     
   63   17   59 1     
   64   17   60 1     
   65   20   61 1     
   66   20   62 1     
   67   27   63 1     
   68   27   64 1     
@<TRIPOS>SUBSTRUCTURE
      1 S1             1
@<TRIPOS>SET
LONE_PAIRS      STATIC     ATOMS    <user>   **** ""
10 55 56 57 58 59 60 61 62 63 64
DONOR_HYDROGENS      STATIC     ATOMS    <user>   **** ""
1 40
ATOM$BLUE        STATIC     ATOMS    COLORGROUP SYSTEM
10 55 56 57 58 59 60 61 62 63 64
ATOM$RED        STATIC     ATOMS    COLORGROUP SYSTEM
1 40
