AV-unprocessed.smi:1076|AV-procd|sdf|4698|dock9
  -GOLD-   22720 3223D 1   1.00000     0.00000
 Structure written by MMmdl.
 45 46  0  0  0  0  0  0  0  0  2 V2000
  144.2907  132.8197  150.0670 C   0  0  0  0  0  0  0  0  0  0  0  0
  144.6458  133.9038  151.0434 C   0  0  0  0  0  0  0  0  0  0  0  0
  144.4761  133.8955  152.4571 C   0  0  0  0  0  0  0  0  0  0  0  0
  144.8965  135.0108  153.0314 N   0  0  0  0  0  0  0  0  0  0  0  0
  145.3452  135.7686  152.0077 N   0  0  0  0  0  0  0  0  0  0  0  0
  145.9015  137.0831  152.2741 C   0  0  0  0  0  0  0  0  0  0  0  0
  145.5147  137.6252  153.6658 C   0  0  1  0  0  0  0  0  0  0  0  0
  146.1767  136.7996  154.7769 C   0  0  0  0  0  0  0  0  0  0  0  0
  145.9064  139.0450  153.8103 N   0  3  0  0  0  0  0  0  0  0  0  0
  147.2647  139.3732  153.3216 C   0  0  0  0  0  0  0  0  0  0  0  0
  148.3642  138.7796  154.2244 C   0  0  0  0  0  0  0  0  0  0  0  0
  149.7547  139.4227  154.0624 C   0  0  0  0  0  0  0  0  0  0  0  0
  149.8452  140.6514  154.0413 O   0  0  0  0  0  0  0  0  0  0  0  0
  150.8399  138.6186  153.9595 N   0  0  0  0  0  0  0  0  0  0  0  0
  152.2146  139.1252  153.9338 C   0  0  0  0  0  0  0  0  0  0  0  0
  152.9255  138.6492  155.2141 C   0  0  0  0  0  0  0  0  0  0  0  0
  152.8807  137.2259  155.2903 O   0  0  0  0  0  0  0  0  0  0  0  0
  151.5543  136.7024  155.2782 C   0  0  0  0  0  0  0  0  0  0  0  0
  150.8360  137.1530  153.9941 C   0  0  0  0  0  0  0  0  0  0  0  0
  145.2048  135.1257  150.7965 C   0  0  0  0  0  0  0  0  0  0  0  0
  143.4755  132.1959  150.4341 H   0  0  0  0  0  0  0  0  0  0  0  0
  145.1375  132.1611  149.8736 H   0  0  0  0  0  0  0  0  0  0  0  0
  143.9741  133.2282  149.1072 H   0  0  0  0  0  0  0  0  0  0  0  0
  144.0639  133.1149  153.0798 H   0  0  0  0  0  0  0  0  0  0  0  0
  146.9867  137.0094  152.1912 H   0  0  0  0  0  0  0  0  0  0  0  0
  145.5787  137.7701  151.4898 H   0  0  0  0  0  0  0  0  0  0  0  0
  144.4345  137.5338  153.7932 H   0  0  0  0  0  0  0  0  0  0  0  0
  145.8922  135.7490  154.7094 H   0  0  0  0  0  0  0  0  0  0  0  0
  145.8775  137.1574  155.7626 H   0  0  0  0  0  0  0  0  0  0  0  0
  147.2646  136.8536  154.7192 H   0  0  0  0  0  0  0  0  0  0  0  0
  145.2511  139.6100  153.2885 H   0  0  0  0  0  0  0  0  0  0  0  0
  147.3887  138.9809  152.3120 H   0  0  0  0  0  0  0  0  0  0  0  0
  147.3728  140.4566  153.2483 H   0  0  0  0  0  0  0  0  0  0  0  0
  148.0461  138.8696  155.2640 H   0  0  0  0  0  0  0  0  0  0  0  0
  148.4554  137.7142  154.0097 H   0  0  0  0  0  0  0  0  0  0  0  0
  152.7281  138.7405  153.0516 H   0  0  0  0  0  0  0  0  0  0  0  0
  152.2679  140.2124  153.8648 H   0  0  0  0  0  0  0  0  0  0  0  0
  153.9674  138.9698  155.2099 H   0  0  0  0  0  0  0  0  0  0  0  0
  152.4606  139.0835  156.1007 H   0  0  0  0  0  0  0  0  0  0  0  0
  151.6033  135.6143  155.3223 H   0  0  0  0  0  0  0  0  0  0  0  0
  151.0126  137.0354  156.1649 H   0  0  0  0  0  0  0  0  0  0  0  0
  149.8419  136.7114  153.9489 H   0  0  0  0  0  0  0  0  0  0  0  0
  151.3654  136.7730  153.1191 H   0  0  0  0  0  0  0  0  0  0  0  0
  145.5140  135.5846  149.8688 H   0  0  0  0  0  0  0  0  0  0  0  0
  145.8384  139.2944  154.7870 H   0  0  0  0  0  0  0  0  0  0  0  0
  1  2  1  0  0  0  0
  1 21  1  0  0  0  0
  1 22  1  0  0  0  0
  1 23  1  0  0  0  0
  2 20  2  0  0  0  0
  2  3  1  0  0  0  0
  3  4  2  0  0  0  0
  3 24  1  0  0  0  0
  4  5  1  0  0  0  0
  5  6  1  0  0  0  0
  5 20  1  0  0  0  0
  6  7  1  0  0  0  0
  6 25  1  0  0  0  0
  6 26  1  0  0  0  0
  7  8  1  0  0  0  0
  7  9  1  0  0  0  0
  7 27  1  0  0  0  0
  8 28  1  0  0  0  0
  8 29  1  0  0  0  0
  8 30  1  0  0  0  0
  9 10  1  0  0  0  0
  9 31  1  0  0  0  0
  9 45  1  0  0  0  0
 10 11  1  0  0  0  0
 10 32  1  0  0  0  0
 10 33  1  0  0  0  0
 11 12  1  0  0  0  0
 11 34  1  0  0  0  0
 11 35  1  0  0  0  0
 12 13  2  0  0  0  0
 12 14  1  0  0  0  0
 14 19  1  0  0  0  0
 14 15  1  0  0  0  0
 15 16  1  0  0  0  0
 15 36  1  0  0  0  0
 15 37  1  0  0  0  0
 16 17  1  0  0  0  0
 16 38  1  0  0  0  0
 16 39  1  0  0  0  0
 17 18  1  0  0  0  0
 18 19  1  0  0  0  0
 18 40  1  0  0  0  0
 18 41  1  0  0  0  0
 19 42  1  0  0  0  0
 19 43  1  0  0  0  0
 20 44  1  0  0  0  0
M  CHG  1   9   1
M  END
> <s_m_source_file>
AV-unprocessed.smi

> <i_m_source_file_index>
1076

> <i_lp_mmshare_version>
43012

> <i_f3d_flags>
0

> <s_epik_input>
W0NIM11jMVtjSF1ubihbY0hdMSlbQ0gyXVtDQEhdKFtDSDNdKVtOSF1bQ0gyXVtDSDJdQyg9TylOMltDSDJdW0NIMl1PW0NIMl1bQ0gyXTI=

> <s_epik_cmdline>
J2VwaWtfcHl0aG9uJywgJy1waCcsICc3LjAnLCAnLXRuJywgJzgnLCAnLW1hJywgJzIwMCcsICctbWV0YWxfYmluZGluZycsICctaW1hZScsICc8aW5maWxlLm1hZT4nLCAnLW9tYWUnLCAnPG91dGZpbGUubWFlPic=

> <r_lp_tautomer_probability>
1

> <r_epik_Ionization_Penalty>
0.00797518

> <r_epik_Ionization_Penalty_Charging>
0.0079672

> <r_epik_Ionization_Penalty_Neutral>
7.97619e-06

> <r_epik_State_Penalty>
0.00597998

> <r_epik_Charging_Adjusted_Penalty>
0.0139472

> <i_epik_Tot_Q>
1

> <i_epik_Tot_abs_Q>
1

> <r_epik_Metal_State_Penalty>
0.00598062

> <b_epik_Metal_Only>
0

> <s_lp_Force_Field>
OPLS_2005

> <r_lp_Energy>
23.7914

> <b_lp_Chiralities_Consistent>
1

> <s_lp_Variant>
AV-unprocessed.smi:1076-2

> <Gold.Version>
5.8.1

> <Gold.Id.Protein>
6NUR|6NUR_protein|mol2

> <Gold.PLP.Fitness>
49.7016

> <Gold.PLP.PLP>
-33.7415

> <Gold.PLP.part.hbond>
-3.0000

> <Gold.PLP.part.metal>
0.0000

> <Gold.PLP.part.buried>
-5.2191

> <Gold.PLP.part.nonpolar>
-28.0549

> <Gold.PLP.part.repulsive>
0.1858

> <Gold.PLP.ligand.clash>
0.0000

> <Gold.PLP.ligand.torsion>
0.6856

> <Gold.PLP.Chemscore.Hbond>
3.7680

> <Gold.PLP.Chemscore.CHOScore>
1.9756

> <Gold.PLP.Chemscore.Metal>
0.0000

> <Gold.Chemscore.Hbonds>
donor molecule, donor type, donor heavy atom, donor atom, acceptor molecule, acceptor atom, score
      L1  H     9    31       P1 10175  2.00
      P1  H  7989  7998       L1    13  0.64
      L1  C     3    24       P1 10957  0.89
      L1  C    20    44       P1  7921  1.00

> <Gold.PLP.Chemscore.Internal.Correction>
0.1007

> <Gold.Rescore>
     Score         DG    S(hbond)    S(metal)    S(lipo)     H(rot)  DE(clash)    DE(int)     intcor
     14.91     -17.34       2.50        0.00      73.43       1.98       0.25       2.18       ----

> <Gold.Chemscore.Fitness>
14.9109

> <Gold.Chemscore.DG>
-17.3365

> <Gold.Chemscore.ZeroCoef>
-5.4800

> <Gold.Chemscore.Hbond>
2.4981

> <Gold.Chemscore.Metal>
0.0000

> <Gold.Chemscore.Lipo>
73.4270

> <Gold.Chemscore.Internal_Hbond>
0.0000

> <Gold.Chemscore.DEClash>
0.2503

> <Gold.Chemscore.DEInternal>
2.1753

> <Gold.Chemscore.Rot>
1.9837

> <Gold.Chemscore.Internal.Correction>
   9.000000E+99

> <Gold.Chemscore.Hbonds>
donor molecule, donor type, donor heavy atom, donor atom, acceptor molecule, acceptor atom, score
      L1  H     9    31       P1 10175  0.98
      P1  H  7989  7998       L1    13  0.22
      P1  H  8011  8017       L1    13  0.04

> <Gold.Chemscore.Hbond.Weighted>
-8.3437

> <Gold.Chemscore.Metal.Weighted>
-0.0000

> <Gold.Chemscore.Lipo.Weighted>
-8.5910

> <Gold.Chemscore.Internal_Hbond.Weighted>
0.0000

> <Gold.Chemscore.DEClash.Weighted>
0.2503

> <Gold.Chemscore.DEInternal.Weighted>
2.1753

> <Gold.Chemscore.Rot.Weighted>
5.0782

> <Gold.Chemscore.Internal.Correction.Weighted>
   9.000000E+99

> <Gold.Protein.RotatedTorsions>
[ 6907 6896 6895 6894 ] final  -81.47 input  -60.11 | X-H torsion
[ 7974 7965 7964 7962 ] final  -65.17 input  175.53 | X-H torsion
[ 8008 7997 7996 7995 ] final -177.33 input   59.86 | X-H torsion
[ 10167 10162 10161 10158 ] final -153.30 input  -65.29 | X-H torsion
[ 10718 10713 10712 10709 ] final -116.59 input   66.30 | X-H torsion
[ 10763 10752 10751 10750 ] final  -27.35 input  -60.55 | X-H torsion
[ 11005 11000 10999 10996 ] final -120.05 input  -57.11 | X-H torsion

> <Gold.Protein.ActiveResidues>
 VAL166  LYS551  ARG553  GLY616  TRP617  ASP618  TYR619  PRO620  LYS621  CYS622 
 ASP623  PHE694  ASN695  SER759  ASP760  ASP761  ALA762  ILE779  LEU786  VAL792 
 PHE793  MET794  SER795  GLU796  ALA797  LYS798  CYS799  TRP800  GLU811  SER814 

> <Gold.Protein.RotatedAtoms>
  150.6911  134.3812  159.5034 H   0  0  0  0  0  0  0  0  0  0  0  0  # atno 6907 bound_to 6896
  152.1614  134.8906  160.0550 H   0  0  0  0  0  0  0  0  0  0  0  0  # atno 6908 bound_to 6896
  151.9966  133.3775  159.4202 H   0  0  0  0  0  0  0  0  0  0  0  0  # atno 6909 bound_to 6896
  145.7576  140.8877  143.0447 H   0  0  0  0  0  0  0  0  0  0  0  0  # atno 7974 bound_to 7965
  156.0056  140.1230  157.0504 H   0  0  0  0  0  0  0  0  0  0  0  0  # atno 8008 bound_to 7997
  154.4257  140.1098  156.5827 H   0  0  0  0  0  0  0  0  0  0  0  0  # atno 8009 bound_to 7997
  155.6151  140.3472  155.4636 H   0  0  0  0  0  0  0  0  0  0  0  0  # atno 8010 bound_to 7997
  139.7109  143.9111  152.2467 H   0  0  0  0  0  0  0  0  0  0  0  0  # atno 10167 bound_to 10162
  156.0974  130.6143  150.9055 H   0  0  0  0  0  0  0  0  0  0  0  0  # atno 10718 bound_to 10713
  153.7307  135.6939  153.4990 H   0  0  0  0  0  0  0  0  0  0  0  0  # atno 10763 bound_to 10752
  153.2138  135.4393  155.0409 H   0  0  0  0  0  0  0  0  0  0  0  0  # atno 10764 bound_to 10752
  154.8254  135.3443  154.6837 H   0  0  0  0  0  0  0  0  0  0  0  0  # atno 10765 bound_to 10752
  141.0171  134.0179  157.3334 H   0  0  0  0  0  0  0  0  0  0  0  0  # atno 11005 bound_to 11000
  144.6837  139.9678  143.7481 LP  0  0  0  0  0  0  0  0  0  0  0  0  # atno 17320 bound_to 7965
  146.0296  139.3323  143.0763 LP  0  0  0  0  0  0  0  0  0  0  0  0  # atno 17321 bound_to 7965
  139.8979  144.6928  150.8697 LP  0  0  0  0  0  0  0  0  0  0  0  0  # atno 17342 bound_to 10162
  140.7733  143.3536  151.1966 LP  0  0  0  0  0  0  0  0  0  0  0  0  # atno 17343 bound_to 10162
  157.6137  131.0934  150.8748 LP  0  0  0  0  0  0  0  0  0  0  0  0  # atno 17370 bound_to 10713
  156.8883  130.5204  149.5287 LP  0  0  0  0  0  0  0  0  0  0  0  0  # atno 17371 bound_to 10713
  139.9124  135.0192  156.7744 LP  0  0  0  0  0  0  0  0  0  0  0  0  # atno 17394 bound_to 11000
  140.6636  133.9623  155.7818 LP  0  0  0  0  0  0  0  0  0  0  0  0  # atno 17395 bound_to 11000

$$$$
