AV-unprocessed.smi:2786|AV-procd|sdf|10751|dock6
  -GOLD-   2272015183D 1   1.00000     0.00000
 Structure written by MMmdl.
 28 29  0  0  0  0  0  0  0  0  3 V2000
  145.0366  135.3520  150.7872 C   0  0  0  0  0  0  0  0  0  0  0  0
  145.0091  133.8879  150.7682 N   0  0  0  0  0  0  0  0  0  0  0  0
  144.0604  133.0991  150.1692 C   0  0  0  0  0  0  0  0  0  0  0  0
  144.4229  131.7994  150.4067 C   0  0  0  0  0  0  0  0  0  0  0  0
  145.5778  131.8487  151.1388 N   0  3  0  0  0  0  0  0  0  0  0  0
  145.9431  133.1194  151.3543 C   0  0  0  0  0  0  0  0  0  0  0  0
  147.1488  133.5707  152.1282 C   0  0  1  0  0  0  0  0  0  0  0  0
  146.7430  134.4077  153.3632 C   0  0  0  0  0  0  0  0  0  0  0  0
  147.9407  134.8791  154.0893 N   0  3  0  0  0  0  0  0  0  0  0  0
  148.8190  133.7510  154.4568 C   0  0  0  0  0  0  0  0  0  0  0  0
  149.1893  132.9433  153.2000 C   0  0  0  0  0  0  0  0  0  0  0  0
  147.9780  132.4433  152.5559 N   0  0  0  0  0  0  0  0  0  0  0  0
  144.1229  135.7404  150.3356 H   0  0  0  0  0  0  0  0  0  0  0  0
  145.8977  135.7034  150.2179 H   0  0  0  0  0  0  0  0  0  0  0  0
  145.1037  135.7021  151.8176 H   0  0  0  0  0  0  0  0  0  0  0  0
  143.2164  133.5096  149.6329 H   0  0  0  0  0  0  0  0  0  0  0  0
  143.9573  130.8681  150.1182 H   0  0  0  0  0  0  0  0  0  0  0  0
  147.7366  134.1825  151.4428 H   0  0  0  0  0  0  0  0  0  0  0  0
  146.1562  135.2755  153.0614 H   0  0  0  0  0  0  0  0  0  0  0  0
  146.1190  133.8211  154.0393 H   0  0  0  0  0  0  0  0  0  0  0  0
  148.4577  135.5097  153.4932 H   0  0  0  0  0  0  0  0  0  0  0  0
  149.7174  134.1404  154.9363 H   0  0  0  0  0  0  0  0  0  0  0  0
  148.3146  133.1171  155.1876 H   0  0  0  0  0  0  0  0  0  0  0  0
  149.7601  133.5538  152.4988 H   0  0  0  0  0  0  0  0  0  0  0  0
  149.8194  132.0963  153.4727 H   0  0  0  0  0  0  0  0  0  0  0  0
  148.2322  131.8832  151.7536 H   0  0  0  0  0  0  0  0  0  0  0  0
  147.6583  135.3715  154.9249 H   0  0  0  0  0  0  0  0  0  0  0  0
  146.0904  131.0398  151.4677 H   0  0  0  0  0  0  0  0  0  0  0  0
  1  2  1  0  0  0  0
  1 13  1  0  0  0  0
  1 14  1  0  0  0  0
  1 15  1  0  0  0  0
  2  6  1  0  0  0  0
  2  3  1  0  0  0  0
  3  4  2  0  0  0  0
  3 16  1  0  0  0  0
  4  5  1  0  0  0  0
  4 17  1  0  0  0  0
  5  6  2  0  0  0  0
  5 28  1  0  0  0  0
  6  7  1  0  0  0  0
  7 12  1  0  0  0  0
  7  8  1  0  0  0  0
  7 18  1  0  0  0  0
  8  9  1  0  0  0  0
  8 19  1  0  0  0  0
  8 20  1  0  0  0  0
  9 10  1  0  0  0  0
  9 21  1  0  0  0  0
  9 27  1  0  0  0  0
 10 11  1  0  0  0  0
 10 22  1  0  0  0  0
 10 23  1  0  0  0  0
 11 12  1  0  0  0  0
 11 24  1  0  0  0  0
 11 25  1  0  0  0  0
 12 26  1  0  0  0  0
M  CHG  1   5   1
M  CHG  1   9   1
M  END
> <s_m_source_file>
AV-unprocessed.smi

> <i_m_source_file_index>
2786

> <i_lp_mmshare_version>
43012

> <i_f3d_flags>
0

> <s_epik_input>
W0NIM11uMVtjSF1bY0hdbmMxW0NAQEhdMltDSDJdW05IXVtDSDJdW0NIMl1bTkhdMg==

> <s_epik_cmdline>
J2VwaWtfcHl0aG9uJywgJy1waCcsICc3LjAnLCAnLXRuJywgJzgnLCAnLW1hJywgJzIwMCcsICctbWV0YWxfYmluZGluZycsICctaW1hZScsICc8aW5maWxlLm1hZT4nLCAnLW9tYWUnLCAnPG91dGZpbGUubWFlPic=

> <r_lp_tautomer_probability>
1

> <r_epik_Ionization_Penalty>
1.19986

> <r_epik_Ionization_Penalty_Charging>
0.069211

> <r_epik_Ionization_Penalty_Neutral>
1.13065

> <r_epik_State_Penalty>
0.776615

> <r_epik_Charging_Adjusted_Penalty>
0.845826

> <i_epik_Tot_Q>
2

> <i_epik_Tot_abs_Q>
2

> <r_epik_Metal_State_Penalty>
4.73559

> <b_epik_Metal_Only>
0

> <s_lp_Force_Field>
OPLS_2005

> <r_lp_Energy>
18.3539

> <b_lp_Chiralities_Consistent>
1

> <s_lp_Variant>
AV-unprocessed.smi:2786-4

> <Gold.Version>
5.8.1

> <Gold.Id.Protein>
6NUR|6NUR_protein|mol2

> <Gold.PLP.Fitness>
36.9654

> <Gold.PLP.PLP>
-24.9904

> <Gold.PLP.part.hbond>
-2.0000

> <Gold.PLP.part.metal>
0.0000

> <Gold.PLP.part.buried>
-3.5392

> <Gold.PLP.part.nonpolar>
-18.6949

> <Gold.PLP.part.repulsive>
0.0343

> <Gold.PLP.ligand.clash>
0.0000

> <Gold.PLP.ligand.torsion>
0.0177

> <Gold.PLP.Chemscore.Hbond>
3.0000

> <Gold.PLP.Chemscore.CHOScore>
1.0000

> <Gold.PLP.Chemscore.Metal>
0.0000

> <Gold.Chemscore.Hbonds>
donor molecule, donor type, donor heavy atom, donor atom, acceptor molecule, acceptor atom, score
      L1  H     9    21       P1  7948  2.00
      L1  H    12    26       P1 10747  1.00
      L1  C     3    16       P1 10186  1.00

> <Gold.PLP.Chemscore.Internal.Correction>
0.0103

> <Gold.Rescore>
     Score         DG    S(hbond)    S(metal)    S(lipo)     H(rot)  DE(clash)    DE(int)     intcor
     15.21     -15.24       1.99        0.00      48.40       1.00       0.01       0.01       ----

> <Gold.Chemscore.Fitness>
15.2144

> <Gold.Chemscore.DG>
-15.2406

> <Gold.Chemscore.ZeroCoef>
-5.4800

> <Gold.Chemscore.Hbond>
1.9933

> <Gold.Chemscore.Metal>
0.0000

> <Gold.Chemscore.Lipo>
48.4008

> <Gold.Chemscore.Internal_Hbond>
0.0000

> <Gold.Chemscore.DEClash>
0.0114

> <Gold.Chemscore.DEInternal>
0.0148

> <Gold.Chemscore.Rot>
1.0000

> <Gold.Chemscore.Internal.Correction>
   9.000000E+99

> <Gold.Chemscore.Hbonds>
donor molecule, donor type, donor heavy atom, donor atom, acceptor molecule, acceptor atom, score
      L1  H     9    21       P1  7948  0.97
      L1  H    12    26       P1 10747  0.99

> <Gold.Chemscore.Hbond.Weighted>
-6.6577

> <Gold.Chemscore.Metal.Weighted>
-0.0000

> <Gold.Chemscore.Lipo.Weighted>
-5.6629

> <Gold.Chemscore.Internal_Hbond.Weighted>
0.0000

> <Gold.Chemscore.DEClash.Weighted>
0.0114

> <Gold.Chemscore.DEInternal.Weighted>
0.0148

> <Gold.Chemscore.Rot.Weighted>
2.5600

> <Gold.Chemscore.Internal.Correction.Weighted>
   9.000000E+99

> <Gold.Protein.RotatedTorsions>
[ 6907 6896 6895 6894 ] final   82.66 input  -60.11 | X-H torsion
[ 7974 7965 7964 7962 ] final   47.88 input  175.53 | X-H torsion
[ 8008 7997 7996 7995 ] final  -66.49 input   59.86 | X-H torsion
[ 10167 10162 10161 10158 ] final -135.38 input  -65.29 | X-H torsion
[ 10718 10713 10712 10709 ] final  166.11 input   66.30 | X-H torsion
[ 10763 10752 10751 10750 ] final   22.07 input  -60.55 | X-H torsion
[ 11005 11000 10999 10996 ] final  -63.98 input  -57.11 | X-H torsion

> <Gold.Protein.ActiveResidues>
 VAL166  LYS551  ARG553  GLY616  TRP617  ASP618  TYR619  PRO620  LYS621  CYS622 
 ASP623  PHE694  ASN695  SER759  ASP760  ASP761  ALA762  ILE779  LEU786  VAL792 
 PHE793  MET794  SER795  GLU796  ALA797  LYS798  CYS799  TRP800  GLU811  SER814 

> <Gold.Protein.RotatedAtoms>
  152.5305  134.3015  159.9080 H   0  0  0  0  0  0  0  0  0  0  0  0  # atno 6907 bound_to 6896
  151.2966  133.4135  159.2644 H   0  0  0  0  0  0  0  0  0  0  0  0  # atno 6908 bound_to 6896
  151.0155  134.9445  159.8088 H   0  0  0  0  0  0  0  0  0  0  0  0  # atno 6909 bound_to 6896
  146.0256  139.4703  142.9869 H   0  0  0  0  0  0  0  0  0  0  0  0  # atno 7974 bound_to 7965
  154.4738  140.0911  156.7211 H   0  0  0  0  0  0  0  0  0  0  0  0  # atno 8008 bound_to 7997
  155.4652  140.3462  155.4300 H   0  0  0  0  0  0  0  0  0  0  0  0  # atno 8009 bound_to 7997
  156.1083  140.1441  156.9362 H   0  0  0  0  0  0  0  0  0  0  0  0  # atno 8010 bound_to 7997
  139.8785  143.6869  152.2630 H   0  0  0  0  0  0  0  0  0  0  0  0  # atno 10167 bound_to 10162
  157.0706  131.0365  151.2613 H   0  0  0  0  0  0  0  0  0  0  0  0  # atno 10718 bound_to 10713
  153.0945  135.6656  153.9790 H   0  0  0  0  0  0  0  0  0  0  0  0  # atno 10763 bound_to 10752
  153.9378  135.2997  155.3445 H   0  0  0  0  0  0  0  0  0  0  0  0  # atno 10764 bound_to 10752
  154.7362  135.5100  153.9119 H   0  0  0  0  0  0  0  0  0  0  0  0  # atno 10765 bound_to 10752
  141.1410  133.6659  156.5763 H   0  0  0  0  0  0  0  0  0  0  0  0  # atno 11005 bound_to 11000
  145.7123  141.0102  143.1447 LP  0  0  0  0  0  0  0  0  0  0  0  0  # atno 17320 bound_to 7965
  144.7008  139.8771  143.7444 LP  0  0  0  0  0  0  0  0  0  0  0  0  # atno 17321 bound_to 7965
  139.7218  144.7601  151.0943 LP  0  0  0  0  0  0  0  0  0  0  0  0  # atno 17342 bound_to 10162
  140.7748  143.5198  150.9550 LP  0  0  0  0  0  0  0  0  0  0  0  0  # atno 17343 bound_to 10162
  157.4881  130.7805  149.7480 LP  0  0  0  0  0  0  0  0  0  0  0  0  # atno 17370 bound_to 10713
  155.9951  130.3913  150.2830 LP  0  0  0  0  0  0  0  0  0  0  0  0  # atno 17371 bound_to 10713
  140.3873  134.7471  157.4699 LP  0  0  0  0  0  0  0  0  0  0  0  0  # atno 17394 bound_to 11000
  140.0592  134.6019  155.8769 LP  0  0  0  0  0  0  0  0  0  0  0  0  # atno 17395 bound_to 11000

$$$$
