AV-unprocessed.smi:2069|AV-procd|sdf|8436|dock1
  -GOLD-   2272011133D 1   1.00000     0.00000
 Structure written by MMmdl.
 37 38  0  0  0  0  0  0  0  0  2 V2000
  143.9335  135.5172  162.7609 C   0  0  0  0  0  0  0  0  0  0  0  0
  145.1898  135.9539  162.0888 C   0  0  0  0  0  0  0  0  0  0  0  0
  145.2465  137.0222  161.2898 N   0  0  0  0  0  0  0  0  0  0  0  0
  146.5215  137.2294  160.7843 N   0  0  0  0  0  0  0  0  0  0  0  0
  147.4117  136.3238  161.2138 C   0  0  0  0  0  0  0  0  0  0  0  0
  148.7001  136.3473  160.8346 N   0  5  0  0  0  0  0  0  0  0  0  0
  149.0205  136.5544  159.5369 C   0  0  0  0  0  0  0  0  0  0  0  0
  149.7721  135.8597  158.8489 O   0  0  0  0  0  0  0  0  0  0  0  0
  148.4328  137.6331  159.0027 N   0  0  0  0  0  0  0  0  0  0  0  0
  148.6045  138.0986  157.6302 C   0  0  0  0  0  0  0  0  0  0  0  0
  149.4981  139.3666  157.5453 C   0  0  1  0  0  0  0  0  0  0  0  0
  148.6616  140.5947  157.9870 C   0  0  0  0  0  0  0  0  0  0  0  0
  150.7704  139.2431  158.2955 N   0  0  0  0  0  0  0  0  0  0  0  0
  151.5278  138.0385  157.9360 C   0  0  0  0  0  0  0  0  0  0  0  0
  152.8649  137.9256  158.6889 C   0  0  0  0  0  0  0  0  0  0  0  0
  153.6501  139.0858  158.4521 O   0  0  0  0  0  0  0  0  0  0  0  0
  152.9835  140.2720  158.8607 C   0  0  0  0  0  0  0  0  0  0  0  0
  151.6495  140.4027  158.1056 C   0  0  0  0  0  0  0  0  0  0  0  0
  146.7157  135.1082  162.2858 S   0  0  0  0  0  0  0  0  0  0  0  0
  143.7148  136.1741  163.6028 H   0  0  0  0  0  0  0  0  0  0  0  0
  144.0357  134.4965  163.1297 H   0  0  0  0  0  0  0  0  0  0  0  0
  143.0989  135.5528  162.0601 H   0  0  0  0  0  0  0  0  0  0  0  0
  147.8250  138.1761  159.5982 H   0  0  0  0  0  0  0  0  0  0  0  0
  149.0321  137.3024  157.0185 H   0  0  0  0  0  0  0  0  0  0  0  0
  147.5993  138.2873  157.2573 H   0  0  0  0  0  0  0  0  0  0  0  0
  149.7433  139.5108  156.4918 H   0  0  0  0  0  0  0  0  0  0  0  0
  147.7018  140.6530  157.4748 H   0  0  0  0  0  0  0  0  0  0  0  0
  149.1591  141.5369  157.7625 H   0  0  0  0  0  0  0  0  0  0  0  0
  148.4575  140.5665  159.0578 H   0  0  0  0  0  0  0  0  0  0  0  0
  150.9591  137.1409  158.1699 H   0  0  0  0  0  0  0  0  0  0  0  0
  151.7149  138.0260  156.8611 H   0  0  0  0  0  0  0  0  0  0  0  0
  152.6958  137.8030  159.7598 H   0  0  0  0  0  0  0  0  0  0  0  0
  153.4167  137.0486  158.3502 H   0  0  0  0  0  0  0  0  0  0  0  0
  152.8173  140.2536  159.9390 H   0  0  0  0  0  0  0  0  0  0  0  0
  153.6230  141.1292  158.6502 H   0  0  0  0  0  0  0  0  0  0  0  0
  151.8480  140.5463  157.0422 H   0  0  0  0  0  0  0  0  0  0  0  0
  151.1694  141.3114  158.4637 H   0  0  0  0  0  0  0  0  0  0  0  0
  1  2  1  0  0  0  0
  1 20  1  0  0  0  0
  1 21  1  0  0  0  0
  1 22  1  0  0  0  0
  2 19  1  0  0  0  0
  2  3  2  0  0  0  0
  3  4  1  0  0  0  0
  4  5  2  0  0  0  0
  5  6  1  0  0  0  0
  5 19  1  0  0  0  0
  6  7  1  0  0  0  0
  7  8  2  0  0  0  0
  7  9  1  0  0  0  0
  9 10  1  0  0  0  0
  9 23  1  0  0  0  0
 10 11  1  0  0  0  0
 10 24  1  0  0  0  0
 10 25  1  0  0  0  0
 11 12  1  0  0  0  0
 11 13  1  0  0  0  0
 11 26  1  0  0  0  0
 12 27  1  0  0  0  0
 12 28  1  0  0  0  0
 12 29  1  0  0  0  0
 13 18  1  0  0  0  0
 13 14  1  0  0  0  0
 14 15  1  0  0  0  0
 14 30  1  0  0  0  0
 14 31  1  0  0  0  0
 15 16  1  0  0  0  0
 15 32  1  0  0  0  0
 15 33  1  0  0  0  0
 16 17  1  0  0  0  0
 17 18  1  0  0  0  0
 17 34  1  0  0  0  0
 17 35  1  0  0  0  0
 18 36  1  0  0  0  0
 18 37  1  0  0  0  0
M  CHG  1   6  -1
M  END
> <s_m_source_file>
AV-unprocessed.smi

> <i_m_source_file_index>
2069

> <i_lp_mmshare_version>
43012

> <i_f3d_flags>
0

> <s_epik_input>
W0NIM11jMW5uYyhzMSlbTkhdQyg9TylbTkhdW0NIMl1bQ0BIXShbQ0gzXSlOMltDSDJdW0NIMl1PW0NIMl1bQ0gyXTI=

> <s_epik_cmdline>
J2VwaWtfcHl0aG9uJywgJy1waCcsICc3LjAnLCAnLXRuJywgJzgnLCAnLW1hJywgJzIwMCcsICctbWV0YWxfYmluZGluZycsICctaW1hZScsICc8aW5maWxlLm1hZT4nLCAnLW9tYWUnLCAnPG91dGZpbGUubWFlPic=

> <r_lp_tautomer_probability>
1

> <r_epik_Ionization_Penalty>
3.82002

> <r_epik_Ionization_Penalty_Charging>
3.36369

> <r_epik_Ionization_Penalty_Neutral>
0.456339

> <r_epik_State_Penalty>
3.571

> <r_epik_Charging_Adjusted_Penalty>
6.93469

> <i_epik_Tot_Q>
-1

> <i_epik_Tot_abs_Q>
1

> <r_epik_Metal_State_Penalty>
0.710436

> <b_epik_Metal_Only>
1

> <s_lp_Force_Field>
OPLS_2005

> <r_lp_Energy>
26.7527

> <b_lp_Chiralities_Consistent>
1

> <s_lp_Variant>
AV-unprocessed.smi:2069-6

> <Gold.Version>
5.8.1

> <Gold.Id.Protein>
6NUR|6NUR_protein|mol2

> <Gold.PLP.Fitness>
37.9051

> <Gold.PLP.PLP>
-24.7903

> <Gold.PLP.part.hbond>
-4.0000

> <Gold.PLP.part.metal>
0.0000

> <Gold.PLP.part.buried>
-3.8015

> <Gold.PLP.part.nonpolar>
-17.3919

> <Gold.PLP.part.repulsive>
0.3576

> <Gold.PLP.ligand.clash>
0.0000

> <Gold.PLP.ligand.torsion>
1.0382

> <Gold.PLP.Chemscore.Hbond>
5.0000

> <Gold.PLP.Chemscore.CHOScore>
0.0000

> <Gold.PLP.Chemscore.Metal>
0.0000

> <Gold.Chemscore.Hbonds>
donor molecule, donor type, donor heavy atom, donor atom, acceptor molecule, acceptor atom, score
      P1  H  6896  6908       L1     8  1.00
      P1  H  6931  6943       L1     6  0.70
      P1  H  6934  6947       L1     4  1.00
      P1  H  7997  8009       L1    16  0.60

> <Gold.PLP.Chemscore.Internal.Correction>
0.1913

> <Gold.Rescore>
     Score         DG    S(hbond)    S(metal)    S(lipo)     H(rot)  DE(clash)    DE(int)     intcor
     15.35     -16.63       2.89        0.00      47.25       1.57       0.18       1.11       ----

> <Gold.Chemscore.Fitness>
15.3454

> <Gold.Chemscore.DG>
-16.6313

> <Gold.Chemscore.ZeroCoef>
-5.4800

> <Gold.Chemscore.Hbond>
2.8893

> <Gold.Chemscore.Metal>
0.0000

> <Gold.Chemscore.Lipo>
47.2525

> <Gold.Chemscore.Internal_Hbond>
0.0000

> <Gold.Chemscore.DEClash>
0.1765

> <Gold.Chemscore.DEInternal>
1.1094

> <Gold.Chemscore.Rot>
1.5732

> <Gold.Chemscore.Internal.Correction>
   9.000000E+99

> <Gold.Chemscore.Hbonds>
donor molecule, donor type, donor heavy atom, donor atom, acceptor molecule, acceptor atom, score
      P1  H  6896  6908       L1     8  0.97
      P1  H  6931  6943       L1     6  0.01
      P1  H  6934  6947       L1     4  0.77
      P1  H  7997  8009       L1    16  0.04

> <Gold.Chemscore.Hbond.Weighted>
-9.6502

> <Gold.Chemscore.Metal.Weighted>
-0.0000

> <Gold.Chemscore.Lipo.Weighted>
-5.5285

> <Gold.Chemscore.Internal_Hbond.Weighted>
0.0000

> <Gold.Chemscore.DEClash.Weighted>
0.1765

> <Gold.Chemscore.DEInternal.Weighted>
1.1094

> <Gold.Chemscore.Rot.Weighted>
4.0274

> <Gold.Chemscore.Internal.Correction.Weighted>
   9.000000E+99

> <Gold.Protein.RotatedTorsions>
[ 6907 6896 6895 6894 ] final  179.46 input  -60.11 | X-H torsion
[ 7974 7965 7964 7962 ] final  -68.21 input  175.53 | X-H torsion
[ 8008 7997 7996 7995 ] final  154.54 input   59.86 | X-H torsion
[ 10167 10162 10161 10158 ] final   55.65 input  -65.29 | X-H torsion
[ 10718 10713 10712 10709 ] final  138.11 input   66.30 | X-H torsion
[ 10763 10752 10751 10750 ] final -101.36 input  -60.55 | X-H torsion
[ 11005 11000 10999 10996 ] final  -61.90 input  -57.11 | X-H torsion

> <Gold.Protein.ActiveResidues>
 VAL166  LYS551  ARG553  GLY616  TRP617  ASP618  TYR619  PRO620  LYS621  CYS622 
 ASP623  PHE694  ASN695  SER759  ASP760  ASP761  ALA762  ILE779  LEU786  VAL792 
 PHE793  MET794  SER795  GLU796  ALA797  LYS798  CYS799  TRP800  GLU811  SER814 

> <Gold.Protein.RotatedAtoms>
  151.6713  133.3314  159.3196 H   0  0  0  0  0  0  0  0  0  0  0  0  # atno 6907 bound_to 6896
  150.7866  134.6860  159.6480 H   0  0  0  0  0  0  0  0  0  0  0  0  # atno 6908 bound_to 6896
  152.3937  134.6403  160.0149 H   0  0  0  0  0  0  0  0  0  0  0  0  # atno 6909 bound_to 6896
  145.7194  140.9045  143.0638 H   0  0  0  0  0  0  0  0  0  0  0  0  # atno 7974 bound_to 7965
  156.2526  140.1964  156.6662 H   0  0  0  0  0  0  0  0  0  0  0  0  # atno 8008 bound_to 7997
  154.6427  140.0581  156.9890 H   0  0  0  0  0  0  0  0  0  0  0  0  # atno 8009 bound_to 7997
  155.1538  140.3253  155.4428 H   0  0  0  0  0  0  0  0  0  0  0  0  # atno 8010 bound_to 7997
  140.2172  144.3827  150.6465 H   0  0  0  0  0  0  0  0  0  0  0  0  # atno 10167 bound_to 10162
  157.4288  131.1046  151.0273 H   0  0  0  0  0  0  0  0  0  0  0  0  # atno 10718 bound_to 10713
  154.7651  135.4901  153.9539 H   0  0  0  0  0  0  0  0  0  0  0  0  # atno 10763 bound_to 10752
  153.1298  135.6750  153.9204 H   0  0  0  0  0  0  0  0  0  0  0  0  # atno 10764 bound_to 10752
  153.8911  135.3121  155.3426 H   0  0  0  0  0  0  0  0  0  0  0  0  # atno 10765 bound_to 10752
  141.1341  133.6634  156.5445 H   0  0  0  0  0  0  0  0  0  0  0  0  # atno 11005 bound_to 11000
  144.6921  139.9181  143.7466 LP  0  0  0  0  0  0  0  0  0  0  0  0  # atno 17320 bound_to 7965
  146.0640  139.3632  143.0564 LP  0  0  0  0  0  0  0  0  0  0  0  0  # atno 17321 bound_to 7965
  140.6281  143.2184  151.6553 LP  0  0  0  0  0  0  0  0  0  0  0  0  # atno 17342 bound_to 10162
  139.5158  144.3368  152.0776 LP  0  0  0  0  0  0  0  0  0  0  0  0  # atno 17343 bound_to 10162
  157.1177  130.6048  149.5497 LP  0  0  0  0  0  0  0  0  0  0  0  0  # atno 17370 bound_to 10713
  155.9906  130.4957  150.7263 LP  0  0  0  0  0  0  0  0  0  0  0  0  # atno 17371 bound_to 10713
  140.4113  134.7270  157.4837 LP  0  0  0  0  0  0  0  0  0  0  0  0  # atno 17394 bound_to 11000
  140.0425  134.6246  155.8962 LP  0  0  0  0  0  0  0  0  0  0  0  0  # atno 17395 bound_to 11000

$$$$
