AV-unprocessed.smi:2243|AV-procd|sdf|9064|dock3
  -GOLD-   2272012273D 1   1.00000     0.00000
 Structure written by MMmdl.
 35 36  0  0  0  0  0  0  0  0  2 V2000
  145.6141  138.4507  154.5093 C   0  0  0  0  0  0  0  0  0  0  0  0
  146.3648  138.7311  153.1960 C   0  0  2  0  0  0  0  0  0  0  0  0
  146.6256  137.4477  152.5422 N   0  0  0  0  0  0  0  0  0  0  0  0
  145.6986  136.6156  152.0420 C   0  0  0  0  0  0  0  0  0  0  0  0
  144.4881  136.8405  152.0651 O   0  0  0  0  0  0  0  0  0  0  0  0
  146.2572  135.5157  151.5143 N   0  0  0  0  0  0  0  0  0  0  0  0
  145.5590  134.4468  150.9065 C   0  0  0  0  0  0  0  0  0  0  0  0
  146.1508  133.3982  150.3365 N   0  3  0  0  0  0  0  0  0  0  0  0
  145.1819  132.5564  149.8492 C   0  0  0  0  0  0  0  0  0  0  0  0
  143.9815  133.1516  150.1551 C   0  0  0  0  0  0  0  0  0  0  0  0
  144.2023  134.3411  150.8201 O   0  0  0  0  0  0  0  0  0  0  0  0
  147.6869  139.5186  153.3999 C   0  0  0  0  0  0  0  0  0  0  0  0
  148.7526  138.6990  154.1565 C   0  0  0  0  0  0  0  0  0  0  0  0
  150.0204  139.5292  154.4156 C   0  0  0  0  0  0  0  0  0  0  0  0
  149.6918  140.7095  155.1370 O   0  0  0  0  0  0  0  0  0  0  0  0
  148.8116  141.5632  154.4173 C   0  0  0  0  0  0  0  0  0  0  0  0
  147.4766  140.8460  154.1601 C   0  0  0  0  0  0  0  0  0  0  0  0
  145.2707  139.3698  154.9831 H   0  0  0  0  0  0  0  0  0  0  0  0
  146.2444  137.9200  155.2235 H   0  0  0  0  0  0  0  0  0  0  0  0
  144.7284  137.8397  154.3306 H   0  0  0  0  0  0  0  0  0  0  0  0
  145.7074  139.3373  152.5701 H   0  0  0  0  0  0  0  0  0  0  0  0
  147.5948  137.1731  152.4734 H   0  0  0  0  0  0  0  0  0  0  0  0
  147.1431  133.2142  150.2550 H   0  0  0  0  0  0  0  0  0  0  0  0
  145.4375  131.6361  149.3437 H   0  0  0  0  0  0  0  0  0  0  0  0
  142.9494  132.8819  149.9841 H   0  0  0  0  0  0  0  0  0  0  0  0
  148.0905  139.7621  152.4157 H   0  0  0  0  0  0  0  0  0  0  0  0
  148.3470  138.3545  155.1086 H   0  0  0  0  0  0  0  0  0  0  0  0
  149.0290  137.8083  153.5932 H   0  0  0  0  0  0  0  0  0  0  0  0
  150.7332  138.9482  155.0012 H   0  0  0  0  0  0  0  0  0  0  0  0
  150.5153  139.7875  153.4781 H   0  0  0  0  0  0  0  0  0  0  0  0
  148.6435  142.4673  155.0028 H   0  0  0  0  0  0  0  0  0  0  0  0
  149.2738  141.8738  153.4788 H   0  0  0  0  0  0  0  0  0  0  0  0
  146.8211  141.5142  153.6017 H   0  0  0  0  0  0  0  0  0  0  0  0
  146.9824  140.6499  155.1126 H   0  0  0  0  0  0  0  0  0  0  0  0
  147.2627  135.4362  151.5506 H   0  0  0  0  0  0  0  0  0  0  0  0
  1  2  1  0  0  0  0
  1 18  1  0  0  0  0
  1 19  1  0  0  0  0
  1 20  1  0  0  0  0
  2  3  1  0  0  0  0
  2 12  1  0  0  0  0
  2 21  1  0  0  0  0
  3 22  1  0  0  0  0
  3  4  1  0  0  0  0
  4  6  1  0  0  0  0
  4  5  2  0  0  0  0
  6  7  1  0  0  0  0
  6 35  1  0  0  0  0
  7 11  1  0  0  0  0
  7  8  2  0  0  0  0
  8 23  1  0  0  0  0
  8  9  1  0  0  0  0
  9 24  1  0  0  0  0
  9 10  2  0  0  0  0
 10 25  1  0  0  0  0
 10 11  1  0  0  0  0
 12 17  1  0  0  0  0
 12 13  1  0  0  0  0
 12 26  1  0  0  0  0
 13 14  1  0  0  0  0
 13 27  1  0  0  0  0
 13 28  1  0  0  0  0
 14 15  1  0  0  0  0
 14 29  1  0  0  0  0
 14 30  1  0  0  0  0
 15 16  1  0  0  0  0
 16 17  1  0  0  0  0
 16 31  1  0  0  0  0
 16 32  1  0  0  0  0
 17 33  1  0  0  0  0
 17 34  1  0  0  0  0
M  CHG  1   8   1
M  END
> <s_m_source_file>
AV-unprocessed.smi

> <i_m_source_file_index>
2243

> <i_lp_mmshare_version>
43012

> <i_f3d_flags>
0

> <s_epik_input>
W0NIMl0xW0NIMl1PW0NIMl1bQ0gyXVtDSF0xW0NASF0oW0NIM10pW05IXUMoPU8pW05IXWMybltjSF1bY0hdbzI=

> <s_epik_cmdline>
J2VwaWtfcHl0aG9uJywgJy1waCcsICc3LjAnLCAnLXRuJywgJzgnLCAnLW1hJywgJzIwMCcsICctbWV0YWxfYmluZGluZycsICctaW1hZScsICc8aW5maWxlLm1hZT4nLCAnLW9tYWUnLCAnPG91dGZpbGUubWFlPic=

> <r_epik_Ionization_Penalty>
6.61405

> <r_epik_Ionization_Penalty_Charging>
6.55981

> <r_epik_Ionization_Penalty_Neutral>
0.0542461

> <r_epik_State_Penalty>
1.79186

> <r_epik_Charging_Adjusted_Penalty>
8.35167

> <i_epik_Tot_Q>
1

> <i_epik_Tot_abs_Q>
1

> <r_epik_Metal_State_Penalty>
1.80655

> <b_epik_Metal_Only>
0

> <s_lp_Force_Field>
OPLS_2005

> <r_lp_Energy>
19.6033

> <b_lp_Chiralities_Consistent>
1

> <s_lp_Variant>
AV-unprocessed.smi:2243-3

> <Gold.Version>
5.8.1

> <Gold.Id.Protein>
6NUR|6NUR_protein|mol2

> <Gold.PLP.Fitness>
34.2870

> <Gold.PLP.PLP>
-25.6383

> <Gold.PLP.part.hbond>
-3.0000

> <Gold.PLP.part.metal>
0.0000

> <Gold.PLP.part.buried>
-2.6073

> <Gold.PLP.part.nonpolar>
-21.7037

> <Gold.PLP.part.repulsive>
1.7176

> <Gold.PLP.ligand.clash>
0.0000

> <Gold.PLP.ligand.torsion>
0.1003

> <Gold.PLP.Chemscore.Hbond>
2.0000

> <Gold.PLP.Chemscore.CHOScore>
0.9445

> <Gold.PLP.Chemscore.Metal>
0.0000

> <Gold.Chemscore.Hbonds>
donor molecule, donor type, donor heavy atom, donor atom, acceptor molecule, acceptor atom, score
      L1  H     3    22       P1  7948  1.00
      L1  H     6    35       P1  7948  1.00
      L1  C    10    25       P1 10186  0.96

> <Gold.PLP.Chemscore.Internal.Correction>
0.0157

> <Gold.Rescore>
     Score         DG    S(hbond)    S(metal)    S(lipo)     H(rot)  DE(clash)    DE(int)     intcor
     13.75     -15.27       1.91        0.00      58.44       1.33       0.08       1.45       ----

> <Gold.Chemscore.Fitness>
13.7482

> <Gold.Chemscore.DG>
-15.2739

> <Gold.Chemscore.ZeroCoef>
-5.4800

> <Gold.Chemscore.Hbond>
1.9061

> <Gold.Chemscore.Metal>
0.0000

> <Gold.Chemscore.Lipo>
58.4422

> <Gold.Chemscore.Internal_Hbond>
0.0000

> <Gold.Chemscore.DEClash>
0.0789

> <Gold.Chemscore.DEInternal>
1.4468

> <Gold.Chemscore.Rot>
1.3321

> <Gold.Chemscore.Internal.Correction>
   9.000000E+99

> <Gold.Chemscore.Hbonds>
donor molecule, donor type, donor heavy atom, donor atom, acceptor molecule, acceptor atom, score
      L1  H     3    22       P1  7948  0.98
      L1  H     6    35       P1  7948  0.92

> <Gold.Chemscore.Hbond.Weighted>
-6.3664

> <Gold.Chemscore.Metal.Weighted>
-0.0000

> <Gold.Chemscore.Lipo.Weighted>
-6.8377

> <Gold.Chemscore.Internal_Hbond.Weighted>
0.0000

> <Gold.Chemscore.DEClash.Weighted>
0.0789

> <Gold.Chemscore.DEInternal.Weighted>
1.4468

> <Gold.Chemscore.Rot.Weighted>
3.4103

> <Gold.Chemscore.Internal.Correction.Weighted>
   9.000000E+99

> <Gold.Protein.RotatedTorsions>
[ 6907 6896 6895 6894 ] final  -22.53 input  -60.11 | X-H torsion
[ 7974 7965 7964 7962 ] final  -18.24 input  175.53 | X-H torsion
[ 8008 7997 7996 7995 ] final   22.25 input   59.86 | X-H torsion
[ 10167 10162 10161 10158 ] final  -79.33 input  -65.29 | X-H torsion
[ 10718 10713 10712 10709 ] final  -63.02 input   66.30 | X-H torsion
[ 10763 10752 10751 10750 ] final   97.38 input  -60.55 | X-H torsion
[ 11005 11000 10999 10996 ] final  134.07 input  -57.11 | X-H torsion

> <Gold.Protein.ActiveResidues>
 VAL166  LYS551  ARG553  GLY616  TRP617  ASP618  TYR619  PRO620  LYS621  CYS622 
 ASP623  PHE694  ASN695  SER759  ASP760  ASP761  ALA762  ILE779  LEU786  VAL792 
 PHE793  MET794  SER795  GLU796  ALA797  LYS798  CYS799  TRP800  GLU811  SER814 

> <Gold.Protein.RotatedAtoms>
  151.2173  135.0505  159.8935 H   0  0  0  0  0  0  0  0  0  0  0  0  # atno 6907 bound_to 6896
  152.5419  134.0679  159.8191 H   0  0  0  0  0  0  0  0  0  0  0  0  # atno 6908 bound_to 6896
  151.0840  133.5319  159.2650 H   0  0  0  0  0  0  0  0  0  0  0  0  # atno 6909 bound_to 6896
  146.1902  140.3894  142.8461 H   0  0  0  0  0  0  0  0  0  0  0  0  # atno 7974 bound_to 7965
  154.9628  140.3080  155.5023 H   0  0  0  0  0  0  0  0  0  0  0  0  # atno 8008 bound_to 7997
  156.2975  140.2298  156.4654 H   0  0  0  0  0  0  0  0  0  0  0  0  # atno 8009 bound_to 7997
  154.7949  140.0437  157.1217 H   0  0  0  0  0  0  0  0  0  0  0  0  # atno 8010 bound_to 7997
  140.4603  143.2456  151.8359 H   0  0  0  0  0  0  0  0  0  0  0  0  # atno 10167 bound_to 10162
  156.0818  130.4216  150.1217 H   0  0  0  0  0  0  0  0  0  0  0  0  # atno 10718 bound_to 10713
  153.2762  135.4185  155.1035 H   0  0  0  0  0  0  0  0  0  0  0  0  # atno 10763 bound_to 10752
  154.8473  135.3484  154.6175 H   0  0  0  0  0  0  0  0  0  0  0  0  # atno 10764 bound_to 10752
  153.6595  135.7049  153.5239 H   0  0  0  0  0  0  0  0  0  0  0  0  # atno 10765 bound_to 10752
  139.9891  134.9521  156.9814 H   0  0  0  0  0  0  0  0  0  0  0  0  # atno 11005 bound_to 11000
  144.8471  140.6946  143.6192 LP  0  0  0  0  0  0  0  0  0  0  0  0  # atno 17320 bound_to 7965
  145.3817  139.1635  143.4277 LP  0  0  0  0  0  0  0  0  0  0  0  0  # atno 17321 bound_to 7965
  139.4805  144.5016  151.9053 LP  0  0  0  0  0  0  0  0  0  0  0  0  # atno 17342 bound_to 10162
  140.4102  144.2379  150.5889 LP  0  0  0  0  0  0  0  0  0  0  0  0  # atno 17343 bound_to 10162
  156.9247  130.9694  151.3543 LP  0  0  0  0  0  0  0  0  0  0  0  0  # atno 17370 bound_to 10713
  157.5937  130.8462  149.8697 LP  0  0  0  0  0  0  0  0  0  0  0  0  # atno 17371 bound_to 10713
  140.4943  134.1161  155.7238 LP  0  0  0  0  0  0  0  0  0  0  0  0  # atno 17394 bound_to 11000
  141.1551  133.8898  157.1999 LP  0  0  0  0  0  0  0  0  0  0  0  0  # atno 17395 bound_to 11000

$$$$
