AV-unprocessed.smi:1603|AV-procd|sdf|6445|dock3
  -GOLD-   22720 7 93D 1   1.00000     0.00000
 Structure written by MMmdl.
 44 46  0  0  0  0  0  0  0  0  1 V2000
  153.3160  139.3468  158.4671 O   0  0  0  0  0  0  0  0  0  0  0  0
  152.9694  140.4278  158.9443 C   0  0  0  0  0  0  0  0  0  0  0  0
  153.6455  141.0600  160.0875 C   0  0  0  0  0  0  0  0  0  0  0  0
  154.8519  140.3446  160.6898 C   0  0  0  0  0  0  0  0  0  0  0  0
  155.2365  140.9053  161.8374 F   0  0  0  0  0  0  0  0  0  0  0  0
  154.5622  139.0666  160.9364 F   0  0  0  0  0  0  0  0  0  0  0  0
  155.8879  140.3829  159.8505 F   0  0  0  0  0  0  0  0  0  0  0  0
  153.2016  142.2465  160.5688 C   0  0  0  0  0  0  0  0  0  0  0  0
  152.0559  142.8972  159.9667 C   0  0  0  0  0  0  0  0  0  0  0  0
  151.4978  144.2012  160.4605 C   0  0  0  0  0  0  0  0  0  0  0  0
  150.2072  144.7805  159.9273 C   0  0  0  0  0  0  0  0  0  0  0  0
  151.5251  145.4484  159.6081 C   0  0  0  0  0  0  0  0  0  0  0  0
  151.4714  142.3460  158.9571 N   0  0  0  0  0  0  0  0  0  0  0  0
  151.9191  141.1441  158.4435 N   0  0  0  0  0  0  0  0  0  0  0  0
  151.1439  140.6755  157.2855 C   0  0  0  0  0  0  0  0  0  0  0  0
  149.8780  141.5263  157.0393 C   0  0  2  0  0  0  0  0  0  0  0  0
  150.3065  142.8528  156.8034 O   0  0  0  0  0  0  0  0  0  0  0  0
  148.8852  141.5246  158.2243 C   0  0  0  0  0  0  0  0  0  0  0  0
  147.5039  141.8570  157.8780 N   0  0  0  0  0  0  0  0  0  0  0  0
  147.0813  141.1478  156.6751 C   0  0  0  0  0  0  0  0  0  0  0  0
  145.6301  141.4833  156.2899 C   0  0  0  0  0  0  0  0  0  0  0  0
  144.7668  141.1811  157.3809 O   0  0  0  0  0  0  0  0  0  0  0  0
  145.1151  141.8864  158.5678 C   0  0  0  0  0  0  0  0  0  0  0  0
  146.5670  141.5590  158.9589 C   0  0  0  0  0  0  0  0  0  0  0  0
  153.6884  142.7283  161.4037 H   0  0  0  0  0  0  0  0  0  0  0  0
  151.6892  144.3237  161.5250 H   0  0  0  0  0  0  0  0  0  0  0  0
  149.7041  144.2613  159.1137 H   0  0  0  0  0  0  0  0  0  0  0  0
  149.5505  145.2791  160.6374 H   0  0  0  0  0  0  0  0  0  0  0  0
  151.7460  146.3905  160.1057 H   0  0  0  0  0  0  0  0  0  0  0  0
  151.8945  145.3623  158.5878 H   0  0  0  0  0  0  0  0  0  0  0  0
  151.7450  140.6246  156.3762 H   0  0  0  0  0  0  0  0  0  0  0  0
  150.8503  139.6428  157.4845 H   0  0  0  0  0  0  0  0  0  0  0  0
  149.3823  141.1716  156.1343 H   0  0  0  0  0  0  0  0  0  0  0  0
  149.5811  143.3438  156.4490 H   0  0  0  0  0  0  0  0  0  0  0  0
  148.8756  140.5245  158.6541 H   0  0  0  0  0  0  0  0  0  0  0  0
  149.2452  142.1719  159.0259 H   0  0  0  0  0  0  0  0  0  0  0  0
  147.7406  141.4011  155.8442 H   0  0  0  0  0  0  0  0  0  0  0  0
  147.1724  140.0714  156.8288 H   0  0  0  0  0  0  0  0  0  0  0  0
  145.5351  142.5365  156.0212 H   0  0  0  0  0  0  0  0  0  0  0  0
  145.3239  140.9011  155.4209 H   0  0  0  0  0  0  0  0  0  0  0  0
  144.9905  142.9591  158.4105 H   0  0  0  0  0  0  0  0  0  0  0  0
  144.4329  141.5984  159.3676 H   0  0  0  0  0  0  0  0  0  0  0  0
  146.6395  140.5049  159.2311 H   0  0  0  0  0  0  0  0  0  0  0  0
  146.8256  142.1305  159.8500 H   0  0  0  0  0  0  0  0  0  0  0  0
  1  2  2  0  0  0  0
  2 14  1  0  0  0  0
  2  3  1  0  0  0  0
  3  4  1  0  0  0  0
  3  8  2  0  0  0  0
  4  5  1  0  0  0  0
  4  6  1  0  0  0  0
  4  7  1  0  0  0  0
  8  9  1  0  0  0  0
  8 25  1  0  0  0  0
  9 10  1  0  0  0  0
  9 13  2  0  0  0  0
 10 12  1  0  0  0  0
 10 11  1  0  0  0  0
 10 26  1  0  0  0  0
 11 12  1  0  0  0  0
 11 27  1  0  0  0  0
 11 28  1  0  0  0  0
 12 29  1  0  0  0  0
 12 30  1  0  0  0  0
 13 14  1  0  0  0  0
 14 15  1  0  0  0  0
 15 16  1  0  0  0  0
 15 31  1  0  0  0  0
 15 32  1  0  0  0  0
 16 17  1  0  0  0  0
 16 18  1  0  0  0  0
 16 33  1  0  0  0  0
 17 34  1  0  0  0  0
 18 19  1  0  0  0  0
 18 35  1  0  0  0  0
 18 36  1  0  0  0  0
 19 24  1  0  0  0  0
 19 20  1  0  0  0  0
 20 21  1  0  0  0  0
 20 37  1  0  0  0  0
 20 38  1  0  0  0  0
 21 22  1  0  0  0  0
 21 39  1  0  0  0  0
 21 40  1  0  0  0  0
 22 23  1  0  0  0  0
 23 24  1  0  0  0  0
 23 41  1  0  0  0  0
 23 42  1  0  0  0  0
 24 43  1  0  0  0  0
 24 44  1  0  0  0  0
M  END
> <s_m_source_file>
AV-unprocessed.smi

> <i_m_source_file_index>
1603

> <i_lp_mmshare_version>
43012

> <i_f3d_flags>
0

> <s_epik_input>
Tz1jMWMoQyhGKShGKUYpW2NIXWMoW0NIXTJbQ0gyXVtDSDJdMilubjFbQ0gyXVtDQEhdKFtPSF0pW0NIMl1OM1tDSDJdW0NIMl1PW0NIMl1bQ0gyXTM=

> <s_epik_cmdline>
J2VwaWtfcHl0aG9uJywgJy1waCcsICc3LjAnLCAnLXRuJywgJzgnLCAnLW1hJywgJzIwMCcsICctbWV0YWxfYmluZGluZycsICctaW1hZScsICc8aW5maWxlLm1hZT4nLCAnLW9tYWUnLCAnPG91dGZpbGUubWFlPic=

> <r_lp_tautomer_probability>
1

> <r_epik_Ionization_Penalty>
0.450313

> <r_epik_Ionization_Penalty_Charging>
7.22079e-10

> <r_epik_Ionization_Penalty_Neutral>
0.450313

> <r_epik_State_Penalty>
0.45306

> <r_epik_Charging_Adjusted_Penalty>
0.45306

> <i_epik_Tot_Q>
0

> <i_epik_Tot_abs_Q>
0

> <r_epik_Metal_State_Penalty>
0.45306

> <b_epik_Metal_Only>
0

> <s_lp_Force_Field>
OPLS_2005

> <r_lp_Energy>
49.46

> <b_lp_Chiralities_Consistent>
1

> <s_lp_Variant>
AV-unprocessed.smi:1603-3

> <Gold.Version>
5.8.1

> <Gold.Id.Protein>
6NUR|6NUR_protein|mol2

> <Gold.PLP.Fitness>
51.4066

> <Gold.PLP.PLP>
-46.2307

> <Gold.PLP.part.hbond>
-2.0000

> <Gold.PLP.part.metal>
0.0000

> <Gold.PLP.part.buried>
-5.2237

> <Gold.PLP.part.nonpolar>
-39.4353

> <Gold.PLP.part.repulsive>
1.4227

> <Gold.PLP.ligand.clash>
0.0888

> <Gold.PLP.ligand.torsion>
0.7673

> <Gold.PLP.Chemscore.Hbond>
2.0000

> <Gold.PLP.Chemscore.CHOScore>
0.0000

> <Gold.PLP.Chemscore.Metal>
0.0000

> <Gold.Chemscore.Hbonds>
donor molecule, donor type, donor heavy atom, donor atom, acceptor molecule, acceptor atom, score
      L1  H    17    34       P1  8028  1.00
      P1  H  7997  8010       L1     1  0.93

> <Gold.PLP.Chemscore.Internal.Correction>
0.7994

> <Gold.Rescore>
     Score         DG    S(hbond)    S(metal)    S(lipo)     H(rot)  DE(clash)    DE(int)     intcor
     12.73     -17.05       1.97        0.00      95.83       2.43       0.14       4.17       ----

> <Gold.Chemscore.Fitness>
12.7309

> <Gold.Chemscore.DG>
-17.0466

> <Gold.Chemscore.ZeroCoef>
-5.4800

> <Gold.Chemscore.Hbond>
1.9666

> <Gold.Chemscore.Metal>
0.0000

> <Gold.Chemscore.Lipo>
95.8271

> <Gold.Chemscore.Internal_Hbond>
0.0000

> <Gold.Chemscore.DEClash>
0.1411

> <Gold.Chemscore.DEInternal>
4.1746

> <Gold.Chemscore.Rot>
2.4272

> <Gold.Chemscore.Internal.Correction>
   9.000000E+99

> <Gold.Chemscore.Hbonds>
donor molecule, donor type, donor heavy atom, donor atom, acceptor molecule, acceptor atom, score
      L1  H    17    34       P1  8028  0.97
      P1  H  7997  8010       L1     1  0.20

> <Gold.Chemscore.Hbond.Weighted>
-6.5683

> <Gold.Chemscore.Metal.Weighted>
-0.0000

> <Gold.Chemscore.Lipo.Weighted>
-11.2118

> <Gold.Chemscore.Internal_Hbond.Weighted>
0.0000

> <Gold.Chemscore.DEClash.Weighted>
0.1411

> <Gold.Chemscore.DEInternal.Weighted>
4.1746

> <Gold.Chemscore.Rot.Weighted>
6.2135

> <Gold.Chemscore.Internal.Correction.Weighted>
   9.000000E+99

> <Gold.Protein.RotatedTorsions>
[ 6907 6896 6895 6894 ] final -130.50 input  -60.11 | X-H torsion
[ 7974 7965 7964 7962 ] final -151.87 input  175.53 | X-H torsion
[ 8008 7997 7996 7995 ] final   26.59 input   59.86 | X-H torsion
[ 10167 10162 10161 10158 ] final   24.03 input  -65.29 | X-H torsion
[ 10718 10713 10712 10709 ] final  111.22 input   66.30 | X-H torsion
[ 10763 10752 10751 10750 ] final  120.02 input  -60.55 | X-H torsion
[ 11005 11000 10999 10996 ] final  150.95 input  -57.11 | X-H torsion

> <Gold.Protein.ActiveResidues>
 VAL166  LYS551  ARG553  GLY616  TRP617  ASP618  TYR619  PRO620  LYS621  CYS622 
 ASP623  PHE694  ASN695  SER759  ASP760  ASP761  ALA762  ILE779  LEU786  VAL792 
 PHE793  MET794  SER795  GLU796  ALA797  LYS798  CYS799  TRP800  GLU811  SER814 

> <Gold.Protein.RotatedAtoms>
  150.9405  133.6662  159.2791 H   0  0  0  0  0  0  0  0  0  0  0  0  # atno 6907 bound_to 6896
  151.4053  135.0976  159.9578 H   0  0  0  0  0  0  0  0  0  0  0  0  # atno 6908 bound_to 6896
  152.5067  133.8890  159.7439 H   0  0  0  0  0  0  0  0  0  0  0  0  # atno 6909 bound_to 6896
  144.7825  140.4739  143.5829 H   0  0  0  0  0  0  0  0  0  0  0  0  # atno 7974 bound_to 7965
  155.0296  140.3157  155.4763 H   0  0  0  0  0  0  0  0  0  0  0  0  # atno 8008 bound_to 7997
  156.2876  140.2182  156.5360 H   0  0  0  0  0  0  0  0  0  0  0  0  # atno 8009 bound_to 7997
  154.7381  140.0476  157.0775 H   0  0  0  0  0  0  0  0  0  0  0  0  # atno 8010 bound_to 7997
  140.5221  143.9985  150.6422 H   0  0  0  0  0  0  0  0  0  0  0  0  # atno 10167 bound_to 10162
  157.6455  131.0947  150.6716 H   0  0  0  0  0  0  0  0  0  0  0  0  # atno 10718 bound_to 10713
  153.5920  135.3464  155.2914 H   0  0  0  0  0  0  0  0  0  0  0  0  # atno 10763 bound_to 10752
  154.8651  135.4207  154.2506 H   0  0  0  0  0  0  0  0  0  0  0  0  # atno 10764 bound_to 10752
  153.3315  135.7044  153.7014 H   0  0  0  0  0  0  0  0  0  0  0  0  # atno 10765 bound_to 10752
  140.1176  134.8884  157.2026 H   0  0  0  0  0  0  0  0  0  0  0  0  # atno 11005 bound_to 11000
  145.6010  139.1504  143.3129 LP  0  0  0  0  0  0  0  0  0  0  0  0  # atno 17320 bound_to 7965
  146.2041  140.6131  142.9089 LP  0  0  0  0  0  0  0  0  0  0  0  0  # atno 17321 bound_to 7965
  140.3336  143.3062  152.0661 LP  0  0  0  0  0  0  0  0  0  0  0  0  # atno 17342 bound_to 10162
  139.4926  144.6491  151.6713 LP  0  0  0  0  0  0  0  0  0  0  0  0  # atno 17343 bound_to 10162
  156.7034  130.4630  149.5566 LP  0  0  0  0  0  0  0  0  0  0  0  0  # atno 17370 bound_to 10713
  156.1779  130.6480  151.0917 LP  0  0  0  0  0  0  0  0  0  0  0  0  # atno 17371 bound_to 10713
  140.3008  134.3134  155.7290 LP  0  0  0  0  0  0  0  0  0  0  0  0  # atno 17394 bound_to 11000
  141.2144  133.7591  156.9637 LP  0  0  0  0  0  0  0  0  0  0  0  0  # atno 17395 bound_to 11000

$$$$
