AV-unprocessed.smi:1715|AV-procd|sdf|6915|dock9
  -GOLD-   22720 8123D 1   1.00000     0.00000
 Structure written by MMmdl.
 41 42  0  0  0  0  0  0  0  0  2 V2000
  148.7061  135.8093  156.6965 C   0  0  0  0  0  0  0  0  0  0  0  0
  149.1723  136.6847  155.5285 C   0  0  1  0  0  0  0  0  0  0  0  0
  148.0120  137.4826  154.9072 C   0  0  0  0  0  0  0  0  0  0  0  0
  148.5121  138.3832  153.8430 N   0  3  1  0  0  0  0  0  0  0  0  0
  147.4131  139.0960  153.1458 C   0  0  0  0  0  0  0  0  0  0  0  0
  146.1712  138.2071  152.9374 C   0  0  0  0  0  0  0  0  0  0  0  0
  146.4928  137.0058  152.1760 N   0  0  0  0  0  0  0  0  0  0  0  0
  145.5931  136.1290  151.7082 C   0  0  0  0  0  0  0  0  0  0  0  0
  144.3794  136.2453  151.8802 O   0  0  0  0  0  0  0  0  0  0  0  0
  146.1883  135.1264  151.0418 N   0  0  0  0  0  0  0  0  0  0  0  0
  145.5640  134.0134  150.4240 C   0  0  0  0  0  0  0  0  0  0  0  0
  146.2227  132.7992  150.0892 C   0  0  0  0  0  0  0  0  0  0  0  0
  145.3898  131.9371  149.5240 N   0  0  0  0  0  0  0  0  0  0  0  0
  144.2055  132.5893  149.4958 N   0  0  0  0  0  0  0  0  0  0  0  0
  144.2639  133.8563  150.0332 C   0  0  0  0  0  0  0  0  0  0  0  0
  149.5568  139.2868  154.3855 C   0  0  0  0  0  0  0  0  0  0  0  0
  150.6918  138.4861  155.0538 C   0  0  2  0  0  0  0  0  0  0  0  0
  151.6165  137.7760  154.0490 C   0  0  0  0  0  0  0  0  0  0  0  0
  150.1565  137.5876  156.0253 O   0  0  0  0  0  0  0  0  0  0  0  0
  143.3753  132.1616  149.1107 H   0  0  0  0  0  0  0  0  0  0  0  0
  147.9579  135.0859  156.3720 H   0  0  0  0  0  0  0  0  0  0  0  0
  148.2662  136.4125  157.4915 H   0  0  0  0  0  0  0  0  0  0  0  0
  149.5412  135.2540  157.1242 H   0  0  0  0  0  0  0  0  0  0  0  0
  149.6156  136.0340  154.7745 H   0  0  0  0  0  0  0  0  0  0  0  0
  147.2769  136.7917  154.4922 H   0  0  0  0  0  0  0  0  0  0  0  0
  147.5020  138.0715  155.6718 H   0  0  0  0  0  0  0  0  0  0  0  0
  147.1140  139.9594  153.7421 H   0  0  0  0  0  0  0  0  0  0  0  0
  147.7802  139.4898  152.1969 H   0  0  0  0  0  0  0  0  0  0  0  0
  145.7241  137.9135  153.8874 H   0  0  0  0  0  0  0  0  0  0  0  0
  145.4063  138.7591  152.3909 H   0  0  0  0  0  0  0  0  0  0  0  0
  147.4693  136.8326  151.9857 H   0  0  0  0  0  0  0  0  0  0  0  0
  147.1946  135.1601  150.9701 H   0  0  0  0  0  0  0  0  0  0  0  0
  147.2560  132.5203  150.2348 H   0  0  0  0  0  0  0  0  0  0  0  0
  143.4007  134.5031  150.0838 H   0  0  0  0  0  0  0  0  0  0  0  0
  149.9727  139.9184  153.6015 H   0  0  0  0  0  0  0  0  0  0  0  0
  149.1023  139.9558  155.1180 H   0  0  0  0  0  0  0  0  0  0  0  0
  151.3129  139.1912  155.6071 H   0  0  0  0  0  0  0  0  0  0  0  0
  152.1173  138.5010  153.4070 H   0  0  0  0  0  0  0  0  0  0  0  0
  151.0747  137.0897  153.3987 H   0  0  0  0  0  0  0  0  0  0  0  0
  152.3891  137.2073  154.5666 H   0  0  0  0  0  0  0  0  0  0  0  0
  148.9566  137.7914  153.1554 H   0  0  0  0  0  0  0  0  0  0  0  0
  1  2  1  0  0  0  0
  1 21  1  0  0  0  0
  1 22  1  0  0  0  0
  1 23  1  0  0  0  0
  2 19  1  0  0  0  0
  2  3  1  0  0  0  0
  2 24  1  0  0  0  0
  3  4  1  0  0  0  0
  3 25  1  0  0  0  0
  3 26  1  0  0  0  0
  4  5  1  0  0  0  0
  4 16  1  0  0  0  0
  4 41  1  0  0  0  0
  5  6  1  0  0  0  0
  5 27  1  0  0  0  0
  5 28  1  0  0  0  0
  6  7  1  0  0  0  0
  6 29  1  0  0  0  0
  6 30  1  0  0  0  0
  7  8  1  0  0  0  0
  7 31  1  0  0  0  0
  8  9  2  0  0  0  0
  8 10  1  0  0  0  0
 10 11  1  0  0  0  0
 10 32  1  0  0  0  0
 11 15  2  0  0  0  0
 11 12  1  0  0  0  0
 12 13  2  0  0  0  0
 12 33  1  0  0  0  0
 13 14  1  0  0  0  0
 14 20  1  0  0  0  0
 14 15  1  0  0  0  0
 15 34  1  0  0  0  0
 16 17  1  0  0  0  0
 16 35  1  0  0  0  0
 16 36  1  0  0  0  0
 17 18  1  0  0  0  0
 17 19  1  0  0  0  0
 17 37  1  0  0  0  0
 18 38  1  0  0  0  0
 18 39  1  0  0  0  0
 18 40  1  0  0  0  0
M  CHG  1   4   1
M  END
> <s_m_source_file>
AV-unprocessed.smi

> <i_m_source_file_index>
1715

> <i_lp_mmshare_version>
43012

> <i_f3d_flags>
0

> <s_epik_input>
W0NIM11bQ0BASF0xW0NIMl1OKFtDSDJdW0NASF0oTzEpW0NIM10pW0NIMl1bQ0gyXVtOSF1DKD1PKVtOSF1jMltjSF1uW25IXVtjSF0y

> <s_epik_cmdline>
J2VwaWtfcHl0aG9uJywgJy1waCcsICc3LjAnLCAnLXRuJywgJzgnLCAnLW1hJywgJzIwMCcsICctbWV0YWxfYmluZGluZycsICctaW1hZScsICc8aW5maWxlLm1hZT4nLCAnLW9tYWUnLCAnPG91dGZpbGUubWFlPic=

> <r_lp_tautomer_probability>
0.5

> <r_epik_Ionization_Penalty>
0.646007

> <r_epik_Ionization_Penalty_Charging>
0.645968

> <r_epik_Ionization_Penalty_Neutral>
3.91671e-05

> <r_epik_State_Penalty>
0.664063

> <r_epik_Charging_Adjusted_Penalty>
1.31003

> <i_epik_Tot_Q>
1

> <i_epik_Tot_abs_Q>
1

> <r_epik_Metal_State_Penalty>
0.664064

> <b_epik_Metal_Only>
0

> <s_lp_Force_Field>
OPLS_2005

> <r_lp_Energy>
20.0624

> <b_lp_Chiralities_Consistent>
1

> <s_lp_Variant>
AV-unprocessed.smi:1715-7

> <Gold.Version>
5.8.1

> <Gold.Id.Protein>
6NUR|6NUR_protein|mol2

> <Gold.PLP.Fitness>
41.8801

> <Gold.PLP.PLP>
-25.7444

> <Gold.PLP.part.hbond>
-3.0000

> <Gold.PLP.part.metal>
0.0000

> <Gold.PLP.part.buried>
-3.4111

> <Gold.PLP.part.nonpolar>
-19.9692

> <Gold.PLP.part.repulsive>
0.5980

> <Gold.PLP.ligand.clash>
0.0000

> <Gold.PLP.ligand.torsion>
0.2875

> <Gold.PLP.Chemscore.Hbond>
3.5650

> <Gold.PLP.Chemscore.CHOScore>
2.0000

> <Gold.PLP.Chemscore.Metal>
0.0000

> <Gold.Chemscore.Hbonds>
donor molecule, donor type, donor heavy atom, donor atom, acceptor molecule, acceptor atom, score
      L1  H     4    41       P1  7948  2.00
      L1  H     7    31       P1  7948  1.00
      L1  H    10    32       P1  7948  0.51
      L1  C    12    33       P1 10747  1.00
      L1  C    15    34       P1 10186  1.00

> <Gold.PLP.Chemscore.Internal.Correction>
0.0157

> <Gold.Rescore>
     Score         DG    S(hbond)    S(metal)    S(lipo)     H(rot)  DE(clash)    DE(int)     intcor
     15.64     -16.11       2.28        0.00      62.14       1.67       0.02       0.45       ----

> <Gold.Chemscore.Fitness>
15.6433

> <Gold.Chemscore.DG>
-16.1144

> <Gold.Chemscore.ZeroCoef>
-5.4800

> <Gold.Chemscore.Hbond>
2.2848

> <Gold.Chemscore.Metal>
0.0000

> <Gold.Chemscore.Lipo>
62.1449

> <Gold.Chemscore.Internal_Hbond>
0.0000

> <Gold.Chemscore.DEClash>
0.0234

> <Gold.Chemscore.DEInternal>
0.4476

> <Gold.Chemscore.Rot>
1.6671

> <Gold.Chemscore.Internal.Correction>
   9.000000E+99

> <Gold.Chemscore.Hbonds>
donor molecule, donor type, donor heavy atom, donor atom, acceptor molecule, acceptor atom, score
      L1  H     4    41       P1  7948  0.94
      L1  H     7    31       P1  7948  0.98
      L1  H    10    32       P1  7948  0.26

> <Gold.Chemscore.Hbond.Weighted>
-7.6312

> <Gold.Chemscore.Metal.Weighted>
-0.0000

> <Gold.Chemscore.Lipo.Weighted>
-7.2710

> <Gold.Chemscore.Internal_Hbond.Weighted>
0.0000

> <Gold.Chemscore.DEClash.Weighted>
0.0234

> <Gold.Chemscore.DEInternal.Weighted>
0.4476

> <Gold.Chemscore.Rot.Weighted>
4.2677

> <Gold.Chemscore.Internal.Correction.Weighted>
   9.000000E+99

> <Gold.Protein.RotatedTorsions>
[ 6907 6896 6895 6894 ] final -117.94 input  -60.11 | X-H torsion
[ 7974 7965 7964 7962 ] final  -43.14 input  175.53 | X-H torsion
[ 8008 7997 7996 7995 ] final  -39.52 input   59.86 | X-H torsion
[ 10167 10162 10161 10158 ] final   20.22 input  -65.29 | X-H torsion
[ 10718 10713 10712 10709 ] final  116.62 input   66.30 | X-H torsion
[ 10763 10752 10751 10750 ] final   10.75 input  -60.55 | X-H torsion
[ 11005 11000 10999 10996 ] final  147.71 input  -57.11 | X-H torsion

> <Gold.Protein.ActiveResidues>
 VAL166  LYS551  ARG553  GLY616  TRP617  ASP618  TYR619  PRO620  LYS621  CYS622 
 ASP623  PHE694  ASN695  SER759  ASP760  ASP761  ALA762  ILE779  LEU786  VAL792 
 PHE793  MET794  SER795  GLU796  ALA797  LYS798  CYS799  TRP800  GLU811  SER814 

> <Gold.Protein.RotatedAtoms>
  150.8178  133.8306  159.3152 H   0  0  0  0  0  0  0  0  0  0  0  0  # atno 6907 bound_to 6896
  151.6072  135.1041  160.0083 H   0  0  0  0  0  0  0  0  0  0  0  0  # atno 6908 bound_to 6896
  152.4269  133.7170  159.6568 H   0  0  0  0  0  0  0  0  0  0  0  0  # atno 6909 bound_to 6896
  146.0048  140.7033  142.9253 H   0  0  0  0  0  0  0  0  0  0  0  0  # atno 7974 bound_to 7965
  154.4022  140.1549  156.2877 H   0  0  0  0  0  0  0  0  0  0  0  0  # atno 8008 bound_to 7997
  155.8813  140.3443  155.5868 H   0  0  0  0  0  0  0  0  0  0  0  0  # atno 8009 bound_to 7997
  155.7664  140.0824  157.2120 H   0  0  0  0  0  0  0  0  0  0  0  0  # atno 8010 bound_to 7997
  140.5520  143.9492  150.6584 H   0  0  0  0  0  0  0  0  0  0  0  0  # atno 10167 bound_to 10162
  157.6148  131.1027  150.7499 H   0  0  0  0  0  0  0  0  0  0  0  0  # atno 10718 bound_to 10713
  153.1999  135.6854  153.8244 H   0  0  0  0  0  0  0  0  0  0  0  0  # atno 10763 bound_to 10752
  153.7514  135.3223  155.3323 H   0  0  0  0  0  0  0  0  0  0  0  0  # atno 10764 bound_to 10752
  154.8165  135.4682  154.0761 H   0  0  0  0  0  0  0  0  0  0  0  0  # atno 10765 bound_to 10752
  140.0898  134.9047  157.1633 H   0  0  0  0  0  0  0  0  0  0  0  0  # atno 11005 bound_to 11000
  144.6932  140.3295  143.7218 LP  0  0  0  0  0  0  0  0  0  0  0  0  # atno 17320 bound_to 7965
  145.7433  139.1771  143.2363 LP  0  0  0  0  0  0  0  0  0  0  0  0  # atno 17321 bound_to 7965
  140.2920  143.3317  152.1053 LP  0  0  0  0  0  0  0  0  0  0  0  0  # atno 17342 bound_to 10162
  139.5031  144.6749  151.6152 LP  0  0  0  0  0  0  0  0  0  0  0  0  # atno 17343 bound_to 10162
  156.7869  130.4877  149.5391 LP  0  0  0  0  0  0  0  0  0  0  0  0  # atno 17370 bound_to 10713
  156.1266  130.6148  151.0272 LP  0  0  0  0  0  0  0  0  0  0  0  0  # atno 17371 bound_to 10713
  140.3368  134.2748  155.7218 LP  0  0  0  0  0  0  0  0  0  0  0  0  # atno 17394 bound_to 11000
  141.2074  133.7806  157.0120 LP  0  0  0  0  0  0  0  0  0  0  0  0  # atno 17395 bound_to 11000

$$$$
