AV-unprocessed.smi:756|AV-procd|sdf|3613|dock2
  -GOLD-   22720 1 13D 1   1.00000     0.00000
 Structure written by MMmdl.
 42 43  0  0  0  0  0  0  0  0  1 V2000
  150.8382  145.3487  159.6590 C   0  0  0  0  0  0  0  0  0  0  0  0
  151.7156  144.1723  160.0499 C   0  0  0  0  0  0  0  0  0  0  0  0
  152.2240  143.9509  161.2667 C   0  0  0  0  0  0  0  0  0  0  0  0
  153.1539  142.4749  161.3518 S   0  0  0  0  0  0  0  0  0  0  0  0
  152.8142  142.1503  159.6140 C   0  0  0  0  0  0  0  0  0  0  0  0
  153.2366  141.1559  159.0256 O   0  0  0  0  0  0  0  0  0  0  0  0
  152.0320  143.1864  159.1048 N   0  0  0  0  0  0  0  0  0  0  0  0
  151.5888  143.2293  157.7050 C   0  0  0  0  0  0  0  0  0  0  0  0
  150.7993  141.9829  157.2840 C   0  0  0  0  0  0  0  0  0  0  0  0
  151.2521  140.8520  157.4671 O   0  0  0  0  0  0  0  0  0  0  0  0
  149.6005  142.2095  156.7303 N   0  0  0  0  0  0  0  0  0  0  0  0
  148.6891  141.1662  156.2722 C   0  0  0  0  0  0  0  0  0  0  0  0
  147.9662  141.5362  154.9519 C   0  0  2  0  0  0  0  0  0  0  0  0
  147.4817  140.2836  154.1886 C   0  0  0  0  0  0  0  0  0  0  0  0
  148.9034  142.2075  154.1289 O   0  0  0  0  0  0  0  0  0  0  0  0
  146.7784  142.5000  155.2420 C   0  0  0  0  0  0  0  0  0  0  0  0
  145.6136  141.9158  156.0547 C   0  0  0  0  0  0  0  0  0  0  0  0
  144.4766  142.9204  155.8636 C   0  0  0  0  0  0  0  0  0  0  0  0
  144.6835  143.5289  154.4704 C   0  0  0  0  0  0  0  0  0  0  0  0
  146.0811  143.0952  154.0059 C   0  0  0  0  0  0  0  0  0  0  0  0
  150.4632  145.8549  160.5490 H   0  0  0  0  0  0  0  0  0  0  0  0
  149.9747  145.0265  159.0770 H   0  0  0  0  0  0  0  0  0  0  0  0
  151.4083  146.0706  159.0744 H   0  0  0  0  0  0  0  0  0  0  0  0
  152.0945  144.5751  162.1385 H   0  0  0  0  0  0  0  0  0  0  0  0
  150.9894  144.1176  157.5070 H   0  0  0  0  0  0  0  0  0  0  0  0
  152.4622  143.3234  157.0571 H   0  0  0  0  0  0  0  0  0  0  0  0
  149.2909  143.1648  156.6254 H   0  0  0  0  0  0  0  0  0  0  0  0
  149.2639  140.2508  156.1205 H   0  0  0  0  0  0  0  0  0  0  0  0
  147.9704  140.9559  157.0657 H   0  0  0  0  0  0  0  0  0  0  0  0
  146.7670  139.7149  154.7845 H   0  0  0  0  0  0  0  0  0  0  0  0
  148.3027  139.6137  153.9322 H   0  0  0  0  0  0  0  0  0  0  0  0
  146.9926  140.5451  153.2504 H   0  0  0  0  0  0  0  0  0  0  0  0
  149.1934  142.9864  154.5786 H   0  0  0  0  0  0  0  0  0  0  0  0
  147.1699  143.3408  155.8178 H   0  0  0  0  0  0  0  0  0  0  0  0
  145.3109  140.9473  155.6551 H   0  0  0  0  0  0  0  0  0  0  0  0
  145.8589  141.7791  157.1080 H   0  0  0  0  0  0  0  0  0  0  0  0
  143.4954  142.4576  155.9739 H   0  0  0  0  0  0  0  0  0  0  0  0
  144.5540  143.7058  156.6168 H   0  0  0  0  0  0  0  0  0  0  0  0
  143.9245  143.1761  153.7712 H   0  0  0  0  0  0  0  0  0  0  0  0
  144.6034  144.6156  154.5148 H   0  0  0  0  0  0  0  0  0  0  0  0
  146.6427  143.9276  153.5806 H   0  0  0  0  0  0  0  0  0  0  0  0
  145.9768  142.3432  153.2231 H   0  0  0  0  0  0  0  0  0  0  0  0
  1  2  1  0  0  0  0
  1 21  1  0  0  0  0
  1 22  1  0  0  0  0
  1 23  1  0  0  0  0
  2  7  1  0  0  0  0
  2  3  2  0  0  0  0
  3  4  1  0  0  0  0
  3 24  1  0  0  0  0
  4  5  1  0  0  0  0
  5  6  2  0  0  0  0
  5  7  1  0  0  0  0
  7  8  1  0  0  0  0
  8  9  1  0  0  0  0
  8 25  1  0  0  0  0
  8 26  1  0  0  0  0
  9 10  2  0  0  0  0
  9 11  1  0  0  0  0
 11 12  1  0  0  0  0
 11 27  1  0  0  0  0
 12 13  1  0  0  0  0
 12 28  1  0  0  0  0
 12 29  1  0  0  0  0
 13 14  1  0  0  0  0
 13 15  1  0  0  0  0
 13 16  1  0  0  0  0
 14 30  1  0  0  0  0
 14 31  1  0  0  0  0
 14 32  1  0  0  0  0
 15 33  1  0  0  0  0
 16 20  1  0  0  0  0
 16 17  1  0  0  0  0
 16 34  1  0  0  0  0
 17 18  1  0  0  0  0
 17 35  1  0  0  0  0
 17 36  1  0  0  0  0
 18 19  1  0  0  0  0
 18 37  1  0  0  0  0
 18 38  1  0  0  0  0
 19 20  1  0  0  0  0
 19 39  1  0  0  0  0
 19 40  1  0  0  0  0
 20 41  1  0  0  0  0
 20 42  1  0  0  0  0
M  END
> <s_m_source_file>
AV-unprocessed.smi

> <i_m_source_file_index>
756

> <i_lp_mmshare_version>
43012

> <i_f3d_flags>
0

> <s_epik_input>
W0NIM11jMVtjSF1zYyg9TyluMVtDSDJdQyg9TylbTkhdW0NIMl1bQ0BAXShbQ0gzXSkoW09IXSlbQ0hdMltDSDJdW0NIMl1bQ0gyXVtDSDJdMg==

> <s_epik_cmdline>
J2VwaWtfcHl0aG9uJywgJy1waCcsICc3LjAnLCAnLXRuJywgJzgnLCAnLW1hJywgJzIwMCcsICctbWV0YWxfYmluZGluZycsICctaW1hZScsICc8aW5maWxlLm1hZT4nLCAnLW9tYWUnLCAnPG91dGZpbGUubWFlPic=

> <r_lp_tautomer_probability>
1

> <r_epik_Ionization_Penalty>
1.53576e-06

> <r_epik_Ionization_Penalty_Charging>
1.31044e-06

> <r_epik_Ionization_Penalty_Neutral>
2.25323e-07

> <r_epik_State_Penalty>
-0

> <r_epik_Charging_Adjusted_Penalty>
1.31044e-06

> <i_epik_Tot_Q>
0

> <i_epik_Tot_abs_Q>
0

> <r_epik_Metal_State_Penalty>
-0

> <b_epik_Metal_Only>
0

> <s_lp_Force_Field>
OPLS_2005

> <r_lp_Energy>
32.7074

> <b_lp_Chiralities_Consistent>
1

> <s_lp_Variant>
AV-unprocessed.smi:756-2

> <Gold.Version>
5.8.1

> <Gold.Id.Protein>
6NUR|6NUR_protein|mol2

> <Gold.PLP.Fitness>
51.2821

> <Gold.PLP.PLP>
-45.5760

> <Gold.PLP.part.hbond>
-2.9533

> <Gold.PLP.part.metal>
0.0000

> <Gold.PLP.part.buried>
-4.1427

> <Gold.PLP.part.nonpolar>
-38.1229

> <Gold.PLP.part.repulsive>
0.0321

> <Gold.PLP.ligand.clash>
0.0000

> <Gold.PLP.ligand.torsion>
0.5680

> <Gold.PLP.Chemscore.Hbond>
2.2560

> <Gold.PLP.Chemscore.CHOScore>
0.0000

> <Gold.PLP.Chemscore.Metal>
0.0000

> <Gold.Chemscore.Hbonds>
donor molecule, donor type, donor heavy atom, donor atom, acceptor molecule, acceptor atom, score
      L1  H    11    27       P1  8028  1.00
      L1  H    15    33       P1  8028  0.96
      P1  H  8011  8017       L1    15  0.29

> <Gold.PLP.Chemscore.Internal.Correction>
0.0741

> <Gold.Rescore>
     Score         DG    S(hbond)    S(metal)    S(lipo)     H(rot)  DE(clash)    DE(int)     intcor
     13.55     -15.61       1.72        0.00      89.50       2.37       0.00       2.06       ----

> <Gold.Chemscore.Fitness>
13.5471

> <Gold.Chemscore.DG>
-15.6144

> <Gold.Chemscore.ZeroCoef>
-5.4800

> <Gold.Chemscore.Hbond>
1.7168

> <Gold.Chemscore.Metal>
0.0000

> <Gold.Chemscore.Lipo>
89.5011

> <Gold.Chemscore.Internal_Hbond>
0.0000

> <Gold.Chemscore.DEClash>
0.0042

> <Gold.Chemscore.DEInternal>
2.0631

> <Gold.Chemscore.Rot>
2.3717

> <Gold.Chemscore.Internal.Correction>
   9.000000E+99

> <Gold.Chemscore.Hbonds>
donor molecule, donor type, donor heavy atom, donor atom, acceptor molecule, acceptor atom, score
      L1  H    11    27       P1  8028  0.98
      L1  H    15    33       P1  8028  0.88
      P1  H  8011  8017       L1    15  0.09

> <Gold.Chemscore.Hbond.Weighted>
-5.7343

> <Gold.Chemscore.Metal.Weighted>
-0.0000

> <Gold.Chemscore.Lipo.Weighted>
-10.4716

> <Gold.Chemscore.Internal_Hbond.Weighted>
0.0000

> <Gold.Chemscore.DEClash.Weighted>
0.0042

> <Gold.Chemscore.DEInternal.Weighted>
2.0631

> <Gold.Chemscore.Rot.Weighted>
6.0715

> <Gold.Chemscore.Internal.Correction.Weighted>
   9.000000E+99

> <Gold.Protein.RotatedTorsions>
[ 6907 6896 6895 6894 ] final    1.81 input  -60.11 | X-H torsion
[ 7974 7965 7964 7962 ] final -156.77 input  175.53 | X-H torsion
[ 8008 7997 7996 7995 ] final  -90.60 input   59.86 | X-H torsion
[ 10167 10162 10161 10158 ] final -132.75 input  -65.29 | X-H torsion
[ 10718 10713 10712 10709 ] final   17.42 input   66.30 | X-H torsion
[ 10763 10752 10751 10750 ] final  104.30 input  -60.55 | X-H torsion
[ 11005 11000 10999 10996 ] final  147.32 input  -57.11 | X-H torsion

> <Gold.Protein.ActiveResidues>
 VAL166  LYS551  ARG553  GLY616  TRP617  ASP618  TYR619  PRO620  LYS621  CYS622 
 ASP623  PHE694  ASN695  SER759  ASP760  ASP761  ALA762  ILE779  LEU786  VAL792 
 PHE793  MET794  SER795  GLU796  ALA797  LYS798  CYS799  TRP800  GLU811  SER814 

> <Gold.Protein.RotatedAtoms>
  151.5986  135.1049  160.0054 H   0  0  0  0  0  0  0  0  0  0  0  0  # atno 6907 bound_to 6896
  152.4269  133.7207  159.6542 H   0  0  0  0  0  0  0  0  0  0  0  0  # atno 6908 bound_to 6896
  150.8159  133.8267  159.3183 H   0  0  0  0  0  0  0  0  0  0  0  0  # atno 6909 bound_to 6896
  144.7578  140.4063  143.5999 H   0  0  0  0  0  0  0  0  0  0  0  0  # atno 7974 bound_to 7965
  154.7006  140.0528  157.0454 H   0  0  0  0  0  0  0  0  0  0  0  0  # atno 8008 bound_to 7997
  155.0690  140.3197  155.4617 H   0  0  0  0  0  0  0  0  0  0  0  0  # atno 8009 bound_to 7997
  156.2758  140.2085  156.5818 H   0  0  0  0  0  0  0  0  0  0  0  0  # atno 8010 bound_to 7997
  139.9054  143.6558  152.2586 H   0  0  0  0  0  0  0  0  0  0  0  0  # atno 10167 bound_to 10162
  157.0818  130.6391  149.5828 H   0  0  0  0  0  0  0  0  0  0  0  0  # atno 10718 bound_to 10713
  153.3642  135.3947  155.1740 H   0  0  0  0  0  0  0  0  0  0  0  0  # atno 10763 bound_to 10752
  154.8684  135.3687  154.5061 H   0  0  0  0  0  0  0  0  0  0  0  0  # atno 10764 bound_to 10752
  153.5523  135.7082  153.5646 H   0  0  0  0  0  0  0  0  0  0  0  0  # atno 10765 bound_to 10752
  140.0866  134.9066  157.1585 H   0  0  0  0  0  0  0  0  0  0  0  0  # atno 11005 bound_to 11000
  145.6721  139.1601  143.2749 LP  0  0  0  0  0  0  0  0  0  0  0  0  # atno 17320 bound_to 7965
  146.1608  140.6791  142.9278 LP  0  0  0  0  0  0  0  0  0  0  0  0  # atno 17321 bound_to 7965
  139.6989  144.7637  151.1308 LP  0  0  0  0  0  0  0  0  0  0  0  0  # atno 17342 bound_to 10162
  140.7697  143.5485  150.9231 LP  0  0  0  0  0  0  0  0  0  0  0  0  # atno 17343 bound_to 10162
  155.9921  130.4978  150.7328 LP  0  0  0  0  0  0  0  0  0  0  0  0  # atno 17370 bound_to 10713
  157.4793  131.0901  151.0554 LP  0  0  0  0  0  0  0  0  0  0  0  0  # atno 17371 bound_to 10713
  140.3412  134.2702  155.7212 LP  0  0  0  0  0  0  0  0  0  0  0  0  # atno 17394 bound_to 11000
  141.2064  133.7833  157.0177 LP  0  0  0  0  0  0  0  0  0  0  0  0  # atno 17395 bound_to 11000

$$$$
