AV-unprocessed.smi:287|AV-procd|sdf|2187|dock4
  -GOLD-   2262021573D 1   1.00000     0.00000
 Structure written by MMmdl.
 55 58  0  0  0  0  0  0  0  0  1 V2000
  157.0849  130.3595  153.4823 C   0  0  0  0  0  0  0  0  0  0  0  0
  155.9727  130.0489  154.4244 C   0  0  0  0  0  0  0  0  0  0  0  0
  154.7017  130.5217  154.5737 C   0  0  0  0  0  0  0  0  0  0  0  0
  154.1151  129.8278  155.6743 C   0  0  0  0  0  0  0  0  0  0  0  0
  152.7011  130.0191  156.2057 C   0  0  1  0  0  0  0  0  0  0  0  0
  151.6837  129.6135  155.1267 C   0  0  0  0  0  0  0  0  0  0  0  0
  152.4185  129.1953  157.3208 O   0  0  0  0  0  0  0  0  0  0  0  0
  152.4334  131.4699  156.6664 C   0  0  0  0  0  0  0  0  0  0  0  0
  151.1158  131.6417  157.2651 N   0  0  0  0  0  0  0  0  0  0  0  0
  150.2003  132.4631  156.7099 C   0  0  0  0  0  0  0  0  0  0  0  0
  149.8517  133.5374  157.4577 N   0  0  0  0  0  0  0  0  0  0  0  0
  148.9556  134.4153  156.9979 C   0  0  0  0  0  0  0  0  0  0  0  0
  148.2999  134.4069  155.8361 N   0  0  0  0  0  0  0  0  0  0  0  0
  148.6464  133.3275  155.0774 C   0  0  0  0  0  0  0  0  0  0  0  0
  149.5790  132.3124  155.4344 C   0  0  0  0  0  0  0  0  0  0  0  0
  149.6571  131.3833  154.4020 N   0  0  0  0  0  0  0  0  0  0  0  0
  148.8270  131.8279  153.4981 C   0  0  0  0  0  0  0  0  0  0  0  0
  148.1686  132.9920  153.8299 N   0  0  0  0  0  0  0  0  0  0  0  0
  147.1620  133.7778  153.0432 C   0  0  1  0  0  0  0  0  0  0  0  0
  147.1774  133.3198  151.7247 O   0  0  0  0  0  0  0  0  0  0  0  0
  146.0823  132.4360  151.5136 C   0  0  2  0  0  0  0  0  0  0  0  0
  145.7859  132.2570  150.0150 C   0  0  0  0  0  0  0  0  0  0  0  0
  146.8133  131.5020  149.4090 O   0  0  0  0  0  0  0  0  0  0  0  0
  144.9714  133.0981  152.3374 C   0  0  2  0  0  0  0  0  0  0  0  0
  144.3959  134.1816  151.6300 O   0  0  0  0  0  0  0  0  0  0  0  0
  145.7161  133.5969  153.5711 C   0  0  1  0  0  0  0  0  0  0  0  0
  145.5947  132.6478  154.6173 O   0  0  0  0  0  0  0  0  0  0  0  0
  155.0921  128.9617  156.1029 C   0  0  0  0  0  0  0  0  0  0  0  0
  155.1652  127.9338  157.1835 C   0  0  0  0  0  0  0  0  0  0  0  0
  156.2227  129.0935  155.3545 O   0  0  0  0  0  0  0  0  0  0  0  0
  147.5215  134.8066  153.0894 H   0  0  0  0  0  0  0  0  0  0  0  0
  146.3069  131.4682  151.9660 H   0  0  0  0  0  0  0  0  0  0  0  0
  144.1738  132.3950  152.5822 H   0  0  0  0  0  0  0  0  0  0  0  0
  145.3326  134.5543  153.9265 H   0  0  0  0  0  0  0  0  0  0  0  0
  156.8374  131.2173  152.8567 H   0  0  0  0  0  0  0  0  0  0  0  0
  157.2853  129.5106  152.8285 H   0  0  0  0  0  0  0  0  0  0  0  0
  158.0001  130.5919  154.0270 H   0  0  0  0  0  0  0  0  0  0  0  0
  154.2428  131.2858  153.9637 H   0  0  0  0  0  0  0  0  0  0  0  0
  151.7971  130.2223  154.2290 H   0  0  0  0  0  0  0  0  0  0  0  0
  150.6579  129.7358  155.4768 H   0  0  0  0  0  0  0  0  0  0  0  0
  151.8113  128.5705  154.8335 H   0  0  0  0  0  0  0  0  0  0  0  0
  152.2530  129.7491  158.0684 H   0  0  0  0  0  0  0  0  0  0  0  0
  153.1725  131.7281  157.4257 H   0  0  0  0  0  0  0  0  0  0  0  0
  152.5669  132.1707  155.8409 H   0  0  0  0  0  0  0  0  0  0  0  0
  150.9512  131.1212  158.1149 H   0  0  0  0  0  0  0  0  0  0  0  0
  148.7322  135.2425  157.6556 H   0  0  0  0  0  0  0  0  0  0  0  0
  148.6789  131.3109  152.5611 H   0  0  0  0  0  0  0  0  0  0  0  0
  144.8535  131.7078  149.8804 H   0  0  0  0  0  0  0  0  0  0  0  0
  145.6750  133.2177  149.5113 H   0  0  0  0  0  0  0  0  0  0  0  0
  147.5272  131.4188  150.0226 H   0  0  0  0  0  0  0  0  0  0  0  0
  145.0354  134.8749  151.5728 H   0  0  0  0  0  0  0  0  0  0  0  0
  144.7126  132.3079  154.6096 H   0  0  0  0  0  0  0  0  0  0  0  0
  154.3103  127.2593  157.1343 H   0  0  0  0  0  0  0  0  0  0  0  0
  155.1686  128.4069  158.1656 H   0  0  0  0  0  0  0  0  0  0  0  0
  156.0704  127.3324  157.0963 H   0  0  0  0  0  0  0  0  0  0  0  0
  1  2  1  0  0  0  0
  1 35  1  0  0  0  0
  1 36  1  0  0  0  0
  1 37  1  0  0  0  0
  2 30  1  0  0  0  0
  2  3  2  0  0  0  0
  3  4  1  0  0  0  0
  3 38  1  0  0  0  0
  4  5  1  0  0  0  0
  4 28  2  0  0  0  0
  5  6  1  0  0  0  0
  5  7  1  0  0  0  0
  5  8  1  0  0  0  0
  6 39  1  0  0  0  0
  6 40  1  0  0  0  0
  6 41  1  0  0  0  0
  7 42  1  0  0  0  0
  8  9  1  0  0  0  0
  8 43  1  0  0  0  0
  8 44  1  0  0  0  0
  9 10  1  0  0  0  0
  9 45  1  0  0  0  0
 10 15  1  0  0  0  0
 10 11  2  0  0  0  0
 11 12  1  0  0  0  0
 12 13  2  0  0  0  0
 12 46  1  0  0  0  0
 13 14  1  0  0  0  0
 14 18  1  0  0  0  0
 14 15  2  0  0  0  0
 15 16  1  0  0  0  0
 16 17  2  0  0  0  0
 17 18  1  0  0  0  0
 17 47  1  0  0  0  0
 18 19  1  0  0  0  0
 19 31  1  0  0  0  0
 19 26  1  0  0  0  0
 19 20  1  0  0  0  0
 20 21  1  0  0  0  0
 21 32  1  0  0  0  0
 21 22  1  0  0  0  0
 21 24  1  0  0  0  0
 22 23  1  0  0  0  0
 22 48  1  0  0  0  0
 22 49  1  0  0  0  0
 23 50  1  0  0  0  0
 24 33  1  0  0  0  0
 24 25  1  0  0  0  0
 24 26  1  0  0  0  0
 25 51  1  0  0  0  0
 26 34  1  0  0  0  0
 26 27  1  0  0  0  0
 27 52  1  0  0  0  0
 28 29  1  0  0  0  0
 28 30  1  0  0  0  0
 29 53  1  0  0  0  0
 29 54  1  0  0  0  0
 29 55  1  0  0  0  0
M  END
> <s_m_source_file>
AV-unprocessed.smi

> <i_m_source_file_index>
287

> <i_lp_mmshare_version>
43012

> <i_f3d_flags>
0

> <s_epik_input>
W0NIM11jMVtjSF1jKGMobzEpW0NIM10pW0NAQF0oW0NIM10pKFtPSF0pW0NIMl1bTkhdYyhuW2NIXW4yKWMoYzIzKW5bY0hdbjNbQ0BASF00T1tDQEhdKFtDSDJdW09IXSlbQ0BASF0oW09IXSlbQ0BIXTRbT0hd

> <s_epik_cmdline>
J2VwaWtfcHl0aG9uJywgJy1waCcsICc3LjAnLCAnLXRuJywgJzgnLCAnLW1hJywgJzIwMCcsICctbWV0YWxfYmluZGluZycsICctaW1hZScsICc8aW5maWxlLm1hZT4nLCAnLW9tYWUnLCAnPG91dGZpbGUubWFlPic=

> <r_lp_tautomer_probability>
1

> <r_epik_Ionization_Penalty>
0.000992612

> <r_epik_Ionization_Penalty_Charging>
0

> <r_epik_Ionization_Penalty_Neutral>
0.000992612

> <r_epik_State_Penalty>
-0

> <r_epik_Charging_Adjusted_Penalty>
0

> <i_epik_Tot_Q>
0

> <i_epik_Tot_abs_Q>
0

> <r_epik_Metal_State_Penalty>
-0

> <b_epik_Metal_Only>
0

> <s_epik_Chemistry_Notes>
This compound contains an acetal/aminal-like group ( X-CH(R)-Y where X, Y are N, S, or O) that may be acid/base labile, releasing an aldehyde.

> <s_lp_Force_Field>
OPLS_2005

> <r_lp_Energy>
42.7121

> <b_lp_Chiralities_Consistent>
1

> <s_lp_Variant>
AV-unprocessed.smi:287-11

> <Gold.Version>
5.8.1

> <Gold.Id.Protein>
6NUR|6NUR_protein|mol2

> <Gold.PLP.Fitness>
44.5392

> <Gold.PLP.PLP>
-35.4542

> <Gold.PLP.part.hbond>
-2.5176

> <Gold.PLP.part.metal>
0.0000

> <Gold.PLP.part.buried>
-5.3730

> <Gold.PLP.part.nonpolar>
-28.7148

> <Gold.PLP.part.repulsive>
0.3568

> <Gold.PLP.ligand.clash>
0.0000

> <Gold.PLP.ligand.torsion>
1.0679

> <Gold.PLP.Chemscore.Hbond>
2.6835

> <Gold.PLP.Chemscore.CHOScore>
1.0000

> <Gold.PLP.Chemscore.Metal>
0.0000

> <Gold.Chemscore.Hbonds>
donor molecule, donor type, donor heavy atom, donor atom, acceptor molecule, acceptor atom, score
      L1  H    23    50       P1 10747  0.90
      L1  H    27    52       P1 10957  0.81
      P1  H  6896  6909       L1    11  0.96
      L1  C    17    47       P1 10747  1.00

> <Gold.PLP.Chemscore.Internal.Correction>
0.1703

> <Gold.Rescore>
     Score         DG    S(hbond)    S(metal)    S(lipo)     H(rot)  DE(clash)    DE(int)     intcor
      6.54      -8.58       2.54        0.00      69.36       5.27       0.05       1.99       ----

> <Gold.Chemscore.Fitness>
6.5378

> <Gold.Chemscore.DG>
-8.5800

> <Gold.Chemscore.ZeroCoef>
-5.4800

> <Gold.Chemscore.Hbond>
2.5357

> <Gold.Chemscore.Metal>
0.0000

> <Gold.Chemscore.Lipo>
69.3560

> <Gold.Chemscore.Internal_Hbond>
0.0000

> <Gold.Chemscore.DEClash>
0.0515

> <Gold.Chemscore.DEInternal>
1.9907

> <Gold.Chemscore.Rot>
5.2672

> <Gold.Chemscore.Internal.Correction>
   9.000000E+99

> <Gold.Chemscore.Hbonds>
donor molecule, donor type, donor heavy atom, donor atom, acceptor molecule, acceptor atom, score
      L1  H    23    50       P1 10747  0.85
      L1  H    27    52       P1 10957  0.49
      P1  H  6896  6909       L1    11  0.85

> <Gold.Chemscore.Hbond.Weighted>
-8.4693

> <Gold.Chemscore.Metal.Weighted>
-0.0000

> <Gold.Chemscore.Lipo.Weighted>
-8.1147

> <Gold.Chemscore.Internal_Hbond.Weighted>
0.0000

> <Gold.Chemscore.DEClash.Weighted>
0.0515

> <Gold.Chemscore.DEInternal.Weighted>
1.9907

> <Gold.Chemscore.Rot.Weighted>
13.4839

> <Gold.Chemscore.Internal.Correction.Weighted>
   9.000000E+99

> <Gold.Protein.RotatedTorsions>
[ 6907 6896 6895 6894 ] final   -2.27 input  -60.11 | X-H torsion
[ 7974 7965 7964 7962 ] final  -45.63 input  175.53 | X-H torsion
[ 8008 7997 7996 7995 ] final -105.32 input   59.86 | X-H torsion
[ 10167 10162 10161 10158 ] final  111.18 input  -65.29 | X-H torsion
[ 10718 10713 10712 10709 ] final  -51.03 input   66.30 | X-H torsion
[ 10763 10752 10751 10750 ] final -104.69 input  -60.55 | X-H torsion
[ 11005 11000 10999 10996 ] final   92.67 input  -57.11 | X-H torsion

> <Gold.Protein.ActiveResidues>
 VAL166  LYS551  ARG553  GLY616  TRP617  ASP618  TYR619  PRO620  LYS621  CYS622 
 ASP623  PHE694  ASN695  SER759  ASP760  ASP761  ALA762  ILE779  LEU786  VAL792 
 PHE793  MET794  SER795  GLU796  ALA797  LYS798  CYS799  TRP800  GLU811  SER814 

> <Gold.Protein.RotatedAtoms>
  151.5326  135.1068  159.9906 H   0  0  0  0  0  0  0  0  0  0  0  0  # atno 6907 bound_to 6896
  152.4571  133.7742  159.6826 H   0  0  0  0  0  0  0  0  0  0  0  0  # atno 6908 bound_to 6896
  150.8519  133.7708  159.3047 H   0  0  0  0  0  0  0  0  0  0  0  0  # atno 6909 bound_to 6896
  145.9801  140.7293  142.9368 H   0  0  0  0  0  0  0  0  0  0  0  0  # atno 7974 bound_to 7965
  154.8982  140.0413  157.1878 H   0  0  0  0  0  0  0  0  0  0  0  0  # atno 8008 bound_to 7997
  154.8471  140.2923  155.5601 H   0  0  0  0  0  0  0  0  0  0  0  0  # atno 8009 bound_to 7997
  156.2994  140.2472  156.3423 H   0  0  0  0  0  0  0  0  0  0  0  0  # atno 8010 bound_to 7997
  139.6631  144.7128  151.1827 H   0  0  0  0  0  0  0  0  0  0  0  0  # atno 10167 bound_to 10162
  156.1747  130.4149  149.9595 H   0  0  0  0  0  0  0  0  0  0  0  0  # atno 10718 bound_to 10713
  154.7896  135.4777  154.0022 H   0  0  0  0  0  0  0  0  0  0  0  0  # atno 10763 bound_to 10752
  153.1611  135.6808  153.8749 H   0  0  0  0  0  0  0  0  0  0  0  0  # atno 10764 bound_to 10752
  153.8362  135.3185  155.3400 H   0  0  0  0  0  0  0  0  0  0  0  0  # atno 10765 bound_to 10752
  139.8820  134.8746  156.3607 H   0  0  0  0  0  0  0  0  0  0  0  0  # atno 11005 bound_to 11000
  144.6859  140.2893  143.7280 LP  0  0  0  0  0  0  0  0  0  0  0  0  # atno 17320 bound_to 7965
  145.7782  139.1882  143.2173 LP  0  0  0  0  0  0  0  0  0  0  0  0  # atno 17321 bound_to 7965
  140.7588  143.5962  150.8746 LP  0  0  0  0  0  0  0  0  0  0  0  0  # atno 17342 bound_to 10162
  139.9621  143.6152  152.2999 LP  0  0  0  0  0  0  0  0  0  0  0  0  # atno 17343 bound_to 10162
  156.7384  130.9070  151.3630 LP  0  0  0  0  0  0  0  0  0  0  0  0  # atno 17370 bound_to 10713
  157.6827  130.9156  150.0308 LP  0  0  0  0  0  0  0  0  0  0  0  0  # atno 17371 bound_to 10713
  140.9531  133.7437  156.0299 LP  0  0  0  0  0  0  0  0  0  0  0  0  # atno 17394 bound_to 11000
  140.8081  134.3431  157.5420 LP  0  0  0  0  0  0  0  0  0  0  0  0  # atno 17395 bound_to 11000

$$$$
