AV-unprocessed.smi:158|AV-procd|sdf|1327|dock2
  -GOLD-   2262019 23D 1   1.00000     0.00000
 Structure written by MMmdl.
 31 33  0  0  0  0  0  0  0  0  1 V2000
  144.5139  141.9014  154.7391 N   0  0  0  0  0  0  0  0  0  0  0  0
  145.5943  141.9892  155.5279 C   0  0  0  0  0  0  0  0  0  0  0  0
  145.4806  142.6490  156.7035 N   0  0  0  0  0  0  0  0  0  0  0  0
  146.5344  142.7553  157.5210 C   0  0  0  0  0  0  0  0  0  0  0  0
  146.2837  143.6176  158.9931 Cl  0  0  0  0  0  0  0  0  0  0  0  0
  147.7632  142.2685  157.3252 N   0  0  0  0  0  0  0  0  0  0  0  0
  147.8897  141.6074  156.1378 C   0  0  0  0  0  0  0  0  0  0  0  0
  146.8477  141.4234  155.1882 C   0  0  0  0  0  0  0  0  0  0  0  0
  147.3163  140.6989  154.1022 N   0  0  0  0  0  0  0  0  0  0  0  0
  148.5674  140.4711  154.3967 C   0  0  0  0  0  0  0  0  0  0  0  0
  149.0036  140.9879  155.5982 N   0  0  0  0  0  0  0  0  0  0  0  0
  150.3893  140.8691  156.1702 C   0  0  2  0  0  0  0  0  0  0  0  0
  151.2684  140.4479  155.1669 O   0  0  0  0  0  0  0  0  0  0  0  0
  151.8791  139.2055  155.5223 C   0  0  2  0  0  0  0  0  0  0  0  0
  152.2135  138.3561  154.2826 C   0  0  0  0  0  0  0  0  0  0  0  0
  151.0313  137.8256  153.7215 O   0  0  0  0  0  0  0  0  0  0  0  0
  150.9536  138.5750  156.5739 C   0  0  2  0  0  0  0  0  0  0  0  0
  149.8992  137.8382  155.9818 O   0  0  0  0  0  0  0  0  0  0  0  0
  150.4517  139.8163  157.2881 C   0  0  2  0  0  0  0  0  0  0  0  0
  149.2919  139.6543  157.9299 F   0  0  0  0  0  0  0  0  0  0  0  0
  150.6243  141.8786  156.5092 H   0  0  0  0  0  0  0  0  0  0  0  0
  152.8141  139.4737  156.0179 H   0  0  0  0  0  0  0  0  0  0  0  0
  151.4982  137.9120  157.2470 H   0  0  0  0  0  0  0  0  0  0  0  0
  151.1882  140.1465  158.0216 H   0  0  0  0  0  0  0  0  0  0  0  0
  144.5745  141.4132  153.8570 H   0  0  0  0  0  0  0  0  0  0  0  0
  143.6432  142.3242  155.0267 H   0  0  0  0  0  0  0  0  0  0  0  0
  149.2187  139.9187  153.7349 H   0  0  0  0  0  0  0  0  0  0  0  0
  152.7526  138.9279  153.5279 H   0  0  0  0  0  0  0  0  0  0  0  0
  152.8576  137.5242  154.5679 H   0  0  0  0  0  0  0  0  0  0  0  0
  151.2699  137.2361  153.0222 H   0  0  0  0  0  0  0  0  0  0  0  0
  150.1358  136.9233  155.9828 H   0  0  0  0  0  0  0  0  0  0  0  0
  1  2  1  0  0  0  0
  1 25  1  0  0  0  0
  1 26  1  0  0  0  0
  2  8  1  0  0  0  0
  2  3  2  0  0  0  0
  3  4  1  0  0  0  0
  4  5  1  0  0  0  0
  4  6  2  0  0  0  0
  6  7  1  0  0  0  0
  7 11  1  0  0  0  0
  7  8  2  0  0  0  0
  8  9  1  0  0  0  0
  9 10  2  0  0  0  0
 10 11  1  0  0  0  0
 10 27  1  0  0  0  0
 11 12  1  0  0  0  0
 12 21  1  0  0  0  0
 12 19  1  0  0  0  0
 12 13  1  0  0  0  0
 13 14  1  0  0  0  0
 14 22  1  0  0  0  0
 14 15  1  0  0  0  0
 14 17  1  0  0  0  0
 15 16  1  0  0  0  0
 15 28  1  0  0  0  0
 15 29  1  0  0  0  0
 16 30  1  0  0  0  0
 17 23  1  0  0  0  0
 17 18  1  0  0  0  0
 17 19  1  0  0  0  0
 18 31  1  0  0  0  0
 19 24  1  0  0  0  0
 19 20  1  0  0  0  0
M  END
> <s_m_source_file>
AV-unprocessed.smi

> <i_m_source_file_index>
158

> <i_lp_mmshare_version>
43012

> <i_f3d_flags>
0

> <s_epik_input>
Q2xjKG4xKW5jKFtOSDJdKWMoYzEyKW5bY0hdbjJbQ0BASF0zT1tDQEhdKFtDSDJdW09IXSlbQ0BASF0oW09IXSlbQ0BASF0zRg==

> <s_epik_cmdline>
J2VwaWtfcHl0aG9uJywgJy1waCcsICc3LjAnLCAnLXRuJywgJzgnLCAnLW1hJywgJzIwMCcsICctbWV0YWxfYmluZGluZycsICctaW1hZScsICc8aW5maWxlLm1hZT4nLCAnLW9tYWUnLCAnPG91dGZpbGUubWFlPic=

> <r_lp_tautomer_probability>
1

> <r_epik_Ionization_Penalty>
6.51543e-05

> <r_epik_Ionization_Penalty_Charging>
0

> <r_epik_Ionization_Penalty_Neutral>
6.51543e-05

> <r_epik_State_Penalty>
-0

> <r_epik_Charging_Adjusted_Penalty>
0

> <i_epik_Tot_Q>
0

> <i_epik_Tot_abs_Q>
0

> <r_epik_Metal_State_Penalty>
-0

> <b_epik_Metal_Only>
0

> <s_epik_Chemistry_Notes>
This compound contains an acetal/aminal-like group ( X-CH(R)-Y where X, Y are N, S, or O) that may be acid/base labile, releasing an aldehyde.

> <s_lp_Force_Field>
OPLS_2005

> <r_lp_Energy>
41.2985

> <b_lp_Chiralities_Consistent>
1

> <s_lp_Variant>
AV-unprocessed.smi:158-5

> <Gold.Version>
5.8.1

> <Gold.Id.Protein>
6NUR|6NUR_protein|mol2

> <Gold.PLP.Fitness>
35.2436

> <Gold.PLP.PLP>
-24.3388

> <Gold.PLP.part.hbond>
-3.9647

> <Gold.PLP.part.metal>
0.0000

> <Gold.PLP.part.buried>
-3.6277

> <Gold.PLP.part.nonpolar>
-16.7474

> <Gold.PLP.part.repulsive>
0.6156

> <Gold.PLP.ligand.clash>
0.0429

> <Gold.PLP.ligand.torsion>
0.4564

> <Gold.PLP.Chemscore.Hbond>
2.9200

> <Gold.PLP.Chemscore.CHOScore>
0.7586

> <Gold.PLP.Chemscore.Metal>
0.0000

> <Gold.Chemscore.Hbonds>
donor molecule, donor type, donor heavy atom, donor atom, acceptor molecule, acceptor atom, score
      L1  H     1    25       P1 10175  0.94
      L1  H    16    30       P1  7949  1.00
      P1  H  7989  7998       L1    13  0.96
      L1  C    10    27       P1  7957  0.81

> <Gold.PLP.Chemscore.Internal.Correction>
0.8248

> <Gold.Rescore>
     Score         DG    S(hbond)    S(metal)    S(lipo)     H(rot)  DE(clash)    DE(int)     intcor
      8.27      -9.72       2.61        0.00      30.01       3.12       0.00       1.45       ----

> <Gold.Chemscore.Fitness>
8.2724

> <Gold.Chemscore.DG>
-9.7234

> <Gold.Chemscore.ZeroCoef>
-5.4800

> <Gold.Chemscore.Hbond>
2.6128

> <Gold.Chemscore.Metal>
0.0000

> <Gold.Chemscore.Lipo>
30.0137

> <Gold.Chemscore.Internal_Hbond>
0.0000

> <Gold.Chemscore.DEClash>
0.0015

> <Gold.Chemscore.DEInternal>
1.4496

> <Gold.Chemscore.Rot>
3.1230

> <Gold.Chemscore.Internal.Correction>
   9.000000E+99

> <Gold.Chemscore.Hbonds>
donor molecule, donor type, donor heavy atom, donor atom, acceptor molecule, acceptor atom, score
      L1  H     1    25       P1 10175  0.23
      L1  H    16    30       P1  7949  0.64
      P1  H  7989  7998       L1    13  0.72

> <Gold.Chemscore.Hbond.Weighted>
-8.7268

> <Gold.Chemscore.Metal.Weighted>
-0.0000

> <Gold.Chemscore.Lipo.Weighted>
-3.5116

> <Gold.Chemscore.Internal_Hbond.Weighted>
0.0000

> <Gold.Chemscore.DEClash.Weighted>
0.0015

> <Gold.Chemscore.DEInternal.Weighted>
1.4496

> <Gold.Chemscore.Rot.Weighted>
7.9950

> <Gold.Chemscore.Internal.Correction.Weighted>
   9.000000E+99

> <Gold.Protein.RotatedTorsions>
[ 6907 6896 6895 6894 ] final  -78.46 input  -60.11 | X-H torsion
[ 7974 7965 7964 7962 ] final  140.75 input  175.53 | X-H torsion
[ 8008 7997 7996 7995 ] final  149.85 input   59.86 | X-H torsion
[ 10167 10162 10161 10158 ] final  106.04 input  -65.29 | X-H torsion
[ 10718 10713 10712 10709 ] final   79.73 input   66.30 | X-H torsion
[ 10763 10752 10751 10750 ] final   19.03 input  -60.55 | X-H torsion
[ 11005 11000 10999 10996 ] final -105.48 input  -57.11 | X-H torsion

> <Gold.Protein.ActiveResidues>
 VAL166  LYS551  ARG553  GLY616  TRP617  ASP618  TYR619  PRO620  LYS621  CYS622 
 ASP623  PHE694  ASN695  SER759  ASP760  ASP761  ALA762  ILE779  LEU786  VAL792 
 PHE793  MET794  SER795  GLU796  ALA797  LYS798  CYS799  TRP800  GLU811  SER814 

> <Gold.Protein.RotatedAtoms>
  150.6972  134.4269  159.5230 H   0  0  0  0  0  0  0  0  0  0  0  0  # atno 6907 bound_to 6896
  152.2002  134.8591  160.0518 H   0  0  0  0  0  0  0  0  0  0  0  0  # atno 6908 bound_to 6896
  151.9514  133.3632  159.4038 H   0  0  0  0  0  0  0  0  0  0  0  0  # atno 6909 bound_to 6896
  144.9158  139.5232  143.5687 H   0  0  0  0  0  0  0  0  0  0  0  0  # atno 7974 bound_to 7965
  156.2739  140.2090  156.5924 H   0  0  0  0  0  0  0  0  0  0  0  0  # atno 8008 bound_to 7997
  154.6972  140.0524  157.0445 H   0  0  0  0  0  0  0  0  0  0  0  0  # atno 8009 bound_to 7997
  155.0785  140.3184  155.4611 H   0  0  0  0  0  0  0  0  0  0  0  0  # atno 8010 bound_to 7997
  139.7043  144.7089  151.1133 H   0  0  0  0  0  0  0  0  0  0  0  0  # atno 10167 bound_to 10162
  157.6785  130.9927  150.1976 H   0  0  0  0  0  0  0  0  0  0  0  0  # atno 10718 bound_to 10713
  153.1197  135.6716  153.9356 H   0  0  0  0  0  0  0  0  0  0  0  0  # atno 10763 bound_to 10752
  153.8875  135.3051  155.3448 H   0  0  0  0  0  0  0  0  0  0  0  0  # atno 10764 bound_to 10752
  154.7610  135.4988  153.9543 H   0  0  0  0  0  0  0  0  0  0  0  0  # atno 10765 bound_to 10752
  141.1051  133.8812  157.1740 H   0  0  0  0  0  0  0  0  0  0  0  0  # atno 11005 bound_to 11000
  146.3181  139.8000  142.8967 LP  0  0  0  0  0  0  0  0  0  0  0  0  # atno 17320 bound_to 7965
  145.3378  141.0281  143.3410 LP  0  0  0  0  0  0  0  0  0  0  0  0  # atno 17321 bound_to 7965
  140.7717  143.5381  150.9345 LP  0  0  0  0  0  0  0  0  0  0  0  0  # atno 17342 bound_to 10162
  139.9064  143.6774  152.3123 LP  0  0  0  0  0  0  0  0  0  0  0  0  # atno 17343 bound_to 10162
  156.2674  130.3718  149.8067 LP  0  0  0  0  0  0  0  0  0  0  0  0  # atno 17370 bound_to 10713
  156.5794  130.8459  151.3379 LP  0  0  0  0  0  0  0  0  0  0  0  0  # atno 17371 bound_to 10713
  139.9918  135.0062  156.9992 LP  0  0  0  0  0  0  0  0  0  0  0  0  # atno 17394 bound_to 11000
  140.4923  134.1181  155.7235 LP  0  0  0  0  0  0  0  0  0  0  0  0  # atno 17395 bound_to 11000

$$$$
