AV-unprocessed.smi:160|AV-procd|sdf|1348|dock10
  -GOLD-   2262019 53D 1   1.00000     0.00000
 Structure written by MMmdl.
 29 30  0  0  0  0  0  0  0  0  1 V2000
  142.7888  139.0057  154.9667 N   0  0  0  0  0  0  0  0  0  0  0  0
  142.8324  137.6806  155.1397 C   0  0  0  0  0  0  0  0  0  0  0  0
  142.4888  137.1415  156.1905 O   0  0  0  0  0  0  0  0  0  0  0  0
  143.3190  136.8746  153.9672 C   0  0  0  0  0  0  0  0  0  0  0  0
  143.3527  137.4064  152.7093 N   0  0  0  0  0  0  0  0  0  0  0  0
  143.8356  136.3591  152.0534 C   0  0  0  0  0  0  0  0  0  0  0  0
  144.0689  135.2904  152.8220 N   0  0  0  0  0  0  0  0  0  0  0  0
  144.6050  133.9404  152.4477 C   0  0  1  0  0  0  0  0  0  0  0  0
  143.8300  133.4305  151.4038 O   0  0  0  0  0  0  0  0  0  0  0  0
  144.5318  133.5695  150.1729 C   0  0  2  0  0  0  0  0  0  0  0  0
  143.9685  132.6251  149.0967 C   0  0  0  0  0  0  0  0  0  0  0  0
  143.2516  133.3654  148.1317 O   0  0  0  0  0  0  0  0  0  0  0  0
  145.9862  133.3117  150.5905 C   0  0  2  0  0  0  0  0  0  0  0  0
  146.2465  131.9232  150.6960 O   0  0  0  0  0  0  0  0  0  0  0  0
  146.0752  133.9731  151.9619 C   0  0  1  0  0  0  0  0  0  0  0  0
  146.6244  135.2743  151.8421 O   0  0  0  0  0  0  0  0  0  0  0  0
  143.7306  135.6124  154.0963 N   0  0  0  0  0  0  0  0  0  0  0  0
  144.4613  133.3351  153.3435 H   0  0  0  0  0  0  0  0  0  0  0  0
  144.4575  134.6034  149.8309 H   0  0  0  0  0  0  0  0  0  0  0  0
  146.6938  133.7321  149.8742 H   0  0  0  0  0  0  0  0  0  0  0  0
  146.6991  133.4031  152.6520 H   0  0  0  0  0  0  0  0  0  0  0  0
  142.4683  139.6017  155.7157 H   0  0  0  0  0  0  0  0  0  0  0  0
  143.0754  139.4014  154.0828 H   0  0  0  0  0  0  0  0  0  0  0  0
  144.0205  136.3698  150.9892 H   0  0  0  0  0  0  0  0  0  0  0  0
  144.7832  132.1185  148.5784 H   0  0  0  0  0  0  0  0  0  0  0  0
  143.3305  131.8563  149.5335 H   0  0  0  0  0  0  0  0  0  0  0  0
  142.4798  133.7260  148.5408 H   0  0  0  0  0  0  0  0  0  0  0  0
  147.1779  131.7849  150.6168 H   0  0  0  0  0  0  0  0  0  0  0  0
  147.5422  135.2356  152.0635 H   0  0  0  0  0  0  0  0  0  0  0  0
  1  2  1  0  0  0  0
  1 22  1  0  0  0  0
  1 23  1  0  0  0  0
  2  3  2  0  0  0  0
  2  4  1  0  0  0  0
  4 17  2  0  0  0  0
  4  5  1  0  0  0  0
  5  6  2  0  0  0  0
  6  7  1  0  0  0  0
  6 24  1  0  0  0  0
  7  8  1  0  0  0  0
  7 17  1  0  0  0  0
  8 18  1  0  0  0  0
  8 15  1  0  0  0  0
  8  9  1  0  0  0  0
  9 10  1  0  0  0  0
 10 19  1  0  0  0  0
 10 11  1  0  0  0  0
 10 13  1  0  0  0  0
 11 12  1  0  0  0  0
 11 25  1  0  0  0  0
 11 26  1  0  0  0  0
 12 27  1  0  0  0  0
 13 20  1  0  0  0  0
 13 14  1  0  0  0  0
 13 15  1  0  0  0  0
 14 28  1  0  0  0  0
 15 21  1  0  0  0  0
 15 16  1  0  0  0  0
 16 29  1  0  0  0  0
M  END
> <s_m_source_file>
AV-unprocessed.smi

> <i_m_source_file_index>
160

> <i_lp_mmshare_version>
43012

> <i_f3d_flags>
0

> <s_epik_input>
W05IMl1DKD1PKWMxbltjSF1uKG4xKVtDQEBIXTJPW0NASF0oW0NIMl1bT0hdKVtDQEBIXShbT0hdKVtDQEhdMltPSF0=

> <s_epik_cmdline>
J2VwaWtfcHl0aG9uJywgJy1waCcsICc3LjAnLCAnLXRuJywgJzgnLCAnLW1hJywgJzIwMCcsICctbWV0YWxfYmluZGluZycsICctaW1hZScsICc8aW5maWxlLm1hZT4nLCAnLW9tYWUnLCAnPG91dGZpbGUubWFlPic=

> <r_lp_tautomer_probability>
1

> <r_epik_Ionization_Penalty>
1.06932e-05

> <r_epik_Ionization_Penalty_Charging>
0

> <r_epik_Ionization_Penalty_Neutral>
1.06932e-05

> <r_epik_State_Penalty>
-0

> <r_epik_Charging_Adjusted_Penalty>
0

> <i_epik_Tot_Q>
0

> <i_epik_Tot_abs_Q>
0

> <r_epik_Metal_State_Penalty>
0.0142097

> <b_epik_Metal_Only>
0

> <s_epik_Chemistry_Notes>
This compound contains an acetal/aminal-like group ( X-CH(R)-Y where X, Y are N, S, or O) that may be acid/base labile, releasing an aldehyde.

> <s_lp_Force_Field>
OPLS_2005

> <r_lp_Energy>
42.6819

> <b_lp_Chiralities_Consistent>
1

> <s_lp_Variant>
AV-unprocessed.smi:160-6

> <Gold.Version>
5.8.1

> <Gold.Id.Protein>
6NUR|6NUR_protein|mol2

> <Gold.PLP.Fitness>
36.0167

> <Gold.PLP.PLP>
-23.6669

> <Gold.PLP.part.hbond>
-5.0000

> <Gold.PLP.part.metal>
0.0000

> <Gold.PLP.part.buried>
-5.0814

> <Gold.PLP.part.nonpolar>
-14.1450

> <Gold.PLP.part.repulsive>
0.4661

> <Gold.PLP.ligand.clash>
0.0044

> <Gold.PLP.ligand.torsion>
0.8740

> <Gold.PLP.Chemscore.Hbond>
3.9920

> <Gold.PLP.Chemscore.CHOScore>
0.7067

> <Gold.PLP.Chemscore.Metal>
0.0000

> <Gold.Chemscore.Hbonds>
donor molecule, donor type, donor heavy atom, donor atom, acceptor molecule, acceptor atom, score
      L1  H     1    23       P1 10175  1.00
      L1  H    12    27       P1 10186  1.00
      L1  H    14    28       P1 10747  0.96
      L1  H    16    29       P1  7948  0.75
      L1  C     6    24       P1 10171  0.76

> <Gold.PLP.Chemscore.Internal.Correction>
0.0061

> <Gold.Rescore>
     Score         DG    S(hbond)    S(metal)    S(lipo)     H(rot)  DE(clash)    DE(int)     intcor
     10.87     -12.11       3.92        0.00      33.74       4.06       0.01       1.23       ----

> <Gold.Chemscore.Fitness>
10.8714

> <Gold.Chemscore.DG>
-12.1104

> <Gold.Chemscore.ZeroCoef>
-5.4800

> <Gold.Chemscore.Hbond>
3.9151

> <Gold.Chemscore.Metal>
0.0000

> <Gold.Chemscore.Lipo>
33.7386

> <Gold.Chemscore.Internal_Hbond>
0.0000

> <Gold.Chemscore.DEClash>
0.0132

> <Gold.Chemscore.DEInternal>
1.2258

> <Gold.Chemscore.Rot>
4.0600

> <Gold.Chemscore.Internal.Correction>
   9.000000E+99

> <Gold.Chemscore.Hbonds>
donor molecule, donor type, donor heavy atom, donor atom, acceptor molecule, acceptor atom, score
      L1  H     1    23       P1 10175  0.97
      L1  H    12    27       P1 10186  1.00
      L1  H    14    28       P1 10747  0.90
      L1  H    16    29       P1  7948  0.75

> <Gold.Chemscore.Hbond.Weighted>
-13.0766

> <Gold.Chemscore.Metal.Weighted>
-0.0000

> <Gold.Chemscore.Lipo.Weighted>
-3.9474

> <Gold.Chemscore.Internal_Hbond.Weighted>
0.0000

> <Gold.Chemscore.DEClash.Weighted>
0.0132

> <Gold.Chemscore.DEInternal.Weighted>
1.2258

> <Gold.Chemscore.Rot.Weighted>
10.3936

> <Gold.Chemscore.Internal.Correction.Weighted>
   9.000000E+99

> <Gold.Protein.RotatedTorsions>
[ 6907 6896 6895 6894 ] final  153.59 input  -60.11 | X-H torsion
[ 7974 7965 7964 7962 ] final -128.65 input  175.53 | X-H torsion
[ 8008 7997 7996 7995 ] final  159.20 input   59.86 | X-H torsion
[ 10167 10162 10161 10158 ] final -161.12 input  -65.29 | X-H torsion
[ 10718 10713 10712 10709 ] final   60.15 input   66.30 | X-H torsion
[ 10763 10752 10751 10750 ] final  141.80 input  -60.55 | X-H torsion
[ 11005 11000 10999 10996 ] final   53.20 input  -57.11 | X-H torsion

> <Gold.Protein.ActiveResidues>
 VAL166  LYS551  ARG553  GLY616  TRP617  ASP618  TYR619  PRO620  LYS621  CYS622 
 ASP623  PHE694  ASN695  SER759  ASP760  ASP761  ALA762  ILE779  LEU786  VAL792 
 PHE793  MET794  SER795  GLU796  ALA797  LYS798  CYS799  TRP800  GLU811  SER814 

> <Gold.Protein.RotatedAtoms>
  152.0705  133.4104  159.4456 H   0  0  0  0  0  0  0  0  0  0  0  0  # atno 6907 bound_to 6896
  150.6863  134.3097  159.4750 H   0  0  0  0  0  0  0  0  0  0  0  0  # atno 6908 bound_to 6896
  152.0928  134.9395  160.0622 H   0  0  0  0  0  0  0  0  0  0  0  0  # atno 6909 bound_to 6896
  144.9650  140.7486  143.4706 H   0  0  0  0  0  0  0  0  0  0  0  0  # atno 7974 bound_to 7965
  156.2254  140.1838  156.7375 H   0  0  0  0  0  0  0  0  0  0  0  0  # atno 8008 bound_to 7997
  154.5933  140.0647  156.9297 H   0  0  0  0  0  0  0  0  0  0  0  0  # atno 8009 bound_to 7997
  155.2299  140.3314  155.4307 H   0  0  0  0  0  0  0  0  0  0  0  0  # atno 8010 bound_to 7997
  139.6488  144.0122  152.2147 H   0  0  0  0  0  0  0  0  0  0  0  0  # atno 10167 bound_to 10162
  157.5731  130.8923  149.9300 H   0  0  0  0  0  0  0  0  0  0  0  0  # atno 10718 bound_to 10713
  153.9453  135.2975  155.3441 H   0  0  0  0  0  0  0  0  0  0  0  0  # atno 10763 bound_to 10752
  154.7455  135.5005  153.9200 H   0  0  0  0  0  0  0  0  0  0  0  0  # atno 10764 bound_to 10752
  153.1021  135.6737  153.9760 H   0  0  0  0  0  0  0  0  0  0  0  0  # atno 10765 bound_to 10752
  140.0786  134.5370  155.8970 H   0  0  0  0  0  0  0  0  0  0  0  0  # atno 11005 bound_to 11000
  145.2644  139.1979  143.4875 LP  0  0  0  0  0  0  0  0  0  0  0  0  # atno 17320 bound_to 7965
  146.3365  140.2579  142.8601 LP  0  0  0  0  0  0  0  0  0  0  0  0  # atno 17321 bound_to 7965
  139.9831  144.6415  150.7883 LP  0  0  0  0  0  0  0  0  0  0  0  0  # atno 17342 bound_to 10162
  140.7528  143.2996  151.3114 LP  0  0  0  0  0  0  0  0  0  0  0  0  # atno 17343 bound_to 10162
  156.0776  130.3677  150.0646 LP  0  0  0  0  0  0  0  0  0  0  0  0  # atno 17370 bound_to 10713
  156.8796  130.9552  151.3601 LP  0  0  0  0  0  0  0  0  0  0  0  0  # atno 17371 bound_to 10713
  141.2038  133.6635  156.6087 LP  0  0  0  0  0  0  0  0  0  0  0  0  # atno 17394 bound_to 11000
  140.3521  134.7760  157.4474 LP  0  0  0  0  0  0  0  0  0  0  0  0  # atno 17395 bound_to 11000

$$$$
