AV-unprocessed.smi:804|AV-procd|sdf|3795|dock8
  -GOLD-   22720 1233D 1   1.00000     0.00000
 Structure written by MMmdl.
 38 39  0  0  0  0  0  0  0  0  2 V2000
  145.9395  141.0128  156.3700 C   0  0  0  0  0  0  0  0  0  0  0  0
  146.7397  141.4392  155.1263 C   0  0  0  0  0  0  0  0  0  0  0  0
  146.6903  140.3058  154.0802 C   0  0  0  0  0  0  0  0  0  0  0  0
  146.1333  142.7381  154.5553 C   0  0  0  0  0  0  0  0  0  0  0  0
  148.1257  141.6709  155.5615 N   0  5  0  0  0  0  0  0  0  0  0  0
  149.2581  141.1140  155.0344 C   0  0  0  0  0  0  0  0  0  0  0  0
  149.4701  140.7329  153.8789 O   0  0  0  0  0  0  0  0  0  0  0  0
  150.3637  140.9715  156.0560 C   0  0  0  0  0  0  0  0  0  0  0  0
  150.5616  141.9998  156.9203 N   0  0  0  0  0  0  0  0  0  0  0  0
  151.5385  141.9091  157.8283 C   0  0  0  0  0  0  0  0  0  0  0  0
  151.7085  142.9878  158.7064 N   0  0  0  0  0  0  0  0  0  0  0  0
  152.5839  142.8989  159.8782 C   0  0  0  0  0  0  0  0  0  0  0  0
  152.0677  143.7959  161.0157 C   0  0  0  0  0  0  0  0  0  0  0  0
  151.9204  145.1313  160.5487 O   0  0  0  0  0  0  0  0  0  0  0  0
  150.9712  145.2134  159.4927 C   0  0  0  0  0  0  0  0  0  0  0  0
  151.4443  144.3693  158.2972 C   0  0  0  0  0  0  0  0  0  0  0  0
  152.3654  140.8653  157.9575 N   0  0  0  0  0  0  0  0  0  0  0  0
  152.1947  139.8268  157.1144 C   0  0  0  0  0  0  0  0  0  0  0  0
  151.1925  139.8191  156.1255 C   0  0  0  0  0  0  0  0  0  0  0  0
  151.0157  138.4290  155.1088 Cl  0  0  0  0  0  0  0  0  0  0  0  0
  144.8949  140.8228  156.1216 H   0  0  0  0  0  0  0  0  0  0  0  0
  145.9567  141.7849  157.1405 H   0  0  0  0  0  0  0  0  0  0  0  0
  146.3417  140.0995  156.8109 H   0  0  0  0  0  0  0  0  0  0  0  0
  147.1459  139.3908  154.4614 H   0  0  0  0  0  0  0  0  0  0  0  0
  147.2084  140.5741  153.1593 H   0  0  0  0  0  0  0  0  0  0  0  0
  145.6611  140.0694  153.8091 H   0  0  0  0  0  0  0  0  0  0  0  0
  145.0795  142.6026  154.3103 H   0  0  0  0  0  0  0  0  0  0  0  0
  146.6338  143.0569  153.6410 H   0  0  0  0  0  0  0  0  0  0  0  0
  146.1991  143.5579  155.2716 H   0  0  0  0  0  0  0  0  0  0  0  0
  152.6620  141.8800  160.2577 H   0  0  0  0  0  0  0  0  0  0  0  0
  153.5891  143.2045  159.5861 H   0  0  0  0  0  0  0  0  0  0  0  0
  151.1166  143.4252  161.4017 H   0  0  0  0  0  0  0  0  0  0  0  0
  152.7724  143.7874  161.8471 H   0  0  0  0  0  0  0  0  0  0  0  0
  149.9920  144.8800  159.8405 H   0  0  0  0  0  0  0  0  0  0  0  0
  150.8640  146.2564  159.1946 H   0  0  0  0  0  0  0  0  0  0  0  0
  152.3594  144.7903  157.8797 H   0  0  0  0  0  0  0  0  0  0  0  0
  150.6851  144.4280  157.5179 H   0  0  0  0  0  0  0  0  0  0  0  0
  152.8631  138.9874  157.2365 H   0  0  0  0  0  0  0  0  0  0  0  0
  1  2  1  0  0  0  0
  1 21  1  0  0  0  0
  1 22  1  0  0  0  0
  1 23  1  0  0  0  0
  2  3  1  0  0  0  0
  2  4  1  0  0  0  0
  2  5  1  0  0  0  0
  3 24  1  0  0  0  0
  3 25  1  0  0  0  0
  3 26  1  0  0  0  0
  4 27  1  0  0  0  0
  4 28  1  0  0  0  0
  4 29  1  0  0  0  0
  5  6  1  0  0  0  0
  6  7  2  0  0  0  0
  6  8  1  0  0  0  0
  8 19  1  0  0  0  0
  8  9  2  0  0  0  0
  9 10  1  0  0  0  0
 10 11  1  0  0  0  0
 10 17  2  0  0  0  0
 11 16  1  0  0  0  0
 11 12  1  0  0  0  0
 12 13  1  0  0  0  0
 12 30  1  0  0  0  0
 12 31  1  0  0  0  0
 13 14  1  0  0  0  0
 13 32  1  0  0  0  0
 13 33  1  0  0  0  0
 14 15  1  0  0  0  0
 15 16  1  0  0  0  0
 15 34  1  0  0  0  0
 15 35  1  0  0  0  0
 16 36  1  0  0  0  0
 16 37  1  0  0  0  0
 17 18  1  0  0  0  0
 18 19  2  0  0  0  0
 18 38  1  0  0  0  0
 19 20  1  0  0  0  0
M  CHG  1   5  -1
M  END
> <s_m_source_file>
AV-unprocessed.smi

> <i_m_source_file_index>
804

> <i_lp_mmshare_version>
43012

> <i_f3d_flags>
0

> <s_epik_input>
W0NIM11DKFtDSDNdKShbQ0gzXSlbTkhdQyg9TyljMW5jKG5bY0hdYzFDbClOMltDSDJdW0NIMl1PW0NIMl1bQ0gyXTI=

> <s_epik_cmdline>
J2VwaWtfcHl0aG9uJywgJy1waCcsICc3LjAnLCAnLXRuJywgJzgnLCAnLW1hJywgJzIwMCcsICctbWV0YWxfYmluZGluZycsICctaW1hZScsICc8aW5maWxlLm1hZT4nLCAnLW9tYWUnLCAnPG91dGZpbGUubWFlPic=

> <r_lp_tautomer_probability>
1

> <r_epik_Ionization_Penalty>
6.49938

> <r_epik_Ionization_Penalty_Charging>
6.49935

> <r_epik_Ionization_Penalty_Neutral>
2.43511e-05

> <r_epik_State_Penalty>
6.49934

> <r_epik_Charging_Adjusted_Penalty>
12.9987

> <i_epik_Tot_Q>
-1

> <i_epik_Tot_abs_Q>
1

> <r_epik_Metal_State_Penalty>
2.42664

> <b_epik_Metal_Only>
1

> <s_lp_Force_Field>
OPLS_2005

> <r_lp_Energy>
19.224

> <b_lp_Chiralities_Consistent>
1

> <s_lp_Variant>
AV-unprocessed.smi:804-2

> <Gold.Version>
5.8.1

> <Gold.Id.Protein>
6NUR|6NUR_protein|mol2

> <Gold.PLP.Fitness>
42.1129

> <Gold.PLP.PLP>
-40.3666

> <Gold.PLP.part.hbond>
-2.2218

> <Gold.PLP.part.metal>
0.0000

> <Gold.PLP.part.buried>
-5.2791

> <Gold.PLP.part.nonpolar>
-37.8505

> <Gold.PLP.part.repulsive>
5.1584

> <Gold.PLP.ligand.clash>
0.0000

> <Gold.PLP.ligand.torsion>
1.1447

> <Gold.PLP.Chemscore.Hbond>
1.3040

> <Gold.PLP.Chemscore.CHOScore>
0.0000

> <Gold.PLP.Chemscore.Metal>
0.0000

> <Gold.Chemscore.Hbonds>
donor molecule, donor type, donor heavy atom, donor atom, acceptor molecule, acceptor atom, score
      P1  H  7989  7998       L1     7  0.32
      P1  H  8011  8017       L1     7  0.31

> <Gold.PLP.Chemscore.Internal.Correction>
0.1237

> <Gold.Rescore>
     Score         DG    S(hbond)    S(metal)    S(lipo)     H(rot)  DE(clash)    DE(int)     intcor
     13.41     -17.45       1.19        0.00      90.25       1.00       1.34       2.69       ----

> <Gold.Chemscore.Fitness>
13.4111

> <Gold.Chemscore.DG>
-17.4491

> <Gold.Chemscore.ZeroCoef>
-5.4800

> <Gold.Chemscore.Hbond>
1.1887

> <Gold.Chemscore.Metal>
0.0000

> <Gold.Chemscore.Lipo>
90.2469

> <Gold.Chemscore.Internal_Hbond>
0.0000

> <Gold.Chemscore.DEClash>
1.3435

> <Gold.Chemscore.DEInternal>
2.6945

> <Gold.Chemscore.Rot>
1.0000

> <Gold.Chemscore.Internal.Correction>
   9.000000E+99

> <Gold.Chemscore.Hbonds>
donor molecule, donor type, donor heavy atom, donor atom, acceptor molecule, acceptor atom, score
      P1  H  7989  7998       L1     7  0.23
      P1  H  8011  8017       L1     7  0.27

> <Gold.Chemscore.Hbond.Weighted>
-3.9702

> <Gold.Chemscore.Metal.Weighted>
-0.0000

> <Gold.Chemscore.Lipo.Weighted>
-10.5589

> <Gold.Chemscore.Internal_Hbond.Weighted>
0.0000

> <Gold.Chemscore.DEClash.Weighted>
1.3435

> <Gold.Chemscore.DEInternal.Weighted>
2.6945

> <Gold.Chemscore.Rot.Weighted>
2.5600

> <Gold.Chemscore.Internal.Correction.Weighted>
   9.000000E+99

> <Gold.Protein.RotatedTorsions>
[ 6907 6896 6895 6894 ] final  -62.63 input  -60.11 | X-H torsion
[ 7974 7965 7964 7962 ] final -116.48 input  175.53 | X-H torsion
[ 8008 7997 7996 7995 ] final  -40.30 input   59.86 | X-H torsion
[ 10167 10162 10161 10158 ] final  -99.64 input  -65.29 | X-H torsion
[ 10718 10713 10712 10709 ] final  119.70 input   66.30 | X-H torsion
[ 10763 10752 10751 10750 ] final  -36.51 input  -60.55 | X-H torsion
[ 11005 11000 10999 10996 ] final -170.54 input  -57.11 | X-H torsion

> <Gold.Protein.ActiveResidues>
 VAL166  LYS551  ARG553  GLY616  TRP617  ASP618  TYR619  PRO620  LYS621  CYS622 
 ASP623  PHE694  ASN695  SER759  ASP760  ASP761  ALA762  ILE779  LEU786  VAL792 
 PHE793  MET794  SER795  GLU796  ALA797  LYS798  CYS799  TRP800  GLU811  SER814 

> <Gold.Protein.RotatedAtoms>
  150.7703  134.6544  159.6305 H   0  0  0  0  0  0  0  0  0  0  0  0  # atno 6907 bound_to 6896
  152.3752  134.6671  160.0171 H   0  0  0  0  0  0  0  0  0  0  0  0  # atno 6908 bound_to 6896
  151.7018  133.3275  159.3305 H   0  0  0  0  0  0  0  0  0  0  0  0  # atno 6909 bound_to 6896
  145.0963  140.8523  143.3953 H   0  0  0  0  0  0  0  0  0  0  0  0  # atno 7974 bound_to 7965
  154.4013  140.1529  156.3004 H   0  0  0  0  0  0  0  0  0  0  0  0  # atno 8008 bound_to 7997
  155.8706  140.3449  155.5796 H   0  0  0  0  0  0  0  0  0  0  0  0  # atno 8009 bound_to 7997
  155.7779  140.0839  157.2065 H   0  0  0  0  0  0  0  0  0  0  0  0  # atno 8010 bound_to 7997
  140.2603  143.3412  152.0631 H   0  0  0  0  0  0  0  0  0  0  0  0  # atno 10167 bound_to 10162
  157.5943  131.1060  150.7933 H   0  0  0  0  0  0  0  0  0  0  0  0  # atno 10718 bound_to 10713
  153.8809  135.6821  153.4767 H   0  0  0  0  0  0  0  0  0  0  0  0  # atno 10763 bound_to 10752
  153.1234  135.4729  154.9230 H   0  0  0  0  0  0  0  0  0  0  0  0  # atno 10764 bound_to 10752
  154.7669  135.3227  154.8220 H   0  0  0  0  0  0  0  0  0  0  0  0  # atno 10765 bound_to 10752
  140.5183  134.5734  157.5040 H   0  0  0  0  0  0  0  0  0  0  0  0  # atno 11005 bound_to 11000
  145.1008  139.2824  143.5687 LP  0  0  0  0  0  0  0  0  0  0  0  0  # atno 17320 bound_to 7965
  146.3530  140.0574  142.8631 LP  0  0  0  0  0  0  0  0  0  0  0  0  # atno 17321 bound_to 7965
  139.5019  144.6723  151.6214 LP  0  0  0  0  0  0  0  0  0  0  0  0  # atno 17342 bound_to 10162
  140.5971  143.9677  150.6361 LP  0  0  0  0  0  0  0  0  0  0  0  0  # atno 17343 bound_to 10162
  156.8348  130.5028  149.5327 LP  0  0  0  0  0  0  0  0  0  0  0  0  # atno 17370 bound_to 10713
  156.1003  130.5963  150.9882 LP  0  0  0  0  0  0  0  0  0  0  0  0  # atno 17371 bound_to 10713
  139.9620  134.7437  156.0217 LP  0  0  0  0  0  0  0  0  0  0  0  0  # atno 17394 bound_to 11000
  141.1348  133.6578  156.3563 LP  0  0  0  0  0  0  0  0  0  0  0  0  # atno 17395 bound_to 11000

$$$$
