AV-unprocessed.smi:1756|AV-procd|sdf|7071|dock5
  -GOLD-   22720 8293D 1   1.00000     0.00000
 Structure written by MMmdl.
 38 39  0  0  0  0  0  0  0  0  1 V2000
  149.1872  132.7124  155.1177 O   0  0  0  0  0  0  0  0  0  0  0  0
  149.0798  133.6555  154.3345 C   0  0  0  0  0  0  0  0  0  0  0  0
  149.7546  134.8057  154.4716 N   0  0  0  0  0  0  0  0  0  0  0  0
  150.6842  135.1207  155.5527 C   0  0  0  0  0  0  0  0  0  0  0  0
  150.9560  136.6320  155.6668 C   0  0  2  0  0  0  0  0  0  0  0  0
  150.6280  137.4171  154.3782 C   0  0  0  0  0  0  0  0  0  0  0  0
  151.0263  138.8902  154.5234 C   0  0  0  0  0  0  0  0  0  0  0  0
  152.4890  138.9904  154.9669 C   0  0  0  0  0  0  0  0  0  0  0  0
  152.7209  138.1388  156.2240 C   0  0  0  0  0  0  0  0  0  0  0  0
  152.3405  136.7898  155.9707 O   0  0  0  0  0  0  0  0  0  0  0  0
  148.3078  133.6826  153.2324 N   0  0  0  0  0  0  0  0  0  0  0  0
  147.4372  132.7023  152.7255 C   0  0  0  0  0  0  0  0  0  0  0  0
  147.6326  131.3606  152.8193 C   0  0  0  0  0  0  0  0  0  0  0  0
  146.6846  130.4025  152.2749 C   0  0  0  0  0  0  0  0  0  0  0  0
  146.8855  128.9034  152.4356 C   0  0  0  0  0  0  0  0  0  0  0  0
  147.9899  128.6351  153.1333 F   0  0  0  0  0  0  0  0  0  0  0  0
  145.8474  128.3747  153.0819 F   0  0  0  0  0  0  0  0  0  0  0  0
  146.9846  128.3038  151.2490 F   0  0  0  0  0  0  0  0  0  0  0  0
  145.5824  130.9120  151.6948 C   0  0  0  0  0  0  0  0  0  0  0  0
  145.3744  132.2891  151.5924 N   0  0  0  0  0  0  0  0  0  0  0  0
  146.2253  133.2240  152.0714 C   0  0  0  0  0  0  0  0  0  0  0  0
  145.9659  134.4206  151.9474 O   0  0  0  0  0  0  0  0  0  0  0  0
  144.5276  132.5924  151.1334 H   0  0  0  0  0  0  0  0  0  0  0  0
  149.6127  135.5238  153.7763 H   0  0  0  0  0  0  0  0  0  0  0  0
  150.2328  134.7659  156.4796 H   0  0  0  0  0  0  0  0  0  0  0  0
  151.6206  134.5708  155.4442 H   0  0  0  0  0  0  0  0  0  0  0  0
  150.3698  137.0307  156.4970 H   0  0  0  0  0  0  0  0  0  0  0  0
  151.1605  136.9764  153.5345 H   0  0  0  0  0  0  0  0  0  0  0  0
  149.5652  137.3506  154.1462 H   0  0  0  0  0  0  0  0  0  0  0  0
  150.8762  139.4201  153.5825 H   0  0  0  0  0  0  0  0  0  0  0  0
  150.3848  139.3727  155.2619 H   0  0  0  0  0  0  0  0  0  0  0  0
  153.1408  138.6411  154.1652 H   0  0  0  0  0  0  0  0  0  0  0  0
  152.7562  140.0298  155.1586 H   0  0  0  0  0  0  0  0  0  0  0  0
  153.7745  138.1616  156.5025 H   0  0  0  0  0  0  0  0  0  0  0  0
  152.1594  138.5341  157.0717 H   0  0  0  0  0  0  0  0  0  0  0  0
  148.3778  134.5121  152.6607 H   0  0  0  0  0  0  0  0  0  0  0  0
  148.5000  130.9574  153.3146 H   0  0  0  0  0  0  0  0  0  0  0  0
  144.7852  130.3163  151.2751 H   0  0  0  0  0  0  0  0  0  0  0  0
  1  2  2  0  0  0  0
  2  3  1  0  0  0  0
  2 11  1  0  0  0  0
  3  4  1  0  0  0  0
  3 24  1  0  0  0  0
  4  5  1  0  0  0  0
  4 25  1  0  0  0  0
  4 26  1  0  0  0  0
  5 10  1  0  0  0  0
  5  6  1  0  0  0  0
  5 27  1  0  0  0  0
  6  7  1  0  0  0  0
  6 28  1  0  0  0  0
  6 29  1  0  0  0  0
  7  8  1  0  0  0  0
  7 30  1  0  0  0  0
  7 31  1  0  0  0  0
  8  9  1  0  0  0  0
  8 32  1  0  0  0  0
  8 33  1  0  0  0  0
  9 10  1  0  0  0  0
  9 34  1  0  0  0  0
  9 35  1  0  0  0  0
 11 12  1  0  0  0  0
 11 36  1  0  0  0  0
 12 21  1  0  0  0  0
 12 13  2  0  0  0  0
 13 14  1  0  0  0  0
 13 37  1  0  0  0  0
 14 15  1  0  0  0  0
 14 19  2  0  0  0  0
 15 16  1  0  0  0  0
 15 17  1  0  0  0  0
 15 18  1  0  0  0  0
 19 20  1  0  0  0  0
 19 38  1  0  0  0  0
 20 23  1  0  0  0  0
 20 21  1  0  0  0  0
 21 22  2  0  0  0  0
M  END
> <s_m_source_file>
AV-unprocessed.smi

> <i_m_source_file_index>
1756

> <i_lp_mmshare_version>
43012

> <i_f3d_flags>
0

> <s_epik_input>
Tz1jMVtuSF1bY0hdYyhDKEYpKEYpRilbY0hdYzFbTkhdQyg9TylbTkhdW0NIMl1bQ0BASF0yW0NIMl1bQ0gyXVtDSDJdW0NIMl1PMg==

> <s_epik_cmdline>
J2VwaWtfcHl0aG9uJywgJy1waCcsICc3LjAnLCAnLXRuJywgJzgnLCAnLW1hJywgJzIwMCcsICctbWV0YWxfYmluZGluZycsICctaW1hZScsICc8aW5maWxlLm1hZT4nLCAnLW9tYWUnLCAnPG91dGZpbGUubWFlPic=

> <r_lp_tautomer_probability>
1

> <r_epik_Ionization_Penalty>
0.00380944

> <r_epik_Ionization_Penalty_Charging>
0.00379057

> <r_epik_Ionization_Penalty_Neutral>
1.88732e-05

> <r_epik_State_Penalty>
-0

> <r_epik_Charging_Adjusted_Penalty>
0.00379057

> <i_epik_Tot_Q>
0

> <i_epik_Tot_abs_Q>
0

> <r_epik_Metal_State_Penalty>
0.371099

> <b_epik_Metal_Only>
0

> <s_lp_Force_Field>
OPLS_2005

> <r_lp_Energy>
19.4174

> <b_lp_Chiralities_Consistent>
1

> <s_lp_Variant>
AV-unprocessed.smi:1756-1

> <Gold.Version>
5.8.1

> <Gold.Id.Protein>
6NUR|6NUR_protein|mol2

> <Gold.PLP.Fitness>
44.3914

> <Gold.PLP.PLP>
-37.3506

> <Gold.PLP.part.hbond>
-3.0000

> <Gold.PLP.part.metal>
0.0000

> <Gold.PLP.part.buried>
-1.0014

> <Gold.PLP.part.nonpolar>
-34.1421

> <Gold.PLP.part.repulsive>
0.1933

> <Gold.PLP.ligand.clash>
0.0000

> <Gold.PLP.ligand.torsion>
0.9414

> <Gold.PLP.Chemscore.Hbond>
2.9588

> <Gold.PLP.Chemscore.CHOScore>
0.0000

> <Gold.PLP.Chemscore.Metal>
0.0000

> <Gold.Chemscore.Hbonds>
donor molecule, donor type, donor heavy atom, donor atom, acceptor molecule, acceptor atom, score
      L1  H     3    24       P1  7948  0.73
      L1  H    11    36       P1  7948  0.95
      P1  H 10752 10764       L1    10  0.99

> <Gold.PLP.Chemscore.Internal.Correction>
0.0474

> <Gold.Rescore>
     Score         DG    S(hbond)    S(metal)    S(lipo)     H(rot)  DE(clash)    DE(int)     intcor
     14.99     -17.00       1.80        0.00      76.19       1.33       0.94       1.07       ----

> <Gold.Chemscore.Fitness>
14.9892

> <Gold.Chemscore.DG>
-17.0011

> <Gold.Chemscore.ZeroCoef>
-5.4800

> <Gold.Chemscore.Hbond>
1.8032

> <Gold.Chemscore.Metal>
0.0000

> <Gold.Chemscore.Lipo>
76.1923

> <Gold.Chemscore.Internal_Hbond>
0.0000

> <Gold.Chemscore.DEClash>
0.9437

> <Gold.Chemscore.DEInternal>
1.0681

> <Gold.Chemscore.Rot>
1.3344

> <Gold.Chemscore.Internal.Correction>
   9.000000E+99

> <Gold.Chemscore.Hbonds>
donor molecule, donor type, donor heavy atom, donor atom, acceptor molecule, acceptor atom, score
      L1  H     3    24       P1  7948  0.14
      L1  H    11    36       P1  7948  0.21
      P1  H 10752 10764       L1    10  0.37

> <Gold.Chemscore.Hbond.Weighted>
-6.0225

> <Gold.Chemscore.Metal.Weighted>
-0.0000

> <Gold.Chemscore.Lipo.Weighted>
-8.9145

> <Gold.Chemscore.Internal_Hbond.Weighted>
0.0000

> <Gold.Chemscore.DEClash.Weighted>
0.9437

> <Gold.Chemscore.DEInternal.Weighted>
1.0681

> <Gold.Chemscore.Rot.Weighted>
3.4160

> <Gold.Chemscore.Internal.Correction.Weighted>
   9.000000E+99

> <Gold.Protein.RotatedTorsions>
[ 6907 6896 6895 6894 ] final  120.54 input  -60.11 | X-H torsion
[ 7974 7965 7964 7962 ] final    9.06 input  175.53 | X-H torsion
[ 8008 7997 7996 7995 ] final   15.82 input   59.86 | X-H torsion
[ 10167 10162 10161 10158 ] final   99.23 input  -65.29 | X-H torsion
[ 10718 10713 10712 10709 ] final  -85.96 input   66.30 | X-H torsion
[ 10763 10752 10751 10750 ] final  -34.17 input  -60.55 | X-H torsion
[ 11005 11000 10999 10996 ] final   30.66 input  -57.11 | X-H torsion

> <Gold.Protein.ActiveResidues>
 VAL166  LYS551  ARG553  GLY616  TRP617  ASP618  TYR619  PRO620  LYS621  CYS622 
 ASP623  PHE694  ASN695  SER759  ASP760  ASP761  ALA762  ILE779  LEU786  VAL792 
 PHE793  MET794  SER795  GLU796  ALA797  LYS798  CYS799  TRP800  GLU811  SER814 

> <Gold.Protein.RotatedAtoms>
  152.4390  133.7414  159.6642 H   0  0  0  0  0  0  0  0  0  0  0  0  # atno 6907 bound_to 6896
  150.8278  133.8132  159.3117 H   0  0  0  0  0  0  0  0  0  0  0  0  # atno 6908 bound_to 6896
  151.5795  135.1061  160.0065 H   0  0  0  0  0  0  0  0  0  0  0  0  # atno 6909 bound_to 6896
  146.2408  139.9839  142.8433 H   0  0  0  0  0  0  0  0  0  0  0  0  # atno 7974 bound_to 7965
  154.8681  140.2954  155.5498 H   0  0  0  0  0  0  0  0  0  0  0  0  # atno 8008 bound_to 7997
  156.3021  140.2465  156.3599 H   0  0  0  0  0  0  0  0  0  0  0  0  # atno 8009 bound_to 7997
  154.8846  140.0396  157.1792 H   0  0  0  0  0  0  0  0  0  0  0  0  # atno 8010 bound_to 7997
  139.7636  144.6946  151.0256 H   0  0  0  0  0  0  0  0  0  0  0  0  # atno 10167 bound_to 10162
  155.9993  130.4749  150.4642 H   0  0  0  0  0  0  0  0  0  0  0  0  # atno 10718 bound_to 10713
  153.8423  135.6856  153.4801 H   0  0  0  0  0  0  0  0  0  0  0  0  # atno 10763 bound_to 10752
  153.1446  135.4643  154.9545 H   0  0  0  0  0  0  0  0  0  0  0  0  # atno 10764 bound_to 10752
  154.7839  135.3278  154.7875 H   0  0  0  0  0  0  0  0  0  0  0  0  # atno 10765 bound_to 10752
  140.2920  134.2854  155.7774 H   0  0  0  0  0  0  0  0  0  0  0  0  # atno 11005 bound_to 11000
  145.1566  140.9651  143.4402 LP  0  0  0  0  0  0  0  0  0  0  0  0  # atno 17320 bound_to 7965
  145.0155  139.3471  143.6098 LP  0  0  0  0  0  0  0  0  0  0  0  0  # atno 17321 bound_to 7965
  140.7809  143.4668  151.0201 LP  0  0  0  0  0  0  0  0  0  0  0  0  # atno 17342 bound_to 10162
  139.8354  143.7635  152.3180 LP  0  0  0  0  0  0  0  0  0  0  0  0  # atno 17343 bound_to 10162
  157.2663  131.0577  151.2288 LP  0  0  0  0  0  0  0  0  0  0  0  0  # atno 17370 bound_to 10713
  157.3384  130.7021  149.6367 LP  0  0  0  0  0  0  0  0  0  0  0  0  # atno 17371 bound_to 10713
  141.2144  133.7591  156.9639 LP  0  0  0  0  0  0  0  0  0  0  0  0  # atno 17394 bound_to 11000
  140.1187  134.9431  157.2171 LP  0  0  0  0  0  0  0  0  0  0  0  0  # atno 17395 bound_to 11000

$$$$
