AV-unprocessed.smi:2353|AV-procd|sdf|9381|dock10
  -GOLD-   2272013 13D 1   1.00000     0.00000
 Structure written by MMmdl.
 45 47  0  0  0  0  0  0  0  0  1 V2000
  150.5806  143.7649  158.4454 C   0  0  0  0  0  0  0  0  0  0  0  0
  151.6003  142.7920  159.0012 C   0  0  0  0  0  0  0  0  0  0  0  0
  152.2591  143.0688  160.2145 C   0  0  0  0  0  0  0  0  0  0  0  0
  153.2061  142.1614  160.7220 C   0  0  0  0  0  0  0  0  0  0  0  0
  153.5003  140.9735  160.0211 C   0  0  0  0  0  0  0  0  0  0  0  0
  154.5232  140.0057  160.5853 C   0  0  0  0  0  0  0  0  0  0  0  0
  152.8460  140.6826  158.8015 C   0  0  0  0  0  0  0  0  0  0  0  0
  153.1790  139.5027  158.1681 O   0  0  0  0  0  0  0  0  0  0  0  0
  152.4134  139.0946  157.0420 C   0  0  0  0  0  0  0  0  0  0  0  0
  153.3753  138.6591  155.9230 C   0  0  1  0  0  0  0  0  0  0  0  0
  153.7878  137.3410  156.2274 O   0  0  0  0  0  0  0  0  0  0  0  0
  152.6839  138.6410  154.5415 C   0  0  0  0  0  0  0  0  0  0  0  0
  151.2455  138.3679  154.6523 N   0  0  0  0  0  0  0  0  0  0  0  0
  150.4422  139.4772  154.4463 N   0  0  0  0  0  0  0  0  0  0  0  0
  149.1529  139.3787  154.5004 C   0  0  0  0  0  0  0  0  0  0  0  0
  148.2535  140.4963  154.2953 N   0  0  0  0  0  0  0  0  0  0  0  0
  146.9451  140.2594  153.8787 C   0  0  0  0  0  0  0  0  0  0  0  0
  146.3521  141.4983  153.7738 C   0  0  0  0  0  0  0  0  0  0  0  0
  147.2661  142.4941  154.1174 N   0  0  0  0  0  0  0  0  0  0  0  0
  148.3736  141.8265  154.4161 C   0  0  0  0  0  0  0  0  0  0  0  0
  148.5328  138.0948  154.7797 C   0  0  0  0  0  0  0  0  0  0  0  0
  149.3243  137.0189  154.9783 C   0  0  0  0  0  0  0  0  0  0  0  0
  150.7823  137.1106  154.9184 C   0  0  0  0  0  0  0  0  0  0  0  0
  151.5238  136.1433  155.0867 O   0  0  0  0  0  0  0  0  0  0  0  0
  151.8939  141.6060  158.2984 C   0  0  0  0  0  0  0  0  0  0  0  0
  150.2911  144.5055  159.1915 H   0  0  0  0  0  0  0  0  0  0  0  0
  149.6817  143.2353  158.1285 H   0  0  0  0  0  0  0  0  0  0  0  0
  150.9929  144.2894  157.5833 H   0  0  0  0  0  0  0  0  0  0  0  0
  152.0427  143.9757  160.7598 H   0  0  0  0  0  0  0  0  0  0  0  0
  153.7057  142.3814  161.6539 H   0  0  0  0  0  0  0  0  0  0  0  0
  154.0431  139.0638  160.8514 H   0  0  0  0  0  0  0  0  0  0  0  0
  155.0031  140.4067  161.4786 H   0  0  0  0  0  0  0  0  0  0  0  0
  155.2999  139.8003  159.8481 H   0  0  0  0  0  0  0  0  0  0  0  0
  151.7196  138.2897  157.2923 H   0  0  0  0  0  0  0  0  0  0  0  0
  151.8251  139.9503  156.7067 H   0  0  0  0  0  0  0  0  0  0  0  0
  154.2375  139.3276  155.9028 H   0  0  0  0  0  0  0  0  0  0  0  0
  154.3811  137.0480  155.5522 H   0  0  0  0  0  0  0  0  0  0  0  0
  152.8859  139.5598  153.9871 H   0  0  0  0  0  0  0  0  0  0  0  0
  153.1199  137.8494  153.9294 H   0  0  0  0  0  0  0  0  0  0  0  0
  146.5412  139.2744  153.6926 H   0  0  0  0  0  0  0  0  0  0  0  0
  145.3438  141.7487  153.4787 H   0  0  0  0  0  0  0  0  0  0  0  0
  149.2807  142.3237  154.7262 H   0  0  0  0  0  0  0  0  0  0  0  0
  147.4596  137.9933  154.8299 H   0  0  0  0  0  0  0  0  0  0  0  0
  148.8691  136.0616  155.1861 H   0  0  0  0  0  0  0  0  0  0  0  0
  151.3731  141.4254  157.3705 H   0  0  0  0  0  0  0  0  0  0  0  0
  1  2  1  0  0  0  0
  1 26  1  0  0  0  0
  1 27  1  0  0  0  0
  1 28  1  0  0  0  0
  2 25  1  0  0  0  0
  2  3  2  0  0  0  0
  3  4  1  0  0  0  0
  3 29  1  0  0  0  0
  4  5  2  0  0  0  0
  4 30  1  0  0  0  0
  5  6  1  0  0  0  0
  5  7  1  0  0  0  0
  6 31  1  0  0  0  0
  6 32  1  0  0  0  0
  6 33  1  0  0  0  0
  7  8  1  0  0  0  0
  7 25  2  0  0  0  0
  8  9  1  0  0  0  0
  9 10  1  0  0  0  0
  9 34  1  0  0  0  0
  9 35  1  0  0  0  0
 10 11  1  0  0  0  0
 10 12  1  0  0  0  0
 10 36  1  0  0  0  0
 11 37  1  0  0  0  0
 12 13  1  0  0  0  0
 12 38  1  0  0  0  0
 12 39  1  0  0  0  0
 13 23  1  0  0  0  0
 13 14  1  0  0  0  0
 14 15  2  0  0  0  0
 15 16  1  0  0  0  0
 15 21  1  0  0  0  0
 16 20  1  0  0  0  0
 16 17  1  0  0  0  0
 17 18  2  0  0  0  0
 17 40  1  0  0  0  0
 18 19  1  0  0  0  0
 18 41  1  0  0  0  0
 19 20  2  0  0  0  0
 20 42  1  0  0  0  0
 21 22  2  0  0  0  0
 21 43  1  0  0  0  0
 22 23  1  0  0  0  0
 22 44  1  0  0  0  0
 23 24  2  0  0  0  0
 25 45  1  0  0  0  0
M  END
> <s_m_source_file>
AV-unprocessed.smi

> <i_m_source_file_index>
2353

> <i_lp_mmshare_version>
43012

> <i_f3d_flags>
0

> <s_epik_input>
W0NIM11jMVtjSF1bY0hdYyhbQ0gzXSljKFtjSF0xKU9bQ0gyXVtDQEhdKFtPSF0pW0NIMl1uMm5jKFtjSF1bY0hdYzI9TyktbjNbY0hdW2NIXW5bY0hdMw==

> <s_epik_cmdline>
J2VwaWtfcHl0aG9uJywgJy1waCcsICc3LjAnLCAnLXRuJywgJzgnLCAnLW1hJywgJzIwMCcsICctbWV0YWxfYmluZGluZycsICctaW1hZScsICc8aW5maWxlLm1hZT4nLCAnLW9tYWUnLCAnPG91dGZpbGUubWFlPic=

> <r_lp_tautomer_probability>
1

> <r_epik_Ionization_Penalty>
0.03707

> <r_epik_Ionization_Penalty_Charging>
0.0370699

> <r_epik_Ionization_Penalty_Neutral>
1.17174e-07

> <r_epik_State_Penalty>
0.0310055

> <r_epik_Charging_Adjusted_Penalty>
0.0680754

> <i_epik_Tot_Q>
0

> <i_epik_Tot_abs_Q>
0

> <r_epik_Metal_State_Penalty>
0.0291724

> <b_epik_Metal_Only>
0

> <s_lp_Force_Field>
OPLS_2005

> <r_lp_Energy>
35.5456

> <b_lp_Chiralities_Consistent>
1

> <s_lp_Variant>
AV-unprocessed.smi:2353-2

> <Gold.Version>
5.8.1

> <Gold.Id.Protein>
6NUR|6NUR_protein|mol2

> <Gold.PLP.Fitness>
53.8307

> <Gold.PLP.PLP>
-44.6268

> <Gold.PLP.part.hbond>
-4.0324

> <Gold.PLP.part.metal>
0.0000

> <Gold.PLP.part.buried>
-0.2942

> <Gold.PLP.part.nonpolar>
-41.7562

> <Gold.PLP.part.repulsive>
1.2085

> <Gold.PLP.ligand.clash>
0.0000

> <Gold.PLP.ligand.torsion>
1.3716

> <Gold.PLP.Chemscore.Hbond>
2.9500

> <Gold.PLP.Chemscore.CHOScore>
0.9875

> <Gold.PLP.Chemscore.Metal>
0.0000

> <Gold.Chemscore.Hbonds>
donor molecule, donor type, donor heavy atom, donor atom, acceptor molecule, acceptor atom, score
      P1  H  7989  7998       L1    14  0.93
      P1  H  7997  8010       L1     8  0.89
      P1  H 10752 10763       L1    24  1.00
      L1  C    18    41       P1 10175  0.55
      L1  C    20    42       P1  8028  0.57

> <Gold.PLP.Chemscore.Internal.Correction>
0.1347

> <Gold.Rescore>
     Score         DG    S(hbond)    S(metal)    S(lipo)     H(rot)  DE(clash)    DE(int)     intcor
     14.04     -18.30       1.66        0.00     118.98       2.60       1.53       2.74       ----

> <Gold.Chemscore.Fitness>
14.0350

> <Gold.Chemscore.DG>
-18.3044

> <Gold.Chemscore.ZeroCoef>
-5.4800

> <Gold.Chemscore.Hbond>
1.6635

> <Gold.Chemscore.Metal>
0.0000

> <Gold.Chemscore.Lipo>
118.9801

> <Gold.Chemscore.Internal_Hbond>
0.0000

> <Gold.Chemscore.DEClash>
1.5312

> <Gold.Chemscore.DEInternal>
2.7381

> <Gold.Chemscore.Rot>
2.5986

> <Gold.Chemscore.Internal.Correction>
   9.000000E+99

> <Gold.Chemscore.Hbonds>
donor molecule, donor type, donor heavy atom, donor atom, acceptor molecule, acceptor atom, score
      P1  H  7989  7998       L1    14  0.49
      P1  H  7997  8010       L1     8  0.05
      P1  H 10752 10763       L1    24  0.99

> <Gold.Chemscore.Hbond.Weighted>
-5.5561

> <Gold.Chemscore.Metal.Weighted>
-0.0000

> <Gold.Chemscore.Lipo.Weighted>
-13.9207

> <Gold.Chemscore.Internal_Hbond.Weighted>
0.0000

> <Gold.Chemscore.DEClash.Weighted>
1.5312

> <Gold.Chemscore.DEInternal.Weighted>
2.7381

> <Gold.Chemscore.Rot.Weighted>
6.6524

> <Gold.Chemscore.Internal.Correction.Weighted>
   9.000000E+99

> <Gold.Protein.RotatedTorsions>
[ 6907 6896 6895 6894 ] final  -59.52 input  -60.11 | X-H torsion
[ 7974 7965 7964 7962 ] final -151.32 input  175.53 | X-H torsion
[ 8008 7997 7996 7995 ] final   15.81 input   59.86 | X-H torsion
[ 10167 10162 10161 10158 ] final -164.81 input  -65.29 | X-H torsion
[ 10718 10713 10712 10709 ] final    4.63 input   66.30 | X-H torsion
[ 10763 10752 10751 10750 ] final   55.86 input  -60.55 | X-H torsion
[ 11005 11000 10999 10996 ] final  142.95 input  -57.11 | X-H torsion

> <Gold.Protein.ActiveResidues>
 VAL166  LYS551  ARG553  GLY616  TRP617  ASP618  TYR619  PRO620  LYS621  CYS622 
 ASP623  PHE694  ASN695  SER759  ASP760  ASP761  ALA762  ILE779  LEU786  VAL792 
 PHE793  MET794  SER795  GLU796  ALA797  LYS798  CYS799  TRP800  GLU811  SER814 

> <Gold.Protein.RotatedAtoms>
  150.7924  134.6958  159.6522 H   0  0  0  0  0  0  0  0  0  0  0  0  # atno 6907 bound_to 6896
  152.4032  134.6248  160.0070 H   0  0  0  0  0  0  0  0  0  0  0  0  # atno 6908 bound_to 6896
  151.6513  133.3284  159.3188 H   0  0  0  0  0  0  0  0  0  0  0  0  # atno 6909 bound_to 6896
  144.7856  140.4813  143.5808 H   0  0  0  0  0  0  0  0  0  0  0  0  # atno 7974 bound_to 7965
  154.8679  140.2954  155.5499 H   0  0  0  0  0  0  0  0  0  0  0  0  # atno 8008 bound_to 7997
  156.3021  140.2465  156.3596 H   0  0  0  0  0  0  0  0  0  0  0  0  # atno 8009 bound_to 7997
  154.8848  140.0396  157.1793 H   0  0  0  0  0  0  0  0  0  0  0  0  # atno 8010 bound_to 7997
  139.6225  144.0597  152.1945 H   0  0  0  0  0  0  0  0  0  0  0  0  # atno 10167 bound_to 10162
  156.8955  130.5702  149.5649 H   0  0  0  0  0  0  0  0  0  0  0  0  # atno 10718 bound_to 10713
  152.9823  135.5696  154.5135 H   0  0  0  0  0  0  0  0  0  0  0  0  # atno 10763 bound_to 10752
  154.4635  135.2782  155.1697 H   0  0  0  0  0  0  0  0  0  0  0  0  # atno 10764 bound_to 10752
  154.3275  135.6256  153.5589 H   0  0  0  0  0  0  0  0  0  0  0  0  # atno 10765 bound_to 10752
  140.0516  134.9252  157.1027 H   0  0  0  0  0  0  0  0  0  0  0  0  # atno 11005 bound_to 11000
  145.5930  139.1497  143.3171 LP  0  0  0  0  0  0  0  0  0  0  0  0  # atno 17320 bound_to 7965
  146.2086  140.6055  142.9069 LP  0  0  0  0  0  0  0  0  0  0  0  0  # atno 17321 bound_to 7965
  140.0243  144.6130  150.7541 LP  0  0  0  0  0  0  0  0  0  0  0  0  # atno 17342 bound_to 10162
  140.7390  143.2786  151.3666 LP  0  0  0  0  0  0  0  0  0  0  0  0  # atno 17343 bound_to 10162
  156.0608  130.5661  150.9188 LP  0  0  0  0  0  0  0  0  0  0  0  0  # atno 17370 bound_to 10713
  157.6058  131.0939  150.8881 LP  0  0  0  0  0  0  0  0  0  0  0  0  # atno 17371 bound_to 10713
  140.3908  134.2186  155.7166 LP  0  0  0  0  0  0  0  0  0  0  0  0  # atno 17394 bound_to 11000
  141.1933  133.8154  157.0805 LP  0  0  0  0  0  0  0  0  0  0  0  0  # atno 17395 bound_to 11000

$$$$
