AV-unprocessed.smi:701|AV-procd|sdf|3414|dock1
  -GOLD-   22720 0393D 1   1.00000     0.00000
 Structure written by MMmdl.
 48 50  0  0  0  0  0  0  0  0  2 V2000
  147.2760  141.7216  153.8979 C   0  0  0  0  0  0  0  0  0  0  0  0
  147.3773  140.1994  153.7788 C   0  0  0  0  0  0  0  0  0  0  0  0
  148.2024  139.7186  154.8257 O   0  0  0  0  0  0  0  0  0  0  0  0
  149.5484  140.1683  154.7358 C   0  0  2  0  0  0  0  0  0  0  0  0
  150.4619  139.1174  154.0928 C   0  0  0  0  0  0  0  0  0  0  0  0
  150.7839  138.6091  155.5020 C   0  0  2  0  0  0  0  0  0  0  0  0
  149.9135  137.4910  155.8644 N   0  0  0  0  0  0  0  0  0  0  0  0
  150.0958  136.2223  155.4725 C   0  0  0  0  0  0  0  0  0  0  0  0
  151.0077  135.8716  154.7226 O   0  0  0  0  0  0  0  0  0  0  0  0
  149.0805  135.1995  155.9960 C   0  0  0  0  0  0  0  0  0  0  0  0
  149.3543  133.8403  155.5044 N   0  0  0  0  0  0  0  0  0  0  0  0
  149.0486  133.5547  154.1621 C   0  0  0  0  0  0  0  0  0  0  0  0
  149.2721  132.3397  153.6260 C   0  0  0  0  0  0  0  0  0  0  0  0
  149.8468  131.3048  154.4767 C   0  0  0  0  0  0  0  0  0  0  0  0
  150.0519  130.1878  154.0056 O   0  0  0  0  0  0  0  0  0  0  0  0
  150.1315  131.6328  155.7709 N   0  5  0  0  0  0  0  0  0  0  0  0
  149.9016  132.8738  156.3019 C   0  0  0  0  0  0  0  0  0  0  0  0
  150.1685  133.1494  157.4723 O   0  0  0  0  0  0  0  0  0  0  0  0
  150.3252  139.9847  156.0667 C   0  0  0  0  0  0  0  0  0  0  0  0
  151.4850  140.9804  156.2803 C   0  0  0  0  0  0  0  0  0  0  0  0
  151.0131  142.4030  156.6298 C   0  0  0  0  0  0  0  0  0  0  0  0
  150.1169  142.4037  157.8738 C   0  0  0  0  0  0  0  0  0  0  0  0
  148.9665  141.4016  157.7248 C   0  0  0  0  0  0  0  0  0  0  0  0
  149.4928  140.0018  157.3691 C   0  0  0  0  0  0  0  0  0  0  0  0
  146.6573  142.1354  153.1016 H   0  0  0  0  0  0  0  0  0  0  0  0
  148.2607  142.1854  153.8326 H   0  0  0  0  0  0  0  0  0  0  0  0
  146.8327  142.0102  154.8513 H   0  0  0  0  0  0  0  0  0  0  0  0
  146.3829  139.7554  153.8370 H   0  0  0  0  0  0  0  0  0  0  0  0
  147.8046  139.9275  152.8126 H   0  0  0  0  0  0  0  0  0  0  0  0
  149.6398  141.1666  154.3062 H   0  0  0  0  0  0  0  0  0  0  0  0
  149.9633  138.3977  153.4425 H   0  0  0  0  0  0  0  0  0  0  0  0
  151.3271  139.5613  153.5988 H   0  0  0  0  0  0  0  0  0  0  0  0
  151.8469  138.4059  155.6431 H   0  0  0  0  0  0  0  0  0  0  0  0
  149.1462  137.6906  156.4898 H   0  0  0  0  0  0  0  0  0  0  0  0
  149.0625  135.2092  157.0877 H   0  0  0  0  0  0  0  0  0  0  0  0
  148.0845  135.5230  155.6909 H   0  0  0  0  0  0  0  0  0  0  0  0
  148.6331  134.3780  153.6000 H   0  0  0  0  0  0  0  0  0  0  0  0
  149.0355  132.1378  152.5918 H   0  0  0  0  0  0  0  0  0  0  0  0
  152.1380  140.6188  157.0760 H   0  0  0  0  0  0  0  0  0  0  0  0
  152.1148  141.0325  155.3918 H   0  0  0  0  0  0  0  0  0  0  0  0
  151.8751  143.0501  156.7951 H   0  0  0  0  0  0  0  0  0  0  0  0
  150.4678  142.8293  155.7875 H   0  0  0  0  0  0  0  0  0  0  0  0
  150.7125  142.1425  158.7495 H   0  0  0  0  0  0  0  0  0  0  0  0
  149.7237  143.4046  158.0534 H   0  0  0  0  0  0  0  0  0  0  0  0
  148.3907  141.3577  158.6496 H   0  0  0  0  0  0  0  0  0  0  0  0
  148.2799  141.7419  156.9486 H   0  0  0  0  0  0  0  0  0  0  0  0
  148.6381  139.3290  157.2999 H   0  0  0  0  0  0  0  0  0  0  0  0
  150.0915  139.6227  158.1984 H   0  0  0  0  0  0  0  0  0  0  0  0
  1  2  1  0  0  0  0
  1 25  1  0  0  0  0
  1 26  1  0  0  0  0
  1 27  1  0  0  0  0
  2  3  1  0  0  0  0
  2 28  1  0  0  0  0
  2 29  1  0  0  0  0
  3  4  1  0  0  0  0
  4 19  1  0  0  0  0
  4  5  1  0  0  0  0
  4 30  1  0  0  0  0
  5  6  1  0  0  0  0
  5 31  1  0  0  0  0
  5 32  1  0  0  0  0
  6  7  1  0  0  0  0
  6 19  1  0  0  0  0
  6 33  1  0  0  0  0
  7  8  1  0  0  0  0
  7 34  1  0  0  0  0
  8  9  2  0  0  0  0
  8 10  1  0  0  0  0
 10 11  1  0  0  0  0
 10 35  1  0  0  0  0
 10 36  1  0  0  0  0
 11 17  1  0  0  0  0
 11 12  1  0  0  0  0
 12 13  2  0  0  0  0
 12 37  1  0  0  0  0
 13 14  1  0  0  0  0
 13 38  1  0  0  0  0
 14 15  2  0  0  0  0
 14 16  1  0  0  0  0
 16 17  1  0  0  0  0
 17 18  2  0  0  0  0
 19 24  1  0  0  0  0
 19 20  1  0  0  0  0
 20 21  1  0  0  0  0
 20 39  1  0  0  0  0
 20 40  1  0  0  0  0
 21 22  1  0  0  0  0
 21 41  1  0  0  0  0
 21 42  1  0  0  0  0
 22 23  1  0  0  0  0
 22 43  1  0  0  0  0
 22 44  1  0  0  0  0
 23 24  1  0  0  0  0
 23 45  1  0  0  0  0
 23 46  1  0  0  0  0
 24 47  1  0  0  0  0
 24 48  1  0  0  0  0
M  CHG  1  16  -1
M  END
> <s_m_source_file>
AV-unprocessed.smi

> <i_m_source_file_index>
701

> <i_lp_mmshare_version>
43012

> <i_f3d_flags>
0

> <s_epik_input>
W0NIMl0xW0NIMl1bQ0gyXVtDSDJdW0NIMl1DMTJbQ0BIXShPW0NIMl1bQ0gzXSlbQ0gyXVtDQEhdMltOSF1DKD1PKVtDSDJdbjNbY0hdW2NIXWMoPU8pW25IXWMzPU8=

> <s_epik_cmdline>
J2VwaWtfcHl0aG9uJywgJy1waCcsICc3LjAnLCAnLXRuJywgJzgnLCAnLW1hJywgJzIwMCcsICctbWV0YWxfYmluZGluZycsICctaW1hZScsICc8aW5maWxlLm1hZT4nLCAnLW9tYWUnLCAnPG91dGZpbGUubWFlPic=

> <r_lp_tautomer_probability>
0.999537

> <r_epik_Ionization_Penalty>
3.12423

> <r_epik_Ionization_Penalty_Charging>
2.92877e-08

> <r_epik_Ionization_Penalty_Neutral>
3.12423

> <r_epik_State_Penalty>
3.12332

> <r_epik_Charging_Adjusted_Penalty>
3.12332

> <i_epik_Tot_Q>
-1

> <i_epik_Tot_abs_Q>
1

> <r_epik_Metal_State_Penalty>
0.463873

> <b_epik_Metal_Only>
1

> <s_lp_Force_Field>
OPLS_2005

> <r_lp_Energy>
38.2445

> <b_lp_Chiralities_Consistent>
1

> <s_lp_Variant>
AV-unprocessed.smi:701-7

> <Gold.Version>
5.8.1

> <Gold.Id.Protein>
6NUR|6NUR_protein|mol2

> <Gold.PLP.Fitness>
43.5276

> <Gold.PLP.PLP>
-35.4997

> <Gold.PLP.part.hbond>
-2.0000

> <Gold.PLP.part.metal>
0.0000

> <Gold.PLP.part.buried>
-4.2836

> <Gold.PLP.part.nonpolar>
-27.7379

> <Gold.PLP.part.repulsive>
0.3706

> <Gold.PLP.ligand.clash>
0.0000

> <Gold.PLP.ligand.torsion>
0.6584

> <Gold.PLP.Chemscore.Hbond>
2.0000

> <Gold.PLP.Chemscore.CHOScore>
0.9991

> <Gold.PLP.Chemscore.Metal>
0.0000

> <Gold.Chemscore.Hbonds>
donor molecule, donor type, donor heavy atom, donor atom, acceptor molecule, acceptor atom, score
      P1  H  6896  6909       L1    18  1.00
      P1  H 10752 10765       L1     9  1.00
      L1  C    12    37       P1  7948  1.00

> <Gold.PLP.Chemscore.Internal.Correction>
0.3472

> <Gold.Rescore>
     Score         DG    S(hbond)    S(metal)    S(lipo)     H(rot)  DE(clash)    DE(int)     intcor
     15.42     -16.35       1.94        0.00      82.07       2.04       0.12       0.81       ----

> <Gold.Chemscore.Fitness>
15.4180

> <Gold.Chemscore.DG>
-16.3457

> <Gold.Chemscore.ZeroCoef>
-5.4800

> <Gold.Chemscore.Hbond>
1.9418

> <Gold.Chemscore.Metal>
0.0000

> <Gold.Chemscore.Lipo>
82.0689

> <Gold.Chemscore.Internal_Hbond>
0.0000

> <Gold.Chemscore.DEClash>
0.1168

> <Gold.Chemscore.DEInternal>
0.8108

> <Gold.Chemscore.Rot>
2.0399

> <Gold.Chemscore.Internal.Correction>
   9.000000E+99

> <Gold.Chemscore.Hbonds>
donor molecule, donor type, donor heavy atom, donor atom, acceptor molecule, acceptor atom, score
      P1  H  6896  6909       L1    18  0.91
      P1  H 10752 10765       L1     9  0.99

> <Gold.Chemscore.Hbond.Weighted>
-6.4858

> <Gold.Chemscore.Metal.Weighted>
-0.0000

> <Gold.Chemscore.Lipo.Weighted>
-9.6021

> <Gold.Chemscore.Internal_Hbond.Weighted>
0.0000

> <Gold.Chemscore.DEClash.Weighted>
0.1168

> <Gold.Chemscore.DEInternal.Weighted>
0.8108

> <Gold.Chemscore.Rot.Weighted>
5.2222

> <Gold.Chemscore.Internal.Correction.Weighted>
   9.000000E+99

> <Gold.Protein.RotatedTorsions>
[ 6907 6896 6895 6894 ] final  -28.83 input  -60.11 | X-H torsion
[ 7974 7965 7964 7962 ] final -130.56 input  175.53 | X-H torsion
[ 8008 7997 7996 7995 ] final   -0.82 input   59.86 | X-H torsion
[ 10167 10162 10161 10158 ] final  106.53 input  -65.29 | X-H torsion
[ 10718 10713 10712 10709 ] final  156.21 input   66.30 | X-H torsion
[ 10763 10752 10751 10750 ] final  173.36 input  -60.55 | X-H torsion
[ 11005 11000 10999 10996 ] final -172.80 input  -57.11 | X-H torsion

> <Gold.Protein.ActiveResidues>
 VAL166  LYS551  ARG553  GLY616  TRP617  ASP618  TYR619  PRO620  LYS621  CYS622 
 ASP623  PHE694  ASN695  SER759  ASP760  ASP761  ALA762  ILE779  LEU786  VAL792 
 PHE793  MET794  SER795  GLU796  ALA797  LYS798  CYS799  TRP800  GLU811  SER814 

> <Gold.Protein.RotatedAtoms>
  151.1275  135.0112  159.8566 H   0  0  0  0  0  0  0  0  0  0  0  0  # atno 6907 bound_to 6896
  152.5450  134.1650  159.8583 H   0  0  0  0  0  0  0  0  0  0  0  0  # atno 6908 bound_to 6896
  151.1713  133.4737  159.2627 H   0  0  0  0  0  0  0  0  0  0  0  0  # atno 6909 bound_to 6896
  144.9463  140.7295  143.4815 H   0  0  0  0  0  0  0  0  0  0  0  0  # atno 7974 bound_to 7965
  154.6537  140.2574  155.7185 H   0  0  0  0  0  0  0  0  0  0  0  0  # atno 8008 bound_to 7997
  156.2587  140.2862  156.0903 H   0  0  0  0  0  0  0  0  0  0  0  0  # atno 8009 bound_to 7997
  155.1412  140.0380  157.2789 H   0  0  0  0  0  0  0  0  0  0  0  0  # atno 8010 bound_to 7997
  139.7001  144.7095  151.1200 H   0  0  0  0  0  0  0  0  0  0  0  0  # atno 10167 bound_to 10162
  157.2080  131.0691  151.1986 H   0  0  0  0  0  0  0  0  0  0  0  0  # atno 10718 bound_to 10713
  154.4390  135.2761  155.1860 H   0  0  0  0  0  0  0  0  0  0  0  0  # atno 10763 bound_to 10752
  154.3735  135.6103  153.5756 H   0  0  0  0  0  0  0  0  0  0  0  0  # atno 10764 bound_to 10752
  152.9840  135.5863  154.4715 H   0  0  0  0  0  0  0  0  0  0  0  0  # atno 10765 bound_to 10752
  140.4929  134.5967  157.4961 H   0  0  0  0  0  0  0  0  0  0  0  0  # atno 11005 bound_to 11000
  145.2912  139.1883  143.4739 LP  0  0  0  0  0  0  0  0  0  0  0  0  # atno 17320 bound_to 7965
  146.3305  140.2889  142.8614 LP  0  0  0  0  0  0  0  0  0  0  0  0  # atno 17321 bound_to 7965
  140.7707  143.5436  150.9285 LP  0  0  0  0  0  0  0  0  0  0  0  0  # atno 17342 bound_to 10162
  139.9117  143.6712  152.3114 LP  0  0  0  0  0  0  0  0  0  0  0  0  # atno 17343 bound_to 10162
  157.3701  130.7176  149.6559 LP  0  0  0  0  0  0  0  0  0  0  0  0  # atno 17370 bound_to 10713
  155.9693  130.4201  150.4407 LP  0  0  0  0  0  0  0  0  0  0  0  0  # atno 17371 bound_to 10713
  139.9758  134.7217  155.9952 LP  0  0  0  0  0  0  0  0  0  0  0  0  # atno 17394 bound_to 11000
  141.1475  133.6553  156.3911 LP  0  0  0  0  0  0  0  0  0  0  0  0  # atno 17395 bound_to 11000

$$$$
