AV-unprocessed.smi:319|AV-procd|sdf|2331|dock6
  -GOLD-   2262022233D 1   1.00000     0.00000
 Structure written by MMmdl.
 38 39  0  0  0  0  0  0  0  0  1 V2000
  144.9915  144.6753  153.1931 C   0  0  0  0  0  0  0  0  0  0  0  0
  144.5094  143.8090  154.7136 S   0  0  0  0  0  0  0  0  0  0  0  0
  145.9804  142.8944  155.0615 C   0  0  0  0  0  0  0  0  0  0  0  0
  146.2348  142.3545  156.2542 N   0  0  0  0  0  0  0  0  0  0  0  0
  147.4575  141.6788  156.2988 C   0  0  0  0  0  0  0  0  0  0  0  0
  147.8864  141.0210  157.5754 C   0  0  0  0  0  0  0  0  0  0  0  0
  148.1468  141.7129  155.1081 C   0  0  0  0  0  0  0  0  0  0  0  0
  149.4789  141.1094  154.7905 C   0  0  0  0  0  0  0  0  0  0  0  0
  150.4558  141.3136  155.9482 C   0  0  0  0  0  0  0  0  0  0  0  0
  151.0218  140.3450  156.4543 O   0  0  0  0  0  0  0  0  0  0  0  0
  150.6481  142.5792  156.3504 N   0  0  0  0  0  0  0  0  0  0  0  0
  151.5579  143.0022  157.4097 C   0  0  0  0  0  0  0  0  0  0  0  0
  151.3387  142.1613  158.6846 C   0  0  0  0  0  0  0  0  0  0  0  0
  152.2303  142.6472  159.8389 C   0  0  0  0  0  0  0  0  0  0  0  0
  152.0138  144.1424  160.1207 C   0  0  0  0  0  0  0  0  0  0  0  0
  152.2388  144.9828  158.8540 C   0  0  0  0  0  0  0  0  0  0  0  0
  151.3464  144.5005  157.6990 C   0  0  0  0  0  0  0  0  0  0  0  0
  147.2643  142.5997  153.8910 S   0  0  0  0  0  0  0  0  0  0  0  0
  144.1599  145.2828  152.8365 H   0  0  0  0  0  0  0  0  0  0  0  0
  145.2522  143.9651  152.4084 H   0  0  0  0  0  0  0  0  0  0  0  0
  145.8392  145.3363  153.3741 H   0  0  0  0  0  0  0  0  0  0  0  0
  148.2471  140.0080  157.3975 H   0  0  0  0  0  0  0  0  0  0  0  0
  147.0651  140.9533  158.2895 H   0  0  0  0  0  0  0  0  0  0  0  0
  148.6907  141.5804  158.0533 H   0  0  0  0  0  0  0  0  0  0  0  0
  149.3739  140.0456  154.5738 H   0  0  0  0  0  0  0  0  0  0  0  0
  149.8935  141.5654  153.8908 H   0  0  0  0  0  0  0  0  0  0  0  0
  150.1368  143.3078  155.8741 H   0  0  0  0  0  0  0  0  0  0  0  0
  152.5865  142.8659  157.0696 H   0  0  0  0  0  0  0  0  0  0  0  0
  150.2925  142.2173  158.9887 H   0  0  0  0  0  0  0  0  0  0  0  0
  151.5454  141.1095  158.4832 H   0  0  0  0  0  0  0  0  0  0  0  0
  152.0242  142.0656  160.7378 H   0  0  0  0  0  0  0  0  0  0  0  0
  153.2775  142.4702  159.5897 H   0  0  0  0  0  0  0  0  0  0  0  0
  151.0003  144.3019  160.4906 H   0  0  0  0  0  0  0  0  0  0  0  0
  152.6874  144.4735  160.9115 H   0  0  0  0  0  0  0  0  0  0  0  0
  152.0379  146.0337  159.0645 H   0  0  0  0  0  0  0  0  0  0  0  0
  153.2864  144.9219  158.5562 H   0  0  0  0  0  0  0  0  0  0  0  0
  151.5567  145.0871  156.8037 H   0  0  0  0  0  0  0  0  0  0  0  0
  150.3010  144.6853  157.9505 H   0  0  0  0  0  0  0  0  0  0  0  0
  1  2  1  0  0  0  0
  1 19  1  0  0  0  0
  1 20  1  0  0  0  0
  1 21  1  0  0  0  0
  2  3  1  0  0  0  0
  3 18  1  0  0  0  0
  3  4  2  0  0  0  0
  4  5  1  0  0  0  0
  5  6  1  0  0  0  0
  5  7  2  0  0  0  0
  6 22  1  0  0  0  0
  6 23  1  0  0  0  0
  6 24  1  0  0  0  0
  7  8  1  0  0  0  0
  7 18  1  0  0  0  0
  8  9  1  0  0  0  0
  8 25  1  0  0  0  0
  8 26  1  0  0  0  0
  9 10  2  0  0  0  0
  9 11  1  0  0  0  0
 11 12  1  0  0  0  0
 11 27  1  0  0  0  0
 12 17  1  0  0  0  0
 12 13  1  0  0  0  0
 12 28  1  0  0  0  0
 13 14  1  0  0  0  0
 13 29  1  0  0  0  0
 13 30  1  0  0  0  0
 14 15  1  0  0  0  0
 14 31  1  0  0  0  0
 14 32  1  0  0  0  0
 15 16  1  0  0  0  0
 15 33  1  0  0  0  0
 15 34  1  0  0  0  0
 16 17  1  0  0  0  0
 16 35  1  0  0  0  0
 16 36  1  0  0  0  0
 17 37  1  0  0  0  0
 17 38  1  0  0  0  0
M  END
> <s_m_source_file>
AV-unprocessed.smi

> <i_m_source_file_index>
319

> <i_lp_mmshare_version>
43012

> <i_f3d_flags>
0

> <s_epik_input>
W0NIM11TYzFuYyhbQ0gzXSljKHMxKVtDSDJdQyg9TylbTkhdW0NIXTJbQ0gyXVtDSDJdW0NIMl1bQ0gyXVtDSDJdMg==

> <s_epik_cmdline>
J2VwaWtfcHl0aG9uJywgJy1waCcsICc3LjAnLCAnLXRuJywgJzgnLCAnLW1hJywgJzIwMCcsICctbWV0YWxfYmluZGluZycsICctaW1hZScsICc8aW5maWxlLm1hZT4nLCAnLW9tYWUnLCAnPG91dGZpbGUubWFlPic=

> <r_lp_tautomer_probability>
1

> <r_epik_Ionization_Penalty>
2.85285e-06

> <r_epik_Ionization_Penalty_Charging>
0

> <r_epik_Ionization_Penalty_Neutral>
2.85285e-06

> <r_epik_State_Penalty>
-0

> <r_epik_Charging_Adjusted_Penalty>
0

> <i_epik_Tot_Q>
0

> <i_epik_Tot_abs_Q>
0

> <r_epik_Metal_State_Penalty>
-0

> <b_epik_Metal_Only>
0

> <s_lp_Force_Field>
OPLS_2005

> <r_lp_Energy>
6.2973

> <b_lp_Chiralities_Consistent>
1

> <s_lp_Variant>
AV-unprocessed.smi:319-1

> <Gold.Version>
5.8.1

> <Gold.Id.Protein>
6NUR|6NUR_protein|mol2

> <Gold.PLP.Fitness>
43.1460

> <Gold.PLP.PLP>
-41.2932

> <Gold.PLP.part.hbond>
-1.0000

> <Gold.PLP.part.metal>
0.0000

> <Gold.PLP.part.buried>
-3.4942

> <Gold.PLP.part.nonpolar>
-36.4661

> <Gold.PLP.part.repulsive>
0.2185

> <Gold.PLP.ligand.clash>
0.0000

> <Gold.PLP.ligand.torsion>
0.5788

> <Gold.PLP.Chemscore.Hbond>
1.0000

> <Gold.PLP.Chemscore.CHOScore>
0.0000

> <Gold.PLP.Chemscore.Metal>
0.0000

> <Gold.Chemscore.Hbonds>
donor molecule, donor type, donor heavy atom, donor atom, acceptor molecule, acceptor atom, score
      L1  H    11    27       P1  8028  1.00

> <Gold.PLP.Chemscore.Internal.Correction>
0.0104

> <Gold.Rescore>
     Score         DG    S(hbond)    S(metal)    S(lipo)     H(rot)  DE(clash)    DE(int)     intcor
     15.70     -17.72       1.00        0.00     105.12       1.33       0.41       1.60       ----

> <Gold.Chemscore.Fitness>
15.6996

> <Gold.Chemscore.DG>
-17.7166

> <Gold.Chemscore.ZeroCoef>
-5.4800

> <Gold.Chemscore.Hbond>
0.9997

> <Gold.Chemscore.Metal>
0.0000

> <Gold.Chemscore.Lipo>
105.1239

> <Gold.Chemscore.Internal_Hbond>
0.0000

> <Gold.Chemscore.DEClash>
0.4128

> <Gold.Chemscore.DEInternal>
1.6042

> <Gold.Chemscore.Rot>
1.3289

> <Gold.Chemscore.Internal.Correction>
   9.000000E+99

> <Gold.Chemscore.Hbonds>
donor molecule, donor type, donor heavy atom, donor atom, acceptor molecule, acceptor atom, score
      L1  H    11    27       P1  8028  0.99

> <Gold.Chemscore.Hbond.Weighted>
-3.3391

> <Gold.Chemscore.Metal.Weighted>
-0.0000

> <Gold.Chemscore.Lipo.Weighted>
-12.2995

> <Gold.Chemscore.Internal_Hbond.Weighted>
0.0000

> <Gold.Chemscore.DEClash.Weighted>
0.4128

> <Gold.Chemscore.DEInternal.Weighted>
1.6042

> <Gold.Chemscore.Rot.Weighted>
3.4019

> <Gold.Chemscore.Internal.Correction.Weighted>
   9.000000E+99

> <Gold.Protein.RotatedTorsions>
[ 6907 6896 6895 6894 ] final -163.52 input  -60.11 | X-H torsion
[ 7974 7965 7964 7962 ] final -137.24 input  175.53 | X-H torsion
[ 8008 7997 7996 7995 ] final  157.03 input   59.86 | X-H torsion
[ 10167 10162 10161 10158 ] final   20.54 input  -65.29 | X-H torsion
[ 10718 10713 10712 10709 ] final  173.49 input   66.30 | X-H torsion
[ 10763 10752 10751 10750 ] final  -11.11 input  -60.55 | X-H torsion
[ 11005 11000 10999 10996 ] final   19.17 input  -57.11 | X-H torsion

> <Gold.Protein.ActiveResidues>
 VAL166  LYS551  ARG553  GLY616  TRP617  ASP618  TYR619  PRO620  LYS621  CYS622 
 ASP623  PHE694  ASN695  SER759  ASP760  ASP761  ALA762  ILE779  LEU786  VAL792 
 PHE793  MET794  SER795  GLU796  ALA797  LYS798  CYS799  TRP800  GLU811  SER814 

> <Gold.Protein.RotatedAtoms>
  151.3974  133.3769  159.2727 H   0  0  0  0  0  0  0  0  0  0  0  0  # atno 6907 bound_to 6896
  150.9459  134.8865  159.7652 H   0  0  0  0  0  0  0  0  0  0  0  0  # atno 6908 bound_to 6896
  152.5091  134.3927  159.9441 H   0  0  0  0  0  0  0  0  0  0  0  0  # atno 6909 bound_to 6896
  144.8859  140.6573  143.5176 H   0  0  0  0  0  0  0  0  0  0  0  0  # atno 7974 bound_to 7965
  156.2388  140.1896  156.7046 H   0  0  0  0  0  0  0  0  0  0  0  0  # atno 8008 bound_to 7997
  154.6157  140.0615  156.9577 H   0  0  0  0  0  0  0  0  0  0  0  0  # atno 8009 bound_to 7997
  155.1944  140.3287  155.4356 H   0  0  0  0  0  0  0  0  0  0  0  0  # atno 8010 bound_to 7997
  140.5496  143.9533  150.6569 H   0  0  0  0  0  0  0  0  0  0  0  0  # atno 10167 bound_to 10162
  156.9635  131.0068  151.2922 H   0  0  0  0  0  0  0  0  0  0  0  0  # atno 10718 bound_to 10713
  153.4790  135.7017  153.5949 H   0  0  0  0  0  0  0  0  0  0  0  0  # atno 10763 bound_to 10752
  153.4170  135.3834  155.2087 H   0  0  0  0  0  0  0  0  0  0  0  0  # atno 10764 bound_to 10752
  154.8722  135.3918  154.4238 H   0  0  0  0  0  0  0  0  0  0  0  0  # atno 10765 bound_to 10752
  140.4166  134.1562  155.7670 H   0  0  0  0  0  0  0  0  0  0  0  0  # atno 11005 bound_to 11000
  145.3871  139.1624  143.4249 LP  0  0  0  0  0  0  0  0  0  0  0  0  # atno 17320 bound_to 7965
  146.3024  140.3956  142.8699 LP  0  0  0  0  0  0  0  0  0  0  0  0  # atno 17321 bound_to 7965
  140.2955  143.3295  152.1022 LP  0  0  0  0  0  0  0  0  0  0  0  0  # atno 17342 bound_to 10162
  139.5022  144.6729  151.6199 LP  0  0  0  0  0  0  0  0  0  0  0  0  # atno 17343 bound_to 10162
  157.5641  130.8266  149.8305 LP  0  0  0  0  0  0  0  0  0  0  0  0  # atno 17370 bound_to 10713
  156.0312  130.3764  150.1682 LP  0  0  0  0  0  0  0  0  0  0  0  0  # atno 17371 bound_to 10713
  141.1800  133.8433  157.1290 LP  0  0  0  0  0  0  0  0  0  0  0  0  # atno 17394 bound_to 11000
  140.0229  134.9937  157.0629 LP  0  0  0  0  0  0  0  0  0  0  0  0  # atno 17395 bound_to 11000

$$$$
