AV-unprocessed.smi:3226|AV-procd|sdf|12316|dock2
  -GOLD-   2272018163D 1   1.00000     0.00000
 Structure written by MMmdl.
 41 43  0  0  0  0  0  0  0  0  2 V2000
  151.5727  137.8657  154.9812 C   0  0  0  0  0  0  0  0  0  0  0  0
  150.0768  137.8714  154.6474 C   0  0  0  0  0  0  0  0  0  0  0  0
  149.5605  139.2446  154.3464 C   0  0  0  0  0  0  0  0  0  0  0  0
  150.3012  140.3521  154.4735 N   0  0  0  0  0  0  0  0  0  0  0  0
  149.4867  141.3938  154.0777 N   0  0  0  0  0  0  0  0  0  0  0  0
  148.3381  140.8108  153.7405 C   0  0  0  0  0  0  0  0  0  0  0  0
  148.3124  139.4769  153.8867 N   0  0  0  0  0  0  0  0  0  0  0  0
  147.2187  138.5614  153.6083 C   0  0  0  0  0  0  0  0  0  0  0  0
  146.7659  138.6190  152.1402 C   0  0  0  0  0  0  0  0  0  0  0  0
  145.3511  138.2233  151.9886 N   0  3  0  0  0  0  0  0  0  0  0  0
  144.9678  137.0434  152.7878 C   0  0  0  0  0  0  0  0  0  0  0  0
  144.3638  135.9404  151.8990 C   0  0  1  0  0  0  0  0  0  0  0  0
  145.3098  135.4618  150.7518 C   0  0  0  0  0  0  0  0  0  0  0  0
  145.3923  133.9342  150.9760 C   0  0  2  0  0  0  0  0  0  0  0  0
  144.0155  133.3469  150.7460 C   0  0  0  0  0  0  0  0  0  0  0  0
  143.2400  133.7474  151.7552 C   0  0  0  0  0  0  0  0  0  0  0  0
  144.0903  134.6161  152.6594 C   0  0  1  0  0  0  0  0  0  0  0  0
  145.4412  133.9045  152.5057 C   0  0  0  0  0  0  0  0  0  0  0  0
  151.9188  136.8551  155.1994 H   0  0  0  0  0  0  0  0  0  0  0  0
  151.7836  138.4856  155.8532 H   0  0  0  0  0  0  0  0  0  0  0  0
  152.1638  138.2472  154.1482 H   0  0  0  0  0  0  0  0  0  0  0  0
  149.8784  137.2091  153.8052 H   0  0  0  0  0  0  0  0  0  0  0  0
  149.5146  137.4668  155.4898 H   0  0  0  0  0  0  0  0  0  0  0  0
  147.4893  141.3737  153.3805 H   0  0  0  0  0  0  0  0  0  0  0  0
  147.5327  137.5503  153.8713 H   0  0  0  0  0  0  0  0  0  0  0  0
  146.3851  138.8047  154.2675 H   0  0  0  0  0  0  0  0  0  0  0  0
  146.8890  139.6360  151.7657 H   0  0  0  0  0  0  0  0  0  0  0  0
  147.3923  137.9747  151.5219 H   0  0  0  0  0  0  0  0  0  0  0  0
  144.7678  139.0009  152.2634 H   0  0  0  0  0  0  0  0  0  0  0  0
  145.8396  136.6746  153.3289 H   0  0  0  0  0  0  0  0  0  0  0  0
  144.2355  137.3523  153.5350 H   0  0  0  0  0  0  0  0  0  0  0  0
  143.4258  136.3126  151.4819 H   0  0  0  0  0  0  0  0  0  0  0  0
  144.9174  135.7096  149.7647 H   0  0  0  0  0  0  0  0  0  0  0  0
  146.3007  135.9106  150.8352 H   0  0  0  0  0  0  0  0  0  0  0  0
  146.2052  133.4127  150.4703 H   0  0  0  0  0  0  0  0  0  0  0  0
  143.7363  132.7415  149.8962 H   0  0  0  0  0  0  0  0  0  0  0  0
  142.1905  133.5414  151.9053 H   0  0  0  0  0  0  0  0  0  0  0  0
  143.7184  134.7061  153.6804 H   0  0  0  0  0  0  0  0  0  0  0  0
  145.4366  132.8907  152.9115 H   0  0  0  0  0  0  0  0  0  0  0  0
  146.2878  134.4451  152.9318 H   0  0  0  0  0  0  0  0  0  0  0  0
  145.1770  138.0175  151.0151 H   0  0  0  0  0  0  0  0  0  0  0  0
  1  2  1  0  0  0  0
  1 19  1  0  0  0  0
  1 20  1  0  0  0  0
  1 21  1  0  0  0  0
  2  3  1  0  0  0  0
  2 22  1  0  0  0  0
  2 23  1  0  0  0  0
  3  7  1  0  0  0  0
  3  4  2  0  0  0  0
  4  5  1  0  0  0  0
  5  6  2  0  0  0  0
  6  7  1  0  0  0  0
  6 24  1  0  0  0  0
  7  8  1  0  0  0  0
  8  9  1  0  0  0  0
  8 25  1  0  0  0  0
  8 26  1  0  0  0  0
  9 10  1  0  0  0  0
  9 27  1  0  0  0  0
  9 28  1  0  0  0  0
 10 11  1  0  0  0  0
 10 29  1  0  0  0  0
 10 41  1  0  0  0  0
 11 12  1  0  0  0  0
 11 30  1  0  0  0  0
 11 31  1  0  0  0  0
 12 17  1  0  0  0  0
 12 13  1  0  0  0  0
 12 32  1  0  0  0  0
 13 14  1  0  0  0  0
 13 33  1  0  0  0  0
 13 34  1  0  0  0  0
 14 18  1  0  0  0  0
 14 15  1  0  0  0  0
 14 35  1  0  0  0  0
 15 16  2  0  0  0  0
 15 36  1  0  0  0  0
 16 17  1  0  0  0  0
 16 37  1  0  0  0  0
 17 18  1  0  0  0  0
 17 38  1  0  0  0  0
 18 39  1  0  0  0  0
 18 40  1  0  0  0  0
M  CHG  1  10   1
M  END
> <s_m_source_file>
AV-unprocessed.smi

> <i_m_source_file_index>
3226

> <i_lp_mmshare_version>
43012

> <i_f3d_flags>
0

> <s_epik_input>
W0NIM11bQ0gyXWMxbm5bY0hdbjFbQ0gyXVtDSDJdW05IXVtDSDJdW0NASF0oW0NIMl1bQ0BASF0yMylbQ0BASF0oW0NIMl0zKVtDSF09W0NIXTI=

> <s_epik_cmdline>
J2VwaWtfcHl0aG9uJywgJy1waCcsICc3LjAnLCAnLXRuJywgJzgnLCAnLW1hJywgJzIwMCcsICctbWV0YWxfYmluZGluZycsICctaW1hZScsICc8aW5maWxlLm1hZT4nLCAnLW9tYWUnLCAnPG91dGZpbGUubWFlPic=

> <r_lp_tautomer_probability>
1

> <r_epik_Ionization_Penalty>
0.00175008

> <r_epik_Ionization_Penalty_Charging>
0.00173932

> <r_epik_Ionization_Penalty_Neutral>
1.07546e-05

> <r_epik_State_Penalty>
-0

> <r_epik_Charging_Adjusted_Penalty>
0.00173932

> <i_epik_Tot_Q>
1

> <i_epik_Tot_abs_Q>
1

> <r_epik_Metal_State_Penalty>
-0

> <b_epik_Metal_Only>
0

> <s_lp_Force_Field>
OPLS_2005

> <r_lp_Energy>
64.6894

> <b_lp_Chiralities_Consistent>
1

> <s_lp_Variant>
AV-unprocessed.smi:3226-4

> <Gold.Version>
5.8.1

> <Gold.Id.Protein>
6NUR|6NUR_protein|mol2

> <Gold.PLP.Fitness>
50.2187

> <Gold.PLP.PLP>
-38.8679

> <Gold.PLP.part.hbond>
-4.7107

> <Gold.PLP.part.metal>
0.0000

> <Gold.PLP.part.buried>
-2.8452

> <Gold.PLP.part.nonpolar>
-31.9890

> <Gold.PLP.part.repulsive>
0.3591

> <Gold.PLP.ligand.clash>
0.0000

> <Gold.PLP.ligand.torsion>
0.6490

> <Gold.PLP.Chemscore.Hbond>
4.1760

> <Gold.PLP.Chemscore.CHOScore>
0.0000

> <Gold.PLP.Chemscore.Metal>
0.0000

> <Gold.Chemscore.Hbonds>
donor molecule, donor type, donor heavy atom, donor atom, acceptor molecule, acceptor atom, score
      L1  H    10    29       P1 10175  2.00
      L1  H    10    41       P1 10171  0.66
      P1  H  7989  7998       L1     4  0.65
      P1  H  8011  8017       L1     5  0.62

> <Gold.PLP.Chemscore.Internal.Correction>
0.1209

> <Gold.Rescore>
     Score         DG    S(hbond)    S(metal)    S(lipo)     H(rot)  DE(clash)    DE(int)     intcor
     16.45     -17.42       2.55        0.00      74.52       2.06       0.38       0.59       ----

> <Gold.Chemscore.Fitness>
16.4465

> <Gold.Chemscore.DG>
-17.4250

> <Gold.Chemscore.ZeroCoef>
-5.4800

> <Gold.Chemscore.Hbond>
2.5468

> <Gold.Chemscore.Metal>
0.0000

> <Gold.Chemscore.Lipo>
74.5151

> <Gold.Chemscore.Internal_Hbond>
0.0000

> <Gold.Chemscore.DEClash>
0.3845

> <Gold.Chemscore.DEInternal>
0.5941

> <Gold.Chemscore.Rot>
2.0623

> <Gold.Chemscore.Internal.Correction>
   9.000000E+99

> <Gold.Chemscore.Hbonds>
donor molecule, donor type, donor heavy atom, donor atom, acceptor molecule, acceptor atom, score
      L1  H    10    29       P1 10175  1.00
      L1  H    10    41       P1 10171  0.66
      P1  H  7989  7998       L1     4  0.05
      P1  H  8011  8017       L1     5  0.11

> <Gold.Chemscore.Hbond.Weighted>
-8.5063

> <Gold.Chemscore.Metal.Weighted>
-0.0000

> <Gold.Chemscore.Lipo.Weighted>
-8.7183

> <Gold.Chemscore.Internal_Hbond.Weighted>
0.0000

> <Gold.Chemscore.DEClash.Weighted>
0.3845

> <Gold.Chemscore.DEInternal.Weighted>
0.5941

> <Gold.Chemscore.Rot.Weighted>
5.2796

> <Gold.Chemscore.Internal.Correction.Weighted>
   9.000000E+99

> <Gold.Protein.RotatedTorsions>
[ 6907 6896 6895 6894 ] final -159.23 input  -60.11 | X-H torsion
[ 7974 7965 7964 7962 ] final  108.98 input  175.53 | X-H torsion
[ 8008 7997 7996 7995 ] final -131.58 input   59.86 | X-H torsion
[ 10167 10162 10161 10158 ] final  -74.11 input  -65.29 | X-H torsion
[ 10718 10713 10712 10709 ] final   84.76 input   66.30 | X-H torsion
[ 10763 10752 10751 10750 ] final   45.04 input  -60.55 | X-H torsion
[ 11005 11000 10999 10996 ] final  -38.72 input  -57.11 | X-H torsion

> <Gold.Protein.ActiveResidues>
 VAL166  LYS551  ARG553  GLY616  TRP617  ASP618  TYR619  PRO620  LYS621  CYS622 
 ASP623  PHE694  ASN695  SER759  ASP760  ASP761  ALA762  ILE779  LEU786  VAL792 
 PHE793  MET794  SER795  GLU796  ALA797  LYS798  CYS799  TRP800  GLU811  SER814 

> <Gold.Protein.RotatedAtoms>
  151.3304  133.4003  159.2661 H   0  0  0  0  0  0  0  0  0  0  0  0  # atno 6907 bound_to 6896
  150.9960  134.9284  159.7937 H   0  0  0  0  0  0  0  0  0  0  0  0  # atno 6908 bound_to 6896
  152.5261  134.3269  159.9221 H   0  0  0  0  0  0  0  0  0  0  0  0  # atno 6909 bound_to 6896
  145.2737  139.2657  143.3952 H   0  0  0  0  0  0  0  0  0  0  0  0  # atno 7974 bound_to 7965
  155.3146  140.0459  157.3036 H   0  0  0  0  0  0  0  0  0  0  0  0  # atno 8008 bound_to 7997
  154.5414  140.2289  155.8602 H   0  0  0  0  0  0  0  0  0  0  0  0  # atno 8009 bound_to 7997
  156.1884  140.3057  155.9290 H   0  0  0  0  0  0  0  0  0  0  0  0  # atno 8010 bound_to 7997
  140.5054  143.2353  151.7682 H   0  0  0  0  0  0  0  0  0  0  0  0  # atno 10167 bound_to 10162
  157.6903  131.0146  150.2721 H   0  0  0  0  0  0  0  0  0  0  0  0  # atno 10718 bound_to 10713
  152.9831  135.6052  154.3371 H   0  0  0  0  0  0  0  0  0  0  0  0  # atno 10763 bound_to 10752
  154.3070  135.2772  155.2586 H   0  0  0  0  0  0  0  0  0  0  0  0  # atno 10764 bound_to 10752
  154.4812  135.5916  153.6447 H   0  0  0  0  0  0  0  0  0  0  0  0  # atno 10765 bound_to 10752
  141.0049  133.6937  156.2091 H   0  0  0  0  0  0  0  0  0  0  0  0  # atno 11005 bound_to 11000
  146.3238  140.3187  142.8632 LP  0  0  0  0  0  0  0  0  0  0  0  0  # atno 17320 bound_to 7965
  144.9313  140.7977  143.5688 LP  0  0  0  0  0  0  0  0  0  0  0  0  # atno 17321 bound_to 7965
  139.4882  144.4464  151.9705 LP  0  0  0  0  0  0  0  0  0  0  0  0  # atno 17342 bound_to 10162
  140.3554  144.3037  150.5942 LP  0  0  0  0  0  0  0  0  0  0  0  0  # atno 17343 bound_to 10162
  156.3282  130.3796  149.7515 LP  0  0  0  0  0  0  0  0  0  0  0  0  # atno 17370 bound_to 10713
  156.5063  130.8151  151.3152 LP  0  0  0  0  0  0  0  0  0  0  0  0  # atno 17371 bound_to 10713
  140.6829  134.4747  157.5589 LP  0  0  0  0  0  0  0  0  0  0  0  0  # atno 17394 bound_to 11000
  139.9058  134.8453  156.1713 LP  0  0  0  0  0  0  0  0  0  0  0  0  # atno 17395 bound_to 11000

$$$$
