AV-unprocessed.smi:501|AV-procd|sdf|2743|dock9
  -GOLD-   2262023203D 1   1.00000     0.00000
 Structure written by MMmdl.
 46 48  0  0  0  0  0  0  0  0  2 V2000
  154.0037  137.0689  162.9704 C   0  0  0  0  0  0  0  0  0  0  0  0
  154.0157  136.8707  161.4685 C   0  0  0  0  0  0  0  0  0  0  0  0
  154.9106  135.9569  160.8769 C   0  0  0  0  0  0  0  0  0  0  0  0
  154.9149  135.7818  159.4810 C   0  0  0  0  0  0  0  0  0  0  0  0
  154.0255  136.5182  158.6756 C   0  0  0  0  0  0  0  0  0  0  0  0
  153.1225  137.4358  159.2506 C   0  0  0  0  0  0  0  0  0  0  0  0
  152.2872  138.1148  158.3894 O   0  0  0  0  0  0  0  0  0  0  0  0
  151.5818  139.2391  158.8931 C   0  0  0  0  0  0  0  0  0  0  0  0
  152.5052  140.4612  158.8690 C   0  0  0  0  0  0  0  0  0  0  0  0
  151.8222  141.6402  158.3188 N   0  0  0  0  0  0  0  0  0  0  0  0
  151.1455  141.8069  157.1444 C   0  0  0  0  0  0  0  0  0  0  0  0
  150.9102  140.7771  156.0805 C   0  0  0  0  0  0  0  0  0  0  0  0
  149.8097  141.1774  155.0766 C   0  0  0  0  0  0  0  0  0  0  0  0
  149.5699  140.1630  154.0531 N   0  0  0  0  0  0  0  0  0  0  0  0
  149.3546  138.8625  154.2972 C   0  0  0  0  0  0  0  0  0  0  0  0
  149.3604  138.3560  155.4178 O   0  0  0  0  0  0  0  0  0  0  0  0
  150.6920  143.0931  157.1232 N   0  3  0  0  0  0  0  0  0  0  0  0
  151.1087  143.7625  158.2740 C   0  0  0  0  0  0  0  0  0  0  0  0
  150.9078  145.0758  158.6876 C   0  0  0  0  0  0  0  0  0  0  0  0
  151.4773  145.4440  159.9243 C   0  0  0  0  0  0  0  0  0  0  0  0
  152.2129  144.5221  160.6972 C   0  0  0  0  0  0  0  0  0  0  0  0
  152.4087  143.1929  160.2678 C   0  0  0  0  0  0  0  0  0  0  0  0
  151.8398  142.8364  159.0452 C   0  0  0  0  0  0  0  0  0  0  0  0
  153.1257  137.6058  160.6589 C   0  0  0  0  0  0  0  0  0  0  0  0
  154.7508  136.4448  163.4617 H   0  0  0  0  0  0  0  0  0  0  0  0
  153.0253  136.8120  163.3771 H   0  0  0  0  0  0  0  0  0  0  0  0
  154.2156  138.1098  163.2158 H   0  0  0  0  0  0  0  0  0  0  0  0
  155.5958  135.3888  161.4890 H   0  0  0  0  0  0  0  0  0  0  0  0
  155.6012  135.0825  159.0268 H   0  0  0  0  0  0  0  0  0  0  0  0
  154.0371  136.3777  157.6047 H   0  0  0  0  0  0  0  0  0  0  0  0
  150.6946  139.4291  158.2869 H   0  0  0  0  0  0  0  0  0  0  0  0
  151.2613  139.0516  159.9175 H   0  0  0  0  0  0  0  0  0  0  0  0
  152.8401  140.7044  159.8774 H   0  0  0  0  0  0  0  0  0  0  0  0
  153.4071  140.2636  158.2892 H   0  0  0  0  0  0  0  0  0  0  0  0
  151.8387  140.5913  155.5411 H   0  0  0  0  0  0  0  0  0  0  0  0
  150.6446  139.8358  156.5618 H   0  0  0  0  0  0  0  0  0  0  0  0
  148.8814  141.3972  155.6064 H   0  0  0  0  0  0  0  0  0  0  0  0
  150.0943  142.0991  154.5683 H   0  0  0  0  0  0  0  0  0  0  0  0
  149.5393  140.4765  153.0936 H   0  0  0  0  0  0  0  0  0  0  0  0
  149.1757  138.3108  153.3614 H   0  0  0  0  0  0  0  0  0  0  0  0
  150.3465  145.7841  158.0958 H   0  0  0  0  0  0  0  0  0  0  0  0
  151.3491  146.4537  160.2871 H   0  0  0  0  0  0  0  0  0  0  0  0
  152.6362  144.8405  161.6390 H   0  0  0  0  0  0  0  0  0  0  0  0
  152.9764  142.4965  160.8671 H   0  0  0  0  0  0  0  0  0  0  0  0
  152.4528  138.2970  161.1430 H   0  0  0  0  0  0  0  0  0  0  0  0
  150.1423  143.4844  156.3693 H   0  0  0  0  0  0  0  0  0  0  0  0
  1  2  1  0  0  0  0
  1 25  1  0  0  0  0
  1 26  1  0  0  0  0
  1 27  1  0  0  0  0
  2 24  1  0  0  0  0
  2  3  2  0  0  0  0
  3  4  1  0  0  0  0
  3 28  1  0  0  0  0
  4  5  2  0  0  0  0
  4 29  1  0  0  0  0
  5  6  1  0  0  0  0
  5 30  1  0  0  0  0
  6  7  1  0  0  0  0
  6 24  2  0  0  0  0
  7  8  1  0  0  0  0
  8  9  1  0  0  0  0
  8 31  1  0  0  0  0
  8 32  1  0  0  0  0
  9 10  1  0  0  0  0
  9 33  1  0  0  0  0
  9 34  1  0  0  0  0
 10 23  1  0  0  0  0
 10 11  1  0  0  0  0
 11 12  1  0  0  0  0
 11 17  2  0  0  0  0
 12 13  1  0  0  0  0
 12 35  1  0  0  0  0
 12 36  1  0  0  0  0
 13 14  1  0  0  0  0
 13 37  1  0  0  0  0
 13 38  1  0  0  0  0
 14 15  1  0  0  0  0
 14 39  1  0  0  0  0
 15 16  2  0  0  0  0
 15 40  1  0  0  0  0
 17 18  1  0  0  0  0
 17 46  1  0  0  0  0
 18 23  2  0  0  0  0
 18 19  1  0  0  0  0
 19 20  2  0  0  0  0
 19 41  1  0  0  0  0
 20 21  1  0  0  0  0
 20 42  1  0  0  0  0
 21 22  2  0  0  0  0
 21 43  1  0  0  0  0
 22 23  1  0  0  0  0
 22 44  1  0  0  0  0
 24 45  1  0  0  0  0
M  CHG  1  17   1
M  END
> <s_m_source_file>
AV-unprocessed.smi

> <i_m_source_file_index>
501

> <i_lp_mmshare_version>
43012

> <i_f3d_flags>
0

> <s_epik_input>
W0NIM11jMVtjSF1bY0hdW2NIXWMoW2NIXTEpT1tDSDJdW0NIMl1uKGMobjIpW0NIMl1bQ0gyXVtOSF1bQ0hdPU8pYyhjMjMpW2NIXVtjSF1bY0hdW2NIXTM=

> <s_epik_cmdline>
J2VwaWtfcHl0aG9uJywgJy1waCcsICc3LjAnLCAnLXRuJywgJzgnLCAnLW1hJywgJzIwMCcsICctbWV0YWxfYmluZGluZycsICctaW1hZScsICc8aW5maWxlLm1hZT4nLCAnLW9tYWUnLCAnPG91dGZpbGUubWFlPic=

> <r_lp_tautomer_probability>
1

> <r_epik_Ionization_Penalty>
1.14747

> <r_epik_Ionization_Penalty_Charging>
1.14747

> <r_epik_Ionization_Penalty_Neutral>
1.55554e-08

> <r_epik_State_Penalty>
1.20856

> <r_epik_Charging_Adjusted_Penalty>
2.35603

> <i_epik_Tot_Q>
1

> <i_epik_Tot_abs_Q>
1

> <r_epik_Metal_State_Penalty>
1.28951

> <b_epik_Metal_Only>
0

> <s_lp_Force_Field>
OPLS_2005

> <r_lp_Energy>
21.7567

> <b_lp_Chiralities_Consistent>
1

> <s_lp_Variant>
AV-unprocessed.smi:501-2

> <Gold.Version>
5.8.1

> <Gold.Id.Protein>
6NUR|6NUR_protein|mol2

> <Gold.PLP.Fitness>
57.5403

> <Gold.PLP.PLP>
-50.0839

> <Gold.PLP.part.hbond>
-2.0000

> <Gold.PLP.part.metal>
0.0000

> <Gold.PLP.part.buried>
-7.3870

> <Gold.PLP.part.nonpolar>
-41.2237

> <Gold.PLP.part.repulsive>
0.6643

> <Gold.PLP.ligand.clash>
0.0000

> <Gold.PLP.ligand.torsion>
0.8777

> <Gold.PLP.Chemscore.Hbond>
2.9920

> <Gold.PLP.Chemscore.CHOScore>
0.0000

> <Gold.PLP.Chemscore.Metal>
0.0000

> <Gold.Chemscore.Hbonds>
donor molecule, donor type, donor heavy atom, donor atom, acceptor molecule, acceptor atom, score
      L1  H    14    39       P1  7957  0.99
      L1  H    17    46       P1  8028  2.00

> <Gold.PLP.Chemscore.Internal.Correction>
0.2357

> <Gold.Rescore>
     Score         DG    S(hbond)    S(metal)    S(lipo)     H(rot)  DE(clash)    DE(int)     intcor
     19.69     -20.68       1.91        0.00     134.27       2.68       0.17       0.82       ----

> <Gold.Chemscore.Fitness>
19.6886

> <Gold.Chemscore.DG>
-20.6819

> <Gold.Chemscore.ZeroCoef>
-5.4800

> <Gold.Chemscore.Hbond>
1.9055

> <Gold.Chemscore.Metal>
0.0000

> <Gold.Chemscore.Lipo>
134.2683

> <Gold.Chemscore.Internal_Hbond>
0.0000

> <Gold.Chemscore.DEClash>
0.1698

> <Gold.Chemscore.DEInternal>
0.8234

> <Gold.Chemscore.Rot>
2.6843

> <Gold.Chemscore.Internal.Correction>
   9.000000E+99

> <Gold.Chemscore.Hbonds>
donor molecule, donor type, donor heavy atom, donor atom, acceptor molecule, acceptor atom, score
      L1  H    14    39       P1  7957  0.91
      L1  H    17    46       P1  8028  0.96

> <Gold.Chemscore.Hbond.Weighted>
-6.3643

> <Gold.Chemscore.Metal.Weighted>
-0.0000

> <Gold.Chemscore.Lipo.Weighted>
-15.7094

> <Gold.Chemscore.Internal_Hbond.Weighted>
0.0000

> <Gold.Chemscore.DEClash.Weighted>
0.1698

> <Gold.Chemscore.DEInternal.Weighted>
0.8234

> <Gold.Chemscore.Rot.Weighted>
6.8718

> <Gold.Chemscore.Internal.Correction.Weighted>
   9.000000E+99

> <Gold.Protein.RotatedTorsions>
[ 6907 6896 6895 6894 ] final  119.63 input  -60.11 | X-H torsion
[ 7974 7965 7964 7962 ] final -155.89 input  175.53 | X-H torsion
[ 8008 7997 7996 7995 ] final  -28.39 input   59.86 | X-H torsion
[ 10167 10162 10161 10158 ] final   -4.09 input  -65.29 | X-H torsion
[ 10718 10713 10712 10709 ] final  165.11 input   66.30 | X-H torsion
[ 10763 10752 10751 10750 ] final -168.49 input  -60.55 | X-H torsion
[ 11005 11000 10999 10996 ] final -170.30 input  -57.11 | X-H torsion

> <Gold.Protein.ActiveResidues>
 VAL166  LYS551  ARG553  GLY616  TRP617  ASP618  TYR619  PRO620  LYS621  CYS622 
 ASP623  PHE694  ASN695  SER759  ASP760  ASP761  ALA762  ILE779  LEU786  VAL792 
 PHE793  MET794  SER795  GLU796  ALA797  LYS798  CYS799  TRP800  GLU811  SER814 

> <Gold.Protein.RotatedAtoms>
  152.4458  133.7533  159.6705 H   0  0  0  0  0  0  0  0  0  0  0  0  # atno 6907 bound_to 6896
  150.8358  133.8006  159.3086 H   0  0  0  0  0  0  0  0  0  0  0  0  # atno 6908 bound_to 6896
  151.5646  135.1067  160.0032 H   0  0  0  0  0  0  0  0  0  0  0  0  # atno 6909 bound_to 6896
  144.7619  140.4187  143.5970 H   0  0  0  0  0  0  0  0  0  0  0  0  # atno 7974 bound_to 7965
  154.4334  140.1846  156.1083 H   0  0  0  0  0  0  0  0  0  0  0  0  # atno 8008 bound_to 7997
  156.0238  140.3338  155.7041 H   0  0  0  0  0  0  0  0  0  0  0  0  # atno 8009 bound_to 7997
  155.5938  140.0633  157.2742 H   0  0  0  0  0  0  0  0  0  0  0  0  # atno 8010 bound_to 7997
  140.6914  143.6464  150.8389 H   0  0  0  0  0  0  0  0  0  0  0  0  # atno 10167 bound_to 10162
  157.0848  131.0402  151.2561 H   0  0  0  0  0  0  0  0  0  0  0  0  # atno 10718 bound_to 10713
  154.6623  135.2926  154.9851 H   0  0  0  0  0  0  0  0  0  0  0  0  # atno 10763 bound_to 10752
  154.0906  135.6591  153.4856 H   0  0  0  0  0  0  0  0  0  0  0  0  # atno 10764 bound_to 10752
  153.0437  135.5219  154.7579 H   0  0  0  0  0  0  0  0  0  0  0  0  # atno 10765 bound_to 10752
  140.5210  134.5709  157.5048 H   0  0  0  0  0  0  0  0  0  0  0  0  # atno 11005 bound_to 11000
  145.6593  139.1578  143.2817 LP  0  0  0  0  0  0  0  0  0  0  0  0  # atno 17320 bound_to 7965
  146.1690  140.6675  142.9242 LP  0  0  0  0  0  0  0  0  0  0  0  0  # atno 17321 bound_to 7965
  140.0177  143.5575  152.2813 LP  0  0  0  0  0  0  0  0  0  0  0  0  # atno 17342 bound_to 10162
  139.6322  144.7645  151.2513 LP  0  0  0  0  0  0  0  0  0  0  0  0  # atno 17343 bound_to 10162
  157.4770  130.7742  149.7378 LP  0  0  0  0  0  0  0  0  0  0  0  0  # atno 17370 bound_to 10713
  155.9914  130.3938  150.2987 LP  0  0  0  0  0  0  0  0  0  0  0  0  # atno 17371 bound_to 10713
  139.9606  134.7460  156.0246 LP  0  0  0  0  0  0  0  0  0  0  0  0  # atno 17394 bound_to 11000
  141.1334  133.6581  156.3526 LP  0  0  0  0  0  0  0  0  0  0  0  0  # atno 17395 bound_to 11000

$$$$
