AV-unprocessed.smi:3237|AV-procd|sdf|12373|dock3
  -GOLD-   2272018233D 1   1.00000     0.00000
 Structure written by MMmdl.
 36 38  0  0  0  0  0  0  0  0  3 V2000
  153.6254  142.0853  161.7726 C   0  0  0  0  0  0  0  0  0  0  0  0
  153.2847  141.5240  160.4345 C   0  0  0  0  0  0  0  0  0  0  0  0
  152.4073  141.9112  159.4614 C   0  0  0  0  0  0  0  0  0  0  0  0
  152.5955  140.9311  158.4504 C   0  0  0  0  0  0  0  0  0  0  0  0
  151.8484  140.9832  157.2441 N   0  0  0  0  0  0  0  0  0  0  0  0
  151.8520  140.1194  156.2125 C   0  0  0  0  0  0  0  0  0  0  0  0
  152.5757  139.1167  156.2385 O   0  0  0  0  0  0  0  0  0  0  0  0
  150.9954  140.4951  155.2225 N   0  5  0  0  0  0  0  0  0  0  0  0
  149.5362  140.5045  155.3428 C   0  0  2  0  0  0  0  0  0  0  0  0
  148.8703  140.9138  154.0284 C   0  0  0  0  0  0  0  0  0  0  0  0
  147.5340  141.4972  154.4847 C   0  0  0  0  0  0  0  0  0  0  0  0
  147.8342  142.1884  155.7559 N   0  3  1  0  0  0  0  0  0  0  0  0
  146.6816  142.2876  156.6773 C   0  0  0  0  0  0  0  0  0  0  0  0
  147.0773  142.4722  158.1226 C   0  0  0  0  0  0  0  0  0  0  0  0
  146.5777  141.1280  157.6386 C   0  0  0  0  0  0  0  0  0  0  0  0
  149.0397  141.5603  156.3475 C   0  0  0  0  0  0  0  0  0  0  0  0
  153.5064  140.0267  158.7790 N   0  0  0  0  0  0  0  0  0  0  0  0
  153.9532  140.4026  160.0512 O   0  0  0  0  0  0  0  0  0  0  0  0
  152.7556  142.5599  162.2267 H   0  0  0  0  0  0  0  0  0  0  0  0
  154.4133  142.8333  161.6865 H   0  0  0  0  0  0  0  0  0  0  0  0
  153.9731  141.3028  162.4474 H   0  0  0  0  0  0  0  0  0  0  0  0
  151.7392  142.7596  159.4724 H   0  0  0  0  0  0  0  0  0  0  0  0
  151.2315  141.7760  157.1480 H   0  0  0  0  0  0  0  0  0  0  0  0
  149.1339  139.5326  155.6330 H   0  0  0  0  0  0  0  0  0  0  0  0
  149.4507  141.6890  153.5245 H   0  0  0  0  0  0  0  0  0  0  0  0
  148.7519  140.0797  153.3362 H   0  0  0  0  0  0  0  0  0  0  0  0
  147.1128  142.1869  153.7527 H   0  0  0  0  0  0  0  0  0  0  0  0
  146.7998  140.7032  154.6464 H   0  0  0  0  0  0  0  0  0  0  0  0
  145.7839  142.7602  156.2826 H   0  0  0  0  0  0  0  0  0  0  0  0
  148.1362  142.5600  158.3593 H   0  0  0  0  0  0  0  0  0  0  0  0
  146.4097  143.0536  158.7553 H   0  0  0  0  0  0  0  0  0  0  0  0
  145.5811  140.8238  157.9522 H   0  0  0  0  0  0  0  0  0  0  0  0
  147.3044  140.3220  157.5529 H   0  0  0  0  0  0  0  0  0  0  0  0
  148.8312  141.1017  157.3155 H   0  0  0  0  0  0  0  0  0  0  0  0
  149.7769  142.3472  156.5135 H   0  0  0  0  0  0  0  0  0  0  0  0
  148.1091  143.1283  155.5097 H   0  0  0  0  0  0  0  0  0  0  0  0
  1  2  1  0  0  0  0
  1 19  1  0  0  0  0
  1 20  1  0  0  0  0
  1 21  1  0  0  0  0
  2 18  1  0  0  0  0
  2  3  2  0  0  0  0
  3  4  1  0  0  0  0
  3 22  1  0  0  0  0
  4  5  1  0  0  0  0
  4 17  2  0  0  0  0
  5  6  1  0  0  0  0
  5 23  1  0  0  0  0
  6  7  2  0  0  0  0
  6  8  1  0  0  0  0
  8  9  1  0  0  0  0
  9 16  1  0  0  0  0
  9 10  1  0  0  0  0
  9 24  1  0  0  0  0
 10 11  1  0  0  0  0
 10 25  1  0  0  0  0
 10 26  1  0  0  0  0
 11 12  1  0  0  0  0
 11 27  1  0  0  0  0
 11 28  1  0  0  0  0
 12 13  1  0  0  0  0
 12 16  1  0  0  0  0
 12 36  1  0  0  0  0
 13 15  1  0  0  0  0
 13 14  1  0  0  0  0
 13 29  1  0  0  0  0
 14 15  1  0  0  0  0
 14 30  1  0  0  0  0
 14 31  1  0  0  0  0
 15 32  1  0  0  0  0
 15 33  1  0  0  0  0
 16 34  1  0  0  0  0
 16 35  1  0  0  0  0
 17 18  1  0  0  0  0
M  CHG  1   8  -1
M  CHG  1  12   1
M  END
> <s_m_source_file>
AV-unprocessed.smi

> <i_m_source_file_index>
3237

> <i_lp_mmshare_version>
43012

> <i_f3d_flags>
0

> <s_epik_input>
W0NIM11jMVtjSF1jKG5vMSlbTkhdQyg9TylbTkhdW0NAQEhdMltDSDJdW0NIMl1OKFtDSDJdMilbQ0hdM1tDSDJdW0NIMl0z

> <s_epik_cmdline>
J2VwaWtfcHl0aG9uJywgJy1waCcsICc3LjAnLCAnLXRuJywgJzgnLCAnLW1hJywgJzIwMCcsICctbWV0YWxfYmluZGluZycsICctaW1hZScsICc8aW5maWxlLm1hZT4nLCAnLW9tYWUnLCAnPG91dGZpbGUubWFlPic=

> <r_epik_Ionization_Penalty>
6.76456

> <r_epik_Ionization_Penalty_Charging>
6.76456

> <r_epik_Ionization_Penalty_Neutral>
5.76722e-06

> <r_epik_State_Penalty>
6.78919

> <r_epik_Charging_Adjusted_Penalty>
13.5538

> <i_epik_Tot_Q>
0

> <i_epik_Tot_abs_Q>
2

> <r_epik_Metal_State_Penalty>
2.728

> <b_epik_Metal_Only>
1

> <s_lp_Force_Field>
OPLS_2005

> <r_lp_Energy>
30.8833

> <b_lp_Chiralities_Consistent>
1

> <s_lp_Variant>
AV-unprocessed.smi:3237-11

> <Gold.Version>
5.8.1

> <Gold.Id.Protein>
6NUR|6NUR_protein|mol2

> <Gold.PLP.Fitness>
41.1737

> <Gold.PLP.PLP>
-30.7752

> <Gold.PLP.part.hbond>
-4.0000

> <Gold.PLP.part.metal>
0.0000

> <Gold.PLP.part.buried>
-2.7709

> <Gold.PLP.part.nonpolar>
-23.2716

> <Gold.PLP.part.repulsive>
0.2000

> <Gold.PLP.ligand.clash>
0.0000

> <Gold.PLP.ligand.torsion>
1.3033

> <Gold.PLP.Chemscore.Hbond>
3.9120

> <Gold.PLP.Chemscore.CHOScore>
0.0000

> <Gold.PLP.Chemscore.Metal>
0.0000

> <Gold.Chemscore.Hbonds>
donor molecule, donor type, donor heavy atom, donor atom, acceptor molecule, acceptor atom, score
      L1  H    12    36       P1  8028  2.00
      P1  H  7989  7998       L1     8  0.98
      P1  H  7997  8009       L1    17  0.99

> <Gold.PLP.Chemscore.Internal.Correction>
1.2691

> <Gold.Rescore>
     Score         DG    S(hbond)    S(metal)    S(lipo)     H(rot)  DE(clash)    DE(int)     intcor
     13.61     -16.59       2.26        0.00      57.75       1.25       0.23       2.75       ----

> <Gold.Chemscore.Fitness>
13.6099

> <Gold.Chemscore.DG>
-16.5920

> <Gold.Chemscore.ZeroCoef>
-5.4800

> <Gold.Chemscore.Hbond>
2.2592

> <Gold.Chemscore.Metal>
0.0000

> <Gold.Chemscore.Lipo>
57.7533

> <Gold.Chemscore.Internal_Hbond>
0.0000

> <Gold.Chemscore.DEClash>
0.2328

> <Gold.Chemscore.DEInternal>
2.7493

> <Gold.Chemscore.Rot>
1.2464

> <Gold.Chemscore.Internal.Correction>
   9.000000E+99

> <Gold.Chemscore.Hbonds>
donor molecule, donor type, donor heavy atom, donor atom, acceptor molecule, acceptor atom, score
      L1  H    12    36       P1  8028  0.85
      P1  H  7989  7998       L1     8  0.83
      P1  H  7997  8009       L1    17  0.38

> <Gold.Chemscore.Hbond.Weighted>
-7.5457

> <Gold.Chemscore.Metal.Weighted>
-0.0000

> <Gold.Chemscore.Lipo.Weighted>
-6.7571

> <Gold.Chemscore.Internal_Hbond.Weighted>
0.0000

> <Gold.Chemscore.DEClash.Weighted>
0.2328

> <Gold.Chemscore.DEInternal.Weighted>
2.7493

> <Gold.Chemscore.Rot.Weighted>
3.1909

> <Gold.Chemscore.Internal.Correction.Weighted>
   9.000000E+99

> <Gold.Protein.RotatedTorsions>
[ 6907 6896 6895 6894 ] final   45.21 input  -60.11 | X-H torsion
[ 7974 7965 7964 7962 ] final  -28.02 input  175.53 | X-H torsion
[ 8008 7997 7996 7995 ] final  137.80 input   59.86 | X-H torsion
[ 10167 10162 10161 10158 ] final -144.16 input  -65.29 | X-H torsion
[ 10718 10713 10712 10709 ] final   59.16 input   66.30 | X-H torsion
[ 10763 10752 10751 10750 ] final   77.46 input  -60.55 | X-H torsion
[ 11005 11000 10999 10996 ] final   30.01 input  -57.11 | X-H torsion

> <Gold.Protein.ActiveResidues>
 VAL166  LYS551  ARG553  GLY616  TRP617  ASP618  TYR619  PRO620  LYS621  CYS622 
 ASP623  PHE694  ASN695  SER759  ASP760  ASP761  ALA762  ILE779  LEU786  VAL792 
 PHE793  MET794  SER795  GLU796  ALA797  LYS798  CYS799  TRP800  GLU811  SER814 

> <Gold.Protein.RotatedAtoms>
  152.2418  134.8220  160.0458 H   0  0  0  0  0  0  0  0  0  0  0  0  # atno 6907 bound_to 6896
  151.8932  133.3516  159.3813 H   0  0  0  0  0  0  0  0  0  0  0  0  # atno 6908 bound_to 6896
  150.7056  134.4829  159.5523 H   0  0  0  0  0  0  0  0  0  0  0  0  # atno 6909 bound_to 6896
  146.1317  140.5228  142.8690 H   0  0  0  0  0  0  0  0  0  0  0  0  # atno 7974 bound_to 7965
  156.3000  140.2410  156.3970 H   0  0  0  0  0  0  0  0  0  0  0  0  # atno 8008 bound_to 7997
  154.8562  140.0422  157.1656 H   0  0  0  0  0  0  0  0  0  0  0  0  # atno 8009 bound_to 7997
  154.8945  140.2968  155.5355 H   0  0  0  0  0  0  0  0  0  0  0  0  # atno 8010 bound_to 7997
  139.7925  143.7945  152.2651 H   0  0  0  0  0  0  0  0  0  0  0  0  # atno 10167 bound_to 10162
  157.5654  130.8867  149.9178 H   0  0  0  0  0  0  0  0  0  0  0  0  # atno 10718 bound_to 10713
  153.0800  135.4913  154.8483 H   0  0  0  0  0  0  0  0  0  0  0  0  # atno 10763 bound_to 10752
  154.7138  135.3025  154.9158 H   0  0  0  0  0  0  0  0  0  0  0  0  # atno 10764 bound_to 10752
  153.9843  135.6786  153.4804 H   0  0  0  0  0  0  0  0  0  0  0  0  # atno 10765 bound_to 10752
  140.2989  134.2779  155.7758 H   0  0  0  0  0  0  0  0  0  0  0  0  # atno 11005 bound_to 11000
  144.7697  140.5611  143.6678 LP  0  0  0  0  0  0  0  0  0  0  0  0  # atno 17320 bound_to 7965
  145.5246  139.1476  143.3533 LP  0  0  0  0  0  0  0  0  0  0  0  0  # atno 17321 bound_to 7965
  139.8041  144.7362  150.9785 LP  0  0  0  0  0  0  0  0  0  0  0  0  # atno 17342 bound_to 10162
  140.7820  143.4315  151.0687 LP  0  0  0  0  0  0  0  0  0  0  0  0  # atno 17343 bound_to 10162
  156.0702  130.3686  150.0791 LP  0  0  0  0  0  0  0  0  0  0  0  0  # atno 17370 bound_to 10713
  156.8951  130.9601  151.3583 LP  0  0  0  0  0  0  0  0  0  0  0  0  # atno 17371 bound_to 10713
  141.2132  133.7633  156.9737 LP  0  0  0  0  0  0  0  0  0  0  0  0  # atno 17394 bound_to 11000
  140.1127  134.9466  157.2089 LP  0  0  0  0  0  0  0  0  0  0  0  0  # atno 17395 bound_to 11000

$$$$
