AV-unprocessed.smi:1032|AV-procd|sdf|4482|dock5
  -GOLD-   22720 2463D 1   1.00000     0.00000
 Structure written by MMmdl.
 46 47  0  0  0  0  0  0  0  0  2 V2000
  146.3108  129.9623  151.6306 C   0  0  0  0  0  0  0  0  0  0  0  0
  145.8082  131.4114  151.6977 C   0  0  2  0  0  0  0  0  0  0  0  0
  145.9837  132.0083  153.1042 C   0  0  0  0  0  0  0  0  0  0  0  0
  145.4429  133.4462  153.1754 C   0  0  0  0  0  0  0  0  0  0  0  0
  144.0150  133.5013  152.7637 N   0  3  1  0  0  0  0  0  0  0  0  0
  143.4006  134.8419  152.9441 C   0  0  0  0  0  0  0  0  0  0  0  0
  143.5923  135.3922  154.3723 C   0  0  2  0  0  0  0  0  0  0  0  0
  142.9656  134.4926  155.2654 O   0  0  0  0  0  0  0  0  0  0  0  0
  142.9284  136.7747  154.5402 C   0  0  0  0  0  0  0  0  0  0  0  0
  143.7987  137.8617  154.1010 N   0  0  0  0  0  0  0  0  0  0  0  0
  145.0658  138.0426  154.5022 C   0  0  0  0  0  0  0  0  0  0  0  0
  145.6243  137.3099  155.3187 O   0  0  0  0  0  0  0  0  0  0  0  0
  145.6130  139.1215  153.9154 N   0  0  0  0  0  0  0  0  0  0  0  0
  146.9256  139.6487  154.0614 C   0  0  0  0  0  0  0  0  0  0  0  0
  147.9895  138.7303  154.1793 C   0  0  0  0  0  0  0  0  0  0  0  0
  149.2995  139.2239  154.3411 C   0  0  0  0  0  0  0  0  0  0  0  0
  149.5946  140.5395  154.3981 N   0  0  0  0  0  0  0  0  0  0  0  0
  148.5743  141.4175  154.2985 C   0  0  0  0  0  0  0  0  0  0  0  0
  147.2291  141.0302  154.1339 C   0  0  0  0  0  0  0  0  0  0  0  0
  143.8268  132.9714  151.3888 C   0  0  0  0  0  0  0  0  0  0  0  0
  144.3321  131.5226  151.2798 C   0  0  0  0  0  0  0  0  0  0  0  0
  145.7490  129.3148  152.3046 H   0  0  0  0  0  0  0  0  0  0  0  0
  147.3631  129.8988  151.9095 H   0  0  0  0  0  0  0  0  0  0  0  0
  146.2129  129.5581  150.6226 H   0  0  0  0  0  0  0  0  0  0  0  0
  146.4048  132.0020  151.0007 H   0  0  0  0  0  0  0  0  0  0  0  0
  145.4650  131.3886  153.8372 H   0  0  0  0  0  0  0  0  0  0  0  0
  147.0378  131.9998  153.3839 H   0  0  0  0  0  0  0  0  0  0  0  0
  145.5619  133.8163  154.1929 H   0  0  0  0  0  0  0  0  0  0  0  0
  146.0340  134.1008  152.5330 H   0  0  0  0  0  0  0  0  0  0  0  0
  143.8219  135.5277  152.2074 H   0  0  0  0  0  0  0  0  0  0  0  0
  142.3309  134.7934  152.7332 H   0  0  0  0  0  0  0  0  0  0  0  0
  144.6525  135.4546  154.6140 H   0  0  0  0  0  0  0  0  0  0  0  0
  143.2200  133.6125  155.0316 H   0  0  0  0  0  0  0  0  0  0  0  0
  142.0075  136.8201  153.9560 H   0  0  0  0  0  0  0  0  0  0  0  0
  142.6335  136.9432  155.5768 H   0  0  0  0  0  0  0  0  0  0  0  0
  143.4138  138.5108  153.4300 H   0  0  0  0  0  0  0  0  0  0  0  0
  144.9993  139.6597  153.3216 H   0  0  0  0  0  0  0  0  0  0  0  0
  147.8117  137.6653  154.1429 H   0  0  0  0  0  0  0  0  0  0  0  0
  150.1324  138.5421  154.4298 H   0  0  0  0  0  0  0  0  0  0  0  0
  148.8372  142.4635  154.3583 H   0  0  0  0  0  0  0  0  0  0  0  0
  146.4687  141.7935  154.0814 H   0  0  0  0  0  0  0  0  0  0  0  0
  142.7692  132.9993  151.1233 H   0  0  0  0  0  0  0  0  0  0  0  0
  144.3501  133.6097  150.6749 H   0  0  0  0  0  0  0  0  0  0  0  0
  144.2055  131.1661  150.2569 H   0  0  0  0  0  0  0  0  0  0  0  0
  143.7190  130.8763  151.9098 H   0  0  0  0  0  0  0  0  0  0  0  0
  143.5057  132.8786  153.3749 H   0  0  0  0  0  0  0  0  0  0  0  0
  1  2  1  0  0  0  0
  1 22  1  0  0  0  0
  1 23  1  0  0  0  0
  1 24  1  0  0  0  0
  2 21  1  0  0  0  0
  2  3  1  0  0  0  0
  2 25  1  0  0  0  0
  3  4  1  0  0  0  0
  3 26  1  0  0  0  0
  3 27  1  0  0  0  0
  4  5  1  0  0  0  0
  4 28  1  0  0  0  0
  4 29  1  0  0  0  0
  5  6  1  0  0  0  0
  5 20  1  0  0  0  0
  5 46  1  0  0  0  0
  6  7  1  0  0  0  0
  6 30  1  0  0  0  0
  6 31  1  0  0  0  0
  7  8  1  0  0  0  0
  7  9  1  0  0  0  0
  7 32  1  0  0  0  0
  8 33  1  0  0  0  0
  9 10  1  0  0  0  0
  9 34  1  0  0  0  0
  9 35  1  0  0  0  0
 10 11  1  0  0  0  0
 10 36  1  0  0  0  0
 11 12  2  0  0  0  0
 11 13  1  0  0  0  0
 13 14  1  0  0  0  0
 13 37  1  0  0  0  0
 14 19  1  0  0  0  0
 14 15  2  0  0  0  0
 15 16  1  0  0  0  0
 15 38  1  0  0  0  0
 16 17  2  0  0  0  0
 16 39  1  0  0  0  0
 17 18  1  0  0  0  0
 18 19  2  0  0  0  0
 18 40  1  0  0  0  0
 19 41  1  0  0  0  0
 20 21  1  0  0  0  0
 20 42  1  0  0  0  0
 20 43  1  0  0  0  0
 21 44  1  0  0  0  0
 21 45  1  0  0  0  0
M  CHG  1   5   1
M  END
> <s_m_source_file>
AV-unprocessed.smi

> <i_m_source_file_index>
1032

> <i_lp_mmshare_version>
43012

> <i_f3d_flags>
0

> <s_epik_input>
W0NIM11bQ0hdMVtDSDJdW0NIMl1OKFtDSDJdW0NIMl0xKVtDSDJdW0NASF0oW09IXSlbQ0gyXVtOSF1DKD1PKVtOSF1jMltjSF1bY0hdbltjSF1bY0hdMg==

> <s_epik_cmdline>
J2VwaWtfcHl0aG9uJywgJy1waCcsICc3LjAnLCAnLXRuJywgJzgnLCAnLW1hJywgJzIwMCcsICctbWV0YWxfYmluZGluZycsICctaW1hZScsICc8aW5maWxlLm1hZT4nLCAnLW9tYWUnLCAnPG91dGZpbGUubWFlPic=

> <r_epik_Ionization_Penalty>
0.11743

> <r_epik_Ionization_Penalty_Charging>
0.00147689

> <r_epik_Ionization_Penalty_Neutral>
0.115954

> <r_epik_State_Penalty>
0.105552

> <r_epik_Charging_Adjusted_Penalty>
0.107029

> <i_epik_Tot_Q>
1

> <i_epik_Tot_abs_Q>
1

> <r_epik_Metal_State_Penalty>
0.0881315

> <b_epik_Metal_Only>
0

> <s_lp_Force_Field>
OPLS_2005

> <r_lp_Energy>
24.9442

> <b_lp_Chiralities_Consistent>
1

> <s_lp_Variant>
AV-unprocessed.smi:1032-1

> <Gold.Version>
5.8.1

> <Gold.Id.Protein>
6NUR|6NUR_protein|mol2

> <Gold.PLP.Fitness>
50.0254

> <Gold.PLP.PLP>
-32.7072

> <Gold.PLP.part.hbond>
-5.9378

> <Gold.PLP.part.metal>
0.0000

> <Gold.PLP.part.buried>
-5.8836

> <Gold.PLP.part.nonpolar>
-22.7304

> <Gold.PLP.part.repulsive>
0.1365

> <Gold.PLP.ligand.clash>
0.0000

> <Gold.PLP.ligand.torsion>
0.6015

> <Gold.PLP.Chemscore.Hbond>
5.5230

> <Gold.PLP.Chemscore.CHOScore>
0.6405

> <Gold.PLP.Chemscore.Metal>
0.0000

> <Gold.Chemscore.Hbonds>
donor molecule, donor type, donor heavy atom, donor atom, acceptor molecule, acceptor atom, score
      L1  H     5    46       P1 10957  2.00
      L1  H     8    33       P1 10957  0.93
      L1  H    10    36       P1 10175  0.62
      L1  H    13    37       P1 10175  1.00
      P1  H  7989  7998       L1    17  0.36
      P1  H 11000 11005       L1     8  0.16
      L1  C    18    40       P1  8028  0.87

> <Gold.PLP.Chemscore.Internal.Correction>
0.0309

> <Gold.Rescore>
     Score         DG    S(hbond)    S(metal)    S(lipo)     H(rot)  DE(clash)    DE(int)     intcor
     20.48     -23.26       4.20        0.00      82.12       2.29       0.12       2.67       ----

> <Gold.Chemscore.Fitness>
20.4790

> <Gold.Chemscore.DG>
-23.2622

> <Gold.Chemscore.ZeroCoef>
-5.4800

> <Gold.Chemscore.Hbond>
4.1999

> <Gold.Chemscore.Metal>
0.0000

> <Gold.Chemscore.Lipo>
82.1202

> <Gold.Chemscore.Internal_Hbond>
0.0000

> <Gold.Chemscore.DEClash>
0.1158

> <Gold.Chemscore.DEInternal>
2.6674

> <Gold.Chemscore.Rot>
2.2865

> <Gold.Chemscore.Internal.Correction>
   9.000000E+99

> <Gold.Chemscore.Hbonds>
donor molecule, donor type, donor heavy atom, donor atom, acceptor molecule, acceptor atom, score
      L1  H     5    46       P1 10957  0.68
      L1  H     8    33       P1 10957  0.90
      L1  H    10    36       P1 10175  0.60
      L1  H    13    37       P1 10175  1.00
      P1  H  7989  7998       L1    17  0.25
      P1  H 11000 11005       L1     8  0.01

> <Gold.Chemscore.Hbond.Weighted>
-14.0277

> <Gold.Chemscore.Metal.Weighted>
-0.0000

> <Gold.Chemscore.Lipo.Weighted>
-9.6081

> <Gold.Chemscore.Internal_Hbond.Weighted>
0.0000

> <Gold.Chemscore.DEClash.Weighted>
0.1158

> <Gold.Chemscore.DEInternal.Weighted>
2.6674

> <Gold.Chemscore.Rot.Weighted>
5.8536

> <Gold.Chemscore.Internal.Correction.Weighted>
   9.000000E+99

> <Gold.Protein.RotatedTorsions>
[ 6907 6896 6895 6894 ] final   91.19 input  -60.11 | X-H torsion
[ 7974 7965 7964 7962 ] final -103.63 input  175.53 | X-H torsion
[ 8008 7997 7996 7995 ] final  -17.46 input   59.86 | X-H torsion
[ 10167 10162 10161 10158 ] final  106.64 input  -65.29 | X-H torsion
[ 10718 10713 10712 10709 ] final   50.77 input   66.30 | X-H torsion
[ 10763 10752 10751 10750 ] final  -61.08 input  -60.55 | X-H torsion
[ 11005 11000 10999 10996 ] final  -30.56 input  -57.11 | X-H torsion

> <Gold.Protein.ActiveResidues>
 VAL166  LYS551  ARG553  GLY616  TRP617  ASP618  TYR619  PRO620  LYS621  CYS622 
 ASP623  PHE694  ASN695  SER759  ASP760  ASP761  ALA762  ILE779  LEU786  VAL792 
 PHE793  MET794  SER795  GLU796  ALA797  LYS798  CYS799  TRP800  GLU811  SER814 

> <Gold.Protein.RotatedAtoms>
  152.5449  134.1696  159.8590 H   0  0  0  0  0  0  0  0  0  0  0  0  # atno 6907 bound_to 6896
  151.1707  133.4779  159.2601 H   0  0  0  0  0  0  0  0  0  0  0  0  # atno 6908 bound_to 6896
  151.1278  135.0125  159.8623 H   0  0  0  0  0  0  0  0  0  0  0  0  # atno 6909 bound_to 6896
  145.2534  140.9245  143.3082 H   0  0  0  0  0  0  0  0  0  0  0  0  # atno 7974 bound_to 7965
  154.4976  140.2142  155.9413 H   0  0  0  0  0  0  0  0  0  0  0  0  # atno 8008 bound_to 7997
  156.1391  140.3183  155.8436 H   0  0  0  0  0  0  0  0  0  0  0  0  # atno 8009 bound_to 7997
  155.4153  140.0493  157.3020 H   0  0  0  0  0  0  0  0  0  0  0  0  # atno 8010 bound_to 7997
  139.6992  144.7097  151.1214 H   0  0  0  0  0  0  0  0  0  0  0  0  # atno 10167 bound_to 10162
  157.4916  130.8380  149.8210 H   0  0  0  0  0  0  0  0  0  0  0  0  # atno 10718 bound_to 10713
  154.2792  135.6275  153.5340 H   0  0  0  0  0  0  0  0  0  0  0  0  # atno 10763 bound_to 10752
  152.9868  135.5629  154.5514 H   0  0  0  0  0  0  0  0  0  0  0  0  # atno 10764 bound_to 10752
  154.5101  135.2876  155.1325 H   0  0  0  0  0  0  0  0  0  0  0  0  # atno 10765 bound_to 10752
  140.9393  133.7289  156.1052 H   0  0  0  0  0  0  0  0  0  0  0  0  # atno 11005 bound_to 11000
  144.9482  139.4112  143.6415 LP  0  0  0  0  0  0  0  0  0  0  0  0  # atno 17320 bound_to 7965
  146.3296  139.8476  142.8879 LP  0  0  0  0  0  0  0  0  0  0  0  0  # atno 17321 bound_to 7965
  140.7705  143.5447  150.9272 LP  0  0  0  0  0  0  0  0  0  0  0  0  # atno 17342 bound_to 10162
  139.9128  143.6699  152.3112 LP  0  0  0  0  0  0  0  0  0  0  0  0  # atno 17343 bound_to 10162
  156.0177  130.3807  150.2060 LP  0  0  0  0  0  0  0  0  0  0  0  0  # atno 17370 bound_to 10713
  157.0248  130.9990  151.3329 LP  0  0  0  0  0  0  0  0  0  0  0  0  # atno 17371 bound_to 10713
  140.7756  134.3784  157.5498 LP  0  0  0  0  0  0  0  0  0  0  0  0  # atno 17394 bound_to 11000
  139.8816  134.9049  156.2888 LP  0  0  0  0  0  0  0  0  0  0  0  0  # atno 17395 bound_to 11000

$$$$
