#       Name:                AV-unprocessed.smi:3303
#       Creating user name   scv26
#       Creation time:       Fri Mar 27 19:02:41 2020


#       File generated by GOLD software.
#

@<TRIPOS>MOLECULE
AV-unprocessed.smi:3303
    46    47     1
SMALL
NO_CHARGES


@<TRIPOS>ATOM
      1 ****        -2.8904  -0.1606   1.3654 C.3            1 S1                 0.0000
      2 ****        -1.4273  -0.4502   0.9873 C.3            1 S1                 0.0000
      3 ****        -1.0612  -1.9269   1.2343 C.3            1 S1                 0.0000
      4 ****        -1.6996  -2.8424   0.2535 N.4            1 S1                 1.0000
      5 ****        -1.4662  -4.2593   0.6248 C.3            1 S1                 0.0000
      6 ****        -1.3158  -2.5092  -1.1502 C.3            1 S1                 0.0000
      7 ****        -1.9724  -3.4437  -2.1853 C.3            1 S1                 0.0000
      8 ****        -1.6792  -1.0442  -1.4786 C.3            1 S1                 0.0000
      9 ****        -1.1156  -0.0281  -0.4686 C.3            1 S1                 0.0000
     10 ****         0.3148   0.1419  -0.7084 N.3            1 S1                 0.0000
     11 ****         0.8090   1.4181  -0.2094 C.3            1 S1                 0.0000
     12 ****         2.3029   1.5532  -0.5335 C.3            1 S1                 0.0000
     13 ****         2.8748   2.8664  -0.0346 C.ar           1 S1                 0.0000
     14 ****         3.5873   2.9257   1.1823 C.ar           1 S1                 0.0000
     15 ****         4.0866   4.1722   1.6070 C.ar           1 S1                 0.0000
     16 ****         3.8536   5.3054   0.8040 C.ar           1 S1                 0.0000
     17 ****         3.1283   5.1413  -0.3931 C.ar           1 S1                 0.0000
     18 ****         2.6454   3.9506  -0.8096 N.ar           1 S1                 0.0000
     19 ****        -3.5901  -0.7351   0.7584 H              1 S1                 0.0000
     20 ****        -3.1267   0.8957   1.2325 H              1 S1                 0.0000
     21 ****        -3.0813  -0.4077   2.4101 H              1 S1                 0.0000
     22 ****        -0.8286   0.1490   1.6726 H              1 S1                 0.0000
     23 ****         0.0216  -2.0525   1.1841 H              1 S1                 0.0000
     24 ****        -1.3551  -2.2058   2.2472 H              1 S1                 0.0000
     25 ****        -0.4237  -4.5387   0.4674 H              1 S1                 0.0000
     26 ****        -2.0982  -4.9345   0.0490 H              1 S1                 0.0000
     27 ****        -1.7073  -4.4289   1.6748 H              1 S1                 0.0000
     28 ****        -0.2339  -2.6239  -1.2373 H              1 S1                 0.0000
     29 ****        -1.7519  -3.1134  -3.2009 H              1 S1                 0.0000
     30 ****        -3.0571  -3.4627  -2.0743 H              1 S1                 0.0000
     31 ****        -1.6049  -4.4668  -2.1070 H              1 S1                 0.0000
     32 ****        -1.3458  -0.7905  -2.4861 H              1 S1                 0.0000
     33 ****        -2.7655  -0.9472  -1.4990 H              1 S1                 0.0000
     34 ****        -1.5918   0.9317  -0.6752 H              1 S1                 0.0000
     35 ****         0.4894   0.1046  -1.7030 H              1 S1                 0.0000
     36 ****         0.2542   2.2341  -0.6747 H              1 S1                 0.0000
     37 ****         0.6614   1.4950   0.8671 H              1 S1                 0.0000
     38 ****         2.8603   0.7281  -0.0875 H              1 S1                 0.0000
     39 ****         2.4628   1.4851  -1.6108 H              1 S1                 0.0000
     40 ****         3.7460   2.0395   1.7792 H              1 S1                 0.0000
     41 ****         4.6368   4.2576   2.5323 H              1 S1                 0.0000
     42 ****         4.2207   6.2773   1.0989 H              1 S1                 0.0000
     43 ****         2.9296   5.9885  -1.0330 H              1 S1                 0.0000
     44 ****        -2.6953  -2.6893   0.3270 H              1 S1                 0.0000
     45 ****         0.7897  -0.5924  -0.2233 LP             1 S1                 0.0000
     46 ****         2.1337   3.8732  -1.6652 LP             1 S1                 0.0000
@<TRIPOS>BOND
    1    1    2 1     
    2    1   19 1     
    3    1   20 1     
    4    1   21 1     
    5    2    9 1     
    6    2    3 1     
    7    2   22 1     
    8    3    4 1     
    9    3   23 1     
   10    3   24 1     
   11    4    5 1     
   12    4    6 1     
   13    4   44 1     
   14    5   25 1     
   15    5   26 1     
   16    5   27 1     
   17    6    7 1     
   18    6    8 1     
   19    6   28 1     
   20    7   29 1     
   21    7   30 1     
   22    7   31 1     
   23    8    9 1     
   24    8   32 1     
   25    8   33 1     
   26    9   10 1     
   27    9   34 1     
   28   10   11 1     
   29   10   35 1     
   30   11   12 1     
   31   11   36 1     
   32   11   37 1     
   33   12   13 1     
   34   12   38 1     
   35   12   39 1     
   36   13   18 ar    
   37   13   14 ar    
   38   14   15 ar    
   39   14   40 1     
   40   15   16 ar    
   41   15   41 1     
   42   16   17 ar    
   43   16   42 1     
   44   17   18 ar    
   45   17   43 1     
   46   10   45 1     
   47   18   46 1     
@<TRIPOS>SUBSTRUCTURE
      1 S1             1
@<TRIPOS>SET
LONE_PAIRS      STATIC     ATOMS    <user>   **** ""
2 45 46
DONOR_HYDROGENS      STATIC     ATOMS    <user>   **** ""
2 44 35
ATOM$BLUE        STATIC     ATOMS    COLORGROUP SYSTEM
2 45 46
ATOM$RED        STATIC     ATOMS    COLORGROUP SYSTEM
2 44 35
