AV-unprocessed.smi:3048|AV-procd|sdf|11626|dock3
  -GOLD-   2272017 13D 1   1.00000     0.00000
 Structure written by MMmdl.
 38 39  0  0  0  0  0  0  0  0  2 V2000
  153.0728  143.9517  163.0426 C   0  0  0  0  0  0  0  0  0  0  0  0
  152.6105  143.4241  161.7147 C   0  0  0  0  0  0  0  0  0  0  0  0
  152.2433  142.0887  161.3840 C   0  0  0  0  0  0  0  0  0  0  0  0
  151.8784  141.9544  160.1193 N   0  0  0  0  0  0  0  0  0  0  0  0
  152.0009  143.1943  159.5988 N   0  0  0  0  0  0  0  0  0  0  0  0
  151.6701  143.4293  158.2042 C   0  0  0  0  0  0  0  0  0  0  0  0
  151.1995  142.1499  157.4932 C   0  0  0  0  0  0  0  0  0  0  0  0
  150.6926  142.4367  156.1364 N   0  3  0  0  0  0  0  0  0  0  0  0
  149.8010  141.3966  155.5879 C   0  0  0  0  0  0  0  0  0  0  0  0
  150.4945  140.0269  155.5859 C   0  0  1  0  0  0  0  0  0  0  0  0
  149.7203  138.9889  154.7508 C   0  0  0  0  0  0  0  0  0  0  0  0
  150.4818  137.6592  154.7050 C   0  0  0  0  0  0  0  0  0  0  0  0
  151.9180  137.9019  154.2291 C   0  0  0  0  0  0  0  0  0  0  0  0
  152.5831  139.0020  155.0718 C   0  0  0  0  0  0  0  0  0  0  0  0
  151.7971  140.1895  155.0283 O   0  0  0  0  0  0  0  0  0  0  0  0
  152.4421  144.1006  160.5396 C   0  0  0  0  0  0  0  0  0  0  0  0
  153.2108  143.1523  163.7712 H   0  0  0  0  0  0  0  0  0  0  0  0
  152.3553  144.6532  163.4684 H   0  0  0  0  0  0  0  0  0  0  0  0
  154.0248  144.4759  162.9579 H   0  0  0  0  0  0  0  0  0  0  0  0
  152.2293  141.2181  162.0233 H   0  0  0  0  0  0  0  0  0  0  0  0
  150.8824  144.1825  158.1650 H   0  0  0  0  0  0  0  0  0  0  0  0
  152.5361  143.8590  157.6981 H   0  0  0  0  0  0  0  0  0  0  0  0
  152.0193  141.4326  157.4350 H   0  0  0  0  0  0  0  0  0  0  0  0
  150.4042  141.6801  158.0730 H   0  0  0  0  0  0  0  0  0  0  0  0
  150.1898  143.3127  156.1569 H   0  0  0  0  0  0  0  0  0  0  0  0
  148.9007  141.3518  156.2024 H   0  0  0  0  0  0  0  0  0  0  0  0
  149.4902  141.6701  154.5787 H   0  0  0  0  0  0  0  0  0  0  0  0
  150.5806  139.6714  156.6146 H   0  0  0  0  0  0  0  0  0  0  0  0
  148.7249  138.8323  155.1676 H   0  0  0  0  0  0  0  0  0  0  0  0
  149.5794  139.3633  153.7357 H   0  0  0  0  0  0  0  0  0  0  0  0
  150.4947  137.2085  155.6984 H   0  0  0  0  0  0  0  0  0  0  0  0
  149.9764  136.9523  154.0463 H   0  0  0  0  0  0  0  0  0  0  0  0
  152.4964  136.9794  154.2871 H   0  0  0  0  0  0  0  0  0  0  0  0
  151.9109  138.2019  153.1803 H   0  0  0  0  0  0  0  0  0  0  0  0
  152.7124  138.6769  156.1052 H   0  0  0  0  0  0  0  0  0  0  0  0
  153.5769  139.2227  154.6815 H   0  0  0  0  0  0  0  0  0  0  0  0
  152.5965  145.1424  160.2989 H   0  0  0  0  0  0  0  0  0  0  0  0
  151.4859  142.5383  155.5190 H   0  0  0  0  0  0  0  0  0  0  0  0
  1  2  1  0  0  0  0
  1 17  1  0  0  0  0
  1 18  1  0  0  0  0
  1 19  1  0  0  0  0
  2 16  2  0  0  0  0
  2  3  1  0  0  0  0
  3  4  2  0  0  0  0
  3 20  1  0  0  0  0
  4  5  1  0  0  0  0
  5  6  1  0  0  0  0
  5 16  1  0  0  0  0
  6  7  1  0  0  0  0
  6 21  1  0  0  0  0
  6 22  1  0  0  0  0
  7  8  1  0  0  0  0
  7 23  1  0  0  0  0
  7 24  1  0  0  0  0
  8  9  1  0  0  0  0
  8 25  1  0  0  0  0
  8 38  1  0  0  0  0
  9 10  1  0  0  0  0
  9 26  1  0  0  0  0
  9 27  1  0  0  0  0
 10 15  1  0  0  0  0
 10 11  1  0  0  0  0
 10 28  1  0  0  0  0
 11 12  1  0  0  0  0
 11 29  1  0  0  0  0
 11 30  1  0  0  0  0
 12 13  1  0  0  0  0
 12 31  1  0  0  0  0
 12 32  1  0  0  0  0
 13 14  1  0  0  0  0
 13 33  1  0  0  0  0
 13 34  1  0  0  0  0
 14 15  1  0  0  0  0
 14 35  1  0  0  0  0
 14 36  1  0  0  0  0
 16 37  1  0  0  0  0
M  CHG  1   8   1
M  END
> <s_m_source_file>
AV-unprocessed.smi

> <i_m_source_file_index>
3048

> <i_lp_mmshare_version>
43012

> <i_f3d_flags>
0

> <s_epik_input>
W0NIM11jMVtjSF1ubihbY0hdMSlbQ0gyXVtDSDJdW05IXVtDSDJdW0NAQEhdMltDSDJdW0NIMl1bQ0gyXVtDSDJdTzI=

> <s_epik_cmdline>
J2VwaWtfcHl0aG9uJywgJy1waCcsICc3LjAnLCAnLXRuJywgJzgnLCAnLW1hJywgJzIwMCcsICctbWV0YWxfYmluZGluZycsICctaW1hZScsICc8aW5maWxlLm1hZT4nLCAnLW9tYWUnLCAnPG91dGZpbGUubWFlPic=

> <r_lp_tautomer_probability>
1

> <r_epik_Ionization_Penalty>
0.0084937

> <r_epik_Ionization_Penalty_Charging>
0.00848754

> <r_epik_Ionization_Penalty_Neutral>
6.1613e-06

> <r_epik_State_Penalty>
0.00639836

> <r_epik_Charging_Adjusted_Penalty>
0.0148859

> <i_epik_Tot_Q>
1

> <i_epik_Tot_abs_Q>
1

> <r_epik_Metal_State_Penalty>
0.00642541

> <b_epik_Metal_Only>
0

> <s_lp_Force_Field>
OPLS_2005

> <r_lp_Energy>
10.7756

> <b_lp_Chiralities_Consistent>
1

> <s_lp_Variant>
AV-unprocessed.smi:3048-2

> <Gold.Version>
5.8.1

> <Gold.Id.Protein>
6NUR|6NUR_protein|mol2

> <Gold.PLP.Fitness>
45.8669

> <Gold.PLP.PLP>
-37.5030

> <Gold.PLP.part.hbond>
-2.3037

> <Gold.PLP.part.metal>
0.0000

> <Gold.PLP.part.buried>
-4.4986

> <Gold.PLP.part.nonpolar>
-31.3895

> <Gold.PLP.part.repulsive>
0.1635

> <Gold.PLP.ligand.clash>
0.0000

> <Gold.PLP.ligand.torsion>
0.1956

> <Gold.PLP.Chemscore.Hbond>
2.8960

> <Gold.PLP.Chemscore.CHOScore>
0.0000

> <Gold.PLP.Chemscore.Metal>
0.0000

> <Gold.Chemscore.Hbonds>
donor molecule, donor type, donor heavy atom, donor atom, acceptor molecule, acceptor atom, score
      L1  H     8    25       P1  8028  2.00
      P1  H  7989  7998       L1    15  0.90

> <Gold.PLP.Chemscore.Internal.Correction>
0.0670

> <Gold.Rescore>
     Score         DG    S(hbond)    S(metal)    S(lipo)     H(rot)  DE(clash)    DE(int)     intcor
     18.52     -19.64       1.78        0.00     105.47       1.61       0.90       0.21       ----

> <Gold.Chemscore.Fitness>
18.5188

> <Gold.Chemscore.DG>
-19.6360

> <Gold.Chemscore.ZeroCoef>
-5.4800

> <Gold.Chemscore.Hbond>
1.7815

> <Gold.Chemscore.Metal>
0.0000

> <Gold.Chemscore.Lipo>
105.4694

> <Gold.Chemscore.Internal_Hbond>
0.0000

> <Gold.Chemscore.DEClash>
0.9043

> <Gold.Chemscore.DEInternal>
0.2129

> <Gold.Chemscore.Rot>
1.6149

> <Gold.Chemscore.Internal.Correction>
   9.000000E+99

> <Gold.Chemscore.Hbonds>
donor molecule, donor type, donor heavy atom, donor atom, acceptor molecule, acceptor atom, score
      L1  H     8    25       P1  8028  0.97
      P1  H  7989  7998       L1    15  0.53

> <Gold.Chemscore.Hbond.Weighted>
-5.9502

> <Gold.Chemscore.Metal.Weighted>
-0.0000

> <Gold.Chemscore.Lipo.Weighted>
-12.3399

> <Gold.Chemscore.Internal_Hbond.Weighted>
0.0000

> <Gold.Chemscore.DEClash.Weighted>
0.9043

> <Gold.Chemscore.DEInternal.Weighted>
0.2129

> <Gold.Chemscore.Rot.Weighted>
4.1341

> <Gold.Chemscore.Internal.Correction.Weighted>
   9.000000E+99

> <Gold.Protein.RotatedTorsions>
[ 6907 6896 6895 6894 ] final   35.16 input  -60.11 | X-H torsion
[ 7974 7965 7964 7962 ] final -148.92 input  175.53 | X-H torsion
[ 8008 7997 7996 7995 ] final   49.44 input   59.86 | X-H torsion
[ 10167 10162 10161 10158 ] final -104.87 input  -65.29 | X-H torsion
[ 10718 10713 10712 10709 ] final   61.51 input   66.30 | X-H torsion
[ 10763 10752 10751 10750 ] final -179.91 input  -60.55 | X-H torsion
[ 11005 11000 10999 10996 ] final  110.25 input  -57.11 | X-H torsion

> <Gold.Protein.ActiveResidues>
 VAL166  LYS551  ARG553  GLY616  TRP617  ASP618  TYR619  PRO620  LYS621  CYS622 
 ASP623  PHE694  ASN695  SER759  ASP760  ASP761  ALA762  ILE779  LEU786  VAL792 
 PHE793  MET794  SER795  GLU796  ALA797  LYS798  CYS799  TRP800  GLU811  SER814 

> <Gold.Protein.RotatedAtoms>
  152.1123  134.9266  160.0565 H   0  0  0  0  0  0  0  0  0  0  0  0  # atno 6907 bound_to 6896
  152.0439  133.3984  159.4356 H   0  0  0  0  0  0  0  0  0  0  0  0  # atno 6908 bound_to 6896
  150.6844  134.3305  159.4868 H   0  0  0  0  0  0  0  0  0  0  0  0  # atno 6909 bound_to 6896
  144.7999  140.5133  143.5714 H   0  0  0  0  0  0  0  0  0  0  0  0  # atno 7974 bound_to 7965
  155.4023  140.3438  155.4258 H   0  0  0  0  0  0  0  0  0  0  0  0  # atno 8008 bound_to 7997
  156.1496  140.1567  156.8823 H   0  0  0  0  0  0  0  0  0  0  0  0  # atno 8009 bound_to 7997
  154.5041  140.0807  156.7839 H   0  0  0  0  0  0  0  0  0  0  0  0  # atno 8010 bound_to 7997
  140.2046  143.3792  152.1101 H   0  0  0  0  0  0  0  0  0  0  0  0  # atno 10167 bound_to 10162
  157.5833  130.8998  149.9470 H   0  0  0  0  0  0  0  0  0  0  0  0  # atno 10718 bound_to 10713
  154.5290  135.2798  155.1196 H   0  0  0  0  0  0  0  0  0  0  0  0  # atno 10763 bound_to 10752
  154.2724  135.6301  153.5319 H   0  0  0  0  0  0  0  0  0  0  0  0  # atno 10764 bound_to 10752
  152.9953  135.5631  154.5799 H   0  0  0  0  0  0  0  0  0  0  0  0  # atno 10765 bound_to 10752
  139.8878  134.9479  156.6250 H   0  0  0  0  0  0  0  0  0  0  0  0  # atno 11005 bound_to 11000
  145.5579  139.1478  143.3358 LP  0  0  0  0  0  0  0  0  0  0  0  0  # atno 17320 bound_to 7965
  146.2278  140.5716  142.8989 LP  0  0  0  0  0  0  0  0  0  0  0  0  # atno 17321 bound_to 7965
  139.5203  144.7032  151.5433 LP  0  0  0  0  0  0  0  0  0  0  0  0  # atno 17342 bound_to 10162
  140.6366  143.8971  150.6653 LP  0  0  0  0  0  0  0  0  0  0  0  0  # atno 17343 bound_to 10162
  156.0880  130.3666  150.0450 LP  0  0  0  0  0  0  0  0  0  0  0  0  # atno 17370 bound_to 10713
  156.8585  130.9483  151.3620 LP  0  0  0  0  0  0  0  0  0  0  0  0  # atno 17371 bound_to 10713
  140.7710  133.8738  155.8492 LP  0  0  0  0  0  0  0  0  0  0  0  0  # atno 17394 bound_to 11000
  140.9842  134.1365  157.4467 LP  0  0  0  0  0  0  0  0  0  0  0  0  # atno 17395 bound_to 11000

$$$$
