AV-unprocessed.smi:3323|AV-procd|sdf|12780|dock8
  -GOLD-   2272019123D 1   1.00000     0.00000
 Structure written by MMmdl.
 37 38  0  0  0  0  0  0  0  0  1 V2000
  151.1854  138.2418  154.3122 C   0  0  0  0  0  0  0  0  0  0  0  0
  149.8640  138.9636  154.0267 C   0  0  1  0  0  0  0  0  0  0  0  0
  148.6714  138.2884  154.7322 C   0  0  0  0  0  0  0  0  0  0  0  0
  147.3592  139.0631  154.4963 C   0  0  2  0  0  0  0  0  0  0  0  0
  146.7799  138.9186  153.0691 C   0  0  0  0  0  0  0  0  0  0  0  0
  146.9674  137.5758  152.5265 N   0  0  0  0  0  0  0  0  0  0  0  0
  145.9865  136.7148  152.2185 C   0  0  0  0  0  0  0  0  0  0  0  0
  144.7897  136.9715  152.3478 O   0  0  0  0  0  0  0  0  0  0  0  0
  146.4864  135.5652  151.7339 N   0  0  0  0  0  0  0  0  0  0  0  0
  145.7857  134.4070  151.3009 C   0  0  0  0  0  0  0  0  0  0  0  0
  144.3779  134.2607  151.3489 C   0  0  0  0  0  0  0  0  0  0  0  0
  143.8047  133.0529  150.9062 C   0  0  0  0  0  0  0  0  0  0  0  0
  144.6579  132.0342  150.4395 C   0  0  0  0  0  0  0  0  0  0  0  0
  146.0015  132.1547  150.4008 N   0  0  0  0  0  0  0  0  0  0  0  0
  146.5440  133.3149  150.8276 C   0  0  0  0  0  0  0  0  0  0  0  0
  147.5937  140.5355  154.8772 C   0  0  0  0  0  0  0  0  0  0  0  0
  148.8451  141.1085  154.1877 C   0  0  0  0  0  0  0  0  0  0  0  0
  149.9818  140.3061  154.4889 O   0  0  0  0  0  0  0  0  0  0  0  0
  151.1502  137.2094  153.9632 H   0  0  0  0  0  0  0  0  0  0  0  0
  151.4067  138.2277  155.3797 H   0  0  0  0  0  0  0  0  0  0  0  0
  152.0154  138.7354  153.8062 H   0  0  0  0  0  0  0  0  0  0  0  0
  149.7066  138.9695  152.9474 H   0  0  0  0  0  0  0  0  0  0  0  0
  148.5783  137.2496  154.4168 H   0  0  0  0  0  0  0  0  0  0  0  0
  148.8708  138.2542  155.8041 H   0  0  0  0  0  0  0  0  0  0  0  0
  146.6102  138.6627  155.1811 H   0  0  0  0  0  0  0  0  0  0  0  0
  145.7062  139.1053  153.0956 H   0  0  0  0  0  0  0  0  0  0  0  0
  147.1927  139.6707  152.3962 H   0  0  0  0  0  0  0  0  0  0  0  0
  147.9209  137.2794  152.3769 H   0  0  0  0  0  0  0  0  0  0  0  0
  147.4876  135.5355  151.6084 H   0  0  0  0  0  0  0  0  0  0  0  0
  143.7312  135.0374  151.7263 H   0  0  0  0  0  0  0  0  0  0  0  0
  142.7345  132.9093  150.9286 H   0  0  0  0  0  0  0  0  0  0  0  0
  144.2505  131.0955  150.0940 H   0  0  0  0  0  0  0  0  0  0  0  0
  147.6219  133.3742  150.7843 H   0  0  0  0  0  0  0  0  0  0  0  0
  146.7184  141.1397  154.6362 H   0  0  0  0  0  0  0  0  0  0  0  0
  147.7254  140.6087  155.9574 H   0  0  0  0  0  0  0  0  0  0  0  0
  148.7083  141.1733  153.1077 H   0  0  0  0  0  0  0  0  0  0  0  0
  149.0314  142.1230  154.5406 H   0  0  0  0  0  0  0  0  0  0  0  0
  1  2  1  0  0  0  0
  1 19  1  0  0  0  0
  1 20  1  0  0  0  0
  1 21  1  0  0  0  0
  2 18  1  0  0  0  0
  2  3  1  0  0  0  0
  2 22  1  0  0  0  0
  3  4  1  0  0  0  0
  3 23  1  0  0  0  0
  3 24  1  0  0  0  0
  4  5  1  0  0  0  0
  4 16  1  0  0  0  0
  4 25  1  0  0  0  0
  5  6  1  0  0  0  0
  5 26  1  0  0  0  0
  5 27  1  0  0  0  0
  6  7  1  0  0  0  0
  6 28  1  0  0  0  0
  7  8  2  0  0  0  0
  7  9  1  0  0  0  0
  9 10  1  0  0  0  0
  9 29  1  0  0  0  0
 10 15  1  0  0  0  0
 10 11  2  0  0  0  0
 11 12  1  0  0  0  0
 11 30  1  0  0  0  0
 12 13  2  0  0  0  0
 12 31  1  0  0  0  0
 13 14  1  0  0  0  0
 13 32  1  0  0  0  0
 14 15  2  0  0  0  0
 15 33  1  0  0  0  0
 16 17  1  0  0  0  0
 16 34  1  0  0  0  0
 16 35  1  0  0  0  0
 17 18  1  0  0  0  0
 17 36  1  0  0  0  0
 17 37  1  0  0  0  0
M  END
> <s_m_source_file>
AV-unprocessed.smi

> <i_m_source_file_index>
3323

> <i_lp_mmshare_version>
43012

> <i_f3d_flags>
0

> <s_epik_input>
W0NIM11bQ0BASF0xW0NIMl1bQ0BIXShbQ0gyXVtDSDJdTzEpW0NIMl1bTkhdQyg9TylbTkhdYzJbY0hdW2NIXVtjSF1uW2NIXTI=

> <s_epik_cmdline>
J2VwaWtfcHl0aG9uJywgJy1waCcsICc3LjAnLCAnLXRuJywgJzgnLCAnLW1hJywgJzIwMCcsICctbWV0YWxfYmluZGluZycsICctaW1hZScsICc8aW5maWxlLm1hZT4nLCAnLW9tYWUnLCAnPG91dGZpbGUubWFlPic=

> <r_epik_Ionization_Penalty>
0.00485293

> <r_epik_Ionization_Penalty_Charging>
0

> <r_epik_Ionization_Penalty_Neutral>
0.00485293

> <r_epik_State_Penalty>
0.00349083

> <r_epik_Charging_Adjusted_Penalty>
0.00349083

> <i_epik_Tot_Q>
0

> <i_epik_Tot_abs_Q>
0

> <r_epik_Metal_State_Penalty>
-0

> <b_epik_Metal_Only>
0

> <s_lp_Force_Field>
OPLS_2005

> <r_lp_Energy>
13.6237

> <b_lp_Chiralities_Consistent>
1

> <s_lp_Variant>
AV-unprocessed.smi:3323-4

> <Gold.Version>
5.8.1

> <Gold.Id.Protein>
6NUR|6NUR_protein|mol2

> <Gold.PLP.Fitness>
40.0340

> <Gold.PLP.PLP>
-31.2845

> <Gold.PLP.part.hbond>
-2.7296

> <Gold.PLP.part.metal>
0.0000

> <Gold.PLP.part.buried>
-5.0949

> <Gold.PLP.part.nonpolar>
-24.8875

> <Gold.PLP.part.repulsive>
0.8615

> <Gold.PLP.ligand.clash>
0.0000

> <Gold.PLP.ligand.torsion>
0.2161

> <Gold.PLP.Chemscore.Hbond>
2.9760

> <Gold.PLP.Chemscore.CHOScore>
0.0829

> <Gold.PLP.Chemscore.Metal>
0.0000

> <Gold.Chemscore.Hbonds>
donor molecule, donor type, donor heavy atom, donor atom, acceptor molecule, acceptor atom, score
      L1  H     6    28       P1  7948  1.00
      L1  H     9    29       P1  7948  1.00
      P1  H  7989  7998       L1    18  0.94
      L1  C    15    33       P1 10747  0.07

> <Gold.PLP.Chemscore.Internal.Correction>
0.0048

> <Gold.Rescore>
     Score         DG    S(hbond)    S(metal)    S(lipo)     H(rot)  DE(clash)    DE(int)     intcor
     17.28     -18.85       2.25        0.00      76.90       1.23       0.12       1.45       ----

> <Gold.Chemscore.Fitness>
17.2787

> <Gold.Chemscore.DG>
-18.8474

> <Gold.Chemscore.ZeroCoef>
-5.4800

> <Gold.Chemscore.Hbond>
2.2491

> <Gold.Chemscore.Metal>
0.0000

> <Gold.Chemscore.Lipo>
76.8998

> <Gold.Chemscore.Internal_Hbond>
0.0000

> <Gold.Chemscore.DEClash>
0.1151

> <Gold.Chemscore.DEInternal>
1.4536

> <Gold.Chemscore.Rot>
1.2273

> <Gold.Chemscore.Internal.Correction>
   9.000000E+99

> <Gold.Chemscore.Hbonds>
donor molecule, donor type, donor heavy atom, donor atom, acceptor molecule, acceptor atom, score
      L1  H     6    28       P1  7948  0.90
      L1  H     9    29       P1  7948  0.91
      P1  H  7989  7998       L1    18  0.18

> <Gold.Chemscore.Hbond.Weighted>
-7.5119

> <Gold.Chemscore.Metal.Weighted>
-0.0000

> <Gold.Chemscore.Lipo.Weighted>
-8.9973

> <Gold.Chemscore.Internal_Hbond.Weighted>
0.0000

> <Gold.Chemscore.DEClash.Weighted>
0.1151

> <Gold.Chemscore.DEInternal.Weighted>
1.4536

> <Gold.Chemscore.Rot.Weighted>
3.1418

> <Gold.Chemscore.Internal.Correction.Weighted>
   9.000000E+99

> <Gold.Protein.RotatedTorsions>
[ 6907 6896 6895 6894 ] final  -55.81 input  -60.11 | X-H torsion
[ 7974 7965 7964 7962 ] final  115.97 input  175.53 | X-H torsion
[ 8008 7997 7996 7995 ] final  170.59 input   59.86 | X-H torsion
[ 10167 10162 10161 10158 ] final  -76.78 input  -65.29 | X-H torsion
[ 10718 10713 10712 10709 ] final   84.89 input   66.30 | X-H torsion
[ 10763 10752 10751 10750 ] final  -49.83 input  -60.55 | X-H torsion
[ 11005 11000 10999 10996 ] final   -5.92 input  -57.11 | X-H torsion

> <Gold.Protein.ActiveResidues>
 VAL166  LYS551  ARG553  GLY616  TRP617  ASP618  TYR619  PRO620  LYS621  CYS622 
 ASP623  PHE694  ASN695  SER759  ASP760  ASP761  ALA762  ILE779  LEU786  VAL792 
 PHE793  MET794  SER795  GLU796  ALA797  LYS798  CYS799  TRP800  GLU811  SER814 

> <Gold.Protein.RotatedAtoms>
  150.8220  134.7432  159.6779 H   0  0  0  0  0  0  0  0  0  0  0  0  # atno 6907 bound_to 6896
  152.4334  134.5729  159.9936 H   0  0  0  0  0  0  0  0  0  0  0  0  # atno 6908 bound_to 6896
  151.5911  133.3329  159.3064 H   0  0  0  0  0  0  0  0  0  0  0  0  # atno 6909 bound_to 6896
  145.1854  139.3028  143.4396 H   0  0  0  0  0  0  0  0  0  0  0  0  # atno 7974 bound_to 7965
  156.1351  140.1534  156.9007 H   0  0  0  0  0  0  0  0  0  0  0  0  # atno 8008 bound_to 7997
  154.4940  140.0843  156.7696 H   0  0  0  0  0  0  0  0  0  0  0  0  # atno 8009 bound_to 7997
  155.4184  140.3422  155.4271 H   0  0  0  0  0  0  0  0  0  0  0  0  # atno 8010 bound_to 7997
  140.4827  143.2398  151.8032 H   0  0  0  0  0  0  0  0  0  0  0  0  # atno 10167 bound_to 10162
  157.6906  131.0152  150.2740 H   0  0  0  0  0  0  0  0  0  0  0  0  # atno 10718 bound_to 10713
  154.1005  135.6564  153.4867 H   0  0  0  0  0  0  0  0  0  0  0  0  # atno 10763 bound_to 10752
  153.0290  135.5224  154.7291 H   0  0  0  0  0  0  0  0  0  0  0  0  # atno 10764 bound_to 10752
  154.6442  135.2992  155.0036 H   0  0  0  0  0  0  0  0  0  0  0  0  # atno 10765 bound_to 10752
  140.6964  133.9027  155.8653 H   0  0  0  0  0  0  0  0  0  0  0  0  # atno 11005 bound_to 11000
  146.3446  140.2048  142.8589 LP  0  0  0  0  0  0  0  0  0  0  0  0  # atno 17320 bound_to 7965
  145.0094  140.8701  143.5233 LP  0  0  0  0  0  0  0  0  0  0  0  0  # atno 17321 bound_to 7965
  139.4836  144.4752  151.9376 LP  0  0  0  0  0  0  0  0  0  0  0  0  # atno 17342 bound_to 10162
  140.3837  144.2703  150.5906 LP  0  0  0  0  0  0  0  0  0  0  0  0  # atno 17343 bound_to 10162
  156.3298  130.3798  149.7501 LP  0  0  0  0  0  0  0  0  0  0  0  0  # atno 17370 bound_to 10713
  156.5045  130.8144  151.3145 LP  0  0  0  0  0  0  0  0  0  0  0  0  # atno 17371 bound_to 10713
  141.0199  134.0903  157.4131 LP  0  0  0  0  0  0  0  0  0  0  0  0  # atno 17394 bound_to 11000
  139.8909  135.0115  156.6760 LP  0  0  0  0  0  0  0  0  0  0  0  0  # atno 17395 bound_to 11000

$$$$
