AV-unprocessed.smi:3284|AV-procd|sdf|12576|dock8
  -GOLD-   2272018503D 1   1.00000     0.00000
 Structure written by MMmdl.
 45 46  0  0  0  0  0  0  0  0  3 V2000
  147.2182  141.9825  154.0180 C   0  0  0  0  0  0  0  0  0  0  0  0
  148.1933  141.4060  155.0309 C   0  0  0  0  0  0  0  0  0  0  0  0
  148.2403  141.8828  156.2906 C   0  0  0  0  0  0  0  0  0  0  0  0
  149.2088  141.4107  157.3607 C   0  0  0  0  0  0  0  0  0  0  0  0
  150.0353  140.1871  156.9317 C   0  0  0  0  0  0  0  0  0  0  0  0
  150.4108  140.2547  155.4411 C   0  0  1  0  0  0  0  0  0  0  0  0
  151.4265  139.1674  155.0504 C   0  0  0  0  0  0  0  0  0  0  0  0
  149.1391  140.2985  154.5474 C   0  0  1  0  0  0  0  0  0  0  0  0
  148.4261  138.9249  154.4400 C   0  0  0  0  0  0  0  0  0  0  0  0
  148.2018  138.5024  153.0436 N   0  3  0  0  0  0  0  0  0  0  0  0
  146.7844  138.5179  152.6282 C   0  0  0  0  0  0  0  0  0  0  0  0
  145.9139  137.6174  153.5195 C   0  0  0  0  0  0  0  0  0  0  0  0
  145.4438  136.3633  152.8422 C   0  0  0  0  0  0  0  0  0  0  0  0
  146.2338  135.4855  152.2115 N   0  3  0  0  0  0  0  0  0  0  0  0
  145.4922  134.4548  151.7014 C   0  0  0  0  0  0  0  0  0  0  0  0
  144.1886  134.7158  152.0324 C   0  0  0  0  0  0  0  0  0  0  0  0
  144.1884  135.8949  152.7326 N   0  0  0  0  0  0  0  0  0  0  0  0
  143.0157  136.5690  153.2935 C   0  0  0  0  0  0  0  0  0  0  0  0
  147.7193  142.1814  153.0706 H   0  0  0  0  0  0  0  0  0  0  0  0
  146.7979  142.9241  154.3732 H   0  0  0  0  0  0  0  0  0  0  0  0
  146.3849  141.3049  153.8404 H   0  0  0  0  0  0  0  0  0  0  0  0
  147.5725  142.6794  156.5852 H   0  0  0  0  0  0  0  0  0  0  0  0
  149.8762  142.2433  157.5855 H   0  0  0  0  0  0  0  0  0  0  0  0
  148.6605  141.1911  158.2772 H   0  0  0  0  0  0  0  0  0  0  0  0
  150.9319  140.1245  157.5495 H   0  0  0  0  0  0  0  0  0  0  0  0
  149.4707  139.2756  157.1289 H   0  0  0  0  0  0  0  0  0  0  0  0
  150.9283  141.2042  155.2916 H   0  0  0  0  0  0  0  0  0  0  0  0
  151.0733  138.1673  155.3016 H   0  0  0  0  0  0  0  0  0  0  0  0
  152.3693  139.3144  155.5781 H   0  0  0  0  0  0  0  0  0  0  0  0
  151.6431  139.1943  153.9820 H   0  0  0  0  0  0  0  0  0  0  0  0
  149.4754  140.5781  153.5478 H   0  0  0  0  0  0  0  0  0  0  0  0
  149.0191  138.1440  154.9141 H   0  0  0  0  0  0  0  0  0  0  0  0
  147.4677  138.9567  154.9589 H   0  0  0  0  0  0  0  0  0  0  0  0
  148.7201  139.1259  152.4410 H   0  0  0  0  0  0  0  0  0  0  0  0
  146.4087  139.5418  152.6482 H   0  0  0  0  0  0  0  0  0  0  0  0
  146.7187  138.1743  151.5953 H   0  0  0  0  0  0  0  0  0  0  0  0
  146.4805  137.2992  154.3954 H   0  0  0  0  0  0  0  0  0  0  0  0
  145.0423  138.1574  153.8889 H   0  0  0  0  0  0  0  0  0  0  0  0
  145.9359  133.6340  151.1565 H   0  0  0  0  0  0  0  0  0  0  0  0
  143.2840  134.1607  151.8276 H   0  0  0  0  0  0  0  0  0  0  0  0
  142.1231  135.9759  153.0914 H   0  0  0  0  0  0  0  0  0  0  0  0
  142.9065  137.5497  152.8320 H   0  0  0  0  0  0  0  0  0  0  0  0
  143.1375  136.6748  154.3719 H   0  0  0  0  0  0  0  0  0  0  0  0
  148.5658  137.5671  152.9322 H   0  0  0  0  0  0  0  0  0  0  0  0
  147.2398  135.5678  152.1312 H   0  0  0  0  0  0  0  0  0  0  0  0
  1  2  1  0  0  0  0
  1 19  1  0  0  0  0
  1 20  1  0  0  0  0
  1 21  1  0  0  0  0
  2  8  1  0  0  0  0
  2  3  2  0  0  0  0
  3  4  1  0  0  0  0
  3 22  1  0  0  0  0
  4  5  1  0  0  0  0
  4 23  1  0  0  0  0
  4 24  1  0  0  0  0
  5  6  1  0  0  0  0
  5 25  1  0  0  0  0
  5 26  1  0  0  0  0
  6  7  1  0  0  0  0
  6  8  1  0  0  0  0
  6 27  1  0  0  0  0
  7 28  1  0  0  0  0
  7 29  1  0  0  0  0
  7 30  1  0  0  0  0
  8  9  1  0  0  0  0
  8 31  1  0  0  0  0
  9 10  1  0  0  0  0
  9 32  1  0  0  0  0
  9 33  1  0  0  0  0
 10 11  1  0  0  0  0
 10 34  1  0  0  0  0
 10 44  1  0  0  0  0
 11 12  1  0  0  0  0
 11 35  1  0  0  0  0
 11 36  1  0  0  0  0
 12 13  1  0  0  0  0
 12 37  1  0  0  0  0
 12 38  1  0  0  0  0
 13 17  1  0  0  0  0
 13 14  2  0  0  0  0
 14 15  1  0  0  0  0
 14 45  1  0  0  0  0
 15 16  2  0  0  0  0
 15 39  1  0  0  0  0
 16 17  1  0  0  0  0
 16 40  1  0  0  0  0
 17 18  1  0  0  0  0
 18 41  1  0  0  0  0
 18 42  1  0  0  0  0
 18 43  1  0  0  0  0
M  CHG  1  10   1
M  CHG  1  14   1
M  END
> <s_m_source_file>
AV-unprocessed.smi

> <i_m_source_file_index>
3284

> <i_lp_mmshare_version>
43012

> <i_f3d_flags>
0

> <s_epik_input>
W0NIM11DMT1bQ0hdW0NIMl1bQ0gyXVtDQEBIXShbQ0gzXSlbQ0BIXTFbQ0gyXVtOSF1bQ0gyXVtDSDJdYzJuW2NIXVtjSF1uMltDSDNd

> <s_epik_cmdline>
J2VwaWtfcHl0aG9uJywgJy1waCcsICc3LjAnLCAnLXRuJywgJzgnLCAnLW1hJywgJzIwMCcsICctbWV0YWxfYmluZGluZycsICctaW1hZScsICc8aW5maWxlLm1hZT4nLCAnLW9tYWUnLCAnPG91dGZpbGUubWFlPic=

> <r_lp_tautomer_probability>
1

> <r_epik_Ionization_Penalty>
0.892846

> <r_epik_Ionization_Penalty_Charging>
0.00275802

> <r_epik_Ionization_Penalty_Neutral>
0.890088

> <r_epik_State_Penalty>
0.485211

> <r_epik_Charging_Adjusted_Penalty>
0.487969

> <i_epik_Tot_Q>
2

> <i_epik_Tot_abs_Q>
2

> <r_epik_Metal_State_Penalty>
4.22898

> <b_epik_Metal_Only>
0

> <s_lp_Force_Field>
OPLS_2005

> <r_lp_Energy>
25.5845

> <b_lp_Chiralities_Consistent>
1

> <s_lp_Variant>
AV-unprocessed.smi:3284-5

> <Gold.Version>
5.8.1

> <Gold.Id.Protein>
6NUR|6NUR_protein|mol2

> <Gold.PLP.Fitness>
52.0440

> <Gold.PLP.PLP>
-37.0957

> <Gold.PLP.part.hbond>
-2.8506

> <Gold.PLP.part.metal>
0.0000

> <Gold.PLP.part.buried>
-4.9479

> <Gold.PLP.part.nonpolar>
-30.3771

> <Gold.PLP.part.repulsive>
0.1534

> <Gold.PLP.ligand.clash>
0.0000

> <Gold.PLP.ligand.torsion>
1.4521

> <Gold.PLP.Chemscore.Hbond>
4.9425

> <Gold.PLP.Chemscore.CHOScore>
0.9998

> <Gold.PLP.Chemscore.Metal>
0.0000

> <Gold.Chemscore.Hbonds>
donor molecule, donor type, donor heavy atom, donor atom, acceptor molecule, acceptor atom, score
      L1  H    10    34       P1  7957  1.00
      L1  H    10    44       P1  7948  1.92
      L1  H    14    45       P1  7948  2.00

> <Gold.PLP.Chemscore.Internal.Correction>
0.0258

> <Gold.Rescore>
     Score         DG    S(hbond)    S(metal)    S(lipo)     H(rot)  DE(clash)    DE(int)     intcor
     18.73     -20.02       2.97        0.00      76.63       1.70       0.01       1.28       ----

> <Gold.Chemscore.Fitness>
18.7260

> <Gold.Chemscore.DG>
-20.0183

> <Gold.Chemscore.ZeroCoef>
-5.4800

> <Gold.Chemscore.Hbond>
2.9712

> <Gold.Chemscore.Metal>
0.0000

> <Gold.Chemscore.Lipo>
76.6290

> <Gold.Chemscore.Internal_Hbond>
0.0000

> <Gold.Chemscore.DEClash>
0.0111

> <Gold.Chemscore.DEInternal>
1.2813

> <Gold.Chemscore.Rot>
1.6997

> <Gold.Chemscore.Internal.Correction>
   9.000000E+99

> <Gold.Chemscore.Hbonds>
donor molecule, donor type, donor heavy atom, donor atom, acceptor molecule, acceptor atom, score
      L1  H    10    34       P1  7957  1.00
      L1  H    10    44       P1  7948  0.92
      L1  H    14    45       P1  7948  1.00

> <Gold.Chemscore.Hbond.Weighted>
-9.9240

> <Gold.Chemscore.Metal.Weighted>
-0.0000

> <Gold.Chemscore.Lipo.Weighted>
-8.9656

> <Gold.Chemscore.Internal_Hbond.Weighted>
0.0000

> <Gold.Chemscore.DEClash.Weighted>
0.0111

> <Gold.Chemscore.DEInternal.Weighted>
1.2813

> <Gold.Chemscore.Rot.Weighted>
4.3512

> <Gold.Chemscore.Internal.Correction.Weighted>
   9.000000E+99

> <Gold.Protein.RotatedTorsions>
[ 6907 6896 6895 6894 ] final  -35.99 input  -60.11 | X-H torsion
[ 7974 7965 7964 7962 ] final  -91.00 input  175.53 | X-H torsion
[ 8008 7997 7996 7995 ] final   63.64 input   59.86 | X-H torsion
[ 10167 10162 10161 10158 ] final  -35.98 input  -65.29 | X-H torsion
[ 10718 10713 10712 10709 ] final  -97.34 input   66.30 | X-H torsion
[ 10763 10752 10751 10750 ] final  -62.08 input  -60.55 | X-H torsion
[ 11005 11000 10999 10996 ] final  -20.50 input  -57.11 | X-H torsion

> <Gold.Protein.ActiveResidues>
 VAL166  LYS551  ARG553  GLY616  TRP617  ASP618  TYR619  PRO620  LYS621  CYS622 
 ASP623  PHE694  ASN695  SER759  ASP760  ASP761  ALA762  ILE779  LEU786  VAL792 
 PHE793  MET794  SER795  GLU796  ALA797  LYS798  CYS799  TRP800  GLU811  SER814 

> <Gold.Protein.RotatedAtoms>
  151.0328  134.9551  159.8119 H   0  0  0  0  0  0  0  0  0  0  0  0  # atno 6907 bound_to 6896
  152.5349  134.2758  159.8999 H   0  0  0  0  0  0  0  0  0  0  0  0  # atno 6908 bound_to 6896
  151.2768  133.4186  159.2658 H   0  0  0  0  0  0  0  0  0  0  0  0  # atno 6909 bound_to 6896
  145.4189  140.9550  143.2192 H   0  0  0  0  0  0  0  0  0  0  0  0  # atno 7974 bound_to 7965
  155.6335  140.3496  155.4691 H   0  0  0  0  0  0  0  0  0  0  0  0  # atno 8008 bound_to 7997
  155.9984  140.1208  157.0595 H   0  0  0  0  0  0  0  0  0  0  0  0  # atno 8009 bound_to 7997
  154.4241  140.1105  156.5648 H   0  0  0  0  0  0  0  0  0  0  0  0  # atno 8010 bound_to 7997
  140.7153  143.3439  151.2297 H   0  0  0  0  0  0  0  0  0  0  0  0  # atno 10167 bound_to 10162
  156.0081  130.5190  150.6360 H   0  0  0  0  0  0  0  0  0  0  0  0  # atno 10718 bound_to 10713
  154.2944  135.6247  153.5398 H   0  0  0  0  0  0  0  0  0  0  0  0  # atno 10763 bound_to 10752
  152.9848  135.5663  154.5354 H   0  0  0  0  0  0  0  0  0  0  0  0  # atno 10764 bound_to 10752
  154.4972  135.2870  155.1426 H   0  0  0  0  0  0  0  0  0  0  0  0  # atno 10765 bound_to 10752
  140.8470  133.7884  155.9924 H   0  0  0  0  0  0  0  0  0  0  0  0  # atno 11005 bound_to 11000
  144.8258  139.5712  143.6966 LP  0  0  0  0  0  0  0  0  0  0  0  0  # atno 17320 bound_to 7965
  146.2667  139.6536  142.9325 LP  0  0  0  0  0  0  0  0  0  0  0  0  # atno 17321 bound_to 7965
  139.6954  143.9622  152.2880 LP  0  0  0  0  0  0  0  0  0  0  0  0  # atno 17342 bound_to 10162
  139.9297  144.6749  150.8375 LP  0  0  0  0  0  0  0  0  0  0  0  0  # atno 17343 bound_to 10162
  157.4149  131.0829  151.1186 LP  0  0  0  0  0  0  0  0  0  0  0  0  # atno 17370 bound_to 10713
  157.1806  130.6307  149.5670 LP  0  0  0  0  0  0  0  0  0  0  0  0  # atno 17371 bound_to 10713
  140.8832  134.2586  157.5133 LP  0  0  0  0  0  0  0  0  0  0  0  0  # atno 17394 bound_to 11000
  139.8703  134.9625  156.4432 LP  0  0  0  0  0  0  0  0  0  0  0  0  # atno 17395 bound_to 11000

$$$$
