#       Name:                AV-unprocessed.smi:1260
#       Creating user name   scv26
#       Creation time:       Fri Mar 27 04:41:44 2020


#       File generated by GOLD software.
#

@<TRIPOS>MOLECULE
AV-unprocessed.smi:1260
    42    44     1
SMALL
NO_CHARGES


@<TRIPOS>ATOM
      1 ****         0.0357   3.0418  -0.2205 O.2            1 S1                 0.0000
      2 ****         0.8348   2.2640   0.2991 C.2            1 S1                 0.0000
      3 ****         2.2933   2.6871   0.4944 C.3            1 S1                 0.0000
      4 ****         2.7096   2.5726   1.8809 N.pl3          1 S1                 0.0000
      5 ****         3.4741   1.6668   2.4942 C.2            1 S1                 0.0000
      6 ****         3.5990   1.9265   3.7865 N.2            1 S1                 0.0000
      7 ****         2.8537   3.0824   3.9488 N.2            1 S1                 0.0000
      8 ****         2.3254   3.4720   2.8212 N.2            1 S1                 0.0000
      9 ****         0.5013   1.0266   0.7019 N.am           1 S1                 0.0000
     10 ****        -0.8409   0.4509   0.6415 C.3            1 S1                 0.0000
     11 ****        -1.0921  -0.5943   1.7454 C.3            1 S1                 0.0000
     12 ****        -1.8682  -1.7171   1.0492 C.3            1 S1                 0.0000
     13 ****        -1.3278  -1.6944  -0.3152 N.4            1 S1                 1.0000
     14 ****        -2.0156  -2.4802  -1.3596 C.3            1 S1                 0.0000
     15 ****        -1.1586  -2.4411  -2.6433 C.3            1 S1                 0.0000
     16 ****        -0.7987  -0.9977  -3.0632 C.3            1 S1                 0.0000
     17 ****        -0.2033  -0.1895  -1.8898 C.3            1 S1                 0.0000
     18 ****        -1.1583  -0.2786  -0.6858 C.3            1 S1                 0.0000
     19 ****         2.9396   2.0622  -0.1231 H              1 S1                 0.0000
     20 ****         2.4339   3.7188   0.1683 H              1 S1                 0.0000
     21 ****         3.9305   0.8216   1.9999 H              1 S1                 0.0000
     22 ****         1.2240   0.4546   1.1143 H              1 S1                 0.0000
     23 ****        -1.5713   1.2522   0.7725 H              1 S1                 0.0000
     24 ****        -0.1451  -0.9894   2.1165 H              1 S1                 0.0000
     25 ****        -1.6317  -0.1824   2.5990 H              1 S1                 0.0000
     26 ****        -1.7282  -2.6864   1.5287 H              1 S1                 0.0000
     27 ****        -2.9356  -1.4908   1.0275 H              1 S1                 0.0000
     28 ****        -2.1429  -3.5096  -1.0230 H              1 S1                 0.0000
     29 ****        -3.0112  -2.0732  -1.5427 H              1 S1                 0.0000
     30 ****        -0.2377  -3.0010  -2.4745 H              1 S1                 0.0000
     31 ****        -1.6797  -2.9479  -3.4559 H              1 S1                 0.0000
     32 ****        -0.0997  -1.0135  -3.8998 H              1 S1                 0.0000
     33 ****        -1.6974  -0.4966  -3.4253 H              1 S1                 0.0000
     34 ****         0.7801  -0.5813  -1.6265 H              1 S1                 0.0000
     35 ****        -0.0635   0.8485  -2.1930 H              1 S1                 0.0000
     36 ****        -2.1336   0.0924  -1.0087 H              1 S1                 0.0000
     37 ****        -0.3954  -2.0752  -0.2398 H              1 S1                 0.0000
     38 ****         0.3392   3.9482  -0.5143 LP             1 S1                 0.0000
     39 ****        -0.9173   2.7676  -0.3491 LP             1 S1                 0.0000
     40 ****         4.1078   1.4128   4.4774 LP             1 S1                 0.0000
     41 ****         2.7354   3.5584   4.8203 LP             1 S1                 0.0000
     42 ****         1.7495   4.2768   2.6779 LP             1 S1                 0.0000
@<TRIPOS>BOND
    1    1    2 2     
    2    2    3 1     
    3    2    9 am    
    4    3    4 1     
    5    3   19 1     
    6    3   20 1     
    7    4    8 1     
    8    4    5 1     
    9    5    6 2     
   10    5   21 1     
   11    6    7 1     
   12    7    8 2     
   13    9   10 1     
   14    9   22 1     
   15   10   18 1     
   16   10   11 1     
   17   10   23 1     
   18   11   12 1     
   19   11   24 1     
   20   11   25 1     
   21   12   13 1     
   22   12   26 1     
   23   12   27 1     
   24   13   18 1     
   25   13   14 1     
   26   13   37 1     
   27   14   15 1     
   28   14   28 1     
   29   14   29 1     
   30   15   16 1     
   31   15   30 1     
   32   15   31 1     
   33   16   17 1     
   34   16   32 1     
   35   16   33 1     
   36   17   18 1     
   37   17   34 1     
   38   17   35 1     
   39   18   36 1     
   40    1   38 1     
   41    1   39 1     
   42    6   40 1     
   43    7   41 1     
   44    8   42 1     
@<TRIPOS>SUBSTRUCTURE
      1 S1             1
@<TRIPOS>SET
LONE_PAIRS      STATIC     ATOMS    <user>   **** ""
5 38 39 40 41 42
DONOR_HYDROGENS      STATIC     ATOMS    <user>   **** ""
2 22 37
ATOM$BLUE        STATIC     ATOMS    COLORGROUP SYSTEM
5 38 39 40 41 42
ATOM$RED        STATIC     ATOMS    COLORGROUP SYSTEM
2 22 37
