AV-unprocessed.smi:757|AV-procd|sdf|3614|dock4
  -GOLD-   22720 1 13D 1   1.00000     0.00000
 Structure written by MMmdl.
 45 46  0  0  0  0  0  0  0  0  2 V2000
  144.0528  132.4481  149.8536 C   0  0  0  0  0  0  0  0  0  0  0  0
  144.7681  133.2567  150.4239 C   0  0  0  0  0  0  0  0  0  0  0  0
  145.6337  134.2384  151.0975 C   0  0  0  0  0  0  0  0  0  0  0  0
  145.0685  135.6699  151.0558 C   0  0  0  0  0  0  0  0  0  0  0  0
  146.0121  136.6701  151.6162 N   0  3  2  0  0  0  0  0  0  0  0  0
  145.9223  136.7546  153.0972 C   0  0  0  0  0  0  0  0  0  0  0  0
  146.9976  137.6926  153.6707 C   0  0  0  0  0  0  0  0  0  0  0  0
  146.8991  139.0943  153.0488 C   0  0  1  0  0  0  0  0  0  0  0  0
  147.9749  139.9422  153.5551 N   0  0  0  0  0  0  0  0  0  0  0  0
  148.1650  140.2561  154.8450 C   0  0  0  0  0  0  0  0  0  0  0  0
  147.4251  139.8712  155.7501 O   0  0  0  0  0  0  0  0  0  0  0  0
  149.2402  141.0477  155.0006 N   0  0  0  0  0  0  0  0  0  0  0  0
  149.7935  141.5671  156.2029 C   0  0  0  0  0  0  0  0  0  0  0  0
  151.0820  142.1443  156.3059 C   0  0  0  0  0  0  0  0  0  0  0  0
  151.5077  142.6414  157.5526 C   0  0  0  0  0  0  0  0  0  0  0  0
  150.6345  142.5571  158.6550 C   0  0  0  0  0  0  0  0  0  0  0  0
  151.0595  143.0486  159.8722 O   0  0  0  0  0  0  0  0  0  0  0  0
  152.1898  143.9135  159.8945 C   0  0  0  0  0  0  0  0  0  0  0  0
  149.3944  142.0167  158.5614 N   0  0  0  0  0  0  0  0  0  0  0  0
  148.9930  141.5412  157.3638 C   0  0  0  0  0  0  0  0  0  0  0  0
  146.9620  138.9782  151.5150 C   0  0  0  0  0  0  0  0  0  0  0  0
  145.8882  138.0122  150.9868 C   0  0  0  0  0  0  0  0  0  0  0  0
  143.4247  131.7435  149.3559 H   0  0  0  0  0  0  0  0  0  0  0  0
  145.7601  133.9091  152.1294 H   0  0  0  0  0  0  0  0  0  0  0  0
  146.6104  134.1813  150.6183 H   0  0  0  0  0  0  0  0  0  0  0  0
  144.7912  135.9521  150.0385 H   0  0  0  0  0  0  0  0  0  0  0  0
  144.1481  135.6890  151.6423 H   0  0  0  0  0  0  0  0  0  0  0  0
  144.9279  137.1014  153.3837 H   0  0  0  0  0  0  0  0  0  0  0  0
  146.0488  135.7624  153.5325 H   0  0  0  0  0  0  0  0  0  0  0  0
  146.8902  137.7553  154.7544 H   0  0  0  0  0  0  0  0  0  0  0  0
  147.9853  137.2691  153.4813 H   0  0  0  0  0  0  0  0  0  0  0  0
  145.9391  139.5291  153.3349 H   0  0  0  0  0  0  0  0  0  0  0  0
  148.6280  140.3066  152.8768 H   0  0  0  0  0  0  0  0  0  0  0  0
  149.6976  141.3477  154.1520 H   0  0  0  0  0  0  0  0  0  0  0  0
  151.7447  142.2298  155.4590 H   0  0  0  0  0  0  0  0  0  0  0  0
  152.4863  143.0853  157.6595 H   0  0  0  0  0  0  0  0  0  0  0  0
  152.3938  144.2137  160.9221 H   0  0  0  0  0  0  0  0  0  0  0  0
  152.0108  144.8203  159.3151 H   0  0  0  0  0  0  0  0  0  0  0  0
  153.0814  143.4137  159.5131 H   0  0  0  0  0  0  0  0  0  0  0  0
  147.9977  141.1220  157.3340 H   0  0  0  0  0  0  0  0  0  0  0  0
  146.8272  139.9583  151.0558 H   0  0  0  0  0  0  0  0  0  0  0  0
  147.9486  138.6272  151.2086 H   0  0  0  0  0  0  0  0  0  0  0  0
  145.9899  137.9362  149.9049 H   0  0  0  0  0  0  0  0  0  0  0  0
  144.8936  138.4163  151.1823 H   0  0  0  0  0  0  0  0  0  0  0  0
  146.9410  136.3315  151.4096 H   0  0  0  0  0  0  0  0  0  0  0  0
  1  2  3  0  0  0  0
  1 23  1  0  0  0  0
  2  3  1  0  0  0  0
  3  4  1  0  0  0  0
  3 24  1  0  0  0  0
  3 25  1  0  0  0  0
  4  5  1  0  0  0  0
  4 26  1  0  0  0  0
  4 27  1  0  0  0  0
  5 22  1  0  0  0  0
  5  6  1  0  0  0  0
  5 45  1  0  0  0  0
  6  7  1  0  0  0  0
  6 28  1  0  0  0  0
  6 29  1  0  0  0  0
  7  8  1  0  0  0  0
  7 30  1  0  0  0  0
  7 31  1  0  0  0  0
  8  9  1  0  0  0  0
  8 21  1  0  0  0  0
  8 32  1  0  0  0  0
  9 10  1  0  0  0  0
  9 33  1  0  0  0  0
 10 11  2  0  0  0  0
 10 12  1  0  0  0  0
 12 13  1  0  0  0  0
 12 34  1  0  0  0  0
 13 20  1  0  0  0  0
 13 14  2  0  0  0  0
 14 15  1  0  0  0  0
 14 35  1  0  0  0  0
 15 16  2  0  0  0  0
 15 36  1  0  0  0  0
 16 17  1  0  0  0  0
 16 19  1  0  0  0  0
 17 18  1  0  0  0  0
 18 37  1  0  0  0  0
 18 38  1  0  0  0  0
 18 39  1  0  0  0  0
 19 20  2  0  0  0  0
 20 40  1  0  0  0  0
 21 22  1  0  0  0  0
 21 41  1  0  0  0  0
 21 42  1  0  0  0  0
 22 43  1  0  0  0  0
 22 44  1  0  0  0  0
M  CHG  1   5   1
M  END
> <s_m_source_file>
AV-unprocessed.smi

> <i_m_source_file_index>
757

> <i_lp_mmshare_version>
43012

> <i_f3d_flags>
0

> <s_epik_input>
W0NIXSNDW0NIMl1bQ0gyXU4xW0NIMl1bQ0gyXVtDSF0oW0NIMl1bQ0gyXTEpW05IXUMoPU8pW05IXWMyW2NIXVtjSF1jKE9bQ0gzXSluW2NIXTI=

> <s_epik_cmdline>
J2VwaWtfcHl0aG9uJywgJy1waCcsICc3LjAnLCAnLXRuJywgJzgnLCAnLW1hJywgJzIwMCcsICctbWV0YWxfYmluZGluZycsICctaW1hZScsICc8aW5maWxlLm1hZT4nLCAnLW9tYWUnLCAnPG91dGZpbGUubWFlPic=

> <r_lp_tautomer_probability>
1

> <r_epik_Ionization_Penalty>
0.0402573

> <r_epik_Ionization_Penalty_Charging>
0.0401786

> <r_epik_Ionization_Penalty_Neutral>
7.86509e-05

> <r_epik_State_Penalty>
0.0338029

> <r_epik_Charging_Adjusted_Penalty>
0.0739815

> <i_epik_Tot_Q>
1

> <i_epik_Tot_abs_Q>
1

> <r_epik_Metal_State_Penalty>
0.0338035

> <b_epik_Metal_Only>
0

> <s_lp_Force_Field>
OPLS_2005

> <r_lp_Energy>
20.3265

> <b_lp_Chiralities_Consistent>
1

> <s_lp_Variant>
AV-unprocessed.smi:757-1

> <Gold.Version>
5.8.1

> <Gold.Id.Protein>
6NUR|6NUR_protein|mol2

> <Gold.PLP.Fitness>
43.4020

> <Gold.PLP.PLP>
-35.6663

> <Gold.PLP.part.hbond>
-3.0543

> <Gold.PLP.part.metal>
0.0000

> <Gold.PLP.part.buried>
2.8458

> <Gold.PLP.part.nonpolar>
-34.6292

> <Gold.PLP.part.repulsive>
0.4091

> <Gold.PLP.ligand.clash>
0.0000

> <Gold.PLP.ligand.torsion>
0.5898

> <Gold.PLP.Chemscore.Hbond>
2.9600

> <Gold.PLP.Chemscore.CHOScore>
0.0000

> <Gold.PLP.Chemscore.Metal>
0.0000

> <Gold.Chemscore.Hbonds>
donor molecule, donor type, donor heavy atom, donor atom, acceptor molecule, acceptor atom, score
      L1  H     5    45       P1  7948  2.00
      L1  H     9    33       P1  7957  0.96

> <Gold.PLP.Chemscore.Internal.Correction>
0.0352

> <Gold.Rescore>
     Score         DG    S(hbond)    S(metal)    S(lipo)     H(rot)  DE(clash)    DE(int)     intcor
     15.01     -20.06       1.88        0.00     105.63       1.59       3.01       2.04       ----

> <Gold.Chemscore.Fitness>
15.0077

> <Gold.Chemscore.DG>
-20.0617

> <Gold.Chemscore.ZeroCoef>
-5.4800

> <Gold.Chemscore.Hbond>
1.8827

> <Gold.Chemscore.Metal>
0.0000

> <Gold.Chemscore.Lipo>
105.6274

> <Gold.Chemscore.Internal_Hbond>
0.0000

> <Gold.Chemscore.DEClash>
3.0144

> <Gold.Chemscore.DEInternal>
2.0396

> <Gold.Chemscore.Rot>
1.5879

> <Gold.Chemscore.Internal.Correction>
   9.000000E+99

> <Gold.Chemscore.Hbonds>
donor molecule, donor type, donor heavy atom, donor atom, acceptor molecule, acceptor atom, score
      L1  H     5    45       P1  7948  0.90
      L1  H     9    33       P1  7957  0.89

> <Gold.Chemscore.Hbond.Weighted>
-6.2882

> <Gold.Chemscore.Metal.Weighted>
-0.0000

> <Gold.Chemscore.Lipo.Weighted>
-12.3584

> <Gold.Chemscore.Internal_Hbond.Weighted>
0.0000

> <Gold.Chemscore.DEClash.Weighted>
3.0144

> <Gold.Chemscore.DEInternal.Weighted>
2.0396

> <Gold.Chemscore.Rot.Weighted>
4.0649

> <Gold.Chemscore.Internal.Correction.Weighted>
   9.000000E+99

> <Gold.Protein.RotatedTorsions>
[ 6907 6896 6895 6894 ] final   14.80 input  -60.11 | X-H torsion
[ 7974 7965 7964 7962 ] final  -59.02 input  175.53 | X-H torsion
[ 8008 7997 7996 7995 ] final  140.97 input   59.86 | X-H torsion
[ 10167 10162 10161 10158 ] final   39.94 input  -65.29 | X-H torsion
[ 10718 10713 10712 10709 ] final  139.90 input   66.30 | X-H torsion
[ 10763 10752 10751 10750 ] final   18.56 input  -60.55 | X-H torsion
[ 11005 11000 10999 10996 ] final  163.86 input  -57.11 | X-H torsion

> <Gold.Protein.ActiveResidues>
 VAL166  LYS551  ARG553  GLY616  TRP617  ASP618  TYR619  PRO620  LYS621  CYS622 
 ASP623  PHE694  ASN695  SER759  ASP760  ASP761  ALA762  ILE779  LEU786  VAL792 
 PHE793  MET794  SER795  GLU796  ALA797  LYS798  CYS799  TRP800  GLU811  SER814 

> <Gold.Protein.RotatedAtoms>
  151.8079  135.0689  160.0408 H   0  0  0  0  0  0  0  0  0  0  0  0  # atno 6907 bound_to 6896
  152.3042  133.5681  159.5646 H   0  0  0  0  0  0  0  0  0  0  0  0  # atno 6908 bound_to 6896
  150.7288  134.0164  159.3728 H   0  0  0  0  0  0  0  0  0  0  0  0  # atno 6909 bound_to 6896
  145.8324  140.8471  143.0077 H   0  0  0  0  0  0  0  0  0  0  0  0  # atno 7974 bound_to 7965
  156.2972  140.2327  156.4488 H   0  0  0  0  0  0  0  0  0  0  0  0  # atno 8008 bound_to 7997
  154.8120  140.0442  157.1370 H   0  0  0  0  0  0  0  0  0  0  0  0  # atno 8009 bound_to 7997
  154.9412  140.3029  155.5123 H   0  0  0  0  0  0  0  0  0  0  0  0  # atno 8010 bound_to 7997
  140.3791  144.2004  150.6131 H   0  0  0  0  0  0  0  0  0  0  0  0  # atno 10167 bound_to 10162
  157.4092  131.1026  151.0472 H   0  0  0  0  0  0  0  0  0  0  0  0  # atno 10718 bound_to 10713
  153.1238  135.6725  153.9290 H   0  0  0  0  0  0  0  0  0  0  0  0  # atno 10763 bound_to 10752
  153.8798  135.3059  155.3446 H   0  0  0  0  0  0  0  0  0  0  0  0  # atno 10764 bound_to 10752
  154.7646  135.4970  153.9610 H   0  0  0  0  0  0  0  0  0  0  0  0  # atno 10765 bound_to 10752
  140.2401  134.8057  157.3402 H   0  0  0  0  0  0  0  0  0  0  0  0  # atno 11005 bound_to 11000
  144.6739  140.0692  143.7473 LP  0  0  0  0  0  0  0  0  0  0  0  0  # atno 17320 bound_to 7965
  145.9556  139.2764  143.1186 LP  0  0  0  0  0  0  0  0  0  0  0  0  # atno 17321 bound_to 7965
  140.4956  143.2333  151.8754 LP  0  0  0  0  0  0  0  0  0  0  0  0  # atno 17342 bound_to 10162
  139.4797  144.5117  151.8923 LP  0  0  0  0  0  0  0  0  0  0  0  0  # atno 17343 bound_to 10162
  157.1442  130.6156  149.5564 LP  0  0  0  0  0  0  0  0  0  0  0  0  # atno 17370 bound_to 10713
  155.9845  130.4871  150.6988 LP  0  0  0  0  0  0  0  0  0  0  0  0  # atno 17371 bound_to 10713
  140.1662  134.4666  155.7861 LP  0  0  0  0  0  0  0  0  0  0  0  0  # atno 17394 bound_to 11000
  141.2211  133.6922  156.7629 LP  0  0  0  0  0  0  0  0  0  0  0  0  # atno 17395 bound_to 11000

$$$$
