AV-unprocessed.smi:1290|AV-procd|sdf|5389|dock3
  -GOLD-   22720 4543D 1   1.00000     0.00000
 Structure written by MMmdl.
 38 40  0  0  0  0  0  0  0  0  1 V2000
  145.0202  135.3811  155.3574 C   0  0  0  0  0  0  0  0  0  0  0  0
  145.4393  136.2534  154.2443 N   0  0  0  0  0  0  0  0  0  0  0  0
  145.9204  137.5008  154.5446 C   0  0  0  0  0  0  0  0  0  0  0  0
  146.0345  137.9596  155.6821 O   0  0  0  0  0  0  0  0  0  0  0  0
  146.3040  138.2860  153.3684 C   0  0  0  0  0  0  0  0  0  0  0  0
  146.1952  137.8199  152.1014 C   0  0  0  0  0  0  0  0  0  0  0  0
  146.6254  138.7639  151.1756 N   0  0  0  0  0  0  0  0  0  0  0  0
  146.9801  139.7817  151.9616 C   0  0  0  0  0  0  0  0  0  0  0  0
  146.8178  139.5781  153.2852 N   0  0  0  0  0  0  0  0  0  0  0  0
  147.1239  140.5210  154.3500 C   0  0  0  0  0  0  0  0  0  0  0  0
  147.1964  141.9788  153.8531 C   0  0  2  0  0  0  0  0  0  0  0  0
  148.4656  142.5281  154.1526 O   0  0  0  0  0  0  0  0  0  0  0  0
  146.0584  142.8111  154.4232 C   0  0  0  0  0  0  0  0  0  0  0  0
  145.7749  142.7619  155.8049 C   0  0  0  0  0  0  0  0  0  0  0  0
  144.7288  143.5365  156.3433 C   0  0  0  0  0  0  0  0  0  0  0  0
  143.9618  144.3671  155.5032 C   0  0  0  0  0  0  0  0  0  0  0  0
  142.6806  145.3162  156.1627 Cl  0  0  0  0  0  0  0  0  0  0  0  0
  144.2428  144.4236  154.1244 C   0  0  0  0  0  0  0  0  0  0  0  0
  145.2886  143.6491  153.5860 C   0  0  0  0  0  0  0  0  0  0  0  0
  145.6861  136.5130  151.9001 N   0  0  0  0  0  0  0  0  0  0  0  0
  145.5824  136.0421  150.5158 C   0  0  0  0  0  0  0  0  0  0  0  0
  145.3069  135.7340  152.9668 C   0  0  0  0  0  0  0  0  0  0  0  0
  144.8581  134.5982  152.7892 O   0  0  0  0  0  0  0  0  0  0  0  0
  145.1612  135.8056  156.3519 H   0  0  0  0  0  0  0  0  0  0  0  0
  145.5805  134.4448  155.3407 H   0  0  0  0  0  0  0  0  0  0  0  0
  143.9599  135.1385  155.2697 H   0  0  0  0  0  0  0  0  0  0  0  0
  147.3673  140.7076  151.5621 H   0  0  0  0  0  0  0  0  0  0  0  0
  146.3688  140.4186  155.1298 H   0  0  0  0  0  0  0  0  0  0  0  0
  148.0718  140.2311  154.8061 H   0  0  0  0  0  0  0  0  0  0  0  0
  147.1090  141.9877  152.7663 H   0  0  0  0  0  0  0  0  0  0  0  0
  148.3525  143.2047  154.8027 H   0  0  0  0  0  0  0  0  0  0  0  0
  146.3601  142.1307  156.4579 H   0  0  0  0  0  0  0  0  0  0  0  0
  144.5167  143.4930  157.4016 H   0  0  0  0  0  0  0  0  0  0  0  0
  143.6580  145.0614  153.4779 H   0  0  0  0  0  0  0  0  0  0  0  0
  145.4991  143.7029  152.5277 H   0  0  0  0  0  0  0  0  0  0  0  0
  145.1814  135.0337  150.4108 H   0  0  0  0  0  0  0  0  0  0  0  0
  146.5667  136.0495  150.0464 H   0  0  0  0  0  0  0  0  0  0  0  0
  144.9354  136.7085  149.9446 H   0  0  0  0  0  0  0  0  0  0  0  0
  1  2  1  0  0  0  0
  1 24  1  0  0  0  0
  1 25  1  0  0  0  0
  1 26  1  0  0  0  0
  2 22  1  0  0  0  0
  2  3  1  0  0  0  0
  3  4  2  0  0  0  0
  3  5  1  0  0  0  0
  5  9  1  0  0  0  0
  5  6  2  0  0  0  0
  6  7  1  0  0  0  0
  6 20  1  0  0  0  0
  7  8  2  0  0  0  0
  8  9  1  0  0  0  0
  8 27  1  0  0  0  0
  9 10  1  0  0  0  0
 10 11  1  0  0  0  0
 10 28  1  0  0  0  0
 10 29  1  0  0  0  0
 11 12  1  0  0  0  0
 11 13  1  0  0  0  0
 11 30  1  0  0  0  0
 12 31  1  0  0  0  0
 13 19  1  0  0  0  0
 13 14  2  0  0  0  0
 14 15  1  0  0  0  0
 14 32  1  0  0  0  0
 15 16  2  0  0  0  0
 15 33  1  0  0  0  0
 16 17  1  0  0  0  0
 16 18  1  0  0  0  0
 18 19  2  0  0  0  0
 18 34  1  0  0  0  0
 19 35  1  0  0  0  0
 20 21  1  0  0  0  0
 20 22  1  0  0  0  0
 21 36  1  0  0  0  0
 21 37  1  0  0  0  0
 21 38  1  0  0  0  0
 22 23  2  0  0  0  0
M  END
> <s_m_source_file>
AV-unprocessed.smi

> <i_m_source_file_index>
1290

> <i_lp_mmshare_version>
43012

> <i_f3d_flags>
0

> <s_epik_input>
Tz1jMW4oW0NIM10pYyg9TyluKFtDSDNdKWMoYzEyKW5bY0hdbjJbQ0gyXVtDQEhdKFtPSF0pYzNbY0hdW2NIXWMoQ2wpW2NIXVtjSF0z

> <s_epik_cmdline>
J2VwaWtfcHl0aG9uJywgJy1waCcsICc3LjAnLCAnLXRuJywgJzgnLCAnLW1hJywgJzIwMCcsICctbWV0YWxfYmluZGluZycsICctaW1hZScsICc8aW5maWxlLm1hZT4nLCAnLW9tYWUnLCAnPG91dGZpbGUubWFlPic=

> <r_lp_tautomer_probability>
1

> <r_epik_Ionization_Penalty>
1.48293e-06

> <r_epik_Ionization_Penalty_Charging>
3.74189e-09

> <r_epik_Ionization_Penalty_Neutral>
1.47919e-06

> <r_epik_State_Penalty>
-0

> <r_epik_Charging_Adjusted_Penalty>
3.74189e-09

> <i_epik_Tot_Q>
0

> <i_epik_Tot_abs_Q>
0

> <r_epik_Metal_State_Penalty>
-0

> <b_epik_Metal_Only>
0

> <s_lp_Force_Field>
OPLS_2005

> <r_lp_Energy>
35.4502

> <b_lp_Chiralities_Consistent>
1

> <s_lp_Variant>
AV-unprocessed.smi:1290-1

> <Gold.Version>
5.8.1

> <Gold.Id.Protein>
6NUR|6NUR_protein|mol2

> <Gold.PLP.Fitness>
42.9735

> <Gold.PLP.PLP>
-37.6289

> <Gold.PLP.part.hbond>
-3.0000

> <Gold.PLP.part.metal>
0.0000

> <Gold.PLP.part.buried>
-1.8089

> <Gold.PLP.part.nonpolar>
-33.0246

> <Gold.PLP.part.repulsive>
0.7949

> <Gold.PLP.ligand.clash>
0.0000

> <Gold.PLP.ligand.torsion>
1.3551

> <Gold.PLP.Chemscore.Hbond>
2.1453

> <Gold.PLP.Chemscore.CHOScore>
0.5302

> <Gold.PLP.Chemscore.Metal>
0.0000

> <Gold.Chemscore.Hbonds>
donor molecule, donor type, donor heavy atom, donor atom, acceptor molecule, acceptor atom, score
      L1  H    12    31       P1  8028  1.00
      P1  H  7954  7966       L1     7  0.59
      P1  H  8011  8017       L1    12  0.06
      L1  C     8    27       P1  7957  0.40

> <Gold.PLP.Chemscore.Internal.Correction>
0.0281

> <Gold.Rescore>
     Score         DG    S(hbond)    S(metal)    S(lipo)     H(rot)  DE(clash)    DE(int)     intcor
     10.80     -14.11       1.92        0.00      65.91       2.15       1.85       1.46       ----

> <Gold.Chemscore.Fitness>
10.8029

> <Gold.Chemscore.DG>
-14.1068

> <Gold.Chemscore.ZeroCoef>
-5.4800

> <Gold.Chemscore.Hbond>
1.9198

> <Gold.Chemscore.Metal>
0.0000

> <Gold.Chemscore.Lipo>
65.9147

> <Gold.Chemscore.Internal_Hbond>
0.0000

> <Gold.Chemscore.DEClash>
1.8454

> <Gold.Chemscore.DEInternal>
1.4585

> <Gold.Chemscore.Rot>
2.1474

> <Gold.Chemscore.Internal.Correction>
   9.000000E+99

> <Gold.Chemscore.Hbonds>
donor molecule, donor type, donor heavy atom, donor atom, acceptor molecule, acceptor atom, score
      L1  H    12    31       P1  8028  0.96
      P1  H  7954  7966       L1     7  0.40
      P1  H  8011  8017       L1    12  0.05

> <Gold.Chemscore.Hbond.Weighted>
-6.4121

> <Gold.Chemscore.Metal.Weighted>
-0.0000

> <Gold.Chemscore.Lipo.Weighted>
-7.7120

> <Gold.Chemscore.Internal_Hbond.Weighted>
0.0000

> <Gold.Chemscore.DEClash.Weighted>
1.8454

> <Gold.Chemscore.DEInternal.Weighted>
1.4585

> <Gold.Chemscore.Rot.Weighted>
5.4974

> <Gold.Chemscore.Internal.Correction.Weighted>
   9.000000E+99

> <Gold.Protein.RotatedTorsions>
[ 6907 6896 6895 6894 ] final  172.89 input  -60.11 | X-H torsion
[ 7974 7965 7964 7962 ] final   -6.76 input  175.53 | X-H torsion
[ 8008 7997 7996 7995 ] final  165.57 input   59.86 | X-H torsion
[ 10167 10162 10161 10158 ] final   64.54 input  -65.29 | X-H torsion
[ 10718 10713 10712 10709 ] final  144.25 input   66.30 | X-H torsion
[ 10763 10752 10751 10750 ] final -122.24 input  -60.55 | X-H torsion
[ 11005 11000 10999 10996 ] final -102.90 input  -57.11 | X-H torsion

> <Gold.Protein.ActiveResidues>
 VAL166  LYS551  ARG553  GLY616  TRP617  ASP618  TYR619  PRO620  LYS621  CYS622 
 ASP623  PHE694  ASN695  SER759  ASP760  ASP761  ALA762  ILE779  LEU786  VAL792 
 PHE793  MET794  SER795  GLU796  ALA797  LYS798  CYS799  TRP800  GLU811  SER814 

> <Gold.Protein.RotatedAtoms>
  151.7771  133.3346  159.3460 H   0  0  0  0  0  0  0  0  0  0  0  0  # atno 6907 bound_to 6896
  150.7440  134.5965  159.6024 H   0  0  0  0  0  0  0  0  0  0  0  0  # atno 6908 bound_to 6896
  152.3301  134.7271  160.0343 H   0  0  0  0  0  0  0  0  0  0  0  0  # atno 6909 bound_to 6896
  146.2323  140.2218  142.8337 H   0  0  0  0  0  0  0  0  0  0  0  0  # atno 7974 bound_to 7965
  156.1789  140.1666  156.8311 H   0  0  0  0  0  0  0  0  0  0  0  0  # atno 8008 bound_to 7997
  154.5338  140.0751  156.8425 H   0  0  0  0  0  0  0  0  0  0  0  0  # atno 8009 bound_to 7997
  155.3353  140.3381  155.4241 H   0  0  0  0  0  0  0  0  0  0  0  0  # atno 8010 bound_to 7997
  140.1211  144.4730  150.6920 H   0  0  0  0  0  0  0  0  0  0  0  0  # atno 10167 bound_to 10162
  157.3594  131.0963  151.0929 H   0  0  0  0  0  0  0  0  0  0  0  0  # atno 10718 bound_to 10713
  154.8685  135.4140  154.2750 H   0  0  0  0  0  0  0  0  0  0  0  0  # atno 10763 bound_to 10752
  153.3653  135.7005  153.6685 H   0  0  0  0  0  0  0  0  0  0  0  0  # atno 10764 bound_to 10752
  153.5569  135.3617  155.2755 H   0  0  0  0  0  0  0  0  0  0  0  0  # atno 10765 bound_to 10752
  141.1169  133.8596  157.1418 H   0  0  0  0  0  0  0  0  0  0  0  0  # atno 11005 bound_to 11000
  144.9626  140.8290  143.5504 LP  0  0  0  0  0  0  0  0  0  0  0  0  # atno 17320 bound_to 7965
  145.2191  139.2168  143.5102 LP  0  0  0  0  0  0  0  0  0  0  0  0  # atno 17321 bound_to 7965
  140.6871  143.2356  151.5230 LP  0  0  0  0  0  0  0  0  0  0  0  0  # atno 17342 bound_to 10162
  139.5568  144.2255  152.1626 LP  0  0  0  0  0  0  0  0  0  0  0  0  # atno 17343 bound_to 10162
  157.2075  130.6422  149.5761 LP  0  0  0  0  0  0  0  0  0  0  0  0  # atno 17370 bound_to 10713
  155.9735  130.4671  150.6312 LP  0  0  0  0  0  0  0  0  0  0  0  0  # atno 17371 bound_to 10713
  140.0098  134.9993  157.0370 LP  0  0  0  0  0  0  0  0  0  0  0  0  # atno 17394 bound_to 11000
  140.4619  134.1475  155.7192 LP  0  0  0  0  0  0  0  0  0  0  0  0  # atno 17395 bound_to 11000

$$$$
