#       Name:                AV-unprocessed.smi:949
#       Creating user name   scv26
#       Creation time:       Fri Mar 27 02:15:12 2020


#       File generated by GOLD software.
#

@<TRIPOS>MOLECULE
AV-unprocessed.smi:949
    35    36     1
SMALL
NO_CHARGES


@<TRIPOS>ATOM
      1 ****        -1.4035  -0.8920  -1.5767 C.3            1 S1                 0.0000
      2 ****        -0.8231  -0.2994  -0.2790 C.3            1 S1                 0.0000
      3 ****         0.6345  -0.3019  -0.3292 N.pl3          1 S1                 0.0000
      4 ****         1.3818   0.7011  -0.9722 C.ar           1 S1                 0.0000
      5 ****         0.7767   1.7399  -1.7240 C.ar           1 S1                 0.0000
      6 ****         1.5832   2.7149  -2.3439 C.ar           1 S1                 0.0000
      7 ****         2.9252   2.6563  -2.2196 N.pl3          1 S1                 1.0000
      8 ****         3.5501   1.6894  -1.5157 C.ar           1 S1                 0.0000
      9 ****         2.7980   0.6845  -0.8714 C.ar           1 S1                 0.0000
     10 ****         3.4688  -0.3041  -0.1473 N.pl3          1 S1                 0.0000
     11 ****        -1.2964  -1.0824   0.9612 C.3            1 S1                 0.0000
     12 ****        -2.8118  -1.0925   1.1741 C.3            1 S1                 0.0000
     13 ****        -2.9685  -1.2819   2.6754 C.3            1 S1                 0.0000
     14 ****        -1.5706  -1.0070   3.2338 C.3            1 S1                 0.0000
     15 ****        -0.8466  -0.4461   2.1481 O.3            1 S1                 0.0000
     16 ****        -2.4927  -0.8507  -1.5803 H              1 S1                 0.0000
     17 ****        -1.1114  -1.9355  -1.6985 H              1 S1                 0.0000
     18 ****        -1.0614  -0.3505  -2.4583 H              1 S1                 0.0000
     19 ****        -1.1717   0.7277  -0.1695 H              1 S1                 0.0000
     20 ****         1.1218  -0.9809   0.2377 H              1 S1                 0.0000
     21 ****        -0.2941   1.8072  -1.8405 H              1 S1                 0.0000
     22 ****         1.1965   3.5341  -2.9322 H              1 S1                 0.0000
     23 ****         4.6285   1.7501  -1.4900 H              1 S1                 0.0000
     24 ****         2.9694  -1.0413   0.3296 H              1 S1                 0.0000
     25 ****         4.4761  -0.3770  -0.1662 H              1 S1                 0.0000
     26 ****        -0.9176  -2.1067   0.9401 H              1 S1                 0.0000
     27 ****        -3.2394  -0.1319   0.8831 H              1 S1                 0.0000
     28 ****        -3.3120  -1.8710   0.5972 H              1 S1                 0.0000
     29 ****        -3.7064  -0.5878   3.0787 H              1 S1                 0.0000
     30 ****        -3.2897  -2.2944   2.9219 H              1 S1                 0.0000
     31 ****        -1.5849  -0.3305   4.0885 H              1 S1                 0.0000
     32 ****        -1.0914  -1.9370   3.5432 H              1 S1                 0.0000
     33 ****         3.4910   3.3725  -2.6760 H              1 S1                 0.0000
     34 ****        -1.0190   0.5375   2.0946 LP             1 S1                 0.0000
     35 ****         0.1327  -0.6066   2.2715 LP             1 S1                 0.0000
@<TRIPOS>BOND
    1    1    2 1     
    2    1   16 1     
    3    1   17 1     
    4    1   18 1     
    5    2    3 1     
    6    2   11 1     
    7    2   19 1     
    8    3    4 1     
    9    3   20 1     
   10    4    9 ar    
   11    4    5 ar    
   12    5    6 ar    
   13    5   21 1     
   14    6    7 ar    
   15    6   22 1     
   16    7    8 ar    
   17    7   33 1     
   18    8    9 ar    
   19    8   23 1     
   20    9   10 1     
   21   10   24 1     
   22   10   25 1     
   23   11   15 1     
   24   11   12 1     
   25   11   26 1     
   26   12   13 1     
   27   12   27 1     
   28   12   28 1     
   29   13   14 1     
   30   13   29 1     
   31   13   30 1     
   32   14   15 1     
   33   14   31 1     
   34   14   32 1     
   35   15   34 1     
   36   15   35 1     
@<TRIPOS>SUBSTRUCTURE
      1 S1             1
@<TRIPOS>SET
LONE_PAIRS      STATIC     ATOMS    <user>   **** ""
2 34 35
DONOR_HYDROGENS      STATIC     ATOMS    <user>   **** ""
4 20 33 24 25
ATOM$BLUE        STATIC     ATOMS    COLORGROUP SYSTEM
2 34 35
ATOM$RED        STATIC     ATOMS    COLORGROUP SYSTEM
4 20 33 24 25
