#       Name:                AV-unprocessed.smi:842
#       Creating user name   scv26
#       Creation time:       Fri Mar 27 01:38:12 2020


#       File generated by GOLD software.
#

@<TRIPOS>MOLECULE
AV-unprocessed.smi:842
    48    49     1
SMALL
NO_CHARGES


@<TRIPOS>ATOM
      1 ****        -4.2451  -1.3338   3.8665 C.3            1 S1                 0.0000
      2 ****        -4.7166  -2.1834   2.6767 C.3            1 S1                 0.0000
      3 ****        -4.3088  -1.6126   1.3034 C.3            1 S1                 0.0000
      4 ****        -4.8748  -2.4687   0.1497 C.3            1 S1                 0.0000
      5 ****        -5.1863  -1.6575  -0.9634 O.3            1 S1                 0.0000
      6 ****        -2.8493  -1.5655   1.2196 N.am           1 S1                 0.0000
      7 ****        -2.1427  -0.6475   0.5450 C.2            1 S1                 0.0000
      8 ****        -2.6561   0.2698  -0.0943 O.2            1 S1                 0.0000
      9 ****        -0.8221  -0.8755   0.6526 N.am           1 S1                 0.0000
     10 ****         0.2554  -0.1340   0.0954 C.ar           1 S1                 0.0000
     11 ****         1.5261  -0.7482   0.0611 C.ar           1 S1                 0.0000
     12 ****         2.6285  -0.0503  -0.4735 C.ar           1 S1                 0.0000
     13 ****         2.4463   1.2648  -0.9611 C.ar           1 S1                 0.0000
     14 ****         3.4710   2.0428  -1.5180 N.3            1 S1                 0.0000
     15 ****         4.6248   2.2623  -0.6630 C.3            1 S1                 0.0000
     16 ****         5.7211   2.7790  -1.5955 C.3            1 S1                 0.0000
     17 ****         5.3464   2.2305  -2.9772 C.3            1 S1                 0.0000
     18 ****         3.9928   1.5395  -2.7780 C.3            1 S1                 0.0000
     19 ****         1.2177   1.8221  -0.9015 N.pl3          1 S1                 1.0000
     20 ****         0.1362   1.1886  -0.3984 C.ar           1 S1                 0.0000
     21 ****        -4.6091  -1.7500   4.8060 H              1 S1                 0.0000
     22 ****        -4.6171  -0.3117   3.7907 H              1 S1                 0.0000
     23 ****        -3.1575  -1.2919   3.9262 H              1 S1                 0.0000
     24 ****        -4.3350  -3.1996   2.7844 H              1 S1                 0.0000
     25 ****        -5.8034  -2.2619   2.7234 H              1 S1                 0.0000
     26 ****        -4.7231  -0.6037   1.2444 H              1 S1                 0.0000
     27 ****        -4.1882  -3.2645  -0.1420 H              1 S1                 0.0000
     28 ****        -5.8043  -2.9517   0.4529 H              1 S1                 0.0000
     29 ****        -5.5603  -2.2020  -1.6392 H              1 S1                 0.0000
     30 ****        -2.3450  -2.2853   1.7162 H              1 S1                 0.0000
     31 ****        -0.5585  -1.7065   1.1616 H              1 S1                 0.0000
     32 ****         1.6583  -1.7527   0.4363 H              1 S1                 0.0000
     33 ****         3.5977  -0.5259  -0.5086 H              1 S1                 0.0000
     34 ****         4.3988   2.9798   0.1266 H              1 S1                 0.0000
     35 ****         4.9418   1.3308  -0.1932 H              1 S1                 0.0000
     36 ****         5.7100   3.8695  -1.6177 H              1 S1                 0.0000
     37 ****         6.7137   2.4631  -1.2736 H              1 S1                 0.0000
     38 ****         5.2618   3.0473  -3.6950 H              1 S1                 0.0000
     39 ****         6.0928   1.5319  -3.3565 H              1 S1                 0.0000
     40 ****         4.1255   0.4575  -2.7330 H              1 S1                 0.0000
     41 ****         3.3082   1.7593  -3.5979 H              1 S1                 0.0000
     42 ****        -0.7706   1.7739  -0.4065 H              1 S1                 0.0000
     43 ****         1.0997   2.7729  -1.2525 H              1 S1                 0.0000
     44 ****        -4.3542  -1.2208  -1.3051 LP             1 S1                 0.0000
     45 ****        -5.8450  -0.9550  -0.6941 LP             1 S1                 0.0000
     46 ****        -3.6515   0.3588  -0.1294 LP             1 S1                 0.0000
     47 ****        -2.0780   0.9263  -0.5788 LP             1 S1                 0.0000
     48 ****         2.9850   2.9060  -1.6549 LP             1 S1                 0.0000
@<TRIPOS>BOND
    1    1    2 1     
    2    1   21 1     
    3    1   22 1     
    4    1   23 1     
    5    2    3 1     
    6    2   24 1     
    7    2   25 1     
    8    3    4 1     
    9    3    6 1     
   10    3   26 1     
   11    4    5 1     
   12    4   27 1     
   13    4   28 1     
   14    5   29 1     
   15    6    7 am    
   16    6   30 1     
   17    7    8 2     
   18    7    9 am    
   19    9   10 1     
   20    9   31 1     
   21   10   20 ar    
   22   10   11 ar    
   23   11   12 ar    
   24   11   32 1     
   25   12   13 ar    
   26   12   33 1     
   27   13   14 1     
   28   13   19 ar    
   29   14   18 1     
   30   14   15 1     
   31   15   16 1     
   32   15   34 1     
   33   15   35 1     
   34   16   17 1     
   35   16   36 1     
   36   16   37 1     
   37   17   18 1     
   38   17   38 1     
   39   17   39 1     
   40   18   40 1     
   41   18   41 1     
   42   19   20 ar    
   43   19   43 1     
   44   20   42 1     
   45    5   44 1     
   46    5   45 1     
   47    8   46 1     
   48    8   47 1     
   49   14   48 1     
@<TRIPOS>SUBSTRUCTURE
      1 S1             1
@<TRIPOS>SET
LONE_PAIRS      STATIC     ATOMS    <user>   **** ""
5 44 45 46 47 48
DONOR_HYDROGENS      STATIC     ATOMS    <user>   **** ""
4 29 30 31 43
ATOM$BLUE        STATIC     ATOMS    COLORGROUP SYSTEM
5 44 45 46 47 48
ATOM$RED        STATIC     ATOMS    COLORGROUP SYSTEM
4 29 30 31 43
