AV-unprocessed.smi:2139|AV-procd|sdf|8712|dock2
  -GOLD-   2272011473D 1   1.00000     0.00000
 Structure written by MMmdl.
 40 41  0  0  0  0  0  0  0  0  1 V2000
  152.5787  143.5454  161.6052 C   0  0  0  0  0  0  0  0  0  0  0  0
  152.3284  142.6381  160.3918 C   0  0  0  0  0  0  0  0  0  0  0  0
  152.6139  143.3195  159.0402 C   0  0  2  0  0  0  0  0  0  0  0  0
  152.2540  144.8134  159.0712 C   0  0  0  0  0  0  0  0  0  0  0  0
  151.8743  142.6526  157.9715 N   0  0  0  0  0  0  0  0  0  0  0  0
  151.8961  141.3344  157.7164 C   0  0  0  0  0  0  0  0  0  0  0  0
  152.5563  140.5254  158.3690 O   0  0  0  0  0  0  0  0  0  0  0  0
  151.0828  140.9028  156.5241 C   0  0  0  0  0  0  0  0  0  0  0  0
  150.1557  141.8062  155.9546 C   0  0  0  0  0  0  0  0  0  0  0  0
  149.3597  141.3946  154.8713 C   0  0  0  0  0  0  0  0  0  0  0  0
  149.5128  140.0815  154.3955 C   0  0  0  0  0  0  0  0  0  0  0  0
  150.3886  139.2040  154.9247 N   0  0  0  0  0  0  0  0  0  0  0  0
  151.1653  139.5914  155.9673 C   0  0  0  0  0  0  0  0  0  0  0  0
  152.0933  138.6441  156.4458 N   0  0  0  0  0  0  0  0  0  0  0  0
  153.2094  138.3974  155.5411 C   0  0  0  0  0  0  0  0  0  0  0  0
  154.3019  137.5957  156.2682 C   0  0  0  0  0  0  0  0  0  0  0  0
  153.7453  136.3913  156.7885 O   0  0  0  0  0  0  0  0  0  0  0  0
  152.7030  136.6431  157.7276 C   0  0  0  0  0  0  0  0  0  0  0  0
  151.5661  137.4215  157.0432 C   0  0  0  0  0  0  0  0  0  0  0  0
  152.3131  143.0340  162.5306 H   0  0  0  0  0  0  0  0  0  0  0  0
  151.9808  144.4553  161.5459 H   0  0  0  0  0  0  0  0  0  0  0  0
  153.6267  143.8365  161.6801 H   0  0  0  0  0  0  0  0  0  0  0  0
  152.9326  141.7349  160.4866 H   0  0  0  0  0  0  0  0  0  0  0  0
  151.2886  142.3097  160.4129 H   0  0  0  0  0  0  0  0  0  0  0  0
  153.6843  143.2317  158.8439 H   0  0  0  0  0  0  0  0  0  0  0  0
  152.8131  145.3348  159.8486 H   0  0  0  0  0  0  0  0  0  0  0  0
  151.1919  144.9619  159.2686 H   0  0  0  0  0  0  0  0  0  0  0  0
  152.4868  145.2965  158.1214 H   0  0  0  0  0  0  0  0  0  0  0  0
  151.3141  143.2408  157.3718 H   0  0  0  0  0  0  0  0  0  0  0  0
  150.0412  142.8068  156.3466 H   0  0  0  0  0  0  0  0  0  0  0  0
  148.6440  142.0666  154.4213 H   0  0  0  0  0  0  0  0  0  0  0  0
  148.9175  139.7260  153.5675 H   0  0  0  0  0  0  0  0  0  0  0  0
  152.8500  137.8399  154.6752 H   0  0  0  0  0  0  0  0  0  0  0  0
  153.6234  139.3338  155.1668 H   0  0  0  0  0  0  0  0  0  0  0  0
  155.1078  137.3471  155.5781 H   0  0  0  0  0  0  0  0  0  0  0  0
  154.7423  138.1848  157.0746 H   0  0  0  0  0  0  0  0  0  0  0  0
  152.3309  135.6923  158.1093 H   0  0  0  0  0  0  0  0  0  0  0  0
  153.0953  137.1984  158.5811 H   0  0  0  0  0  0  0  0  0  0  0  0
  150.7903  137.6672  157.7694 H   0  0  0  0  0  0  0  0  0  0  0  0
  151.1078  136.8017  156.2714 H   0  0  0  0  0  0  0  0  0  0  0  0
  1  2  1  0  0  0  0
  1 20  1  0  0  0  0
  1 21  1  0  0  0  0
  1 22  1  0  0  0  0
  2  3  1  0  0  0  0
  2 23  1  0  0  0  0
  2 24  1  0  0  0  0
  3  4  1  0  0  0  0
  3  5  1  0  0  0  0
  3 25  1  0  0  0  0
  4 26  1  0  0  0  0
  4 27  1  0  0  0  0
  4 28  1  0  0  0  0
  5  6  1  0  0  0  0
  5 29  1  0  0  0  0
  6  7  2  0  0  0  0
  6  8  1  0  0  0  0
  8 13  1  0  0  0  0
  8  9  2  0  0  0  0
  9 10  1  0  0  0  0
  9 30  1  0  0  0  0
 10 11  2  0  0  0  0
 10 31  1  0  0  0  0
 11 12  1  0  0  0  0
 11 32  1  0  0  0  0
 12 13  2  0  0  0  0
 13 14  1  0  0  0  0
 14 19  1  0  0  0  0
 14 15  1  0  0  0  0
 15 16  1  0  0  0  0
 15 33  1  0  0  0  0
 15 34  1  0  0  0  0
 16 17  1  0  0  0  0
 16 35  1  0  0  0  0
 16 36  1  0  0  0  0
 17 18  1  0  0  0  0
 18 19  1  0  0  0  0
 18 37  1  0  0  0  0
 18 38  1  0  0  0  0
 19 39  1  0  0  0  0
 19 40  1  0  0  0  0
M  END
> <s_m_source_file>
AV-unprocessed.smi

> <i_m_source_file_index>
2139

> <i_lp_mmshare_version>
43012

> <i_f3d_flags>
0

> <s_epik_input>
W0NIM11bQ0gyXVtDQEhdKFtDSDNdKVtOSF1DKD1PKWMxW2NIXVtjSF1bY0hdbmMxTjJbQ0gyXVtDSDJdT1tDSDJdW0NIMl0y

> <s_epik_cmdline>
J2VwaWtfcHl0aG9uJywgJy1waCcsICc3LjAnLCAnLXRuJywgJzgnLCAnLW1hJywgJzIwMCcsICctbWV0YWxfYmluZGluZycsICctaW1hZScsICc8aW5maWxlLm1hZT4nLCAnLW9tYWUnLCAnPG91dGZpbGUubWFlPic=

> <r_lp_tautomer_probability>
1

> <r_epik_Ionization_Penalty>
1.73125e-05

> <r_epik_Ionization_Penalty_Charging>
0

> <r_epik_Ionization_Penalty_Neutral>
1.73125e-05

> <r_epik_State_Penalty>
-0

> <r_epik_Charging_Adjusted_Penalty>
0

> <i_epik_Tot_Q>
0

> <i_epik_Tot_abs_Q>
0

> <r_epik_Metal_State_Penalty>
-0

> <b_epik_Metal_Only>
0

> <s_lp_Force_Field>
OPLS_2005

> <r_lp_Energy>
24.9987

> <b_lp_Chiralities_Consistent>
1

> <s_lp_Variant>
AV-unprocessed.smi:2139-1

> <Gold.Version>
5.8.1

> <Gold.Id.Protein>
6NUR|6NUR_protein|mol2

> <Gold.PLP.Fitness>
39.0105

> <Gold.PLP.PLP>
-34.1180

> <Gold.PLP.part.hbond>
-1.0000

> <Gold.PLP.part.metal>
0.0000

> <Gold.PLP.part.buried>
1.4413

> <Gold.PLP.part.nonpolar>
-33.5892

> <Gold.PLP.part.repulsive>
0.1364

> <Gold.PLP.ligand.clash>
0.0000

> <Gold.PLP.ligand.torsion>
0.4974

> <Gold.PLP.Chemscore.Hbond>
1.0000

> <Gold.PLP.Chemscore.CHOScore>
0.8750

> <Gold.PLP.Chemscore.Metal>
0.0000

> <Gold.Chemscore.Hbonds>
donor molecule, donor type, donor heavy atom, donor atom, acceptor molecule, acceptor atom, score
      P1  H 10752 10765       L1    17  1.00
      L1  C    11    32       P1  7957  0.86

> <Gold.PLP.Chemscore.Internal.Correction>
0.2625

> <Gold.Rescore>
     Score         DG    S(hbond)    S(metal)    S(lipo)     H(rot)  DE(clash)    DE(int)     intcor
     12.38     -16.84       0.74        0.00     104.62       1.30       2.45       2.01       ----

> <Gold.Chemscore.Fitness>
12.3842

> <Gold.Chemscore.DG>
-16.8438

> <Gold.Chemscore.ZeroCoef>
-5.4800

> <Gold.Chemscore.Hbond>
0.7372

> <Gold.Chemscore.Metal>
0.0000

> <Gold.Chemscore.Lipo>
104.6174

> <Gold.Chemscore.Internal_Hbond>
0.0000

> <Gold.Chemscore.DEClash>
2.4472

> <Gold.Chemscore.DEInternal>
2.0123

> <Gold.Chemscore.Rot>
1.3041

> <Gold.Chemscore.Internal.Correction>
   9.000000E+99

> <Gold.Chemscore.Hbonds>
donor molecule, donor type, donor heavy atom, donor atom, acceptor molecule, acceptor atom, score
      P1  H 10752 10765       L1    17  0.33

> <Gold.Chemscore.Hbond.Weighted>
-2.4621

> <Gold.Chemscore.Metal.Weighted>
-0.0000

> <Gold.Chemscore.Lipo.Weighted>
-12.2402

> <Gold.Chemscore.Internal_Hbond.Weighted>
0.0000

> <Gold.Chemscore.DEClash.Weighted>
2.4472

> <Gold.Chemscore.DEInternal.Weighted>
2.0123

> <Gold.Chemscore.Rot.Weighted>
3.3385

> <Gold.Chemscore.Internal.Correction.Weighted>
   9.000000E+99

> <Gold.Protein.RotatedTorsions>
[ 6907 6896 6895 6894 ] final  -58.28 input  -60.11 | X-H torsion
[ 7974 7965 7964 7962 ] final   96.37 input  175.53 | X-H torsion
[ 8008 7997 7996 7995 ] final -175.90 input   59.86 | X-H torsion
[ 10167 10162 10161 10158 ] final -179.16 input  -65.29 | X-H torsion
[ 10718 10713 10712 10709 ] final  -11.05 input   66.30 | X-H torsion
[ 10763 10752 10751 10750 ] final -114.92 input  -60.55 | X-H torsion
[ 11005 11000 10999 10996 ] final   87.64 input  -57.11 | X-H torsion

> <Gold.Protein.ActiveResidues>
 VAL166  LYS551  ARG553  GLY616  TRP617  ASP618  TYR619  PRO620  LYS621  CYS622 
 ASP623  PHE694  ASN695  SER759  ASP760  ASP761  ALA762  ILE779  LEU786  VAL792 
 PHE793  MET794  SER795  GLU796  ALA797  LYS798  CYS799  TRP800  GLU811  SER814 

> <Gold.Protein.RotatedAtoms>
  150.8019  134.7119  159.6608 H   0  0  0  0  0  0  0  0  0  0  0  0  # atno 6907 bound_to 6896
  152.4137  134.6077  160.0027 H   0  0  0  0  0  0  0  0  0  0  0  0  # atno 6908 bound_to 6896
  151.6312  133.3295  159.3145 H   0  0  0  0  0  0  0  0  0  0  0  0  # atno 6909 bound_to 6896
  145.4397  139.2302  143.3098 H   0  0  0  0  0  0  0  0  0  0  0  0  # atno 7974 bound_to 7965
  155.9883  140.1195  157.0662 H   0  0  0  0  0  0  0  0  0  0  0  0  # atno 8008 bound_to 7997
  154.4203  140.1131  156.5598 H   0  0  0  0  0  0  0  0  0  0  0  0  # atno 8009 bound_to 7997
  155.6378  140.3473  155.4707 H   0  0  0  0  0  0  0  0  0  0  0  0  # atno 8010 bound_to 7997
  139.5399  144.2393  152.0873 H   0  0  0  0  0  0  0  0  0  0  0  0  # atno 10167 bound_to 10162
  156.6646  130.4992  149.6019 H   0  0  0  0  0  0  0  0  0  0  0  0  # atno 10718 bound_to 10713
  154.8460  135.4400  154.1581 H   0  0  0  0  0  0  0  0  0  0  0  0  # atno 10763 bound_to 10752
  153.2725  135.6946  153.7473 H   0  0  0  0  0  0  0  0  0  0  0  0  # atno 10764 bound_to 10752
  153.6708  135.3419  155.3128 H   0  0  0  0  0  0  0  0  0  0  0  0  # atno 10765 bound_to 10752
  139.8915  134.8436  156.2889 H   0  0  0  0  0  0  0  0  0  0  0  0  # atno 11005 bound_to 11000
  146.2563  140.5144  142.8872 LP  0  0  0  0  0  0  0  0  0  0  0  0  # atno 17320 bound_to 7965
  144.8129  140.6417  143.6403 LP  0  0  0  0  0  0  0  0  0  0  0  0  # atno 17321 bound_to 7965
  140.1870  144.4789  150.6499 LP  0  0  0  0  0  0  0  0  0  0  0  0  # atno 17342 bound_to 10162
  140.6623  143.2256  151.5825 LP  0  0  0  0  0  0  0  0  0  0  0  0  # atno 17343 bound_to 10162
  156.1985  130.6604  151.1140 LP  0  0  0  0  0  0  0  0  0  0  0  0  # atno 17370 bound_to 10713
  157.7098  131.0739  150.6541 LP  0  0  0  0  0  0  0  0  0  0  0  0  # atno 17371 bound_to 10713
  140.9989  133.7163  156.0930 LP  0  0  0  0  0  0  0  0  0  0  0  0  # atno 17394 bound_to 11000
  140.7524  134.4030  157.5539 LP  0  0  0  0  0  0  0  0  0  0  0  0  # atno 17395 bound_to 11000

$$$$
