AV-unprocessed.smi:3181|AV-procd|sdf|12139|dock1
  -GOLD-   2272017573D 1   1.00000     0.00000
 Structure written by MMmdl.
 42 43  0  0  0  0  0  0  0  0  2 V2000
  148.1760  141.5911  154.6565 C   0  0  0  0  0  0  0  0  0  0  0  0
  149.6059  141.1144  154.9662 C   0  0  2  0  0  0  0  0  0  0  0  0
  149.6668  139.6314  155.3831 C   0  0  0  0  0  0  0  0  0  0  0  0
  150.8934  138.9779  154.9651 N   0  0  0  0  0  0  0  0  0  0  0  0
  151.0846  137.8492  154.2800 C   0  0  0  0  0  0  0  0  0  0  0  0
  152.3613  137.5546  154.0805 N   0  0  0  0  0  0  0  0  0  0  0  0
  152.9429  138.6202  154.7076 C   0  0  0  0  0  0  0  0  0  0  0  0
  152.1069  139.5035  155.2539 N   0  0  0  0  0  0  0  0  0  0  0  0
  150.1949  141.9491  156.0379 N   0  3  0  0  0  0  0  0  0  0  0  0
  149.9163  141.5200  157.4293 C   0  0  2  0  0  0  0  0  0  0  0  0
  149.1367  142.6103  158.1829 C   0  0  0  0  0  0  0  0  0  0  0  0
  150.0101  143.8373  158.4882 C   0  0  0  0  0  0  0  0  0  0  0  0
  151.2884  143.4651  159.2664 C   0  0  2  0  0  0  0  0  0  0  0  0
  152.1135  144.7335  159.5477 C   0  0  0  0  0  0  0  0  0  0  0  0
  152.0929  142.3759  158.5091 C   0  0  1  0  0  0  0  0  0  0  0  0
  153.3520  141.9229  159.2696 C   0  0  0  0  0  0  0  0  0  0  0  0
  151.2003  141.1532  158.2020 C   0  0  0  0  0  0  0  0  0  0  0  0
  147.7436  141.0436  153.8188 H   0  0  0  0  0  0  0  0  0  0  0  0
  148.1581  142.6479  154.3898 H   0  0  0  0  0  0  0  0  0  0  0  0
  147.5190  141.4559  155.5164 H   0  0  0  0  0  0  0  0  0  0  0  0
  150.1996  141.2244  154.0573 H   0  0  0  0  0  0  0  0  0  0  0  0
  149.5939  139.5435  156.4680 H   0  0  0  0  0  0  0  0  0  0  0  0
  148.8178  139.0845  154.9689 H   0  0  0  0  0  0  0  0  0  0  0  0
  150.2748  137.2297  153.9227 H   0  0  0  0  0  0  0  0  0  0  0  0
  154.0140  138.7482  154.7640 H   0  0  0  0  0  0  0  0  0  0  0  0
  151.1947  142.0013  155.9039 H   0  0  0  0  0  0  0  0  0  0  0  0
  149.2750  140.6390  157.3726 H   0  0  0  0  0  0  0  0  0  0  0  0
  148.2559  142.9095  157.6128 H   0  0  0  0  0  0  0  0  0  0  0  0
  148.7638  142.1993  159.1219 H   0  0  0  0  0  0  0  0  0  0  0  0
  150.2788  144.3375  157.5566 H   0  0  0  0  0  0  0  0  0  0  0  0
  149.4252  144.5582  159.0608 H   0  0  0  0  0  0  0  0  0  0  0  0
  150.9815  143.0532  160.2292 H   0  0  0  0  0  0  0  0  0  0  0  0
  152.5139  145.1592  158.6272 H   0  0  0  0  0  0  0  0  0  0  0  0
  152.9497  144.5333  160.2171 H   0  0  0  0  0  0  0  0  0  0  0  0
  151.5024  145.4987  160.0273 H   0  0  0  0  0  0  0  0  0  0  0  0
  152.4242  142.7980  157.5595 H   0  0  0  0  0  0  0  0  0  0  0  0
  153.1044  141.5594  160.2674 H   0  0  0  0  0  0  0  0  0  0  0  0
  154.0742  142.7320  159.3761 H   0  0  0  0  0  0  0  0  0  0  0  0
  153.8599  141.1164  158.7400 H   0  0  0  0  0  0  0  0  0  0  0  0
  150.9144  140.6813  159.1434 H   0  0  0  0  0  0  0  0  0  0  0  0
  151.7682  140.3973  157.6595 H   0  0  0  0  0  0  0  0  0  0  0  0
  149.8150  142.8790  155.9315 H   0  0  0  0  0  0  0  0  0  0  0  0
  1  2  1  0  0  0  0
  1 18  1  0  0  0  0
  1 19  1  0  0  0  0
  1 20  1  0  0  0  0
  2  3  1  0  0  0  0
  2  9  1  0  0  0  0
  2 21  1  0  0  0  0
  3  4  1  0  0  0  0
  3 22  1  0  0  0  0
  3 23  1  0  0  0  0
  4  8  1  0  0  0  0
  4  5  1  0  0  0  0
  5  6  2  0  0  0  0
  5 24  1  0  0  0  0
  6  7  1  0  0  0  0
  7  8  2  0  0  0  0
  7 25  1  0  0  0  0
  9 10  1  0  0  0  0
  9 26  1  0  0  0  0
  9 42  1  0  0  0  0
 10 17  1  0  0  0  0
 10 11  1  0  0  0  0
 10 27  1  0  0  0  0
 11 12  1  0  0  0  0
 11 28  1  0  0  0  0
 11 29  1  0  0  0  0
 12 13  1  0  0  0  0
 12 30  1  0  0  0  0
 12 31  1  0  0  0  0
 13 14  1  0  0  0  0
 13 15  1  0  0  0  0
 13 32  1  0  0  0  0
 14 33  1  0  0  0  0
 14 34  1  0  0  0  0
 14 35  1  0  0  0  0
 15 16  1  0  0  0  0
 15 17  1  0  0  0  0
 15 36  1  0  0  0  0
 16 37  1  0  0  0  0
 16 38  1  0  0  0  0
 16 39  1  0  0  0  0
 17 40  1  0  0  0  0
 17 41  1  0  0  0  0
M  CHG  1   9   1
M  END
> <s_m_source_file>
AV-unprocessed.smi

> <i_m_source_file_index>
3181

> <i_lp_mmshare_version>
43012

> <i_f3d_flags>
0

> <s_epik_input>
bjFbY0hdbltjSF1uMVtDSDJdW0NAQEhdKFtDSDNdKVtOSF1bQ0BASF0yW0NIMl1bQ0gyXVtDQEBIXShbQ0gzXSlbQ0BASF0oW0NIM10pW0NIMl0y

> <s_epik_cmdline>
J2VwaWtfcHl0aG9uJywgJy1waCcsICc3LjAnLCAnLXRuJywgJzgnLCAnLW1hJywgJzIwMCcsICctbWV0YWxfYmluZGluZycsICctaW1hZScsICc8aW5maWxlLm1hZT4nLCAnLW9tYWUnLCAnPG91dGZpbGUubWFlPic=

> <r_lp_tautomer_probability>
1

> <r_epik_Ionization_Penalty>
0.000617007

> <r_epik_Ionization_Penalty_Charging>
0.000616215

> <r_epik_Ionization_Penalty_Neutral>
7.92544e-07

> <r_epik_State_Penalty>
0.000388807

> <r_epik_Charging_Adjusted_Penalty>
0.00100502

> <i_epik_Tot_Q>
1

> <i_epik_Tot_abs_Q>
1

> <r_epik_Metal_State_Penalty>
-0

> <b_epik_Metal_Only>
0

> <s_lp_Force_Field>
OPLS_2005

> <r_lp_Energy>
23.3583

> <b_lp_Chiralities_Consistent>
1

> <s_lp_Variant>
AV-unprocessed.smi:3181-5

> <Gold.Version>
5.8.1

> <Gold.Id.Protein>
6NUR|6NUR_protein|mol2

> <Gold.PLP.Fitness>
45.2195

> <Gold.PLP.PLP>
-36.4782

> <Gold.PLP.part.hbond>
-2.7699

> <Gold.PLP.part.metal>
0.0000

> <Gold.PLP.part.buried>
-3.7933

> <Gold.PLP.part.nonpolar>
-30.9199

> <Gold.PLP.part.repulsive>
0.2839

> <Gold.PLP.ligand.clash>
0.0000

> <Gold.PLP.ligand.torsion>
1.4787

> <Gold.PLP.Chemscore.Hbond>
2.8848

> <Gold.PLP.Chemscore.CHOScore>
1.0056

> <Gold.PLP.Chemscore.Metal>
0.0000

> <Gold.Chemscore.Hbonds>
donor molecule, donor type, donor heavy atom, donor atom, acceptor molecule, acceptor atom, score
      L1  H     9    42       P1  8028  1.76
      P1  H  7989  7998       L1     8  0.07
      P1  H 10752 10765       L1     6  0.72
      L1  C     5    24       P1  7948  0.82
      L1  C     5    24       P1  7949  0.03

> <Gold.PLP.Chemscore.Internal.Correction>
0.0276

> <Gold.Rescore>
     Score         DG    S(hbond)    S(metal)    S(lipo)     H(rot)  DE(clash)    DE(int)     intcor
     14.13     -15.99       1.67        0.00      88.18       2.11       0.41       1.45       ----

> <Gold.Chemscore.Fitness>
14.1339

> <Gold.Chemscore.DG>
-15.9879

> <Gold.Chemscore.ZeroCoef>
-5.4800

> <Gold.Chemscore.Hbond>
1.6739

> <Gold.Chemscore.Metal>
0.0000

> <Gold.Chemscore.Lipo>
88.1831

> <Gold.Chemscore.Internal_Hbond>
0.0000

> <Gold.Chemscore.DEClash>
0.4066

> <Gold.Chemscore.DEInternal>
1.4474

> <Gold.Chemscore.Rot>
2.1095

> <Gold.Chemscore.Internal.Correction>
   9.000000E+99

> <Gold.Chemscore.Hbonds>
donor molecule, donor type, donor heavy atom, donor atom, acceptor molecule, acceptor atom, score
      L1  H     9    42       P1  8028  0.86
      P1  H 10752 10765       L1     6  0.70

> <Gold.Chemscore.Hbond.Weighted>
-5.5907

> <Gold.Chemscore.Metal.Weighted>
-0.0000

> <Gold.Chemscore.Lipo.Weighted>
-10.3174

> <Gold.Chemscore.Internal_Hbond.Weighted>
0.0000

> <Gold.Chemscore.DEClash.Weighted>
0.4066

> <Gold.Chemscore.DEInternal.Weighted>
1.4474

> <Gold.Chemscore.Rot.Weighted>
5.4003

> <Gold.Chemscore.Internal.Correction.Weighted>
   9.000000E+99

> <Gold.Protein.RotatedTorsions>
[ 6907 6896 6895 6894 ] final  166.75 input  -60.11 | X-H torsion
[ 7974 7965 7964 7962 ] final  160.60 input  175.53 | X-H torsion
[ 8008 7997 7996 7995 ] final  -51.09 input   59.86 | X-H torsion
[ 10167 10162 10161 10158 ] final  -27.08 input  -65.29 | X-H torsion
[ 10718 10713 10712 10709 ] final  -31.91 input   66.30 | X-H torsion
[ 10763 10752 10751 10750 ] final  137.44 input  -60.55 | X-H torsion
[ 11005 11000 10999 10996 ] final   87.79 input  -57.11 | X-H torsion

> <Gold.Protein.ActiveResidues>
 VAL166  LYS551  ARG553  GLY616  TRP617  ASP618  TYR619  PRO620  LYS621  CYS622 
 ASP623  PHE694  ASN695  SER759  ASP760  ASP761  ALA762  ILE779  LEU786  VAL792 
 PHE793  MET794  SER795  GLU796  ALA797  LYS798  CYS799  TRP800  GLU811  SER814 

> <Gold.Protein.RotatedAtoms>
  151.8740  133.3481  159.3744 H   0  0  0  0  0  0  0  0  0  0  0  0  # atno 6907 bound_to 6896
  150.7145  134.5084  159.5604 H   0  0  0  0  0  0  0  0  0  0  0  0  # atno 6908 bound_to 6896
  152.2622  134.8022  160.0479 H   0  0  0  0  0  0  0  0  0  0  0  0  # atno 6909 bound_to 6896
  144.7728  139.7780  143.6290 H   0  0  0  0  0  0  0  0  0  0  0  0  # atno 7974 bound_to 7965
  154.4075  140.1256  156.4773 H   0  0  0  0  0  0  0  0  0  0  0  0  # atno 8008 bound_to 7997
  155.7120  140.3493  155.4958 H   0  0  0  0  0  0  0  0  0  0  0  0  # atno 8009 bound_to 7997
  155.9292  140.1066  157.1136 H   0  0  0  0  0  0  0  0  0  0  0  0  # atno 8010 bound_to 7997
  140.7279  143.4124  151.1084 H   0  0  0  0  0  0  0  0  0  0  0  0  # atno 10167 bound_to 10162
  156.3814  130.4356  149.7466 H   0  0  0  0  0  0  0  0  0  0  0  0  # atno 10718 bound_to 10713
  153.8730  135.3053  155.3443 H   0  0  0  0  0  0  0  0  0  0  0  0  # atno 10763 bound_to 10752
  154.7797  135.4842  153.9821 H   0  0  0  0  0  0  0  0  0  0  0  0  # atno 10764 bound_to 10752
  153.1395  135.6821  153.9146 H   0  0  0  0  0  0  0  0  0  0  0  0  # atno 10765 bound_to 10752
  139.8911  134.8445  156.2909 H   0  0  0  0  0  0  0  0  0  0  0  0  # atno 11005 bound_to 11000
  146.1887  139.5116  142.9819 LP  0  0  0  0  0  0  0  0  0  0  0  0  # atno 17320 bound_to 7965
  145.6273  141.0311  143.1882 LP  0  0  0  0  0  0  0  0  0  0  0  0  # atno 17321 bound_to 7965
  139.7759  143.8427  152.3129 LP  0  0  0  0  0  0  0  0  0  0  0  0  # atno 17342 bound_to 10162
  139.8361  144.7231  150.9389 LP  0  0  0  0  0  0  0  0  0  0  0  0  # atno 17343 bound_to 10162
  156.4555  130.7927  151.2948 LP  0  0  0  0  0  0  0  0  0  0  0  0  # atno 17370 bound_to 10713
  157.7492  131.0082  150.3219 LP  0  0  0  0  0  0  0  0  0  0  0  0  # atno 17371 bound_to 10713
  140.9977  133.7170  156.0911 LP  0  0  0  0  0  0  0  0  0  0  0  0  # atno 17394 bound_to 11000
  140.7540  134.4013  157.5537 LP  0  0  0  0  0  0  0  0  0  0  0  0  # atno 17395 bound_to 11000

$$$$
