#       Name:                AV-unprocessed.smi:565
#       Creating user name   scv26
#       Creation time:       Thu Mar 26 23:45:32 2020


#       File generated by GOLD software.
#

@<TRIPOS>MOLECULE
AV-unprocessed.smi:565
    53    54     1
SMALL
NO_CHARGES


@<TRIPOS>ATOM
      1 ****        -2.9978   2.2490   2.9732 C.3            1 S1                 0.0000
      2 ****        -3.3202   2.7444   1.5924 C.2            1 S1                 0.0000
      3 ****        -3.5504   4.0326   1.4012 N.2            1 S1                 0.0000
      4 ****        -3.7961   4.1459   0.0803 N.pl3          1 S1                 0.0000
      5 ****        -4.0906   5.4503  -0.4801 C.3            1 S1                 0.0000
      6 ****        -3.7222   2.9264  -0.5637 C.2            1 S1                 0.0000
      7 ****        -3.9479   2.7893  -2.0351 C.3            1 S1                 0.0000
      8 ****        -3.4171   1.9889   0.3870 C.2            1 S1                 0.0000
      9 ****        -3.2180   0.5042   0.2191 C.3            1 S1                 0.0000
     10 ****        -1.7415   0.2119  -0.0528 C.2            1 S1                 0.0000
     11 ****        -1.2177   0.5980  -1.0980 O.2            1 S1                 0.0000
     12 ****        -1.0770  -0.4621   0.8985 N.am           1 S1                 0.0000
     13 ****         0.3440  -0.7861   0.8573 C.3            1 S1                 0.0000
     14 ****         0.6510  -1.9107  -0.1523 C.3            1 S1                 0.0000
     15 ****         2.0845  -2.2970  -0.1558 N.4            1 S1                 1.0000
     16 ****         2.2961  -3.6557  -0.7184 C.3            1 S1                 0.0000
     17 ****         3.7592  -4.0992  -0.5621 C.3            1 S1                 0.0000
     18 ****         4.7148  -3.0834  -1.2039 C.3            1 S1                 0.0000
     19 ****         4.4569  -1.6610  -0.6735 C.3            1 S1                 0.0000
     20 ****         4.9740  -1.4569   0.7615 C.3            1 S1                 0.0000
     21 ****         2.9652  -1.2928  -0.8139 C.3            1 S1                 0.0000
     22 ****        -2.0650   1.6854   2.9763 H              1 S1                 0.0000
     23 ****        -3.7844   1.5916   3.3435 H              1 S1                 0.0000
     24 ****        -2.8894   3.0694   3.6837 H              1 S1                 0.0000
     25 ****        -5.1043   5.4550  -0.8809 H              1 S1                 0.0000
     26 ****        -3.3883   5.6715  -1.2840 H              1 S1                 0.0000
     27 ****        -4.0076   6.2260   0.2822 H              1 S1                 0.0000
     28 ****        -3.8254   1.7567  -2.3611 H              1 S1                 0.0000
     29 ****        -3.2378   3.3987  -2.5941 H              1 S1                 0.0000
     30 ****        -4.9551   3.1077  -2.3041 H              1 S1                 0.0000
     31 ****        -3.5487  -0.0400   1.1049 H              1 S1                 0.0000
     32 ****        -3.8083   0.1117  -0.6091 H              1 S1                 0.0000
     33 ****        -1.5867  -0.7389   1.7254 H              1 S1                 0.0000
     34 ****         0.8999   0.1233   0.6290 H              1 S1                 0.0000
     35 ****         0.6484  -1.0932   1.8582 H              1 S1                 0.0000
     36 ****         0.0460  -2.7777   0.1174 H              1 S1                 0.0000
     37 ****         0.3512  -1.6302  -1.1630 H              1 S1                 0.0000
     38 ****         1.6518  -4.3734  -0.2093 H              1 S1                 0.0000
     39 ****         2.0095  -3.6637  -1.7715 H              1 S1                 0.0000
     40 ****         3.9965  -4.2188   0.4955 H              1 S1                 0.0000
     41 ****         3.9010  -5.0794  -1.0184 H              1 S1                 0.0000
     42 ****         5.7513  -3.3757  -1.0312 H              1 S1                 0.0000
     43 ****         4.5709  -3.0946  -2.2852 H              1 S1                 0.0000
     44 ****         5.0231  -0.9731  -1.3028 H              1 S1                 0.0000
     45 ****         4.4516  -2.0908   1.4780 H              1 S1                 0.0000
     46 ****         4.8426  -0.4227   1.0814 H              1 S1                 0.0000
     47 ****         6.0376  -1.6867   0.8299 H              1 S1                 0.0000
     48 ****         2.6999  -1.2269  -1.8705 H              1 S1                 0.0000
     49 ****         2.8041  -0.3004  -0.3952 H              1 S1                 0.0000
     50 ****         2.3685  -2.3465   0.8121 H              1 S1                 0.0000
     51 ****        -3.5438   4.7618   2.0855 LP             1 S1                 0.0000
     52 ****        -1.7578   1.1036  -1.7708 LP             1 S1                 0.0000
     53 ****        -0.2523   0.4060  -1.2740 LP             1 S1                 0.0000
@<TRIPOS>BOND
    1    1    2 1     
    2    1   22 1     
    3    1   23 1     
    4    1   24 1     
    5    2    8 1     
    6    2    3 2     
    7    3    4 1     
    8    4    5 1     
    9    4    6 1     
   10    5   25 1     
   11    5   26 1     
   12    5   27 1     
   13    6    7 1     
   14    6    8 2     
   15    7   28 1     
   16    7   29 1     
   17    7   30 1     
   18    8    9 1     
   19    9   10 1     
   20    9   31 1     
   21    9   32 1     
   22   10   11 2     
   23   10   12 am    
   24   12   13 1     
   25   12   33 1     
   26   13   14 1     
   27   13   34 1     
   28   13   35 1     
   29   14   15 1     
   30   14   36 1     
   31   14   37 1     
   32   15   21 1     
   33   15   16 1     
   34   15   50 1     
   35   16   17 1     
   36   16   38 1     
   37   16   39 1     
   38   17   18 1     
   39   17   40 1     
   40   17   41 1     
   41   18   19 1     
   42   18   42 1     
   43   18   43 1     
   44   19   20 1     
   45   19   21 1     
   46   19   44 1     
   47   20   45 1     
   48   20   46 1     
   49   20   47 1     
   50   21   48 1     
   51   21   49 1     
   52    3   51 1     
   53   11   52 1     
   54   11   53 1     
@<TRIPOS>SUBSTRUCTURE
      1 S1             1
@<TRIPOS>SET
LONE_PAIRS      STATIC     ATOMS    <user>   **** ""
3 51 52 53
DONOR_HYDROGENS      STATIC     ATOMS    <user>   **** ""
2 33 50
ATOM$BLUE        STATIC     ATOMS    COLORGROUP SYSTEM
3 51 52 53
ATOM$RED        STATIC     ATOMS    COLORGROUP SYSTEM
2 33 50
