#       Name:                AV-unprocessed.smi:3240
#       Creating user name   scv26
#       Creation time:       Fri Mar 27 18:24:37 2020


#       File generated by GOLD software.
#

@<TRIPOS>MOLECULE
AV-unprocessed.smi:3240
    47    48     1
SMALL
NO_CHARGES


@<TRIPOS>ATOM
      1 ****        -5.5070   1.4964  -1.4851 C.3            1 S1                 0.0000
      2 ****        -4.1827   0.8730  -1.1496 C.2            1 S1                 0.0000
      3 ****        -2.9287   1.0821  -1.7907 C.2            1 S1                 0.0000
      4 ****        -1.9507   0.3743  -1.2490 N.2            1 S1                 0.0000
      5 ****        -2.5430  -0.3099  -0.2479 N.pl3          1 S1                 0.0000
      6 ****        -1.7603  -1.2067   0.5827 C.3            1 S1                 0.0000
      7 ****        -1.0914  -0.4741   1.7721 C.3            1 S1                 0.0000
      8 ****        -1.4937  -1.1074   3.1118 C.3            1 S1                 0.0000
      9 ****         0.3843  -0.4783   1.6565 N.4            1 S1                 1.0000
     10 ****         0.9448   0.4251   0.6277 C.3            1 S1                 0.0000
     11 ****         2.4922   0.3941   0.5989 C.3            1 S1                 0.0000
     12 ****         2.9402   0.8154   1.8736 O.3            1 S1                 0.0000
     13 ****         3.0753  -1.0131   0.3179 C.3            1 S1                 0.0000
     14 ****         2.8384  -1.4668  -1.1335 C.3            1 S1                 0.0000
     15 ****         3.4000  -0.4448  -2.1344 C.3            1 S1                 0.0000
     16 ****         2.8302   0.9600  -1.8833 C.3            1 S1                 0.0000
     17 ****         3.0578   1.4048  -0.4268 C.3            1 S1                 0.0000
     18 ****        -3.8897  -0.0269  -0.1646 C.2            1 S1                 0.0000
     19 ****        -5.4197   2.2294  -2.2874 H              1 S1                 0.0000
     20 ****        -5.9384   2.0109  -0.6261 H              1 S1                 0.0000
     21 ****        -6.2311   0.7496  -1.8110 H              1 S1                 0.0000
     22 ****        -2.7020   1.7237  -2.6296 H              1 S1                 0.0000
     23 ****        -2.4306  -1.9903   0.9389 H              1 S1                 0.0000
     24 ****        -1.0244  -1.7152  -0.0430 H              1 S1                 0.0000
     25 ****        -1.4197   0.5668   1.8024 H              1 S1                 0.0000
     26 ****        -2.5749  -1.0748   3.2515 H              1 S1                 0.0000
     27 ****        -1.0399  -0.5780   3.9503 H              1 S1                 0.0000
     28 ****        -1.1820  -2.1511   3.1690 H              1 S1                 0.0000
     29 ****         0.7662  -0.1839   2.5442 H              1 S1                 0.0000
     30 ****         0.5496   0.1388  -0.3442 H              1 S1                 0.0000
     31 ****         0.5943   1.4402   0.8206 H              1 S1                 0.0000
     32 ****         3.8848   0.8570   1.8619 H              1 S1                 0.0000
     33 ****         4.1508  -1.0013   0.5018 H              1 S1                 0.0000
     34 ****         2.6671  -1.7519   1.0081 H              1 S1                 0.0000
     35 ****         3.3084  -2.4371  -1.2974 H              1 S1                 0.0000
     36 ****         1.7726  -1.6119  -1.3122 H              1 S1                 0.0000
     37 ****         4.4873  -0.4154  -2.0519 H              1 S1                 0.0000
     38 ****         3.1768  -0.7603  -3.1541 H              1 S1                 0.0000
     39 ****         3.2982   1.6731  -2.5627 H              1 S1                 0.0000
     40 ****         1.7660   0.9740  -2.1193 H              1 S1                 0.0000
     41 ****         2.6215   2.3922  -0.2702 H              1 S1                 0.0000
     42 ****         4.1313   1.5228  -0.2688 H              1 S1                 0.0000
     43 ****        -4.5230  -0.4850   0.5811 H              1 S1                 0.0000
     44 ****         0.6958  -1.4210   1.4725 H              1 S1                 0.0000
     45 ****        -0.9886   0.3515  -1.5205 LP             1 S1                 0.0000
     46 ****         2.6401   0.1626   2.5691 LP             1 S1                 0.0000
     47 ****         2.5655   1.7191   2.0809 LP             1 S1                 0.0000
@<TRIPOS>BOND
    1    1    2 1     
    2    1   19 1     
    3    1   20 1     
    4    1   21 1     
    5    2   18 2     
    6    2    3 1     
    7    3    4 2     
    8    3   22 1     
    9    4    5 1     
   10    5    6 1     
   11    5   18 1     
   12    6    7 1     
   13    6   23 1     
   14    6   24 1     
   15    7    8 1     
   16    7    9 1     
   17    7   25 1     
   18    8   26 1     
   19    8   27 1     
   20    8   28 1     
   21    9   10 1     
   22    9   29 1     
   23    9   44 1     
   24   10   11 1     
   25   10   30 1     
   26   10   31 1     
   27   11   17 1     
   28   11   12 1     
   29   11   13 1     
   30   12   32 1     
   31   13   14 1     
   32   13   33 1     
   33   13   34 1     
   34   14   15 1     
   35   14   35 1     
   36   14   36 1     
   37   15   16 1     
   38   15   37 1     
   39   15   38 1     
   40   16   17 1     
   41   16   39 1     
   42   16   40 1     
   43   17   41 1     
   44   17   42 1     
   45   18   43 1     
   46    4   45 1     
   47   12   46 1     
   48   12   47 1     
@<TRIPOS>SUBSTRUCTURE
      1 S1             1
@<TRIPOS>SET
LONE_PAIRS      STATIC     ATOMS    <user>   **** ""
3 45 46 47
DONOR_HYDROGENS      STATIC     ATOMS    <user>   **** ""
3 29 44 32
ATOM$BLUE        STATIC     ATOMS    COLORGROUP SYSTEM
3 45 46 47
ATOM$RED        STATIC     ATOMS    COLORGROUP SYSTEM
3 29 44 32
