AV-unprocessed.smi:2695|AV-procd|sdf|10410|dock6
  -GOLD-   2272014443D 1   1.00000     0.00000
 Structure written by MMmdl.
 42 43  0  0  0  0  0  0  0  0  1 V2000
  148.7950  140.6005  154.5306 C   0  0  0  0  0  0  0  0  0  0  0  0
  149.9277  139.6175  154.8013 C   0  0  0  0  0  0  0  0  0  0  0  0
  149.8924  138.3651  154.3106 C   0  0  0  0  0  0  0  0  0  0  0  0
  150.9622  137.4464  154.6128 C   0  0  0  0  0  0  0  0  0  0  0  0
  150.9368  136.2021  154.1193 O   0  0  0  0  0  0  0  0  0  0  0  0
  151.9791  137.8447  155.3990 C   0  0  0  0  0  0  0  0  0  0  0  0
  152.0428  139.1976  155.9568 C   0  0  0  0  0  0  0  0  0  0  0  0
  152.9710  139.5448  156.6886 O   0  0  0  0  0  0  0  0  0  0  0  0
  151.0188  140.0447  155.6141 N   0  0  0  0  0  0  0  0  0  0  0  0
  151.0620  141.4387  156.1143 C   0  0  0  0  0  0  0  0  0  0  0  0
  151.0792  141.5448  157.6472 C   0  0  0  0  0  0  0  0  0  0  0  0
  150.7219  140.6007  158.3529 O   0  0  0  0  0  0  0  0  0  0  0  0
  151.4994  142.7188  158.1420 N   0  0  0  0  0  0  0  0  0  0  0  0
  151.5960  143.0728  159.5596 C   0  0  1  0  0  0  0  0  0  0  0  0
  152.9355  142.5425  160.1319 C   0  0  0  0  0  0  0  0  0  0  0  0
  153.3411  141.1587  159.6073 C   0  0  0  0  0  0  0  0  0  0  0  0
  154.4017  140.6632  160.5910 C   0  0  0  0  0  0  0  0  0  0  0  0
  154.0641  141.3193  161.9358 C   0  0  0  0  0  0  0  0  0  0  0  0
  152.9586  142.3460  161.6542 C   0  0  0  0  0  0  0  0  0  0  0  0
  151.4132  144.6012  159.7038 C   0  0  0  0  0  0  0  0  0  0  0  0
  150.1260  144.9181  159.5566 F   0  0  0  0  0  0  0  0  0  0  0  0
  151.7981  145.0185  160.9091 F   0  0  0  0  0  0  0  0  0  0  0  0
  152.1201  145.2474  158.7758 F   0  0  0  0  0  0  0  0  0  0  0  0
  147.9256  140.0822  154.1247 H   0  0  0  0  0  0  0  0  0  0  0  0
  149.1028  141.3491  153.8003 H   0  0  0  0  0  0  0  0  0  0  0  0
  148.4640  141.1032  155.4390 H   0  0  0  0  0  0  0  0  0  0  0  0
  149.0602  138.0397  153.7030 H   0  0  0  0  0  0  0  0  0  0  0  0
  150.9091  136.2698  153.1773 H   0  0  0  0  0  0  0  0  0  0  0  0
  152.7770  137.1528  155.6277 H   0  0  0  0  0  0  0  0  0  0  0  0
  151.9426  141.9580  155.7318 H   0  0  0  0  0  0  0  0  0  0  0  0
  150.2366  142.0326  155.7241 H   0  0  0  0  0  0  0  0  0  0  0  0
  151.7683  143.4356  157.4837 H   0  0  0  0  0  0  0  0  0  0  0  0
  150.7850  142.5956  160.1126 H   0  0  0  0  0  0  0  0  0  0  0  0
  153.7325  143.2408  159.8707 H   0  0  0  0  0  0  0  0  0  0  0  0
  152.4820  140.4864  159.6282 H   0  0  0  0  0  0  0  0  0  0  0  0
  153.7135  141.1871  158.5826 H   0  0  0  0  0  0  0  0  0  0  0  0
  154.4238  139.5748  160.6542 H   0  0  0  0  0  0  0  0  0  0  0  0
  155.3886  140.9918  160.2625 H   0  0  0  0  0  0  0  0  0  0  0  0
  153.7256  140.5811  162.6636 H   0  0  0  0  0  0  0  0  0  0  0  0
  154.9487  141.8033  162.3511 H   0  0  0  0  0  0  0  0  0  0  0  0
  153.1298  143.2800  162.1902 H   0  0  0  0  0  0  0  0  0  0  0  0
  152.0022  141.9443  161.9921 H   0  0  0  0  0  0  0  0  0  0  0  0
  1  2  1  0  0  0  0
  1 24  1  0  0  0  0
  1 25  1  0  0  0  0
  1 26  1  0  0  0  0
  2  9  1  0  0  0  0
  2  3  2  0  0  0  0
  3  4  1  0  0  0  0
  3 27  1  0  0  0  0
  4  5  1  0  0  0  0
  4  6  2  0  0  0  0
  5 28  1  0  0  0  0
  6  7  1  0  0  0  0
  6 29  1  0  0  0  0
  7  8  2  0  0  0  0
  7  9  1  0  0  0  0
  9 10  1  0  0  0  0
 10 11  1  0  0  0  0
 10 30  1  0  0  0  0
 10 31  1  0  0  0  0
 11 12  2  0  0  0  0
 11 13  1  0  0  0  0
 13 14  1  0  0  0  0
 13 32  1  0  0  0  0
 14 15  1  0  0  0  0
 14 20  1  0  0  0  0
 14 33  1  0  0  0  0
 15 19  1  0  0  0  0
 15 16  1  0  0  0  0
 15 34  1  0  0  0  0
 16 17  1  0  0  0  0
 16 35  1  0  0  0  0
 16 36  1  0  0  0  0
 17 18  1  0  0  0  0
 17 37  1  0  0  0  0
 17 38  1  0  0  0  0
 18 19  1  0  0  0  0
 18 39  1  0  0  0  0
 18 40  1  0  0  0  0
 19 41  1  0  0  0  0
 19 42  1  0  0  0  0
 20 21  1  0  0  0  0
 20 22  1  0  0  0  0
 20 23  1  0  0  0  0
M  END
> <s_m_source_file>
AV-unprocessed.smi

> <i_m_source_file_index>
2695

> <i_lp_mmshare_version>
43012

> <i_f3d_flags>
0

> <s_epik_input>
W0NIM11jMVtjSF1jKFtPSF0pW2NIXWMoPU8pbjFbQ0gyXUMoPU8pW05IXVtDQEBIXShDKEYpKEYpRilbQ0hdMltDSDJdW0NIMl1bQ0gyXVtDSDJdMg==

> <s_epik_cmdline>
J2VwaWtfcHl0aG9uJywgJy1waCcsICc3LjAnLCAnLXRuJywgJzgnLCAnLW1hJywgJzIwMCcsICctbWV0YWxfYmluZGluZycsICctaW1hZScsICc8aW5maWxlLm1hZT4nLCAnLW9tYWUnLCAnPG91dGZpbGUubWFlPic=

> <r_lp_tautomer_probability>
0.999984

> <r_epik_Ionization_Penalty>
0.843628

> <r_epik_Ionization_Penalty_Charging>
1.18449e-07

> <r_epik_Ionization_Penalty_Neutral>
0.843628

> <r_epik_State_Penalty>
0.886913

> <r_epik_Charging_Adjusted_Penalty>
0.886913

> <i_epik_Tot_Q>
0

> <i_epik_Tot_abs_Q>
0

> <r_epik_Metal_State_Penalty>
0.886913

> <b_epik_Metal_Only>
0

> <s_lp_Force_Field>
OPLS_2005

> <r_lp_Energy>
35.4527

> <b_lp_Chiralities_Consistent>
1

> <s_lp_Variant>
AV-unprocessed.smi:2695-4

> <Gold.Version>
5.8.1

> <Gold.Id.Protein>
6NUR|6NUR_protein|mol2

> <Gold.PLP.Fitness>
63.9371

> <Gold.PLP.PLP>
-57.9356

> <Gold.PLP.part.hbond>
-3.6463

> <Gold.PLP.part.metal>
0.0000

> <Gold.PLP.part.buried>
-3.9282

> <Gold.PLP.part.nonpolar>
-51.1741

> <Gold.PLP.part.repulsive>
0.0399

> <Gold.PLP.ligand.clash>
0.0000

> <Gold.PLP.ligand.torsion>
1.3936

> <Gold.PLP.Chemscore.Hbond>
2.8199

> <Gold.PLP.Chemscore.CHOScore>
0.0000

> <Gold.PLP.Chemscore.Metal>
0.0000

> <Gold.Chemscore.Hbonds>
donor molecule, donor type, donor heavy atom, donor atom, acceptor molecule, acceptor atom, score
      L1  H     5    28       P1  7949  0.80
      P1  H  7997  8009       L1     8  0.98
      P1  H 10752 10764       L1     5  0.80

> <Gold.PLP.Chemscore.Internal.Correction>
0.3291

> <Gold.Rescore>
     Score         DG    S(hbond)    S(metal)    S(lipo)     H(rot)  DE(clash)    DE(int)     intcor
     15.14     -17.95       1.46        0.00     116.45       2.36       0.48       2.34       ----

> <Gold.Chemscore.Fitness>
15.1364

> <Gold.Chemscore.DG>
-17.9549

> <Gold.Chemscore.ZeroCoef>
-5.4800

> <Gold.Chemscore.Hbond>
1.4644

> <Gold.Chemscore.Metal>
0.0000

> <Gold.Chemscore.Lipo>
116.4533

> <Gold.Chemscore.Internal_Hbond>
0.0000

> <Gold.Chemscore.DEClash>
0.4816

> <Gold.Chemscore.DEInternal>
2.3369

> <Gold.Chemscore.Rot>
2.3599

> <Gold.Chemscore.Internal.Correction>
   9.000000E+99

> <Gold.Chemscore.Hbonds>
donor molecule, donor type, donor heavy atom, donor atom, acceptor molecule, acceptor atom, score
      L1  H     5    28       P1  7949  0.12
      P1  H  7997  8009       L1     8  0.91
      P1  H 10752 10764       L1     5  0.05

> <Gold.Chemscore.Hbond.Weighted>
-4.8912

> <Gold.Chemscore.Metal.Weighted>
-0.0000

> <Gold.Chemscore.Lipo.Weighted>
-13.6250

> <Gold.Chemscore.Internal_Hbond.Weighted>
0.0000

> <Gold.Chemscore.DEClash.Weighted>
0.4816

> <Gold.Chemscore.DEInternal.Weighted>
2.3369

> <Gold.Chemscore.Rot.Weighted>
6.0413

> <Gold.Chemscore.Internal.Correction.Weighted>
   9.000000E+99

> <Gold.Protein.RotatedTorsions>
[ 6907 6896 6895 6894 ] final  -79.32 input  -60.11 | X-H torsion
[ 7974 7965 7964 7962 ] final  145.06 input  175.53 | X-H torsion
[ 8008 7997 7996 7995 ] final -153.00 input   59.86 | X-H torsion
[ 10167 10162 10161 10158 ] final    3.92 input  -65.29 | X-H torsion
[ 10718 10713 10712 10709 ] final   95.83 input   66.30 | X-H torsion
[ 10763 10752 10751 10750 ] final  -76.21 input  -60.55 | X-H torsion
[ 11005 11000 10999 10996 ] final  118.72 input  -57.11 | X-H torsion

> <Gold.Protein.ActiveResidues>
 VAL166  LYS551  ARG553  GLY616  TRP617  ASP618  TYR619  PRO620  LYS621  CYS622 
 ASP623  PHE694  ASN695  SER759  ASP760  ASP761  ALA762  ILE779  LEU786  VAL792 
 PHE793  MET794  SER795  GLU796  ALA797  LYS798  CYS799  TRP800  GLU811  SER814 

> <Gold.Protein.RotatedAtoms>
  150.6952  134.4139  159.5173 H   0  0  0  0  0  0  0  0  0  0  0  0  # atno 6907 bound_to 6896
  152.1893  134.8683  160.0528 H   0  0  0  0  0  0  0  0  0  0  0  0  # atno 6908 bound_to 6896
  151.9645  133.3671  159.4084 H   0  0  0  0  0  0  0  0  0  0  0  0  # atno 6909 bound_to 6896
  144.8784  139.5737  143.5854 H   0  0  0  0  0  0  0  0  0  0  0  0  # atno 7974 bound_to 7965
  155.6640  140.0726  157.2544 H   0  0  0  0  0  0  0  0  0  0  0  0  # atno 8008 bound_to 7997
  154.4136  140.1711  156.1858 H   0  0  0  0  0  0  0  0  0  0  0  0  # atno 8009 bound_to 7997
  155.9673  140.3365  155.6547 H   0  0  0  0  0  0  0  0  0  0  0  0  # atno 8010 bound_to 7997
  140.6561  143.7422  150.7657 H   0  0  0  0  0  0  0  0  0  0  0  0  # atno 10167 bound_to 10162
  157.6934  131.0558  150.4399 H   0  0  0  0  0  0  0  0  0  0  0  0  # atno 10718 bound_to 10713
  154.4968  135.5805  153.6500 H   0  0  0  0  0  0  0  0  0  0  0  0  # atno 10763 bound_to 10752
  152.9871  135.6126  154.3054 H   0  0  0  0  0  0  0  0  0  0  0  0  # atno 10764 bound_to 10752
  154.2959  135.2847  155.2613 H   0  0  0  0  0  0  0  0  0  0  0  0  # atno 10765 bound_to 10752
  139.9120  134.9623  156.7546 H   0  0  0  0  0  0  0  0  0  0  0  0  # atno 11005 bound_to 11000
  146.2978  139.7332  142.9114 LP  0  0  0  0  0  0  0  0  0  0  0  0  # atno 17320 bound_to 7965
  145.4000  141.0384  143.3076 LP  0  0  0  0  0  0  0  0  0  0  0  0  # atno 17321 bound_to 7965
  140.1082  143.4723  152.2385 LP  0  0  0  0  0  0  0  0  0  0  0  0  # atno 17342 bound_to 10162
  139.5784  144.7499  151.3703 LP  0  0  0  0  0  0  0  0  0  0  0  0  # atno 17343 bound_to 10162
  156.4758  130.4063  149.6490 LP  0  0  0  0  0  0  0  0  0  0  0  0  # atno 17370 bound_to 10713
  156.3554  130.7454  151.2419 LP  0  0  0  0  0  0  0  0  0  0  0  0  # atno 17371 bound_to 10713
  140.6746  133.9529  155.7875 LP  0  0  0  0  0  0  0  0  0  0  0  0  # atno 17394 bound_to 11000
  141.0553  134.0425  157.3730 LP  0  0  0  0  0  0  0  0  0  0  0  0  # atno 17395 bound_to 11000

$$$$
