AV-unprocessed.smi:1920|AV-procd|sdf|7782|dock8
  -GOLD-   22720 9523D 1   1.00000     0.00000
 Structure written by MMmdl.
 36 37  0  0  0  0  0  0  0  0  1 V2000
  147.7352  141.5724  156.5127 C   0  0  0  0  0  0  0  0  0  0  0  0
  149.2444  141.3345  156.3489 C   0  0  1  0  0  0  0  0  0  0  0  0
  149.5847  140.8293  154.9340 C   0  0  0  0  0  0  0  0  0  0  0  0
  150.5407  139.7373  154.9538 N   0  0  0  0  0  0  0  0  0  0  0  0
  150.6255  138.6824  154.0548 C   0  0  0  0  0  0  0  0  0  0  0  0
  151.6757  137.8953  154.4703 C   0  0  0  0  0  0  0  0  0  0  0  0
  152.2497  138.4451  155.6143 N   0  0  0  0  0  0  0  0  0  0  0  0
  151.5259  139.5340  155.8393 C   0  0  0  0  0  0  0  0  0  0  0  0
  149.9742  142.5688  156.6309 N   0  0  0  0  0  0  0  0  0  0  0  0
  150.9338  142.7104  157.5578 C   0  0  0  0  0  0  0  0  0  0  0  0
  151.3184  141.7914  158.2809 O   0  0  0  0  0  0  0  0  0  0  0  0
  151.5522  144.1057  157.6924 C   0  0  0  0  0  0  0  0  0  0  0  0
  152.1779  144.3667  159.0799 C   0  0  2  0  0  0  0  0  0  0  0  0
  153.2443  143.3689  159.4646 C   0  0  0  0  0  0  0  0  0  0  0  0
  153.0333  142.8284  160.6625 C   0  0  0  0  0  0  0  0  0  0  0  0
  151.7870  143.3540  161.3190 C   0  0  0  0  0  0  0  0  0  0  0  0
  151.1564  144.2638  160.2413 C   0  0  0  0  0  0  0  0  0  0  0  0
  147.1723  140.6572  156.3279 H   0  0  0  0  0  0  0  0  0  0  0  0
  147.3751  142.3312  155.8172 H   0  0  0  0  0  0  0  0  0  0  0  0
  147.4938  141.9054  157.5226 H   0  0  0  0  0  0  0  0  0  0  0  0
  149.5454  140.5657  157.0633 H   0  0  0  0  0  0  0  0  0  0  0  0
  148.6824  140.4734  154.4350 H   0  0  0  0  0  0  0  0  0  0  0  0
  149.9828  141.6386  154.3197 H   0  0  0  0  0  0  0  0  0  0  0  0
  149.9488  138.5806  153.2193 H   0  0  0  0  0  0  0  0  0  0  0  0
  152.0595  136.9835  154.0368 H   0  0  0  0  0  0  0  0  0  0  0  0
  151.7144  140.1979  156.6703 H   0  0  0  0  0  0  0  0  0  0  0  0
  149.7258  143.3796  156.0826 H   0  0  0  0  0  0  0  0  0  0  0  0
  152.3164  144.2105  156.9215 H   0  0  0  0  0  0  0  0  0  0  0  0
  150.7961  144.8636  157.4802 H   0  0  0  0  0  0  0  0  0  0  0  0
  152.6391  145.3554  159.0955 H   0  0  0  0  0  0  0  0  0  0  0  0
  154.0883  143.1485  158.8273 H   0  0  0  0  0  0  0  0  0  0  0  0
  153.6761  142.1046  161.1413 H   0  0  0  0  0  0  0  0  0  0  0  0
  151.1230  142.5366  161.6015 H   0  0  0  0  0  0  0  0  0  0  0  0
  152.0522  143.9152  162.2153 H   0  0  0  0  0  0  0  0  0  0  0  0
  150.9101  145.2471  160.6433 H   0  0  0  0  0  0  0  0  0  0  0  0
  150.2220  143.8200  159.8950 H   0  0  0  0  0  0  0  0  0  0  0  0
  1  2  1  0  0  0  0
  1 18  1  0  0  0  0
  1 19  1  0  0  0  0
  1 20  1  0  0  0  0
  2  3  1  0  0  0  0
  2  9  1  0  0  0  0
  2 21  1  0  0  0  0
  3  4  1  0  0  0  0
  3 22  1  0  0  0  0
  3 23  1  0  0  0  0
  4  8  1  0  0  0  0
  4  5  1  0  0  0  0
  5  6  2  0  0  0  0
  5 24  1  0  0  0  0
  6  7  1  0  0  0  0
  6 25  1  0  0  0  0
  7  8  2  0  0  0  0
  8 26  1  0  0  0  0
  9 10  1  0  0  0  0
  9 27  1  0  0  0  0
 10 11  2  0  0  0  0
 10 12  1  0  0  0  0
 12 13  1  0  0  0  0
 12 28  1  0  0  0  0
 12 29  1  0  0  0  0
 13 17  1  0  0  0  0
 13 14  1  0  0  0  0
 13 30  1  0  0  0  0
 14 15  2  0  0  0  0
 14 31  1  0  0  0  0
 15 16  1  0  0  0  0
 15 32  1  0  0  0  0
 16 17  1  0  0  0  0
 16 33  1  0  0  0  0
 16 34  1  0  0  0  0
 17 35  1  0  0  0  0
 17 36  1  0  0  0  0
M  END
> <s_m_source_file>
AV-unprocessed.smi

> <i_m_source_file_index>
1920

> <i_lp_mmshare_version>
43012

> <i_f3d_flags>
0

> <s_epik_input>
W2NIXTFuW2NIXVtjSF1uMVtDSDJdW0NAQEhdKFtDSDNdKVtOSF1DKD1PKVtDSDJdW0NAQEhdMltDSF09W0NIXVtDSDJdW0NIMl0y

> <s_epik_cmdline>
J2VwaWtfcHl0aG9uJywgJy1waCcsICc3LjAnLCAnLXRuJywgJzgnLCAnLW1hJywgJzIwMCcsICctbWV0YWxfYmluZGluZycsICctaW1hZScsICc8aW5maWxlLm1hZT4nLCAnLW9tYWUnLCAnPG91dGZpbGUubWFlPic=

> <r_lp_tautomer_probability>
1

> <r_epik_Ionization_Penalty>
0.635367

> <r_epik_Ionization_Penalty_Charging>
0.635367

> <r_epik_Ionization_Penalty_Neutral>
2.1249e-08

> <r_epik_State_Penalty>
0.65258

> <r_epik_Charging_Adjusted_Penalty>
1.28795

> <i_epik_Tot_Q>
0

> <i_epik_Tot_abs_Q>
0

> <r_epik_Metal_State_Penalty>
0.310403

> <b_epik_Metal_Only>
0

> <s_lp_Force_Field>
OPLS_2005

> <r_lp_Energy>
19.6981

> <b_lp_Chiralities_Consistent>
1

> <s_lp_Variant>
AV-unprocessed.smi:1920-6

> <Gold.Version>
5.8.1

> <Gold.Id.Protein>
6NUR|6NUR_protein|mol2

> <Gold.PLP.Fitness>
50.0314

> <Gold.PLP.PLP>
-42.8406

> <Gold.PLP.part.hbond>
-1.0000

> <Gold.PLP.part.metal>
0.0000

> <Gold.PLP.part.buried>
-4.0736

> <Gold.PLP.part.nonpolar>
-37.7557

> <Gold.PLP.part.repulsive>
0.0848

> <Gold.PLP.ligand.clash>
0.0000

> <Gold.PLP.ligand.torsion>
1.3362

> <Gold.PLP.Chemscore.Hbond>
1.0000

> <Gold.PLP.Chemscore.CHOScore>
2.2776

> <Gold.PLP.Chemscore.Metal>
0.0000

> <Gold.Chemscore.Hbonds>
donor molecule, donor type, donor heavy atom, donor atom, acceptor molecule, acceptor atom, score
      L1  H     9    27       P1  8028  1.00
      L1  C     5    24       P1  7948  0.22
      L1  C     5    24       P1  7957  1.00
      L1  C     6    25       P1  7949  0.13

> <Gold.PLP.Chemscore.Internal.Correction>
0.0303

> <Gold.Rescore>
     Score         DG    S(hbond)    S(metal)    S(lipo)     H(rot)  DE(clash)    DE(int)     intcor
     13.76     -16.23       1.00        0.00     105.72       1.93       0.03       2.44       ----

> <Gold.Chemscore.Fitness>
13.7603

> <Gold.Chemscore.DG>
-16.2346

> <Gold.Chemscore.ZeroCoef>
-5.4800

> <Gold.Chemscore.Hbond>
0.9964

> <Gold.Chemscore.Metal>
0.0000

> <Gold.Chemscore.Lipo>
105.7179

> <Gold.Chemscore.Internal_Hbond>
0.0000

> <Gold.Chemscore.DEClash>
0.0309

> <Gold.Chemscore.DEInternal>
2.4434

> <Gold.Chemscore.Rot>
1.9306

> <Gold.Chemscore.Internal.Correction>
   9.000000E+99

> <Gold.Chemscore.Hbonds>
donor molecule, donor type, donor heavy atom, donor atom, acceptor molecule, acceptor atom, score
      L1  H     9    27       P1  8028  0.99

> <Gold.Chemscore.Hbond.Weighted>
-3.3280

> <Gold.Chemscore.Metal.Weighted>
-0.0000

> <Gold.Chemscore.Lipo.Weighted>
-12.3690

> <Gold.Chemscore.Internal_Hbond.Weighted>
0.0000

> <Gold.Chemscore.DEClash.Weighted>
0.0309

> <Gold.Chemscore.DEInternal.Weighted>
2.4434

> <Gold.Chemscore.Rot.Weighted>
4.9424

> <Gold.Chemscore.Internal.Correction.Weighted>
   9.000000E+99

> <Gold.Protein.RotatedTorsions>
[ 6907 6896 6895 6894 ] final  -42.64 input  -60.11 | X-H torsion
[ 7974 7965 7964 7962 ] final  -54.70 input  175.53 | X-H torsion
[ 8008 7997 7996 7995 ] final  160.68 input   59.86 | X-H torsion
[ 10167 10162 10161 10158 ] final  -81.49 input  -65.29 | X-H torsion
[ 10718 10713 10712 10709 ] final   70.72 input   66.30 | X-H torsion
[ 10763 10752 10751 10750 ] final   14.93 input  -60.55 | X-H torsion
[ 11005 11000 10999 10996 ] final -128.82 input  -57.11 | X-H torsion

> <Gold.Protein.ActiveResidues>
 VAL166  LYS551  ARG553  GLY616  TRP617  ASP618  TYR619  PRO620  LYS621  CYS622 
 ASP623  PHE694  ASN695  SER759  ASP760  ASP761  ALA762  ILE779  LEU786  VAL792 
 PHE793  MET794  SER795  GLU796  ALA797  LYS798  CYS799  TRP800  GLU811  SER814 

> <Gold.Protein.RotatedAtoms>
  150.9529  134.8927  159.7682 H   0  0  0  0  0  0  0  0  0  0  0  0  # atno 6907 bound_to 6896
  152.5126  134.3781  159.9351 H   0  0  0  0  0  0  0  0  0  0  0  0  # atno 6908 bound_to 6896
  151.3796  133.3785  159.2743 H   0  0  0  0  0  0  0  0  0  0  0  0  # atno 6909 bound_to 6896
  145.8825  140.8133  142.9832 H   0  0  0  0  0  0  0  0  0  0  0  0  # atno 7974 bound_to 7965
  156.2155  140.1797  156.7598 H   0  0  0  0  0  0  0  0  0  0  0  0  # atno 8008 bound_to 7997
  154.5786  140.0670  156.9099 H   0  0  0  0  0  0  0  0  0  0  0  0  # atno 8009 bound_to 7997
  155.2544  140.3331  155.4281 H   0  0  0  0  0  0  0  0  0  0  0  0  # atno 8010 bound_to 7997
  140.4407  143.2516  151.8630 H   0  0  0  0  0  0  0  0  0  0  0  0  # atno 10167 bound_to 10162
  157.6415  130.9492  150.0690 H   0  0  0  0  0  0  0  0  0  0  0  0  # atno 10718 bound_to 10713
  153.1574  135.6789  153.8793 H   0  0  0  0  0  0  0  0  0  0  0  0  # atno 10763 bound_to 10752
  153.8199  135.3131  155.3410 H   0  0  0  0  0  0  0  0  0  0  0  0  # atno 10764 bound_to 10752
  154.7907  135.4836  154.0135 H   0  0  0  0  0  0  0  0  0  0  0  0  # atno 10765 bound_to 10752
  140.9484  134.1098  157.4085 H   0  0  0  0  0  0  0  0  0  0  0  0  # atno 11005 bound_to 11000
  144.6727  140.1406  143.7437 LP  0  0  0  0  0  0  0  0  0  0  0  0  # atno 17320 bound_to 7965
  145.9006  139.2428  143.1496 LP  0  0  0  0  0  0  0  0  0  0  0  0  # atno 17321 bound_to 7965
  139.4789  144.5232  151.8771 LP  0  0  0  0  0  0  0  0  0  0  0  0  # atno 17342 bound_to 10162
  140.4322  144.2100  150.5888 LP  0  0  0  0  0  0  0  0  0  0  0  0  # atno 17343 bound_to 10162
  156.1700  130.3646  149.9178 LP  0  0  0  0  0  0  0  0  0  0  0  0  # atno 17370 bound_to 10713
  156.7156  130.8987  151.3613 LP  0  0  0  0  0  0  0  0  0  0  0  0  # atno 17371 bound_to 10713
  139.8840  135.0058  156.6340 LP  0  0  0  0  0  0  0  0  0  0  0  0  # atno 17394 bound_to 11000
  140.7637  133.8796  155.8437 LP  0  0  0  0  0  0  0  0  0  0  0  0  # atno 17395 bound_to 11000

$$$$
