AV-unprocessed.smi:1952|AV-procd|sdf|7889|dock4
  -GOLD-   2272010 43D 1   1.00000     0.00000
 Structure written by MMmdl.
 39 40  0  0  0  0  0  0  0  0  3 V2000
  150.7189  144.7174  160.1301 C   0  0  0  0  0  0  0  0  0  0  0  0
  151.7866  143.7061  160.3706 C   0  0  0  0  0  0  0  0  0  0  0  0
  152.8082  143.2304  159.5985 C   0  0  0  0  0  0  0  0  0  0  0  0
  153.4466  142.2883  160.4498 C   0  0  0  0  0  0  0  0  0  0  0  0
  154.5151  141.5400  160.1353 N   0  5  0  0  0  0  0  0  0  0  0  0
  154.4615  140.1954  160.2600 C   0  0  0  0  0  0  0  0  0  0  0  0
  154.2402  139.3872  159.3556 O   0  0  0  0  0  0  0  0  0  0  0  0
  154.7132  139.7598  161.5040 N   0  0  0  0  0  0  0  0  0  0  0  0
  154.8297  138.3658  161.9369 C   0  0  2  0  0  0  0  0  0  0  0  0
  153.5199  137.6284  161.6283 C   0  0  0  0  0  0  0  0  0  0  0  0
  155.1833  138.2874  163.4397 C   0  0  0  0  0  0  0  0  0  0  0  0
  155.2834  136.8900  163.9304 N   0  3  0  0  0  0  0  0  0  0  0  0
  156.1211  136.0193  163.0748 C   0  0  0  0  0  0  0  0  0  0  0  0
  156.0750  134.5725  163.5958 C   0  0  0  0  0  0  0  0  0  0  0  0
  156.5029  134.5379  164.9527 O   0  0  0  0  0  0  0  0  0  0  0  0
  155.6629  135.3161  165.7981 C   0  0  0  0  0  0  0  0  0  0  0  0
  155.7032  136.7855  165.3480 C   0  0  0  0  0  0  0  0  0  0  0  0
  152.8561  142.1898  161.6297 N   0  0  0  0  0  0  0  0  0  0  0  0
  151.7944  143.1016  161.5890 O   0  0  0  0  0  0  0  0  0  0  0  0
  149.7420  144.3242  160.4113 H   0  0  0  0  0  0  0  0  0  0  0  0
  150.6796  144.9987  159.0777 H   0  0  0  0  0  0  0  0  0  0  0  0
  150.9027  145.6188  160.7147 H   0  0  0  0  0  0  0  0  0  0  0  0
  153.0609  143.5122  158.5873 H   0  0  0  0  0  0  0  0  0  0  0  0
  154.8750  140.4651  162.2082 H   0  0  0  0  0  0  0  0  0  0  0  0
  155.6136  137.8713  161.3616 H   0  0  0  0  0  0  0  0  0  0  0  0
  153.5841  136.5784  161.9149 H   0  0  0  0  0  0  0  0  0  0  0  0
  153.2910  137.6648  160.5626 H   0  0  0  0  0  0  0  0  0  0  0  0
  152.6782  138.0690  162.1642 H   0  0  0  0  0  0  0  0  0  0  0  0
  156.1446  138.7826  163.5848 H   0  0  0  0  0  0  0  0  0  0  0  0
  154.4620  138.8432  164.0407 H   0  0  0  0  0  0  0  0  0  0  0  0
  155.7581  136.0476  162.0467 H   0  0  0  0  0  0  0  0  0  0  0  0
  157.1480  136.3879  163.0667 H   0  0  0  0  0  0  0  0  0  0  0  0
  155.0681  134.1602  163.5095 H   0  0  0  0  0  0  0  0  0  0  0  0
  156.7316  133.9372  163.0012 H   0  0  0  0  0  0  0  0  0  0  0  0
  154.6424  134.9297  165.7759 H   0  0  0  0  0  0  0  0  0  0  0  0
  156.0155  135.2277  166.8258 H   0  0  0  0  0  0  0  0  0  0  0  0
  156.7110  137.1867  165.4647 H   0  0  0  0  0  0  0  0  0  0  0  0
  155.0474  137.3801  165.9832 H   0  0  0  0  0  0  0  0  0  0  0  0
  154.3467  136.5132  163.8758 H   0  0  0  0  0  0  0  0  0  0  0  0
  1  2  1  0  0  0  0
  1 20  1  0  0  0  0
  1 21  1  0  0  0  0
  1 22  1  0  0  0  0
  2 19  1  0  0  0  0
  2  3  2  0  0  0  0
  3  4  1  0  0  0  0
  3 23  1  0  0  0  0
  4  5  1  0  0  0  0
  4 18  2  0  0  0  0
  5  6  1  0  0  0  0
  6  7  2  0  0  0  0
  6  8  1  0  0  0  0
  8  9  1  0  0  0  0
  8 24  1  0  0  0  0
  9 10  1  0  0  0  0
  9 11  1  0  0  0  0
  9 25  1  0  0  0  0
 10 26  1  0  0  0  0
 10 27  1  0  0  0  0
 10 28  1  0  0  0  0
 11 12  1  0  0  0  0
 11 29  1  0  0  0  0
 11 30  1  0  0  0  0
 12 17  1  0  0  0  0
 12 13  1  0  0  0  0
 12 39  1  0  0  0  0
 13 14  1  0  0  0  0
 13 31  1  0  0  0  0
 13 32  1  0  0  0  0
 14 15  1  0  0  0  0
 14 33  1  0  0  0  0
 14 34  1  0  0  0  0
 15 16  1  0  0  0  0
 16 17  1  0  0  0  0
 16 35  1  0  0  0  0
 16 36  1  0  0  0  0
 17 37  1  0  0  0  0
 17 38  1  0  0  0  0
 18 19  1  0  0  0  0
M  CHG  1   5  -1
M  CHG  1  12   1
M  END
> <s_m_source_file>
AV-unprocessed.smi

> <i_m_source_file_index>
1952

> <i_lp_mmshare_version>
43012

> <i_f3d_flags>
0

> <s_epik_input>
W0NIM11jMVtjSF1jKG5vMSlbTkhdQyg9TylbTkhdW0NASF0oW0NIM10pW0NIMl1OMltDSDJdW0NIMl1PW0NIMl1bQ0gyXTI=

> <s_epik_cmdline>
J2VwaWtfcHl0aG9uJywgJy1waCcsICc3LjAnLCAnLXRuJywgJzgnLCAnLW1hJywgJzIwMCcsICctbWV0YWxfYmluZGluZycsICctaW1hZScsICc8aW5maWxlLm1hZT4nLCAnLW9tYWUnLCAnPG91dGZpbGUubWFlPic=

> <r_epik_Ionization_Penalty>
6.62152

> <r_epik_Ionization_Penalty_Charging>
6.62142

> <r_epik_Ionization_Penalty_Neutral>
9.8734e-05

> <r_epik_State_Penalty>
6.82189

> <r_epik_Charging_Adjusted_Penalty>
13.4433

> <i_epik_Tot_Q>
0

> <i_epik_Tot_abs_Q>
2

> <r_epik_Metal_State_Penalty>
2.76365

> <b_epik_Metal_Only>
1

> <s_lp_Force_Field>
OPLS_2005

> <r_lp_Energy>
7.85486

> <b_lp_Chiralities_Consistent>
1

> <s_lp_Variant>
AV-unprocessed.smi:1952-7

> <Gold.Version>
5.8.1

> <Gold.Id.Protein>
6NUR|6NUR_protein|mol2

> <Gold.PLP.Fitness>
37.5420

> <Gold.PLP.PLP>
-36.2170

> <Gold.PLP.part.hbond>
-2.0000

> <Gold.PLP.part.metal>
0.0000

> <Gold.PLP.part.buried>
-6.2879

> <Gold.PLP.part.nonpolar>
-28.6683

> <Gold.PLP.part.repulsive>
0.2161

> <Gold.PLP.ligand.clash>
0.0000

> <Gold.PLP.ligand.torsion>
1.2740

> <Gold.PLP.Chemscore.Hbond>
1.2586

> <Gold.PLP.Chemscore.CHOScore>
0.0000

> <Gold.PLP.Chemscore.Metal>
0.0000

> <Gold.Chemscore.Hbonds>
donor molecule, donor type, donor heavy atom, donor atom, acceptor molecule, acceptor atom, score
      P1  H  6933  6945       L1    19  0.22
      P1  H  7997  8009       L1     7  0.32

> <Gold.PLP.Chemscore.Internal.Correction>
0.0973

> <Gold.Rescore>
     Score         DG    S(hbond)    S(metal)    S(lipo)     H(rot)  DE(clash)    DE(int)     intcor
     12.30     -14.89       1.38        0.00      75.77       1.58       0.00       2.59       ----

> <Gold.Chemscore.Fitness>
12.3015

> <Gold.Chemscore.DG>
-14.8936

> <Gold.Chemscore.ZeroCoef>
-5.4800

> <Gold.Chemscore.Hbond>
1.3752

> <Gold.Chemscore.Metal>
0.0000

> <Gold.Chemscore.Lipo>
75.7674

> <Gold.Chemscore.Internal_Hbond>
0.0000

> <Gold.Chemscore.DEClash>
0.0038

> <Gold.Chemscore.DEInternal>
2.5883

> <Gold.Chemscore.Rot>
1.5798

> <Gold.Chemscore.Internal.Correction>
   9.000000E+99

> <Gold.Chemscore.Hbonds>
donor molecule, donor type, donor heavy atom, donor atom, acceptor molecule, acceptor atom, score
      P1  H  6933  6945       L1    19  0.06
      P1  H  7997  8009       L1     7  0.31

> <Gold.Chemscore.Hbond.Weighted>
-4.5930

> <Gold.Chemscore.Metal.Weighted>
-0.0000

> <Gold.Chemscore.Lipo.Weighted>
-8.8648

> <Gold.Chemscore.Internal_Hbond.Weighted>
0.0000

> <Gold.Chemscore.DEClash.Weighted>
0.0038

> <Gold.Chemscore.DEInternal.Weighted>
2.5883

> <Gold.Chemscore.Rot.Weighted>
4.0442

> <Gold.Chemscore.Internal.Correction.Weighted>
   9.000000E+99

> <Gold.Protein.RotatedTorsions>
[ 6907 6896 6895 6894 ] final  112.30 input  -60.11 | X-H torsion
[ 7974 7965 7964 7962 ] final   23.92 input  175.53 | X-H torsion
[ 8008 7997 7996 7995 ] final  138.83 input   59.86 | X-H torsion
[ 10167 10162 10161 10158 ] final   91.02 input  -65.29 | X-H torsion
[ 10718 10713 10712 10709 ] final  -70.71 input   66.30 | X-H torsion
[ 10763 10752 10751 10750 ] final   40.57 input  -60.55 | X-H torsion
[ 11005 11000 10999 10996 ] final -151.23 input  -57.11 | X-H torsion

> <Gold.Protein.ActiveResidues>
 VAL166  LYS551  ARG553  GLY616  TRP617  ASP618  TYR619  PRO620  LYS621  CYS622 
 ASP623  PHE694  ASN695  SER759  ASP760  ASP761  ALA762  ILE779  LEU786  VAL792 
 PHE793  MET794  SER795  GLU796  ALA797  LYS798  CYS799  TRP800  GLU811  SER814 

> <Gold.Protein.RotatedAtoms>
  152.4923  133.8535  159.7213 H   0  0  0  0  0  0  0  0  0  0  0  0  # atno 6907 bound_to 6896
  150.9066  133.7041  159.2872 H   0  0  0  0  0  0  0  0  0  0  0  0  # atno 6908 bound_to 6896
  151.4465  135.1030  159.9737 H   0  0  0  0  0  0  0  0  0  0  0  0  # atno 6909 bound_to 6896
  146.1962  139.7677  142.8796 H   0  0  0  0  0  0  0  0  0  0  0  0  # atno 7974 bound_to 7965
  156.2994  140.2383  156.4137 H   0  0  0  0  0  0  0  0  0  0  0  0  # atno 8008 bound_to 7997
  154.8417  140.0428  157.1566 H   0  0  0  0  0  0  0  0  0  0  0  0  # atno 8009 bound_to 7997
  154.9095  140.2988  155.5278 H   0  0  0  0  0  0  0  0  0  0  0  0  # atno 8010 bound_to 7997
  139.8416  144.6638  150.9277 H   0  0  0  0  0  0  0  0  0  0  0  0  # atno 10167 bound_to 10162
  156.0395  130.4337  150.2336 H   0  0  0  0  0  0  0  0  0  0  0  0  # atno 10718 bound_to 10713
  152.9933  135.6187  154.2647 H   0  0  0  0  0  0  0  0  0  0  0  0  # atno 10763 bound_to 10752
  154.2382  135.2789  155.2866 H   0  0  0  0  0  0  0  0  0  0  0  0  # atno 10764 bound_to 10752
  154.5392  135.5766  153.6883 H   0  0  0  0  0  0  0  0  0  0  0  0  # atno 10765 bound_to 10752
  140.7318  134.3612  157.5165 H   0  0  0  0  0  0  0  0  0  0  0  0  # atno 11005 bound_to 11000
  145.3636  141.0330  143.3271 LP  0  0  0  0  0  0  0  0  0  0  0  0  # atno 17320 bound_to 7965
  144.8585  139.5213  143.6823 LP  0  0  0  0  0  0  0  0  0  0  0  0  # atno 17321 bound_to 7965
  140.7797  143.3908  151.1314 LP  0  0  0  0  0  0  0  0  0  0  0  0  # atno 17342 bound_to 10162
  139.7553  143.8716  152.3087 LP  0  0  0  0  0  0  0  0  0  0  0  0  # atno 17343 bound_to 10162
  157.0432  131.0041  151.3277 LP  0  0  0  0  0  0  0  0  0  0  0  0  # atno 17370 bound_to 10713
  157.5194  130.7988  149.7792 LP  0  0  0  0  0  0  0  0  0  0  0  0  # atno 17371 bound_to 10713
  139.8824  134.9023  156.2830 LP  0  0  0  0  0  0  0  0  0  0  0  0  # atno 17394 bound_to 11000
  140.9914  133.7206  156.0820 LP  0  0  0  0  0  0  0  0  0  0  0  0  # atno 17395 bound_to 11000

$$$$
