AV-unprocessed.smi:546|AV-procd|sdf|2883|dock5
  -GOLD-   2262023373D 1   1.00000     0.00000
 Structure written by MMmdl.
 52 54  0  0  0  0  0  0  0  0  1 V2000
  153.8683  137.7393  159.7063 C   0  0  0  0  0  0  0  0  0  0  0  0
  153.8182  138.4185  158.3362 C   0  0  0  0  0  0  0  0  0  0  0  0
  152.7108  137.9165  157.6073 O   0  0  0  0  0  0  0  0  0  0  0  0
  152.8240  138.1529  156.2130 C   0  0  0  0  0  0  0  0  0  0  0  0
  152.7898  139.6624  155.9377 C   0  0  0  0  0  0  0  0  0  0  0  0
  151.4308  140.1971  156.0065 N   0  0  0  0  0  0  0  0  0  0  0  0
  150.9352  141.2179  156.7628 C   0  0  0  0  0  0  0  0  0  0  0  0
  151.7065  141.9185  157.6937 N   0  0  0  0  0  0  0  0  0  0  0  0
  152.8128  141.3152  158.4358 C   0  0  0  0  0  0  0  0  0  0  0  0
  152.7108  141.6046  159.9461 C   0  0  1  0  0  0  0  0  0  0  0  0
  153.8478  140.9321  160.7262 C   0  0  0  0  0  0  0  0  0  0  0  0
  152.6743  143.1223  160.1929 C   0  0  0  0  0  0  0  0  0  0  0  0
  151.5753  143.7784  159.3405 C   0  0  1  0  0  0  0  0  0  0  0  0
  151.5658  145.3035  159.5054 C   0  0  0  0  0  0  0  0  0  0  0  0
  151.7553  143.3708  157.8645 C   0  0  0  0  0  0  0  0  0  0  0  0
  149.6568  141.5190  156.5141 N   0  0  0  0  0  0  0  0  0  0  0  0
  149.2949  140.5974  155.5456 C   0  0  0  0  0  0  0  0  0  0  0  0
  150.3429  139.7969  155.2278 C   0  0  0  0  0  0  0  0  0  0  0  0
  150.2474  138.7456  154.2053 C   0  0  0  0  0  0  0  0  0  0  0  0
  151.1840  138.0127  153.8954 O   0  0  0  0  0  0  0  0  0  0  0  0
  149.0207  138.6681  153.6347 N   0  0  0  0  0  0  0  0  0  0  0  0
  147.9260  139.4411  153.9086 C   0  0  0  0  0  0  0  0  0  0  0  0
  146.8735  139.2552  153.2980 O   0  0  0  0  0  0  0  0  0  0  0  0
  148.0549  140.4099  154.8705 N   0  0  0  0  0  0  0  0  0  0  0  0
  146.9168  141.2698  155.2010 C   0  0  0  0  0  0  0  0  0  0  0  0
  148.9012  137.9604  152.9246 H   0  0  0  0  0  0  0  0  0  0  0  0
  154.6918  138.1296  160.3044 H   0  0  0  0  0  0  0  0  0  0  0  0
  154.0127  136.6637  159.6036 H   0  0  0  0  0  0  0  0  0  0  0  0
  152.9436  137.9043  160.2601 H   0  0  0  0  0  0  0  0  0  0  0  0
  153.7238  139.4982  158.4607 H   0  0  0  0  0  0  0  0  0  0  0  0
  154.7457  138.2274  157.7944 H   0  0  0  0  0  0  0  0  0  0  0  0
  153.7541  137.7261  155.8352 H   0  0  0  0  0  0  0  0  0  0  0  0
  152.0045  137.6626  155.6861 H   0  0  0  0  0  0  0  0  0  0  0  0
  153.4177  140.1946  156.6514 H   0  0  0  0  0  0  0  0  0  0  0  0
  153.2352  139.8590  154.9694 H   0  0  0  0  0  0  0  0  0  0  0  0
  152.8100  140.2364  158.2746 H   0  0  0  0  0  0  0  0  0  0  0  0
  153.7589  141.6848  158.0381 H   0  0  0  0  0  0  0  0  0  0  0  0
  151.7714  141.1830  160.3032 H   0  0  0  0  0  0  0  0  0  0  0  0
  154.8215  141.3087  160.4110 H   0  0  0  0  0  0  0  0  0  0  0  0
  153.8423  139.8526  160.5733 H   0  0  0  0  0  0  0  0  0  0  0  0
  153.7500  141.1141  161.7968 H   0  0  0  0  0  0  0  0  0  0  0  0
  152.5020  143.3272  161.2501 H   0  0  0  0  0  0  0  0  0  0  0  0
  153.6430  143.5576  159.9431 H   0  0  0  0  0  0  0  0  0  0  0  0
  150.6117  143.4037  159.6881 H   0  0  0  0  0  0  0  0  0  0  0  0
  152.5059  145.7445  159.1723 H   0  0  0  0  0  0  0  0  0  0  0  0
  151.4166  145.5842  160.5483 H   0  0  0  0  0  0  0  0  0  0  0  0
  150.7613  145.7546  158.9238 H   0  0  0  0  0  0  0  0  0  0  0  0
  152.7175  143.7318  157.4982 H   0  0  0  0  0  0  0  0  0  0  0  0
  151.0098  143.8512  157.2319 H   0  0  0  0  0  0  0  0  0  0  0  0
  146.0394  140.6719  155.4519 H   0  0  0  0  0  0  0  0  0  0  0  0
  146.6638  141.9065  154.3522 H   0  0  0  0  0  0  0  0  0  0  0  0
  147.1162  141.9202  156.0525 H   0  0  0  0  0  0  0  0  0  0  0  0
  1  2  1  0  0  0  0
  1 27  1  0  0  0  0
  1 28  1  0  0  0  0
  1 29  1  0  0  0  0
  2  3  1  0  0  0  0
  2 30  1  0  0  0  0
  2 31  1  0  0  0  0
  3  4  1  0  0  0  0
  4  5  1  0  0  0  0
  4 32  1  0  0  0  0
  4 33  1  0  0  0  0
  5  6  1  0  0  0  0
  5 34  1  0  0  0  0
  5 35  1  0  0  0  0
  6 18  1  0  0  0  0
  6  7  1  0  0  0  0
  7  8  1  0  0  0  0
  7 16  2  0  0  0  0
  8 15  1  0  0  0  0
  8  9  1  0  0  0  0
  9 10  1  0  0  0  0
  9 36  1  0  0  0  0
  9 37  1  0  0  0  0
 10 11  1  0  0  0  0
 10 12  1  0  0  0  0
 10 38  1  0  0  0  0
 11 39  1  0  0  0  0
 11 40  1  0  0  0  0
 11 41  1  0  0  0  0
 12 13  1  0  0  0  0
 12 42  1  0  0  0  0
 12 43  1  0  0  0  0
 13 14  1  0  0  0  0
 13 15  1  0  0  0  0
 13 44  1  0  0  0  0
 14 45  1  0  0  0  0
 14 46  1  0  0  0  0
 14 47  1  0  0  0  0
 15 48  1  0  0  0  0
 15 49  1  0  0  0  0
 16 17  1  0  0  0  0
 17 24  1  0  0  0  0
 17 18  2  0  0  0  0
 18 19  1  0  0  0  0
 19 20  2  0  0  0  0
 19 21  1  0  0  0  0
 21 26  1  0  0  0  0
 21 22  1  0  0  0  0
 22 23  2  0  0  0  0
 22 24  1  0  0  0  0
 24 25  1  0  0  0  0
 25 50  1  0  0  0  0
 25 51  1  0  0  0  0
 25 52  1  0  0  0  0
M  END
> <s_m_source_file>
AV-unprocessed.smi

> <i_m_source_file_index>
546

> <i_lp_mmshare_version>
43012

> <i_f3d_flags>
0

> <s_epik_input>
W0NIM11uMWMoPU8pW25IXWMoPU8pYyhjMTIpbihbQ0gyXVtDSDJdT1tDSDJdW0NIM10pYyhuMilOM1tDSDJdW0NAQEhdKFtDSDNdKVtDSDJdW0NAQEhdKFtDSDNdKVtDSDJdMw==

> <s_epik_cmdline>
J2VwaWtfcHl0aG9uJywgJy1waCcsICc3LjAnLCAnLXRuJywgJzgnLCAnLW1hJywgJzIwMCcsICctbWV0YWxfYmluZGluZycsICctaW1hZScsICc8aW5maWxlLm1hZT4nLCAnLW9tYWUnLCAnPG91dGZpbGUubWFlPic=

> <r_lp_tautomer_probability>
1

> <r_epik_Ionization_Penalty>
0.000576472

> <r_epik_Ionization_Penalty_Charging>
0.000118943

> <r_epik_Ionization_Penalty_Neutral>
0.000457529

> <r_epik_State_Penalty>
-0

> <r_epik_Charging_Adjusted_Penalty>
0.000118943

> <i_epik_Tot_Q>
0

> <i_epik_Tot_abs_Q>
0

> <r_epik_Metal_State_Penalty>
0.0916165

> <b_epik_Metal_Only>
0

> <s_lp_Force_Field>
OPLS_2005

> <r_lp_Energy>
35.568

> <b_lp_Chiralities_Consistent>
1

> <s_lp_Variant>
AV-unprocessed.smi:546-1

> <Gold.Version>
5.8.1

> <Gold.Id.Protein>
6NUR|6NUR_protein|mol2

> <Gold.PLP.Fitness>
47.7370

> <Gold.PLP.PLP>
-46.0872

> <Gold.PLP.part.hbond>
-2.0000

> <Gold.PLP.part.metal>
0.0000

> <Gold.PLP.part.buried>
-3.0394

> <Gold.PLP.part.nonpolar>
-42.7001

> <Gold.PLP.part.repulsive>
1.0508

> <Gold.PLP.ligand.clash>
0.1514

> <Gold.PLP.ligand.torsion>
0.7368

> <Gold.PLP.Chemscore.Hbond>
0.9913

> <Gold.PLP.Chemscore.CHOScore>
0.0000

> <Gold.PLP.Chemscore.Metal>
0.0000

> <Gold.Chemscore.Hbonds>
donor molecule, donor type, donor heavy atom, donor atom, acceptor molecule, acceptor atom, score
      L1  H    21    26       P1  7948  1.00

> <Gold.PLP.Chemscore.Internal.Correction>
0.3012

> <Gold.Rescore>
     Score         DG    S(hbond)    S(metal)    S(lipo)     H(rot)  DE(clash)    DE(int)     intcor
     13.58     -17.60       0.99        0.00     109.04       1.55       1.00       3.01       ----

> <Gold.Chemscore.Fitness>
13.5809

> <Gold.Chemscore.DG>
-17.5985

> <Gold.Chemscore.ZeroCoef>
-5.4800

> <Gold.Chemscore.Hbond>
0.9939

> <Gold.Chemscore.Metal>
0.0000

> <Gold.Chemscore.Lipo>
109.0433

> <Gold.Chemscore.Internal_Hbond>
0.0000

> <Gold.Chemscore.DEClash>
1.0029

> <Gold.Chemscore.DEInternal>
3.0147

> <Gold.Chemscore.Rot>
1.5465

> <Gold.Chemscore.Internal.Correction>
   9.000000E+99

> <Gold.Chemscore.Hbonds>
donor molecule, donor type, donor heavy atom, donor atom, acceptor molecule, acceptor atom, score
      L1  H    21    26       P1  7948  0.96

> <Gold.Chemscore.Hbond.Weighted>
-3.3196

> <Gold.Chemscore.Metal.Weighted>
-0.0000

> <Gold.Chemscore.Lipo.Weighted>
-12.7581

> <Gold.Chemscore.Internal_Hbond.Weighted>
0.0000

> <Gold.Chemscore.DEClash.Weighted>
1.0029

> <Gold.Chemscore.DEInternal.Weighted>
3.0147

> <Gold.Chemscore.Rot.Weighted>
3.9591

> <Gold.Chemscore.Internal.Correction.Weighted>
   9.000000E+99

> <Gold.Protein.RotatedTorsions>
[ 6907 6896 6895 6894 ] final  -88.95 input  -60.11 | X-H torsion
[ 7974 7965 7964 7962 ] final  123.84 input  175.53 | X-H torsion
[ 8008 7997 7996 7995 ] final  -63.76 input   59.86 | X-H torsion
[ 10167 10162 10161 10158 ] final   77.02 input  -65.29 | X-H torsion
[ 10718 10713 10712 10709 ] final  -77.67 input   66.30 | X-H torsion
[ 10763 10752 10751 10750 ] final   92.07 input  -60.55 | X-H torsion
[ 11005 11000 10999 10996 ] final  -85.48 input  -57.11 | X-H torsion

> <Gold.Protein.ActiveResidues>
 VAL166  LYS551  ARG553  GLY616  TRP617  ASP618  TYR619  PRO620  LYS621  CYS622 
 ASP623  PHE694  ASN695  SER759  ASP760  ASP761  ALA762  ILE779  LEU786  VAL792 
 PHE793  MET794  SER795  GLU796  ALA797  LYS798  CYS799  TRP800  GLU811  SER814 

> <Gold.Protein.RotatedAtoms>
  150.6871  134.2663  159.4569 H   0  0  0  0  0  0  0  0  0  0  0  0  # atno 6907 bound_to 6896
  152.0589  134.9604  160.0584 H   0  0  0  0  0  0  0  0  0  0  0  0  # atno 6908 bound_to 6896
  152.1039  133.4230  159.4637 H   0  0  0  0  0  0  0  0  0  0  0  0  # atno 6909 bound_to 6896
  145.0913  139.3585  143.4859 H   0  0  0  0  0  0  0  0  0  0  0  0  # atno 7974 bound_to 7965
  154.4572  140.0968  156.6792 H   0  0  0  0  0  0  0  0  0  0  0  0  # atno 8008 bound_to 7997
  155.5101  140.3476  155.4368 H   0  0  0  0  0  0  0  0  0  0  0  0  # atno 8009 bound_to 7997
  156.0801  140.1371  156.9711 H   0  0  0  0  0  0  0  0  0  0  0  0  # atno 8010 bound_to 7997
  139.9861  144.5791  150.7859 H   0  0  0  0  0  0  0  0  0  0  0  0  # atno 10167 bound_to 10162
  156.0138  130.4497  150.3380 H   0  0  0  0  0  0  0  0  0  0  0  0  # atno 10718 bound_to 10713
  153.2152  135.4374  155.0426 H   0  0  0  0  0  0  0  0  0  0  0  0  # atno 10763 bound_to 10752
  154.8221  135.3343  154.7009 H   0  0  0  0  0  0  0  0  0  0  0  0  # atno 10764 bound_to 10752
  153.7445  135.7002  153.5015 H   0  0  0  0  0  0  0  0  0  0  0  0  # atno 10765 bound_to 10752
  141.1641  133.7402  156.9021 H   0  0  0  0  0  0  0  0  0  0  0  0  # atno 11005 bound_to 11000
  146.3531  140.0748  142.8621 LP  0  0  0  0  0  0  0  0  0  0  0  0  # atno 17320 bound_to 7965
  145.1063  140.9377  143.4683 LP  0  0  0  0  0  0  0  0  0  0  0  0  # atno 17321 bound_to 7965
  140.7472  143.2902  151.3351 LP  0  0  0  0  0  0  0  0  0  0  0  0  # atno 17342 bound_to 10162
  139.6374  144.0604  152.2527 LP  0  0  0  0  0  0  0  0  0  0  0  0  # atno 17343 bound_to 10162
  157.1476  131.0312  151.2900 LP  0  0  0  0  0  0  0  0  0  0  0  0  # atno 17370 bound_to 10713
  157.4419  130.7549  149.7077 LP  0  0  0  0  0  0  0  0  0  0  0  0  # atno 17371 bound_to 10713
  140.1575  134.9188  157.2672 LP  0  0  0  0  0  0  0  0  0  0  0  0  # atno 17394 bound_to 11000
  140.2650  134.3527  155.7393 LP  0  0  0  0  0  0  0  0  0  0  0  0  # atno 17395 bound_to 11000

$$$$
