#       Name:                AV-unprocessed.smi:2900
#       Creating user name   scv26
#       Creation time:       Fri Mar 27 16:02:28 2020


#       File generated by GOLD software.
#

@<TRIPOS>MOLECULE
AV-unprocessed.smi:2900
    42    43     1
SMALL
NO_CHARGES


@<TRIPOS>ATOM
      1 ****        -1.4867   1.6242   2.4183 O.2            1 S1                 0.0000
      2 ****        -1.8786   2.2641   1.4428 C.2            1 S1                 0.0000
      3 ****        -2.3155   3.6559   1.5199 C.2            1 S1                 0.0000
      4 ****        -2.7342   4.3301   0.4277 C.2            1 S1                 0.0000
      5 ****        -2.7567   3.6603  -0.8620 C.2            1 S1                 0.0000
      6 ****        -3.2048   4.3263  -2.1397 C.3            1 S1                 0.0000
      7 ****        -3.5529   5.5949  -1.9232 F              1 S1                 0.0000
      8 ****        -2.2193   4.3052  -3.0375 F              1 S1                 0.0000
      9 ****        -4.2542   3.6804  -2.6488 F              1 S1                 0.0000
     10 ****        -2.3745   2.4261  -0.9359 N.2            1 S1                 0.0000
     11 ****        -1.9409   1.7388   0.1843 N.am           1 S1                 0.0000
     12 ****        -1.5263   0.3572  -0.0880 C.3            1 S1                 0.0000
     13 ****         0.0081   0.2234  -0.2108 C.3            1 S1                 0.0000
     14 ****         0.3841   0.6801  -1.4958 O.3            1 S1                 0.0000
     15 ****         0.4647  -1.2406  -0.0936 C.3            1 S1                 0.0000
     16 ****         1.8528  -1.2670   0.2123 O.3            1 S1                 0.0000
     17 ****         2.4646  -2.4921   0.3705 C.ar           1 S1                 0.0000
     18 ****         3.8442  -2.4846   0.6635 C.ar           1 S1                 0.0000
     19 ****         4.5502  -3.6899   0.8427 C.ar           1 S1                 0.0000
     20 ****         3.8791  -4.9215   0.7304 C.ar           1 S1                 0.0000
     21 ****         2.5027  -4.9442   0.4385 C.ar           1 S1                 0.0000
     22 ****         1.7968  -3.7385   0.2586 C.ar           1 S1                 0.0000
     23 ****        -2.3009   4.1576   2.4764 H              1 S1                 0.0000
     24 ****        -3.0515   5.3591   0.5087 H              1 S1                 0.0000
     25 ****        -1.8910  -0.2776   0.7217 H              1 S1                 0.0000
     26 ****        -2.0164  -0.0273  -0.9848 H              1 S1                 0.0000
     27 ****         0.5047   0.8204   0.5553 H              1 S1                 0.0000
     28 ****        -0.0392   0.1381  -2.1437 H              1 S1                 0.0000
     29 ****        -0.0723  -1.7225   0.7250 H              1 S1                 0.0000
     30 ****         0.2424  -1.7925  -1.0090 H              1 S1                 0.0000
     31 ****         4.3670  -1.5437   0.7525 H              1 S1                 0.0000
     32 ****         5.6064  -3.6684   1.0667 H              1 S1                 0.0000
     33 ****         4.4186  -5.8469   0.8680 H              1 S1                 0.0000
     34 ****         1.9860  -5.8886   0.3526 H              1 S1                 0.0000
     35 ****         0.7423  -3.7974   0.0368 H              1 S1                 0.0000
     36 ****        -1.1953   0.6739   2.3087 LP             1 S1                 0.0000
     37 ****        -1.4596   2.0546   3.3205 LP             1 S1                 0.0000
     38 ****        -2.3928   1.9597  -1.8203 LP             1 S1                 0.0000
     39 ****         1.3767   0.6160  -1.5992 LP             1 S1                 0.0000
     40 ****         0.0976   1.6311  -1.6127 LP             1 S1                 0.0000
     41 ****         1.9774  -0.7615   1.0661 LP             1 S1                 0.0000
     42 ****         2.3282  -0.7922  -0.5284 LP             1 S1                 0.0000
@<TRIPOS>BOND
    1    1    2 2     
    2    2   11 am    
    3    2    3 1     
    4    3    4 2     
    5    3   23 1     
    6    4    5 1     
    7    4   24 1     
    8    5    6 1     
    9    5   10 2     
   10    6    7 1     
   11    6    8 1     
   12    6    9 1     
   13   10   11 1     
   14   11   12 1     
   15   12   13 1     
   16   12   25 1     
   17   12   26 1     
   18   13   14 1     
   19   13   15 1     
   20   13   27 1     
   21   14   28 1     
   22   15   16 1     
   23   15   29 1     
   24   15   30 1     
   25   16   17 1     
   26   17   22 ar    
   27   17   18 ar    
   28   18   19 ar    
   29   18   31 1     
   30   19   20 ar    
   31   19   32 1     
   32   20   21 ar    
   33   20   33 1     
   34   21   22 ar    
   35   21   34 1     
   36   22   35 1     
   37    1   36 1     
   38    1   37 1     
   39   10   38 1     
   40   14   39 1     
   41   14   40 1     
   42   16   41 1     
   43   16   42 1     
@<TRIPOS>SUBSTRUCTURE
      1 S1             1
@<TRIPOS>SET
LONE_PAIRS      STATIC     ATOMS    <user>   **** ""
7 36 37 38 39 40 41 42
DONOR_HYDROGENS      STATIC     ATOMS    <user>   **** ""
1 28
ATOM$BLUE        STATIC     ATOMS    COLORGROUP SYSTEM
7 36 37 38 39 40 41 42
ATOM$RED        STATIC     ATOMS    COLORGROUP SYSTEM
1 28
