AV-unprocessed.smi:3181|AV-procd|sdf|12142|dock2
  -GOLD-   2272017583D 1   1.00000     0.00000
 Structure written by MMmdl.
 42 43  0  0  0  0  0  0  0  0  2 V2000
  149.4886  141.3941  154.7098 C   0  0  0  0  0  0  0  0  0  0  0  0
  150.3796  141.2803  155.9580 C   0  0  1  0  0  0  0  0  0  0  0  0
  151.7047  140.5404  155.6720 C   0  0  0  0  0  0  0  0  0  0  0  0
  151.5048  139.1993  155.1540 N   0  0  0  0  0  0  0  0  0  0  0  0
  152.3829  138.2318  154.8840 C   0  0  0  0  0  0  0  0  0  0  0  0
  151.8281  137.1194  154.4239 N   0  0  0  0  0  0  0  0  0  0  0  0
  150.5142  137.4934  154.4443 C   0  0  0  0  0  0  0  0  0  0  0  0
  150.2659  138.7299  154.8773 N   0  0  0  0  0  0  0  0  0  0  0  0
  150.6580  142.6338  156.4900 N   0  3  0  0  0  0  0  0  0  0  0  0
  150.8558  142.7344  157.9544 C   0  0  1  0  0  0  0  0  0  0  0  0
  151.9048  141.7286  158.4641 C   0  0  0  0  0  0  0  0  0  0  0  0
  152.1362  141.8874  159.9735 C   0  0  0  0  0  0  0  0  0  0  0  0
  152.5559  143.3222  160.3523 C   0  0  2  0  0  0  0  0  0  0  0  0
  152.7835  143.4166  161.8718 C   0  0  0  0  0  0  0  0  0  0  0  0
  151.5158  144.3489  159.8322 C   0  0  1  0  0  0  0  0  0  0  0  0
  151.9124  145.8071  160.1264 C   0  0  0  0  0  0  0  0  0  0  0  0
  151.2823  144.1667  158.3182 C   0  0  0  0  0  0  0  0  0  0  0  0
  149.1939  140.4130  154.3369 H   0  0  0  0  0  0  0  0  0  0  0  0
  150.0008  141.9175  153.9016 H   0  0  0  0  0  0  0  0  0  0  0  0
  148.5720  141.9416  154.9319 H   0  0  0  0  0  0  0  0  0  0  0  0
  149.8170  140.7147  156.7025 H   0  0  0  0  0  0  0  0  0  0  0  0
  152.2987  141.1004  154.9484 H   0  0  0  0  0  0  0  0  0  0  0  0
  152.3099  140.4655  156.5758 H   0  0  0  0  0  0  0  0  0  0  0  0
  153.4484  138.3428  155.0229 H   0  0  0  0  0  0  0  0  0  0  0  0
  149.7175  136.8349  154.1315 H   0  0  0  0  0  0  0  0  0  0  0  0
  151.4646  143.0170  156.0179 H   0  0  0  0  0  0  0  0  0  0  0  0
  149.8992  142.5334  158.4401 H   0  0  0  0  0  0  0  0  0  0  0  0
  151.5846  140.7060  158.2632 H   0  0  0  0  0  0  0  0  0  0  0  0
  152.8470  141.8698  157.9327 H   0  0  0  0  0  0  0  0  0  0  0  0
  151.2241  141.6179  160.5081 H   0  0  0  0  0  0  0  0  0  0  0  0
  152.9001  141.1789  160.2964 H   0  0  0  0  0  0  0  0  0  0  0  0
  153.5101  143.5281  159.8647 H   0  0  0  0  0  0  0  0  0  0  0  0
  151.8511  143.2867  162.4221 H   0  0  0  0  0  0  0  0  0  0  0  0
  153.2122  144.3764  162.1588 H   0  0  0  0  0  0  0  0  0  0  0  0
  153.4778  142.6476  162.2118 H   0  0  0  0  0  0  0  0  0  0  0  0
  150.5681  144.1591  160.3388 H   0  0  0  0  0  0  0  0  0  0  0  0
  152.8926  146.0437  159.7109 H   0  0  0  0  0  0  0  0  0  0  0  0
  151.9430  146.0111  161.1963 H   0  0  0  0  0  0  0  0  0  0  0  0
  151.1931  146.5035  159.6941 H   0  0  0  0  0  0  0  0  0  0  0  0
  152.1943  144.4253  157.7774 H   0  0  0  0  0  0  0  0  0  0  0  0
  150.5180  144.8682  157.9806 H   0  0  0  0  0  0  0  0  0  0  0  0
  149.8589  143.2082  156.2633 H   0  0  0  0  0  0  0  0  0  0  0  0
  1  2  1  0  0  0  0
  1 18  1  0  0  0  0
  1 19  1  0  0  0  0
  1 20  1  0  0  0  0
  2  3  1  0  0  0  0
  2  9  1  0  0  0  0
  2 21  1  0  0  0  0
  3  4  1  0  0  0  0
  3 22  1  0  0  0  0
  3 23  1  0  0  0  0
  4  8  1  0  0  0  0
  4  5  1  0  0  0  0
  5  6  2  0  0  0  0
  5 24  1  0  0  0  0
  6  7  1  0  0  0  0
  7  8  2  0  0  0  0
  7 25  1  0  0  0  0
  9 10  1  0  0  0  0
  9 26  1  0  0  0  0
  9 42  1  0  0  0  0
 10 17  1  0  0  0  0
 10 11  1  0  0  0  0
 10 27  1  0  0  0  0
 11 12  1  0  0  0  0
 11 28  1  0  0  0  0
 11 29  1  0  0  0  0
 12 13  1  0  0  0  0
 12 30  1  0  0  0  0
 12 31  1  0  0  0  0
 13 14  1  0  0  0  0
 13 15  1  0  0  0  0
 13 32  1  0  0  0  0
 14 33  1  0  0  0  0
 14 34  1  0  0  0  0
 14 35  1  0  0  0  0
 15 16  1  0  0  0  0
 15 17  1  0  0  0  0
 15 36  1  0  0  0  0
 16 37  1  0  0  0  0
 16 38  1  0  0  0  0
 16 39  1  0  0  0  0
 17 40  1  0  0  0  0
 17 41  1  0  0  0  0
M  CHG  1   9   1
M  END
> <s_m_source_file>
AV-unprocessed.smi

> <i_m_source_file_index>
3181

> <i_lp_mmshare_version>
43012

> <i_f3d_flags>
0

> <s_epik_input>
bjFbY0hdbltjSF1uMVtDSDJdW0NAQEhdKFtDSDNdKVtOSF1bQ0BASF0yW0NIMl1bQ0gyXVtDQEBIXShbQ0gzXSlbQ0BASF0oW0NIM10pW0NIMl0y

> <s_epik_cmdline>
J2VwaWtfcHl0aG9uJywgJy1waCcsICc3LjAnLCAnLXRuJywgJzgnLCAnLW1hJywgJzIwMCcsICctbWV0YWxfYmluZGluZycsICctaW1hZScsICc8aW5maWxlLm1hZT4nLCAnLW9tYWUnLCAnPG91dGZpbGUubWFlPic=

> <r_lp_tautomer_probability>
1

> <r_epik_Ionization_Penalty>
0.000617007

> <r_epik_Ionization_Penalty_Charging>
0.000616215

> <r_epik_Ionization_Penalty_Neutral>
7.92544e-07

> <r_epik_State_Penalty>
0.000388807

> <r_epik_Charging_Adjusted_Penalty>
0.00100502

> <i_epik_Tot_Q>
1

> <i_epik_Tot_abs_Q>
1

> <r_epik_Metal_State_Penalty>
-0

> <b_epik_Metal_Only>
0

> <s_lp_Force_Field>
OPLS_2005

> <r_lp_Energy>
19.8676

> <b_lp_Chiralities_Consistent>
1

> <s_lp_Variant>
AV-unprocessed.smi:3181-8

> <Gold.Version>
5.8.1

> <Gold.Id.Protein>
6NUR|6NUR_protein|mol2

> <Gold.PLP.Fitness>
55.4377

> <Gold.PLP.PLP>
-44.1891

> <Gold.PLP.part.hbond>
-2.0000

> <Gold.PLP.part.metal>
0.0000

> <Gold.PLP.part.buried>
-3.0661

> <Gold.PLP.part.nonpolar>
-38.5316

> <Gold.PLP.part.repulsive>
0.3563

> <Gold.PLP.ligand.clash>
0.0000

> <Gold.PLP.ligand.torsion>
0.3980

> <Gold.PLP.Chemscore.Hbond>
3.0000

> <Gold.PLP.Chemscore.CHOScore>
1.0000

> <Gold.PLP.Chemscore.Metal>
0.0000

> <Gold.Chemscore.Hbonds>
donor molecule, donor type, donor heavy atom, donor atom, acceptor molecule, acceptor atom, score
      L1  H     9    42       P1  8028  2.00
      P1  H 10752 10763       L1     6  1.00
      L1  C     7    25       P1  7948  0.98

> <Gold.PLP.Chemscore.Internal.Correction>
0.0445

> <Gold.Rescore>
     Score         DG    S(hbond)    S(metal)    S(lipo)     H(rot)  DE(clash)    DE(int)     intcor
     16.84     -18.84       1.91        0.00     105.73       2.11       0.14       1.87       ----

> <Gold.Chemscore.Fitness>
16.8365

> <Gold.Chemscore.DG>
-18.8448

> <Gold.Chemscore.ZeroCoef>
-5.4800

> <Gold.Chemscore.Hbond>
1.9144

> <Gold.Chemscore.Metal>
0.0000

> <Gold.Chemscore.Lipo>
105.7347

> <Gold.Chemscore.Internal_Hbond>
0.0000

> <Gold.Chemscore.DEClash>
0.1363

> <Gold.Chemscore.DEInternal>
1.8719

> <Gold.Chemscore.Rot>
2.1095

> <Gold.Chemscore.Internal.Correction>
   9.000000E+99

> <Gold.Chemscore.Hbonds>
donor molecule, donor type, donor heavy atom, donor atom, acceptor molecule, acceptor atom, score
      L1  H     9    42       P1  8028  0.99
      P1  H 10752 10763       L1     6  0.90

> <Gold.Chemscore.Hbond.Weighted>
-6.3941

> <Gold.Chemscore.Metal.Weighted>
-0.0000

> <Gold.Chemscore.Lipo.Weighted>
-12.3710

> <Gold.Chemscore.Internal_Hbond.Weighted>
0.0000

> <Gold.Chemscore.DEClash.Weighted>
0.1363

> <Gold.Chemscore.DEInternal.Weighted>
1.8719

> <Gold.Chemscore.Rot.Weighted>
5.4003

> <Gold.Chemscore.Internal.Correction.Weighted>
   9.000000E+99

> <Gold.Protein.RotatedTorsions>
[ 6907 6896 6895 6894 ] final   68.15 input  -60.11 | X-H torsion
[ 7974 7965 7964 7962 ] final -156.92 input  175.53 | X-H torsion
[ 8008 7997 7996 7995 ] final  156.24 input   59.86 | X-H torsion
[ 10167 10162 10161 10158 ] final  136.47 input  -65.29 | X-H torsion
[ 10718 10713 10712 10709 ] final   97.62 input   66.30 | X-H torsion
[ 10763 10752 10751 10750 ] final   39.79 input  -60.55 | X-H torsion
[ 11005 11000 10999 10996 ] final   67.52 input  -57.11 | X-H torsion

> <Gold.Protein.ActiveResidues>
 VAL166  LYS551  ARG553  GLY616  TRP617  ASP618  TYR619  PRO620  LYS621  CYS622 
 ASP623  PHE694  ASN695  SER759  ASP760  ASP761  ALA762  ILE779  LEU786  VAL792 
 PHE793  MET794  SER795  GLU796  ALA797  LYS798  CYS799  TRP800  GLU811  SER814 

> <Gold.Protein.RotatedAtoms>
  152.4601  134.5204  159.9780 H   0  0  0  0  0  0  0  0  0  0  0  0  # atno 6907 bound_to 6896
  151.5255  133.3452  159.2917 H   0  0  0  0  0  0  0  0  0  0  0  0  # atno 6908 bound_to 6896
  150.8560  134.7929  159.7108 H   0  0  0  0  0  0  0  0  0  0  0  0  # atno 6909 bound_to 6896
  144.7571  140.4042  143.6004 H   0  0  0  0  0  0  0  0  0  0  0  0  # atno 7974 bound_to 7965
  156.2433  140.1918  156.6925 H   0  0  0  0  0  0  0  0  0  0  0  0  # atno 8008 bound_to 7997
  154.6241  140.0604  156.9678 H   0  0  0  0  0  0  0  0  0  0  0  0  # atno 8009 bound_to 7997
  155.1814  140.3276  155.4377 H   0  0  0  0  0  0  0  0  0  0  0  0  # atno 8010 bound_to 7997
  139.5178  144.6462  151.5432 H   0  0  0  0  0  0  0  0  0  0  0  0  # atno 10167 bound_to 10162
  157.6909  131.0615  150.4671 H   0  0  0  0  0  0  0  0  0  0  0  0  # atno 10718 bound_to 10713
  152.9956  135.6210  154.2521 H   0  0  0  0  0  0  0  0  0  0  0  0  # atno 10763 bound_to 10752
  154.2260  135.2794  155.2909 H   0  0  0  0  0  0  0  0  0  0  0  0  # atno 10764 bound_to 10752
  154.5489  135.5739  153.6963 H   0  0  0  0  0  0  0  0  0  0  0  0  # atno 10765 bound_to 10752
  139.9766  134.6812  156.0342 H   0  0  0  0  0  0  0  0  0  0  0  0  # atno 11005 bound_to 11000
  145.6742  139.1605  143.2737 LP  0  0  0  0  0  0  0  0  0  0  0  0  # atno 17320 bound_to 7965
  146.1594  140.6810  142.9285 LP  0  0  0  0  0  0  0  0  0  0  0  0  # atno 17321 bound_to 7965
  140.6248  143.9189  150.6556 LP  0  0  0  0  0  0  0  0  0  0  0  0  # atno 17342 bound_to 10162
  140.2474  143.3618  152.1435 LP  0  0  0  0  0  0  0  0  0  0  0  0  # atno 17343 bound_to 10162
  156.5011  130.4117  149.6352 LP  0  0  0  0  0  0  0  0  0  0  0  0  # atno 17370 bound_to 10713
  156.3327  130.7340  151.2272 LP  0  0  0  0  0  0  0  0  0  0  0  0  # atno 17371 bound_to 10713
  141.1442  133.6559  156.3819 LP  0  0  0  0  0  0  0  0  0  0  0  0  # atno 17394 bound_to 11000
  140.5182  134.6330  157.5309 LP  0  0  0  0  0  0  0  0  0  0  0  0  # atno 17395 bound_to 11000

$$$$
