#       Name:                AV-unprocessed.smi:648
#       Creating user name   scv26
#       Creation time:       Fri Mar 27 00:09:45 2020


#       File generated by GOLD software.
#

@<TRIPOS>MOLECULE
AV-unprocessed.smi:648
    50    51     1
SMALL
NO_CHARGES


@<TRIPOS>ATOM
      1 ****        -1.0678  -1.5478  -2.5140 C.3            1 S1                 0.0000
      2 ****        -0.7348  -0.5591  -1.3880 C.3            1 S1                 0.0000
      3 ****        -1.2071   0.8649  -1.7354 C.3            1 S1                 0.0000
      4 ****        -0.8852   1.9084  -0.6393 C.3            1 S1                 0.0000
      5 ****         0.6215   2.2564  -0.6411 C.3            1 S1                 0.0000
      6 ****        -1.6434   3.2114  -0.9675 C.3            1 S1                 0.0000
      7 ****        -1.3781   1.3955   0.7468 C.3            1 S1                 0.0000
      8 ****        -0.9929  -0.0641   1.1305 C.3            1 S1                 0.0000
      9 ****        -1.7494  -0.4861   2.4217 C.3            1 S1                 0.0000
     10 ****        -3.1549  -0.4209   2.2857 O.3            1 S1                 0.0000
     11 ****         0.4697  -0.0936   1.4013 N.4            1 S1                 1.0000
     12 ****         1.0688  -1.3378   1.9392 C.3            1 S1                 0.0000
     13 ****         2.5840  -1.3691   1.6817 C.3            1 S1                 0.0000
     14 ****         2.8966  -1.3761   0.2632 N.pl3          1 S1                 0.0000
     15 ****         3.5643  -0.4953  -0.4843 C.2            1 S1                 0.0000
     16 ****         3.6440  -0.8315  -1.7638 N.2            1 S1                 0.0000
     17 ****         2.9744  -2.0220  -1.7307 C.2            1 S1                 0.0000
     18 ****         2.5077  -2.3951  -0.5390 N.2            1 S1                 0.0000
     19 ****        -1.3525  -1.0064  -0.0499 C.3            1 S1                 0.0000
     20 ****        -2.1434  -1.6166  -2.6793 H              1 S1                 0.0000
     21 ****        -0.7018  -2.5479  -2.2792 H              1 S1                 0.0000
     22 ****        -0.6056  -1.2425  -3.4533 H              1 S1                 0.0000
     23 ****         0.3498  -0.5550  -1.2905 H              1 S1                 0.0000
     24 ****        -0.7689   1.1788  -2.6841 H              1 S1                 0.0000
     25 ****        -2.2853   0.8382  -1.9019 H              1 S1                 0.0000
     26 ****         0.8695   2.9442   0.1677 H              1 S1                 0.0000
     27 ****         0.9094   2.7402  -1.5753 H              1 S1                 0.0000
     28 ****         1.2647   1.3857  -0.5406 H              1 S1                 0.0000
     29 ****        -1.4495   3.9830  -0.2215 H              1 S1                 0.0000
     30 ****        -2.7223   3.0538  -1.0002 H              1 S1                 0.0000
     31 ****        -1.3471   3.6120  -1.9377 H              1 S1                 0.0000
     32 ****        -1.0562   2.0825   1.5312 H              1 S1                 0.0000
     33 ****        -2.4662   1.4674   0.7400 H              1 S1                 0.0000
     34 ****        -1.5055  -1.5106   2.7034 H              1 S1                 0.0000
     35 ****        -1.4593   0.1502   3.2587 H              1 S1                 0.0000
     36 ****        -3.5515  -0.6915   3.1001 H              1 S1                 0.0000
     37 ****         0.9259   0.1063   0.5228 H              1 S1                 0.0000
     38 ****         0.8776  -1.3884   3.0112 H              1 S1                 0.0000
     39 ****         0.6154  -2.2249   1.5007 H              1 S1                 0.0000
     40 ****         3.0696  -0.5097   2.1459 H              1 S1                 0.0000
     41 ****         3.0227  -2.2605   2.1317 H              1 S1                 0.0000
     42 ****         3.9900   0.4155  -0.0888 H              1 S1                 0.0000
     43 ****         2.8230  -2.6295  -2.6109 H              1 S1                 0.0000
     44 ****        -2.4360  -1.0340  -0.1727 H              1 S1                 0.0000
     45 ****        -1.0692  -2.0358   0.1645 H              1 S1                 0.0000
     46 ****         0.6876   0.6554   2.0428 H              1 S1                 0.0000
     47 ****        -3.4502  -1.0294   1.5491 LP             1 S1                 0.0000
     48 ****        -3.4292   0.5170   2.0732 LP             1 S1                 0.0000
     49 ****         4.0705  -0.3526  -2.5311 LP             1 S1                 0.0000
     50 ****         1.9979  -3.2209  -0.2979 LP             1 S1                 0.0000
@<TRIPOS>BOND
    1    1    2 1     
    2    1   20 1     
    3    1   21 1     
    4    1   22 1     
    5    2   19 1     
    6    2    3 1     
    7    2   23 1     
    8    3    4 1     
    9    3   24 1     
   10    3   25 1     
   11    4    5 1     
   12    4    6 1     
   13    4    7 1     
   14    5   26 1     
   15    5   27 1     
   16    5   28 1     
   17    6   29 1     
   18    6   30 1     
   19    6   31 1     
   20    7    8 1     
   21    7   32 1     
   22    7   33 1     
   23    8    9 1     
   24    8   11 1     
   25    8   19 1     
   26    9   10 1     
   27    9   34 1     
   28    9   35 1     
   29   10   36 1     
   30   11   12 1     
   31   11   37 1     
   32   11   46 1     
   33   12   13 1     
   34   12   38 1     
   35   12   39 1     
   36   13   14 1     
   37   13   40 1     
   38   13   41 1     
   39   14   18 1     
   40   14   15 1     
   41   15   16 2     
   42   15   42 1     
   43   16   17 1     
   44   17   18 2     
   45   17   43 1     
   46   19   44 1     
   47   19   45 1     
   48   10   47 1     
   49   10   48 1     
   50   16   49 1     
   51   18   50 1     
@<TRIPOS>SUBSTRUCTURE
      1 S1             1
@<TRIPOS>SET
LONE_PAIRS      STATIC     ATOMS    <user>   **** ""
4 47 48 49 50
DONOR_HYDROGENS      STATIC     ATOMS    <user>   **** ""
3 36 37 46
ATOM$BLUE        STATIC     ATOMS    COLORGROUP SYSTEM
4 47 48 49 50
ATOM$RED        STATIC     ATOMS    COLORGROUP SYSTEM
3 36 37 46
