AV-unprocessed.smi:1533|AV-procd|sdf|6165|dock5
  -GOLD-   22720 6313D 1   1.00000     0.00000
 Structure written by MMmdl.
 37 39  0  0  0  0  0  0  0  0  1 V2000
  145.0911  143.8181  153.6709 C   0  0  0  0  0  0  0  0  0  0  0  0
  145.8686  142.8428  154.4872 C   0  0  0  0  0  0  0  0  0  0  0  0
  145.4588  142.4662  155.6924 N   0  0  0  0  0  0  0  0  0  0  0  0
  146.4472  141.5591  156.1013 O   0  0  0  0  0  0  0  0  0  0  0  0
  147.3472  141.5132  155.0898 C   0  0  0  0  0  0  0  0  0  0  0  0
  148.5133  140.5894  155.2018 C   0  0  0  0  0  0  0  0  0  0  0  0
  149.8553  141.3387  155.2144 C   0  0  0  0  0  0  0  0  0  0  0  0
  150.0124  142.1398  156.4231 N   0  0  0  0  0  0  0  0  0  0  0  0
  150.9499  141.9389  157.3624 C   0  0  0  0  0  0  0  0  0  0  0  0
  151.7843  141.0360  157.2910 O   0  0  0  0  0  0  0  0  0  0  0  0
  150.9363  142.9096  158.5567 C   0  0  1  0  0  0  0  0  0  0  0  0
  152.0914  142.6644  159.5591 C   0  0  0  0  0  0  0  0  0  0  0  0
  152.7828  144.0395  159.6454 C   0  0  2  0  0  0  0  0  0  0  0  0
  151.8538  145.0368  160.3638 C   0  0  0  0  0  0  0  0  0  0  0  0
  150.7585  145.2992  159.3116 C   0  0  0  0  0  0  0  0  0  0  0  0
  151.1847  144.3842  158.1475 C   0  0  1  0  0  0  0  0  0  0  0  0
  152.7057  144.5246  158.2046 C   0  0  0  0  0  0  0  0  0  0  0  0
  147.0273  142.2788  154.0495 N   0  0  0  0  0  0  0  0  0  0  0  0
  144.3295  144.3127  154.2748 H   0  0  0  0  0  0  0  0  0  0  0  0
  144.5990  143.3067  152.8433 H   0  0  0  0  0  0  0  0  0  0  0  0
  145.7539  144.5811  153.2621 H   0  0  0  0  0  0  0  0  0  0  0  0
  148.3980  139.9993  156.1120 H   0  0  0  0  0  0  0  0  0  0  0  0
  148.4819  139.8867  154.3684 H   0  0  0  0  0  0  0  0  0  0  0  0
  150.6794  140.6258  155.1700 H   0  0  0  0  0  0  0  0  0  0  0  0
  149.9465  141.9734  154.3309 H   0  0  0  0  0  0  0  0  0  0  0  0
  149.3614  142.9005  156.5560 H   0  0  0  0  0  0  0  0  0  0  0  0
  149.9743  142.8220  159.0651 H   0  0  0  0  0  0  0  0  0  0  0  0
  151.7250  142.3316  160.5308 H   0  0  0  0  0  0  0  0  0  0  0  0
  152.7950  141.9098  159.2032 H   0  0  0  0  0  0  0  0  0  0  0  0
  153.7883  143.9976  160.0648 H   0  0  0  0  0  0  0  0  0  0  0  0
  151.4510  144.6306  161.2923 H   0  0  0  0  0  0  0  0  0  0  0  0
  152.3836  145.9597  160.6036 H   0  0  0  0  0  0  0  0  0  0  0  0
  149.7585  145.0707  159.6819 H   0  0  0  0  0  0  0  0  0  0  0  0
  150.7677  146.3457  159.0036 H   0  0  0  0  0  0  0  0  0  0  0  0
  150.7390  144.6639  157.1918 H   0  0  0  0  0  0  0  0  0  0  0  0
  153.0498  145.5526  158.0762 H   0  0  0  0  0  0  0  0  0  0  0  0
  153.2438  143.8859  157.5039 H   0  0  0  0  0  0  0  0  0  0  0  0
  1  2  1  0  0  0  0
  1 19  1  0  0  0  0
  1 20  1  0  0  0  0
  1 21  1  0  0  0  0
  2 18  1  0  0  0  0
  2  3  2  0  0  0  0
  3  4  1  0  0  0  0
  4  5  1  0  0  0  0
  5  6  1  0  0  0  0
  5 18  2  0  0  0  0
  6  7  1  0  0  0  0
  6 22  1  0  0  0  0
  6 23  1  0  0  0  0
  7  8  1  0  0  0  0
  7 24  1  0  0  0  0
  7 25  1  0  0  0  0
  8  9  1  0  0  0  0
  8 26  1  0  0  0  0
  9 10  2  0  0  0  0
  9 11  1  0  0  0  0
 11 16  1  0  0  0  0
 11 12  1  0  0  0  0
 11 27  1  0  0  0  0
 12 13  1  0  0  0  0
 12 28  1  0  0  0  0
 12 29  1  0  0  0  0
 13 17  1  0  0  0  0
 13 14  1  0  0  0  0
 13 30  1  0  0  0  0
 14 15  1  0  0  0  0
 14 31  1  0  0  0  0
 14 32  1  0  0  0  0
 15 16  1  0  0  0  0
 15 33  1  0  0  0  0
 15 34  1  0  0  0  0
 16 17  1  0  0  0  0
 16 35  1  0  0  0  0
 17 36  1  0  0  0  0
 17 37  1  0  0  0  0
M  END
> <s_m_source_file>
AV-unprocessed.smi

> <i_m_source_file_index>
1533

> <i_lp_mmshare_version>
43012

> <i_f3d_flags>
0

> <s_epik_input>
W0NIM11jMW5vYyhuMSlbQ0gyXVtDSDJdW05IXUMoPU8pW0NASF0oW0NIMl1bQ0BASF0yMylbQ0BASF0oW0NIMl0zKVtDSDJdW0NIMl0y

> <s_epik_cmdline>
J2VwaWtfcHl0aG9uJywgJy1waCcsICc3LjAnLCAnLXRuJywgJzgnLCAnLW1hJywgJzIwMCcsICctbWV0YWxfYmluZGluZycsICctaW1hZScsICc8aW5maWxlLm1hZT4nLCAnLW9tYWUnLCAnPG91dGZpbGUubWFlPic=

> <r_lp_tautomer_probability>
1

> <r_epik_Ionization_Penalty>
1.90116e-08

> <r_epik_Ionization_Penalty_Charging>
0

> <r_epik_Ionization_Penalty_Neutral>
1.90116e-08

> <r_epik_State_Penalty>
-0

> <r_epik_Charging_Adjusted_Penalty>
0

> <i_epik_Tot_Q>
0

> <i_epik_Tot_abs_Q>
0

> <r_epik_Metal_State_Penalty>
-0

> <b_epik_Metal_Only>
0

> <s_lp_Force_Field>
OPLS_2005

> <r_lp_Energy>
42.7172

> <b_lp_Chiralities_Consistent>
1

> <s_lp_Variant>
AV-unprocessed.smi:1533-4

> <Gold.Version>
5.8.1

> <Gold.Id.Protein>
6NUR|6NUR_protein|mol2

> <Gold.PLP.Fitness>
44.7360

> <Gold.PLP.PLP>
-42.2264

> <Gold.PLP.part.hbond>
-1.0000

> <Gold.PLP.part.metal>
0.0000

> <Gold.PLP.part.buried>
-6.1480

> <Gold.PLP.part.nonpolar>
-36.2445

> <Gold.PLP.part.repulsive>
0.5105

> <Gold.PLP.ligand.clash>
0.0000

> <Gold.PLP.ligand.torsion>
0.0600

> <Gold.PLP.Chemscore.Hbond>
0.8640

> <Gold.PLP.Chemscore.CHOScore>
0.0000

> <Gold.PLP.Chemscore.Metal>
0.0000

> <Gold.Chemscore.Hbonds>
donor molecule, donor type, donor heavy atom, donor atom, acceptor molecule, acceptor atom, score
      L1  H     8    26       P1  8028  0.69

> <Gold.PLP.Chemscore.Internal.Correction>
0.0376

> <Gold.Rescore>
     Score         DG    S(hbond)    S(metal)    S(lipo)     H(rot)  DE(clash)    DE(int)     intcor
     15.91     -16.02       0.92        0.00     104.33       1.85       0.02       0.10       ----

> <Gold.Chemscore.Fitness>
15.9055

> <Gold.Chemscore.DG>
-16.0249

> <Gold.Chemscore.ZeroCoef>
-5.4800

> <Gold.Chemscore.Hbond>
0.9198

> <Gold.Chemscore.Metal>
0.0000

> <Gold.Chemscore.Lipo>
104.3260

> <Gold.Chemscore.Internal_Hbond>
0.0000

> <Gold.Chemscore.DEClash>
0.0215

> <Gold.Chemscore.DEInternal>
0.0979

> <Gold.Chemscore.Rot>
1.8490

> <Gold.Chemscore.Internal.Correction>
   9.000000E+99

> <Gold.Chemscore.Hbonds>
donor molecule, donor type, donor heavy atom, donor atom, acceptor molecule, acceptor atom, score
      L1  H     8    26       P1  8028  0.66

> <Gold.Chemscore.Hbond.Weighted>
-3.0721

> <Gold.Chemscore.Metal.Weighted>
-0.0000

> <Gold.Chemscore.Lipo.Weighted>
-12.2061

> <Gold.Chemscore.Internal_Hbond.Weighted>
0.0000

> <Gold.Chemscore.DEClash.Weighted>
0.0215

> <Gold.Chemscore.DEInternal.Weighted>
0.0979

> <Gold.Chemscore.Rot.Weighted>
4.7334

> <Gold.Chemscore.Internal.Correction.Weighted>
   9.000000E+99

> <Gold.Protein.RotatedTorsions>
[ 6907 6896 6895 6894 ] final  -21.05 input  -60.11 | X-H torsion
[ 7974 7965 7964 7962 ] final   41.76 input  175.53 | X-H torsion
[ 8008 7997 7996 7995 ] final   -9.17 input   59.86 | X-H torsion
[ 10167 10162 10161 10158 ] final  -25.67 input  -65.29 | X-H torsion
[ 10718 10713 10712 10709 ] final  -64.66 input   66.30 | X-H torsion
[ 10763 10752 10751 10750 ] final   92.57 input  -60.55 | X-H torsion
[ 11005 11000 10999 10996 ] final  -73.81 input  -57.11 | X-H torsion

> <Gold.Protein.ActiveResidues>
 VAL166  LYS551  ARG553  GLY616  TRP617  ASP618  TYR619  PRO620  LYS621  CYS622 
 ASP623  PHE694  ASN695  SER759  ASP760  ASP761  ALA762  ILE779  LEU786  VAL792 
 PHE793  MET794  SER795  GLU796  ALA797  LYS798  CYS799  TRP800  GLU811  SER814 

> <Gold.Protein.RotatedAtoms>
  151.2391  135.0582  159.9017 H   0  0  0  0  0  0  0  0  0  0  0  0  # atno 6907 bound_to 6896
  152.5395  134.0454  159.8096 H   0  0  0  0  0  0  0  0  0  0  0  0  # atno 6908 bound_to 6896
  151.0645  133.5468  159.2663 H   0  0  0  0  0  0  0  0  0  0  0  0  # atno 6909 bound_to 6896
  146.0797  139.5378  142.9545 H   0  0  0  0  0  0  0  0  0  0  0  0  # atno 7974 bound_to 7965
  154.5672  140.2362  155.8245 H   0  0  0  0  0  0  0  0  0  0  0  0  # atno 8008 bound_to 7997
  156.2078  140.3035  155.9623 H   0  0  0  0  0  0  0  0  0  0  0  0  # atno 8009 bound_to 7997
  155.2779  140.0421  157.3003 H   0  0  0  0  0  0  0  0  0  0  0  0  # atno 8010 bound_to 7997
  140.7285  143.4245  151.0899 H   0  0  0  0  0  0  0  0  0  0  0  0  # atno 10167 bound_to 10162
  156.0716  130.4236  150.1452 H   0  0  0  0  0  0  0  0  0  0  0  0  # atno 10718 bound_to 10713
  153.2207  135.4356  155.0485 H   0  0  0  0  0  0  0  0  0  0  0  0  # atno 10763 bound_to 10752
  154.8248  135.3355  154.6932 H   0  0  0  0  0  0  0  0  0  0  0  0  # atno 10764 bound_to 10752
  153.7364  135.7007  153.5033 H   0  0  0  0  0  0  0  0  0  0  0  0  # atno 10765 bound_to 10752
  141.1627  133.6890  156.7268 H   0  0  0  0  0  0  0  0  0  0  0  0  # atno 11005 bound_to 11000
  145.6241  141.0317  143.1899 LP  0  0  0  0  0  0  0  0  0  0  0  0  # atno 17320 bound_to 7965
  144.7285  139.7800  143.7356 LP  0  0  0  0  0  0  0  0  0  0  0  0  # atno 17321 bound_to 7965
  139.7894  143.8240  152.3149 LP  0  0  0  0  0  0  0  0  0  0  0  0  # atno 17342 bound_to 10162
  139.8218  144.7292  150.9562 LP  0  0  0  0  0  0  0  0  0  0  0  0  # atno 17343 bound_to 10162
  156.9501  130.9772  151.3500 LP  0  0  0  0  0  0  0  0  0  0  0  0  # atno 17370 bound_to 10713
  157.5789  130.8363  149.8495 LP  0  0  0  0  0  0  0  0  0  0  0  0  # atno 17371 bound_to 10713
  140.2774  134.8344  157.3903 LP  0  0  0  0  0  0  0  0  0  0  0  0  # atno 17394 bound_to 11000
  140.1464  134.4905  155.7993 LP  0  0  0  0  0  0  0  0  0  0  0  0  # atno 17395 bound_to 11000

$$$$
