AV-unprocessed.smi:99|AV-procd|sdf|874|dock7
  -GOLD-   2262017343D 1   1.00000     0.00000
 Structure written by MMmdl.
 53 56  0  0  0  0  0  0  0  0  1 V2000
  147.2571  138.3177  160.0264 O   0  0  0  0  0  0  0  0  0  0  0  0
  147.8505  137.2549  159.8309 C   0  0  0  0  0  0  0  0  0  0  0  0
  148.7040  137.0551  158.8075 O   0  0  0  0  0  0  0  0  0  0  0  0
  149.4187  138.1497  158.2581 C   0  0  0  0  0  0  0  0  0  0  0  0
  150.7961  138.2411  158.9220 C   0  0  1  0  0  0  0  0  0  0  0  0
  151.5308  137.0507  158.6818 O   0  0  0  0  0  0  0  0  0  0  0  0
  152.8958  137.3251  158.7316 C   0  0  1  0  0  0  0  0  0  0  0  0
  153.5577  136.5591  157.6053 N   0  0  0  0  0  0  0  0  0  0  0  0
  153.1102  136.7015  156.2986 C   0  0  0  0  0  0  0  0  0  0  0  0
  153.6534  136.0332  155.2541 C   0  0  0  0  0  0  0  0  0  0  0  0
  154.7628  135.1086  155.4644 C   0  0  0  0  0  0  0  0  0  0  0  0
  155.3190  134.4570  154.5831 O   0  0  0  0  0  0  0  0  0  0  0  0
  155.1826  134.9985  156.7934 N   0  0  0  0  0  0  0  0  0  0  0  0
  154.6326  135.6840  157.8782 C   0  0  0  0  0  0  0  0  0  0  0  0
  155.0936  135.5171  159.0065 O   0  0  0  0  0  0  0  0  0  0  0  0
  153.0861  138.8544  158.6193 C   0  0  1  0  0  0  0  0  0  0  0  0
  153.9816  139.2677  157.6029 O   0  0  0  0  0  0  0  0  0  0  0  0
  151.6732  139.3423  158.3269 C   0  0  2  0  0  0  0  0  0  0  0  0
  151.4142  140.5682  158.9998 O   0  0  0  0  0  0  0  0  0  0  0  0
  151.1572  141.6962  158.3036 C   0  0  0  0  0  0  0  0  0  0  0  0
  150.6459  141.7065  157.1820 O   0  0  0  0  0  0  0  0  0  0  0  0
  151.5576  142.9324  159.0351 C   0  0  0  0  0  0  0  0  0  0  0  0
  151.2135  144.1957  158.4997 C   0  0  0  0  0  0  0  0  0  0  0  0
  151.5814  145.3814  159.1648 C   0  0  0  0  0  0  0  0  0  0  0  0
  152.2990  145.3183  160.3733 C   0  0  0  0  0  0  0  0  0  0  0  0
  152.6475  144.0679  160.9164 C   0  0  0  0  0  0  0  0  0  0  0  0
  152.2796  142.8807  160.2532 C   0  0  0  0  0  0  0  0  0  0  0  0
  147.6992  136.0552  160.7040 C   0  0  0  0  0  0  0  0  0  0  0  0
  147.3976  134.8044  160.1163 C   0  0  0  0  0  0  0  0  0  0  0  0
  147.2479  133.6539  160.9146 C   0  0  0  0  0  0  0  0  0  0  0  0
  147.3984  133.7399  162.3109 C   0  0  0  0  0  0  0  0  0  0  0  0
  147.7004  134.9777  162.9077 C   0  0  0  0  0  0  0  0  0  0  0  0
  147.8500  136.1296  162.1109 C   0  0  0  0  0  0  0  0  0  0  0  0
  155.9505  134.3714  156.9848 H   0  0  0  0  0  0  0  0  0  0  0  0
  149.5239  138.0409  157.1777 H   0  0  0  0  0  0  0  0  0  0  0  0
  148.8564  139.0657  158.4441 H   0  0  0  0  0  0  0  0  0  0  0  0
  150.7033  138.3812  160.0008 H   0  0  0  0  0  0  0  0  0  0  0  0
  153.2784  136.9283  159.6730 H   0  0  0  0  0  0  0  0  0  0  0  0
  152.2933  137.3791  156.0953 H   0  0  0  0  0  0  0  0  0  0  0  0
  153.2655  136.1836  154.2569 H   0  0  0  0  0  0  0  0  0  0  0  0
  153.4309  139.2213  159.5873 H   0  0  0  0  0  0  0  0  0  0  0  0
  154.2732  138.5023  157.1314 H   0  0  0  0  0  0  0  0  0  0  0  0
  151.4971  139.3974  157.2511 H   0  0  0  0  0  0  0  0  0  0  0  0
  150.6639  144.2699  157.5724 H   0  0  0  0  0  0  0  0  0  0  0  0
  151.3134  146.3402  158.7460 H   0  0  0  0  0  0  0  0  0  0  0  0
  152.5819  146.2278  160.8827 H   0  0  0  0  0  0  0  0  0  0  0  0
  153.1994  144.0188  161.8436 H   0  0  0  0  0  0  0  0  0  0  0  0
  152.5647  141.9378  160.6964 H   0  0  0  0  0  0  0  0  0  0  0  0
  147.2770  134.7133  159.0462 H   0  0  0  0  0  0  0  0  0  0  0  0
  147.0171  132.7045  160.4545 H   0  0  0  0  0  0  0  0  0  0  0  0
  147.2828  132.8577  162.9229 H   0  0  0  0  0  0  0  0  0  0  0  0
  147.8174  135.0442  163.9794 H   0  0  0  0  0  0  0  0  0  0  0  0
  148.0823  137.0636  162.6014 H   0  0  0  0  0  0  0  0  0  0  0  0
  1  2  2  0  0  0  0
  2  3  1  0  0  0  0
  2 28  1  0  0  0  0
  3  4  1  0  0  0  0
  4  5  1  0  0  0  0
  4 35  1  0  0  0  0
  4 36  1  0  0  0  0
  5 18  1  0  0  0  0
  5  6  1  0  0  0  0
  5 37  1  0  0  0  0
  6  7  1  0  0  0  0
  7  8  1  0  0  0  0
  7 16  1  0  0  0  0
  7 38  1  0  0  0  0
  8 14  1  0  0  0  0
  8  9  1  0  0  0  0
  9 10  2  0  0  0  0
  9 39  1  0  0  0  0
 10 11  1  0  0  0  0
 10 40  1  0  0  0  0
 11 12  2  0  0  0  0
 11 13  1  0  0  0  0
 13 34  1  0  0  0  0
 13 14  1  0  0  0  0
 14 15  2  0  0  0  0
 16 17  1  0  0  0  0
 16 18  1  0  0  0  0
 16 41  1  0  0  0  0
 17 42  1  0  0  0  0
 18 19  1  0  0  0  0
 18 43  1  0  0  0  0
 19 20  1  0  0  0  0
 20 21  2  0  0  0  0
 20 22  1  0  0  0  0
 22 27  1  0  0  0  0
 22 23  2  0  0  0  0
 23 24  1  0  0  0  0
 23 44  1  0  0  0  0
 24 25  2  0  0  0  0
 24 45  1  0  0  0  0
 25 26  1  0  0  0  0
 25 46  1  0  0  0  0
 26 27  2  0  0  0  0
 26 47  1  0  0  0  0
 27 48  1  0  0  0  0
 28 33  1  0  0  0  0
 28 29  2  0  0  0  0
 29 30  1  0  0  0  0
 29 49  1  0  0  0  0
 30 31  2  0  0  0  0
 30 50  1  0  0  0  0
 31 32  1  0  0  0  0
 31 51  1  0  0  0  0
 32 33  2  0  0  0  0
 32 52  1  0  0  0  0
 33 53  1  0  0  0  0
M  END
> <s_m_source_file>
AV-unprocessed.smi

> <i_m_source_file_index>
99

> <i_lp_mmshare_version>
43012

> <i_f3d_flags>
0

> <s_epik_input>
W2NIXTFbY0hdW2NIXVtjSF1bY0hdYzFDKD1PKU9bQ0gyXVtDQEBIXTJPW0NAQEhdKG4zW2NIXVtjSF1jKD1PKVtuSF1jMz1PKVtDQEBIXShbT0hdKVtDQEhdMk9DKD1PKWM0W2NIXVtjSF1bY0hdW2NIXVtjSF00

> <s_epik_cmdline>
J2VwaWtfcHl0aG9uJywgJy1waCcsICc3LjAnLCAnLXRuJywgJzgnLCAnLW1hJywgJzIwMCcsICctbWV0YWxfYmluZGluZycsICctaW1hZScsICc8aW5maWxlLm1hZT4nLCAnLW9tYWUnLCAnPG91dGZpbGUubWFlPic=

> <r_lp_tautomer_probability>
1

> <r_epik_Ionization_Penalty>
0.00454555

> <r_epik_Ionization_Penalty_Charging>
0.0045191

> <r_epik_Ionization_Penalty_Neutral>
2.64449e-05

> <r_epik_State_Penalty>
-0

> <r_epik_Charging_Adjusted_Penalty>
0.0045191

> <i_epik_Tot_Q>
0

> <i_epik_Tot_abs_Q>
0

> <r_epik_Metal_State_Penalty>
1.27877

> <b_epik_Metal_Only>
0

> <s_epik_Chemistry_Notes>
This compound has an ester and may undergo hydrolysis at high or low pH. This compound contains an acetal/aminal-like group ( X-CH(R)-Y where X, Y are N, S, or O) that may be acid/base labile, releasing an aldehyde.

> <s_lp_Force_Field>
OPLS_2005

> <r_lp_Energy>
37.9182

> <b_lp_Chiralities_Consistent>
1

> <s_lp_Variant>
AV-unprocessed.smi:99-10

> <Gold.Version>
5.8.1

> <Gold.Id.Protein>
6NUR|6NUR_protein|mol2

> <Gold.PLP.Fitness>
60.1008

> <Gold.PLP.PLP>
-57.4542

> <Gold.PLP.part.hbond>
-3.1736

> <Gold.PLP.part.metal>
0.0000

> <Gold.PLP.part.buried>
-8.2204

> <Gold.PLP.part.nonpolar>
-45.9995

> <Gold.PLP.part.repulsive>
0.0088

> <Gold.PLP.ligand.clash>
0.0000

> <Gold.PLP.ligand.torsion>
2.6965

> <Gold.PLP.Chemscore.Hbond>
2.5120

> <Gold.PLP.Chemscore.CHOScore>
0.0000

> <Gold.PLP.Chemscore.Metal>
0.0000

> <Gold.Chemscore.Hbonds>
donor molecule, donor type, donor heavy atom, donor atom, acceptor molecule, acceptor atom, score
      P1  H  6896  6909       L1     6  0.09
      P1  H  7997  8010       L1    17  0.12

> <Gold.PLP.Chemscore.Internal.Correction>
0.5037

> <Gold.Rescore>
     Score         DG    S(hbond)    S(metal)    S(lipo)     H(rot)  DE(clash)    DE(int)     intcor
     18.51     -22.96       2.44        0.00     149.47       3.19       0.43       4.02       ----

> <Gold.Chemscore.Fitness>
18.5076

> <Gold.Chemscore.DG>
-22.9607

> <Gold.Chemscore.ZeroCoef>
-5.4800

> <Gold.Chemscore.Hbond>
2.4432

> <Gold.Chemscore.Metal>
0.0000

> <Gold.Chemscore.Lipo>
149.4666

> <Gold.Chemscore.Internal_Hbond>
0.0000

> <Gold.Chemscore.DEClash>
0.4293

> <Gold.Chemscore.DEInternal>
4.0238

> <Gold.Chemscore.Rot>
3.1903

> <Gold.Chemscore.Internal.Correction>
   9.000000E+99

> <Gold.Chemscore.Hbonds>
donor molecule, donor type, donor heavy atom, donor atom, acceptor molecule, acceptor atom, score
      P1  H  6896  6909       L1     6  0.01
      P1  H  6934  6947       L1     1  0.04
      P1  H  7997  8010       L1    17  0.02

> <Gold.Chemscore.Hbond.Weighted>
-8.1602

> <Gold.Chemscore.Metal.Weighted>
-0.0000

> <Gold.Chemscore.Lipo.Weighted>
-17.4876

> <Gold.Chemscore.Internal_Hbond.Weighted>
0.0000

> <Gold.Chemscore.DEClash.Weighted>
0.4293

> <Gold.Chemscore.DEInternal.Weighted>
4.0238

> <Gold.Chemscore.Rot.Weighted>
8.1671

> <Gold.Chemscore.Internal.Correction.Weighted>
   9.000000E+99

> <Gold.Protein.RotatedTorsions>
[ 6907 6896 6895 6894 ] final  133.29 input  -60.11 | X-H torsion
[ 7974 7965 7964 7962 ] final   61.61 input  175.53 | X-H torsion
[ 8008 7997 7996 7995 ] final   16.63 input   59.86 | X-H torsion
[ 10167 10162 10161 10158 ] final  124.71 input  -65.29 | X-H torsion
[ 10718 10713 10712 10709 ] final -166.16 input   66.30 | X-H torsion
[ 10763 10752 10751 10750 ] final   12.42 input  -60.55 | X-H torsion
[ 11005 11000 10999 10996 ] final  -98.86 input  -57.11 | X-H torsion

> <Gold.Protein.ActiveResidues>
 VAL166  LYS551  ARG553  GLY616  TRP617  ASP618  TYR619  PRO620  LYS621  CYS622 
 ASP623  PHE694  ASN695  SER759  ASP760  ASP761  ALA762  ILE779  LEU786  VAL792 
 PHE793  MET794  SER795  GLU796  ALA797  LYS798  CYS799  TRP800  GLU811  SER814 

> <Gold.Protein.RotatedAtoms>
  152.3235  133.5879  159.5760 H   0  0  0  0  0  0  0  0  0  0  0  0  # atno 6907 bound_to 6896
  150.7384  133.9975  159.3636 H   0  0  0  0  0  0  0  0  0  0  0  0  # atno 6908 bound_to 6896
  151.7857  135.0750  160.0431 H   0  0  0  0  0  0  0  0  0  0  0  0  # atno 6909 bound_to 6896
  145.8828  139.3455  143.0696 H   0  0  0  0  0  0  0  0  0  0  0  0  # atno 7974 bound_to 7965
  154.8797  140.2971  155.5432 H   0  0  0  0  0  0  0  0  0  0  0  0  # atno 8008 bound_to 7997
  156.3022  140.2444  156.3732 H   0  0  0  0  0  0  0  0  0  0  0  0  # atno 8009 bound_to 7997
  154.8730  140.0401  157.1725 H   0  0  0  0  0  0  0  0  0  0  0  0  # atno 8010 bound_to 7997
  139.5726  144.6947  151.3737 H   0  0  0  0  0  0  0  0  0  0  0  0  # atno 10167 bound_to 10162
  156.6639  130.9057  151.3033 H   0  0  0  0  0  0  0  0  0  0  0  0  # atno 10718 bound_to 10713
  153.1824  135.6830  153.8460 H   0  0  0  0  0  0  0  0  0  0  0  0  # atno 10763 bound_to 10752
  153.7787  135.3185  155.3364 H   0  0  0  0  0  0  0  0  0  0  0  0  # atno 10764 bound_to 10752
  154.8068  135.4743  154.0508 H   0  0  0  0  0  0  0  0  0  0  0  0  # atno 10765 bound_to 10752
  141.1329  133.8277  157.0896 H   0  0  0  0  0  0  0  0  0  0  0  0  # atno 11005 bound_to 11000
  145.9003  140.9247  143.0506 LP  0  0  0  0  0  0  0  0  0  0  0  0  # atno 17320 bound_to 7965
  144.6727  140.1024  143.7460 LP  0  0  0  0  0  0  0  0  0  0  0  0  # atno 17321 bound_to 7965
  140.7010  143.7631  150.7404 LP  0  0  0  0  0  0  0  0  0  0  0  0  # atno 17342 bound_to 10162
  140.1141  143.4672  152.2352 LP  0  0  0  0  0  0  0  0  0  0  0  0  # atno 17343 bound_to 10162
  157.7100  130.9429  150.1058 LP  0  0  0  0  0  0  0  0  0  0  0  0  # atno 17370 bound_to 10713
  156.1990  130.3659  149.8812 LP  0  0  0  0  0  0  0  0  0  0  0  0  # atno 17371 bound_to 10713
  140.0401  134.9859  157.0945 LP  0  0  0  0  0  0  0  0  0  0  0  0  # atno 17394 bound_to 11000
  140.4149  134.1942  155.7163 LP  0  0  0  0  0  0  0  0  0  0  0  0  # atno 17395 bound_to 11000

$$$$
