AV-unprocessed.smi:2760|AV-procd|sdf|10630|dock2
  -GOLD-   2272015 83D 1   1.00000     0.00000
 Structure written by MMmdl.
 31 32  0  0  0  0  0  0  0  0  2 V2000
  153.5894  138.3668  155.5491 O   0  0  0  0  0  0  0  0  0  0  0  0
  152.4333  138.0418  155.2865 C   0  0  0  0  0  0  0  0  0  0  0  0
  151.5140  139.0339  154.7302 C   0  0  0  0  0  0  0  0  0  0  0  0
  150.2392  138.6669  154.4462 C   0  0  0  0  0  0  0  0  0  0  0  0
  149.2587  139.6348  153.8725 C   0  0  0  0  0  0  0  0  0  0  0  0
  149.1353  141.0399  154.4180 C   0  0  0  0  0  0  0  0  0  0  0  0
  148.0041  140.0592  154.6079 C   0  0  0  0  0  0  0  0  0  0  0  0
  149.8133  137.3451  154.6794 N   0  0  0  0  0  0  0  0  0  0  0  0
  150.6351  136.4922  155.1646 C   0  0  0  0  0  0  0  0  0  0  0  0
  150.0217  134.8175  155.4299 S   0  0  0  0  0  0  0  0  0  0  0  0
  149.9419  134.6460  157.2372 C   0  0  0  0  0  0  0  0  0  0  0  0
  148.9026  135.5959  157.8387 C   0  0  0  0  0  0  0  0  0  0  0  0
  148.8097  135.3607  159.2336 O   0  0  0  0  0  0  0  0  0  0  0  0
  148.3368  136.4913  159.9487 C   0  0  0  0  0  0  0  0  0  0  0  0
  147.2698  136.0536  160.9592 C   0  0  0  0  0  0  0  0  0  0  0  0
  147.3180  136.8550  162.0226 F   0  0  0  0  0  0  0  0  0  0  0  0
  146.0556  136.1380  160.4159 F   0  0  0  0  0  0  0  0  0  0  0  0
  147.4966  134.8020  161.3569 F   0  0  0  0  0  0  0  0  0  0  0  0
  151.9449  136.7840  155.4872 N   0  5  0  0  0  0  0  0  0  0  0  0
  151.8526  140.0440  154.5517 H   0  0  0  0  0  0  0  0  0  0  0  0
  149.1593  139.5296  152.7935 H   0  0  0  0  0  0  0  0  0  0  0  0
  149.7260  141.3001  155.2943 H   0  0  0  0  0  0  0  0  0  0  0  0
  148.9892  141.8441  153.7002 H   0  0  0  0  0  0  0  0  0  0  0  0
  147.1050  140.2117  154.0149 H   0  0  0  0  0  0  0  0  0  0  0  0
  147.8355  139.6783  155.6132 H   0  0  0  0  0  0  0  0  0  0  0  0
  150.9262  134.8532  157.6587 H   0  0  0  0  0  0  0  0  0  0  0  0
  149.6886  133.6156  157.4887 H   0  0  0  0  0  0  0  0  0  0  0  0
  149.1905  136.6320  157.6540 H   0  0  0  0  0  0  0  0  0  0  0  0
  147.9328  135.4327  157.3660 H   0  0  0  0  0  0  0  0  0  0  0  0
  149.1635  136.9770  160.4697 H   0  0  0  0  0  0  0  0  0  0  0  0
  147.9145  137.2199  159.2551 H   0  0  0  0  0  0  0  0  0  0  0  0
  1  2  2  0  0  0  0
  2 19  1  0  0  0  0
  2  3  1  0  0  0  0
  3 20  1  0  0  0  0
  3  4  2  0  0  0  0
  4  5  1  0  0  0  0
  4  8  1  0  0  0  0
  5  7  1  0  0  0  0
  5  6  1  0  0  0  0
  5 21  1  0  0  0  0
  6  7  1  0  0  0  0
  6 22  1  0  0  0  0
  6 23  1  0  0  0  0
  7 24  1  0  0  0  0
  7 25  1  0  0  0  0
  8  9  2  0  0  0  0
  9 10  1  0  0  0  0
  9 19  1  0  0  0  0
 10 11  1  0  0  0  0
 11 12  1  0  0  0  0
 11 26  1  0  0  0  0
 11 27  1  0  0  0  0
 12 13  1  0  0  0  0
 12 28  1  0  0  0  0
 12 29  1  0  0  0  0
 13 14  1  0  0  0  0
 14 15  1  0  0  0  0
 14 30  1  0  0  0  0
 14 31  1  0  0  0  0
 15 16  1  0  0  0  0
 15 17  1  0  0  0  0
 15 18  1  0  0  0  0
M  CHG  1  19  -1
M  END
> <s_m_source_file>
AV-unprocessed.smi

> <i_m_source_file_index>
2760

> <i_lp_mmshare_version>
43012

> <i_f3d_flags>
0

> <s_epik_input>
W09IXWMxW2NIXWMoW0NIXTJbQ0gyXVtDSDJdMiluYyhuMSlTW0NIMl1bQ0gyXU9bQ0gyXUMoRikoRilG

> <s_epik_cmdline>
J2VwaWtfcHl0aG9uJywgJy1waCcsICc3LjAnLCAnLXRuJywgJzgnLCAnLW1hJywgJzIwMCcsICctbWV0YWxfYmluZGluZycsICctaW1hZScsICc8aW5maWxlLm1hZT4nLCAnLW9tYWUnLCAnPG91dGZpbGUubWFlPic=

> <r_lp_tautomer_probability>
1

> <r_epik_Ionization_Penalty>
4.02042

> <r_epik_Ionization_Penalty_Charging>
0.00362968

> <r_epik_Ionization_Penalty_Neutral>
4.01679

> <r_epik_State_Penalty>
2.30798

> <r_epik_Charging_Adjusted_Penalty>
2.31161

> <i_epik_Tot_Q>
-1

> <i_epik_Tot_abs_Q>
1

> <r_epik_Metal_State_Penalty>
0.234281

> <b_epik_Metal_Only>
0

> <s_lp_Force_Field>
OPLS_2005

> <r_lp_Energy>
16.4735

> <b_lp_Chiralities_Consistent>
1

> <s_lp_Variant>
AV-unprocessed.smi:2760-3

> <Gold.Version>
5.8.1

> <Gold.Id.Protein>
6NUR|6NUR_protein|mol2

> <Gold.PLP.Fitness>
42.5806

> <Gold.PLP.PLP>
-34.0658

> <Gold.PLP.part.hbond>
-3.0000

> <Gold.PLP.part.metal>
0.0000

> <Gold.PLP.part.buried>
-4.1444

> <Gold.PLP.part.nonpolar>
-27.7679

> <Gold.PLP.part.repulsive>
0.2312

> <Gold.PLP.ligand.clash>
0.0000

> <Gold.PLP.ligand.torsion>
1.3818

> <Gold.PLP.Chemscore.Hbond>
3.6880

> <Gold.PLP.Chemscore.CHOScore>
0.0000

> <Gold.PLP.Chemscore.Metal>
0.0000

> <Gold.Chemscore.Hbonds>
donor molecule, donor type, donor heavy atom, donor atom, acceptor molecule, acceptor atom, score
      P1  H  6896  6909       L1    13  0.90
      P1  H  7997  8008       L1     1  0.72
      P1  H 10752 10765       L1    19  2.00

> <Gold.PLP.Chemscore.Internal.Correction>
0.2144

> <Gold.Rescore>
     Score         DG    S(hbond)    S(metal)    S(lipo)     H(rot)  DE(clash)    DE(int)     intcor
     11.80     -13.04       2.26        0.00      54.49       2.48       0.01       1.23       ----

> <Gold.Chemscore.Fitness>
11.7952

> <Gold.Chemscore.DG>
-13.0393

> <Gold.Chemscore.ZeroCoef>
-5.4800

> <Gold.Chemscore.Hbond>
2.2577

> <Gold.Chemscore.Metal>
0.0000

> <Gold.Chemscore.Lipo>
54.4937

> <Gold.Chemscore.Internal_Hbond>
0.0000

> <Gold.Chemscore.DEClash>
0.0136

> <Gold.Chemscore.DEInternal>
1.2305

> <Gold.Chemscore.Rot>
2.4833

> <Gold.Chemscore.Internal.Correction>
   9.000000E+99

> <Gold.Chemscore.Hbonds>
donor molecule, donor type, donor heavy atom, donor atom, acceptor molecule, acceptor atom, score
      P1  H  6896  6909       L1    13  0.19
      P1  H  7997  8008       L1     1  0.67
      P1  H 10752 10765       L1    19  0.60

> <Gold.Chemscore.Hbond.Weighted>
-7.5408

> <Gold.Chemscore.Metal.Weighted>
-0.0000

> <Gold.Chemscore.Lipo.Weighted>
-6.3758

> <Gold.Chemscore.Internal_Hbond.Weighted>
0.0000

> <Gold.Chemscore.DEClash.Weighted>
0.0136

> <Gold.Chemscore.DEInternal.Weighted>
1.2305

> <Gold.Chemscore.Rot.Weighted>
6.3572

> <Gold.Chemscore.Internal.Correction.Weighted>
   9.000000E+99

> <Gold.Protein.RotatedTorsions>
[ 6907 6896 6895 6894 ] final   41.28 input  -60.11 | X-H torsion
[ 7974 7965 7964 7962 ] final  101.41 input  175.53 | X-H torsion
[ 8008 7997 7996 7995 ] final  -38.02 input   59.86 | X-H torsion
[ 10167 10162 10161 10158 ] final   99.21 input  -65.29 | X-H torsion
[ 10718 10713 10712 10709 ] final  -89.84 input   66.30 | X-H torsion
[ 10763 10752 10751 10750 ] final -165.89 input  -60.55 | X-H torsion
[ 11005 11000 10999 10996 ] final   39.81 input  -57.11 | X-H torsion

> <Gold.Protein.ActiveResidues>
 VAL166  LYS551  ARG553  GLY616  TRP617  ASP618  TYR619  PRO620  LYS621  CYS622 
 ASP623  PHE694  ASN695  SER759  ASP760  ASP761  ALA762  ILE779  LEU786  VAL792 
 PHE793  MET794  SER795  GLU796  ALA797  LYS798  CYS799  TRP800  GLU811  SER814 

> <Gold.Protein.RotatedAtoms>
  152.1933  134.8653  160.0515 H   0  0  0  0  0  0  0  0  0  0  0  0  # atno 6907 bound_to 6896
  151.9534  133.3668  159.4016 H   0  0  0  0  0  0  0  0  0  0  0  0  # atno 6908 bound_to 6896
  150.6939  134.4240  159.5262 H   0  0  0  0  0  0  0  0  0  0  0  0  # atno 6909 bound_to 6896
  145.3727  139.2395  143.3446 H   0  0  0  0  0  0  0  0  0  0  0  0  # atno 7974 bound_to 7965
  154.4043  140.1589  156.2631 H   0  0  0  0  0  0  0  0  0  0  0  0  # atno 8008 bound_to 7997
  155.9019  140.3432  155.6010 H   0  0  0  0  0  0  0  0  0  0  0  0  # atno 8009 bound_to 7997
  155.7438  140.0796  157.2224 H   0  0  0  0  0  0  0  0  0  0  0  0  # atno 8010 bound_to 7997
  139.7638  144.6945  151.0254 H   0  0  0  0  0  0  0  0  0  0  0  0  # atno 10167 bound_to 10162
  155.9985  130.4887  150.5232 H   0  0  0  0  0  0  0  0  0  0  0  0  # atno 10718 bound_to 10713
  154.6887  135.2967  154.9511 H   0  0  0  0  0  0  0  0  0  0  0  0  # atno 10763 bound_to 10752
  154.0481  135.6648  153.4801 H   0  0  0  0  0  0  0  0  0  0  0  0  # atno 10764 bound_to 10752
  153.0597  135.5123  154.7968 H   0  0  0  0  0  0  0  0  0  0  0  0  # atno 10765 bound_to 10752
  140.1991  134.3892  155.8105 H   0  0  0  0  0  0  0  0  0  0  0  0  # atno 11005 bound_to 11000
  146.2878  140.4381  142.8751 LP  0  0  0  0  0  0  0  0  0  0  0  0  # atno 17320 bound_to 7965
  144.8565  140.7077  143.6135 LP  0  0  0  0  0  0  0  0  0  0  0  0  # atno 17321 bound_to 7965
  140.7809  143.4666  151.0203 LP  0  0  0  0  0  0  0  0  0  0  0  0  # atno 17342 bound_to 10162
  139.8352  143.7637  152.3180 LP  0  0  0  0  0  0  0  0  0  0  0  0  # atno 17343 bound_to 10162
  157.3191  131.0678  151.1945 LP  0  0  0  0  0  0  0  0  0  0  0  0  # atno 17370 bound_to 10713
  157.2865  130.6775  149.6092 LP  0  0  0  0  0  0  0  0  0  0  0  0  # atno 17371 bound_to 10713
  141.2227  133.7085  156.8228 LP  0  0  0  0  0  0  0  0  0  0  0  0  # atno 17394 bound_to 11000
  140.2073  134.8853  157.3236 LP  0  0  0  0  0  0  0  0  0  0  0  0  # atno 17395 bound_to 11000

$$$$
