AV-unprocessed.smi:933|AV-procd|sdf|4201|dock6
  -GOLD-   22720 2103D 1   1.00000     0.00000
 Structure written by MMmdl.
 42 43  0  0  0  0  0  0  0  0  1 V2000
  146.0609  129.5684  152.1199 C   0  0  0  0  0  0  0  0  0  0  0  0
  146.2351  130.9992  152.6402 C   0  0  0  0  0  0  0  0  0  0  0  0
  145.3601  131.9776  151.9306 C   0  0  0  0  0  0  0  0  0  0  0  0
  145.3580  133.2877  152.1907 N   0  0  0  0  0  0  0  0  0  0  0  0
  144.4749  133.9987  151.3720 C   0  0  0  0  0  0  0  0  0  0  0  0
  144.3413  135.4831  151.5283 C   0  0  0  0  0  0  0  0  0  0  0  0
  145.6765  136.2101  151.3187 C   0  0  0  0  0  0  0  0  0  0  0  0
  145.6138  137.5671  151.8552 N   0  0  0  0  0  0  0  0  0  0  0  0
  146.2775  138.0509  152.9190 C   0  0  0  0  0  0  0  0  0  0  0  0
  147.0429  137.3524  153.5810 O   0  0  0  0  0  0  0  0  0  0  0  0
  146.0297  139.3432  153.1906 N   0  0  0  0  0  0  0  0  0  0  0  0
  146.6324  140.1048  154.2811 C   0  0  2  0  0  0  0  0  0  0  0  0
  145.9379  141.4696  154.4734 C   0  0  0  0  0  0  0  0  0  0  0  0
  146.9745  142.5336  154.1087 C   0  0  0  0  0  0  0  0  0  0  0  0
  148.3150  141.8709  154.4069 C   0  0  0  0  0  0  0  0  0  0  0  0
  148.1129  140.4157  153.9756 C   0  0  1  0  0  0  0  0  0  0  0  0
  149.0993  139.4373  154.6280 C   0  0  0  0  0  0  0  0  0  0  0  0
  143.8127  133.2025  150.4710 C   0  0  0  0  0  0  0  0  0  0  0  0
  144.2769  131.5297  150.6178 S   0  0  0  0  0  0  0  0  0  0  0  0
  146.7114  128.8781  152.6573 H   0  0  0  0  0  0  0  0  0  0  0  0
  146.3080  129.5029  151.0598 H   0  0  0  0  0  0  0  0  0  0  0  0
  145.0335  129.2263  152.2470 H   0  0  0  0  0  0  0  0  0  0  0  0
  146.0080  131.0369  153.7060 H   0  0  0  0  0  0  0  0  0  0  0  0
  147.2744  131.3115  152.5314 H   0  0  0  0  0  0  0  0  0  0  0  0
  143.6046  135.8650  150.8203 H   0  0  0  0  0  0  0  0  0  0  0  0
  143.9515  135.7164  152.5202 H   0  0  0  0  0  0  0  0  0  0  0  0
  146.4797  135.6603  151.8120 H   0  0  0  0  0  0  0  0  0  0  0  0
  145.9135  136.2500  150.2543 H   0  0  0  0  0  0  0  0  0  0  0  0
  144.9961  138.2060  151.3757 H   0  0  0  0  0  0  0  0  0  0  0  0
  145.3830  139.8372  152.5932 H   0  0  0  0  0  0  0  0  0  0  0  0
  146.5574  139.5353  155.2098 H   0  0  0  0  0  0  0  0  0  0  0  0
  145.0260  141.5801  153.8850 H   0  0  0  0  0  0  0  0  0  0  0  0
  145.6558  141.5829  155.5209 H   0  0  0  0  0  0  0  0  0  0  0  0
  146.9075  142.7621  153.0441 H   0  0  0  0  0  0  0  0  0  0  0  0
  146.8328  143.4639  154.6594 H   0  0  0  0  0  0  0  0  0  0  0  0
  149.1442  142.3513  153.8866 H   0  0  0  0  0  0  0  0  0  0  0  0
  148.5175  141.9236  155.4778 H   0  0  0  0  0  0  0  0  0  0  0  0
  148.2652  140.3820  152.8949 H   0  0  0  0  0  0  0  0  0  0  0  0
  149.0063  139.4432  155.7145 H   0  0  0  0  0  0  0  0  0  0  0  0
  150.1287  139.6969  154.3798 H   0  0  0  0  0  0  0  0  0  0  0  0
  148.9214  138.4179  154.2838 H   0  0  0  0  0  0  0  0  0  0  0  0
  143.0866  133.4984  149.7284 H   0  0  0  0  0  0  0  0  0  0  0  0
  1  2  1  0  0  0  0
  1 20  1  0  0  0  0
  1 21  1  0  0  0  0
  1 22  1  0  0  0  0
  2  3  1  0  0  0  0
  2 23  1  0  0  0  0
  2 24  1  0  0  0  0
  3 19  1  0  0  0  0
  3  4  2  0  0  0  0
  4  5  1  0  0  0  0
  5  6  1  0  0  0  0
  5 18  2  0  0  0  0
  6  7  1  0  0  0  0
  6 25  1  0  0  0  0
  6 26  1  0  0  0  0
  7  8  1  0  0  0  0
  7 27  1  0  0  0  0
  7 28  1  0  0  0  0
  8  9  1  0  0  0  0
  8 29  1  0  0  0  0
  9 10  2  0  0  0  0
  9 11  1  0  0  0  0
 11 12  1  0  0  0  0
 11 30  1  0  0  0  0
 12 16  1  0  0  0  0
 12 13  1  0  0  0  0
 12 31  1  0  0  0  0
 13 14  1  0  0  0  0
 13 32  1  0  0  0  0
 13 33  1  0  0  0  0
 14 15  1  0  0  0  0
 14 34  1  0  0  0  0
 14 35  1  0  0  0  0
 15 16  1  0  0  0  0
 15 36  1  0  0  0  0
 15 37  1  0  0  0  0
 16 17  1  0  0  0  0
 16 38  1  0  0  0  0
 17 39  1  0  0  0  0
 17 40  1  0  0  0  0
 17 41  1  0  0  0  0
 18 19  1  0  0  0  0
 18 42  1  0  0  0  0
M  END
> <s_m_source_file>
AV-unprocessed.smi

> <i_m_source_file_index>
933

> <i_lp_mmshare_version>
43012

> <i_f3d_flags>
0

> <s_epik_input>
W0NIM11bQ0gyXWMxbmMoW2NIXXMxKVtDSDJdW0NIMl1bTkhdQyg9TylbTkhdW0NAQEhdMltDSDJdW0NIMl1bQ0gyXVtDQEhdMltDSDNd

> <s_epik_cmdline>
J2VwaWtfcHl0aG9uJywgJy1waCcsICc3LjAnLCAnLXRuJywgJzgnLCAnLW1hJywgJzIwMCcsICctbWV0YWxfYmluZGluZycsICctaW1hZScsICc8aW5maWxlLm1hZT4nLCAnLW9tYWUnLCAnPG91dGZpbGUubWFlPic=

> <r_epik_Ionization_Penalty>
0.00203408

> <r_epik_Ionization_Penalty_Charging>
0

> <r_epik_Ionization_Penalty_Neutral>
0.00203408

> <r_epik_State_Penalty>
0.0013452

> <r_epik_Charging_Adjusted_Penalty>
0.0013452

> <i_epik_Tot_Q>
0

> <i_epik_Tot_abs_Q>
0

> <r_epik_Metal_State_Penalty>
-0

> <b_epik_Metal_Only>
0

> <s_lp_Force_Field>
OPLS_2005

> <r_lp_Energy>
18.2024

> <b_lp_Chiralities_Consistent>
1

> <s_lp_Variant>
AV-unprocessed.smi:933-1

> <Gold.Version>
5.8.1

> <Gold.Id.Protein>
6NUR|6NUR_protein|mol2

> <Gold.PLP.Fitness>
42.4183

> <Gold.PLP.PLP>
-34.2457

> <Gold.PLP.part.hbond>
-2.0000

> <Gold.PLP.part.metal>
0.0000

> <Gold.PLP.part.buried>
-2.2617

> <Gold.PLP.part.nonpolar>
-31.9975

> <Gold.PLP.part.repulsive>
2.4179

> <Gold.PLP.ligand.clash>
0.0000

> <Gold.PLP.ligand.torsion>
0.2265

> <Gold.PLP.Chemscore.Hbond>
1.8640

> <Gold.PLP.Chemscore.CHOScore>
1.0000

> <Gold.PLP.Chemscore.Metal>
0.0000

> <Gold.Chemscore.Hbonds>
donor molecule, donor type, donor heavy atom, donor atom, acceptor molecule, acceptor atom, score
      L1  H     8    29       P1 10171  0.98
      L1  H    11    30       P1 10175  0.90
      L1  C    18    42       P1 10186  1.00

> <Gold.PLP.Chemscore.Internal.Correction>
0.0336

> <Gold.Rescore>
     Score         DG    S(hbond)    S(metal)    S(lipo)     H(rot)  DE(clash)    DE(int)     intcor
     16.57     -18.99       1.84        0.00      96.83       1.55       1.27       1.14       ----

> <Gold.Chemscore.Fitness>
16.5693

> <Gold.Chemscore.DG>
-18.9866

> <Gold.Chemscore.ZeroCoef>
-5.4800

> <Gold.Chemscore.Hbond>
1.8386

> <Gold.Chemscore.Metal>
0.0000

> <Gold.Chemscore.Lipo>
96.8305

> <Gold.Chemscore.Internal_Hbond>
0.0000

> <Gold.Chemscore.DEClash>
1.2724

> <Gold.Chemscore.DEInternal>
1.1450

> <Gold.Chemscore.Rot>
1.5482

> <Gold.Chemscore.Internal.Correction>
   9.000000E+99

> <Gold.Chemscore.Hbonds>
donor molecule, donor type, donor heavy atom, donor atom, acceptor molecule, acceptor atom, score
      L1  H     8    29       P1 10171  0.92
      L1  H    11    30       P1 10175  0.87

> <Gold.Chemscore.Hbond.Weighted>
-6.1409

> <Gold.Chemscore.Metal.Weighted>
-0.0000

> <Gold.Chemscore.Lipo.Weighted>
-11.3292

> <Gold.Chemscore.Internal_Hbond.Weighted>
0.0000

> <Gold.Chemscore.DEClash.Weighted>
1.2724

> <Gold.Chemscore.DEInternal.Weighted>
1.1450

> <Gold.Chemscore.Rot.Weighted>
3.9635

> <Gold.Chemscore.Internal.Correction.Weighted>
   9.000000E+99

> <Gold.Protein.RotatedTorsions>
[ 6907 6896 6895 6894 ] final   21.93 input  -60.11 | X-H torsion
[ 7974 7965 7964 7962 ] final   22.98 input  175.53 | X-H torsion
[ 8008 7997 7996 7995 ] final  139.21 input   59.86 | X-H torsion
[ 10167 10162 10161 10158 ] final  -83.94 input  -65.29 | X-H torsion
[ 10718 10713 10712 10709 ] final    9.67 input   66.30 | X-H torsion
[ 10763 10752 10751 10750 ] final   19.29 input  -60.55 | X-H torsion
[ 11005 11000 10999 10996 ] final -119.44 input  -57.11 | X-H torsion

> <Gold.Protein.ActiveResidues>
 VAL166  LYS551  ARG553  GLY616  TRP617  ASP618  TYR619  PRO620  LYS621  CYS622 
 ASP623  PHE694  ASN695  SER759  ASP760  ASP761  ALA762  ILE779  LEU786  VAL792 
 PHE793  MET794  SER795  GLU796  ALA797  LYS798  CYS799  TRP800  GLU811  SER814 

> <Gold.Protein.RotatedAtoms>
  151.9193  135.0305  160.0520 H   0  0  0  0  0  0  0  0  0  0  0  0  # atno 6907 bound_to 6896
  152.2213  133.4981  159.5172 H   0  0  0  0  0  0  0  0  0  0  0  0  # atno 6908 bound_to 6896
  150.7000  134.1256  159.4093 H   0  0  0  0  0  0  0  0  0  0  0  0  # atno 6909 bound_to 6896
  146.2005  139.7809  142.8765 H   0  0  0  0  0  0  0  0  0  0  0  0  # atno 7974 bound_to 7965
  156.2991  140.2373  156.4200 H   0  0  0  0  0  0  0  0  0  0  0  0  # atno 8008 bound_to 7997
  154.8364  140.0430  157.1532 H   0  0  0  0  0  0  0  0  0  0  0  0  # atno 8009 bound_to 7997
  154.9151  140.2996  155.5249 H   0  0  0  0  0  0  0  0  0  0  0  0  # atno 8010 bound_to 7997
  140.4180  143.2596  151.8929 H   0  0  0  0  0  0  0  0  0  0  0  0  # atno 10167 bound_to 10162
  156.9697  130.5964  149.5668 H   0  0  0  0  0  0  0  0  0  0  0  0  # atno 10718 bound_to 10713
  153.1175  135.6711  153.9392 H   0  0  0  0  0  0  0  0  0  0  0  0  # atno 10763 bound_to 10752
  153.8918  135.3046  155.3449 H   0  0  0  0  0  0  0  0  0  0  0  0  # atno 10764 bound_to 10752
  154.7590  135.4997  153.9507 H   0  0  0  0  0  0  0  0  0  0  0  0  # atno 10765 bound_to 10752
  141.0215  134.0117  157.3275 H   0  0  0  0  0  0  0  0  0  0  0  0  # atno 11005 bound_to 11000
  145.3500  141.0305  143.3344 LP  0  0  0  0  0  0  0  0  0  0  0  0  # atno 17320 bound_to 7965
  144.8673  139.5089  143.6784 LP  0  0  0  0  0  0  0  0  0  0  0  0  # atno 17321 bound_to 7965
  139.4782  144.5468  151.8446 LP  0  0  0  0  0  0  0  0  0  0  0  0  # atno 17342 bound_to 10162
  140.4565  144.1781  150.5902 LP  0  0  0  0  0  0  0  0  0  0  0  0  # atno 17343 bound_to 10162
  156.0288  130.5380  150.8478 LP  0  0  0  0  0  0  0  0  0  0  0  0  # atno 17370 bound_to 10713
  157.5601  131.0945  150.9572 LP  0  0  0  0  0  0  0  0  0  0  0  0  # atno 17371 bound_to 10713
  139.9149  135.0195  156.7841 LP  0  0  0  0  0  0  0  0  0  0  0  0  # atno 17394 bound_to 11000
  140.6564  133.9684  155.7782 LP  0  0  0  0  0  0  0  0  0  0  0  0  # atno 17395 bound_to 11000

$$$$
