AV-unprocessed.smi:693|AV-procd|sdf|3373|dock5
  -GOLD-   22720 0353D 1   1.00000     0.00000
 Structure written by MMmdl.
 46 47  0  0  0  0  0  0  0  0  1 V2000
  151.6681  143.5709  158.3739 C   0  0  0  0  0  0  0  0  0  0  0  0
  152.3458  142.5586  159.2737 C   0  0  0  0  0  0  0  0  0  0  0  0
  153.0441  142.9808  160.4240 C   0  0  0  0  0  0  0  0  0  0  0  0
  153.6601  142.0048  161.2312 C   0  0  0  0  0  0  0  0  0  0  0  0
  153.5550  140.6494  160.8575 C   0  0  0  0  0  0  0  0  0  0  0  0
  154.1936  139.5571  161.6921 C   0  0  0  0  0  0  0  0  0  0  0  0
  153.7388  138.1560  161.2536 C   0  0  0  0  0  0  0  0  0  0  0  0
  154.2531  137.1220  162.1440 N   0  0  0  0  0  0  0  0  0  0  0  0
  154.2364  135.8026  161.8880 C   0  0  0  0  0  0  0  0  0  0  0  0
  153.7849  135.3472  160.8358 O   0  0  0  0  0  0  0  0  0  0  0  0
  154.7822  135.0267  162.8590 N   0  0  0  0  0  0  0  0  0  0  0  0
  155.3128  135.4930  164.1503 C   0  0  0  0  0  0  0  0  0  0  0  0
  154.2970  135.1403  165.2495 C   0  0  0  0  0  0  0  0  0  0  0  0
  153.9913  133.6301  165.2581 C   0  0  0  0  0  0  0  0  0  0  0  0
  153.6257  133.0945  163.8502 C   0  0  2  0  0  0  0  0  0  0  0  0
  153.4610  131.5584  163.7985 C   0  0  0  0  0  0  0  0  0  0  0  0
  152.3411  131.0244  164.6978 C   0  0  0  0  0  0  0  0  0  0  0  0
  151.3989  130.2774  164.1171 N   0  0  0  0  0  0  0  0  0  0  0  0
  152.3367  131.2619  165.9038 O   0  0  0  0  0  0  0  0  0  0  0  0
  154.6847  133.5617  162.8262 C   0  0  0  0  0  0  0  0  0  0  0  0
  152.8332  140.3328  159.6874 C   0  0  0  0  0  0  0  0  0  0  0  0
  152.2396  141.2619  158.9078 N   0  0  0  0  0  0  0  0  0  0  0  0
  151.0141  144.2185  158.9582 H   0  0  0  0  0  0  0  0  0  0  0  0
  151.0653  143.0841  157.6060 H   0  0  0  0  0  0  0  0  0  0  0  0
  152.4142  144.1923  157.8786 H   0  0  0  0  0  0  0  0  0  0  0  0
  153.1059  144.0278  160.6825 H   0  0  0  0  0  0  0  0  0  0  0  0
  154.2007  142.2929  162.1210 H   0  0  0  0  0  0  0  0  0  0  0  0
  155.2778  139.6467  161.6135 H   0  0  0  0  0  0  0  0  0  0  0  0
  153.9472  139.7194  162.7422 H   0  0  0  0  0  0  0  0  0  0  0  0
  152.6501  138.0995  161.2596 H   0  0  0  0  0  0  0  0  0  0  0  0
  154.0541  137.9544  160.2283 H   0  0  0  0  0  0  0  0  0  0  0  0
  154.6481  137.4285  163.0213 H   0  0  0  0  0  0  0  0  0  0  0  0
  156.2632  134.9953  164.3489 H   0  0  0  0  0  0  0  0  0  0  0  0
  155.5354  136.5595  164.1804 H   0  0  0  0  0  0  0  0  0  0  0  0
  154.6761  135.4484  166.2241 H   0  0  0  0  0  0  0  0  0  0  0  0
  153.3744  135.6986  165.0851 H   0  0  0  0  0  0  0  0  0  0  0  0
  154.8657  133.0946  165.6301 H   0  0  0  0  0  0  0  0  0  0  0  0
  153.1873  133.4369  165.9680 H   0  0  0  0  0  0  0  0  0  0  0  0
  152.6729  133.5416  163.5600 H   0  0  0  0  0  0  0  0  0  0  0  0
  153.2616  131.2456  162.7723 H   0  0  0  0  0  0  0  0  0  0  0  0
  154.3960  131.0739  164.0825 H   0  0  0  0  0  0  0  0  0  0  0  0
  150.6418  129.9001  164.6684 H   0  0  0  0  0  0  0  0  0  0  0  0
  151.4490  130.0897  163.1262 H   0  0  0  0  0  0  0  0  0  0  0  0
  154.4398  133.1886  161.8308 H   0  0  0  0  0  0  0  0  0  0  0  0
  155.6574  133.1292  163.0662 H   0  0  0  0  0  0  0  0  0  0  0  0
  152.7255  139.3061  159.3694 H   0  0  0  0  0  0  0  0  0  0  0  0
  1  2  1  0  0  0  0
  1 23  1  0  0  0  0
  1 24  1  0  0  0  0
  1 25  1  0  0  0  0
  2 22  1  0  0  0  0
  2  3  2  0  0  0  0
  3  4  1  0  0  0  0
  3 26  1  0  0  0  0
  4  5  2  0  0  0  0
  4 27  1  0  0  0  0
  5  6  1  0  0  0  0
  5 21  1  0  0  0  0
  6  7  1  0  0  0  0
  6 28  1  0  0  0  0
  6 29  1  0  0  0  0
  7  8  1  0  0  0  0
  7 30  1  0  0  0  0
  7 31  1  0  0  0  0
  8  9  1  0  0  0  0
  8 32  1  0  0  0  0
  9 10  2  0  0  0  0
  9 11  1  0  0  0  0
 11 20  1  0  0  0  0
 11 12  1  0  0  0  0
 12 13  1  0  0  0  0
 12 33  1  0  0  0  0
 12 34  1  0  0  0  0
 13 14  1  0  0  0  0
 13 35  1  0  0  0  0
 13 36  1  0  0  0  0
 14 15  1  0  0  0  0
 14 37  1  0  0  0  0
 14 38  1  0  0  0  0
 15 16  1  0  0  0  0
 15 20  1  0  0  0  0
 15 39  1  0  0  0  0
 16 17  1  0  0  0  0
 16 40  1  0  0  0  0
 16 41  1  0  0  0  0
 17 18  1  0  0  0  0
 17 19  2  0  0  0  0
 18 42  1  0  0  0  0
 18 43  1  0  0  0  0
 20 44  1  0  0  0  0
 20 45  1  0  0  0  0
 21 22  2  0  0  0  0
 21 46  1  0  0  0  0
M  END
> <s_m_source_file>
AV-unprocessed.smi

> <i_m_source_file_index>
693

> <i_lp_mmshare_version>
43012

> <i_f3d_flags>
0

> <s_epik_input>
W0NIM11jMVtjSF1bY0hdYyhbY0hdbjEpW0NIMl1bQ0gyXVtOSF1DKD1PKU4yW0NIMl1bQ0gyXVtDSDJdW0NASF0oW0NIMl0yKVtDSDJdQyg9TylbTkgyXQ==

> <s_epik_cmdline>
J2VwaWtfcHl0aG9uJywgJy1waCcsICc3LjAnLCAnLXRuJywgJzgnLCAnLW1hJywgJzIwMCcsICctbWV0YWxfYmluZGluZycsICctaW1hZScsICc8aW5maWxlLm1hZT4nLCAnLW9tYWUnLCAnPG91dGZpbGUubWFlPic=

> <r_epik_Ionization_Penalty>
0.056948

> <r_epik_Ionization_Penalty_Charging>
0

> <r_epik_Ionization_Penalty_Neutral>
0.056948

> <r_epik_State_Penalty>
0.0490937

> <r_epik_Charging_Adjusted_Penalty>
0.0490937

> <i_epik_Tot_Q>
0

> <i_epik_Tot_abs_Q>
0

> <r_epik_Metal_State_Penalty>
0.0447689

> <b_epik_Metal_Only>
0

> <s_lp_Force_Field>
OPLS_2005

> <r_lp_Energy>
26.3335

> <b_lp_Chiralities_Consistent>
1

> <s_lp_Variant>
AV-unprocessed.smi:693-2

> <Gold.Version>
5.8.1

> <Gold.Id.Protein>
6NUR|6NUR_protein|mol2

> <Gold.PLP.Fitness>
41.8711

> <Gold.PLP.PLP>
-39.2715

> <Gold.PLP.part.hbond>
-1.0000

> <Gold.PLP.part.metal>
0.0000

> <Gold.PLP.part.buried>
-2.9682

> <Gold.PLP.part.nonpolar>
-35.4867

> <Gold.PLP.part.repulsive>
0.0956

> <Gold.PLP.ligand.clash>
0.0000

> <Gold.PLP.ligand.torsion>
0.2260

> <Gold.PLP.Chemscore.Hbond>
0.9913

> <Gold.PLP.Chemscore.CHOScore>
0.0000

> <Gold.PLP.Chemscore.Metal>
0.0000

> <Gold.Chemscore.Hbonds>
donor molecule, donor type, donor heavy atom, donor atom, acceptor molecule, acceptor atom, score
      P1  H  6896  6907       L1    10  0.93

> <Gold.PLP.Chemscore.Internal.Correction>
0.0780

> <Gold.Rescore>
     Score         DG    S(hbond)    S(metal)    S(lipo)     H(rot)  DE(clash)    DE(int)     intcor
     15.47     -15.69       0.99        0.00     108.41       2.25       0.00       0.22       ----

> <Gold.Chemscore.Fitness>
15.4737

> <Gold.Chemscore.DG>
-15.6947

> <Gold.Chemscore.ZeroCoef>
-5.4800

> <Gold.Chemscore.Hbond>
0.9862

> <Gold.Chemscore.Metal>
0.0000

> <Gold.Chemscore.Lipo>
108.4103

> <Gold.Chemscore.Internal_Hbond>
0.0000

> <Gold.Chemscore.DEClash>
0.0004

> <Gold.Chemscore.DEInternal>
0.2206

> <Gold.Chemscore.Rot>
2.2512

> <Gold.Chemscore.Internal.Correction>
   9.000000E+99

> <Gold.Chemscore.Hbonds>
donor molecule, donor type, donor heavy atom, donor atom, acceptor molecule, acceptor atom, score
      P1  H  6896  6907       L1    10  0.90

> <Gold.Chemscore.Hbond.Weighted>
-3.2938

> <Gold.Chemscore.Metal.Weighted>
-0.0000

> <Gold.Chemscore.Lipo.Weighted>
-12.6840

> <Gold.Chemscore.Internal_Hbond.Weighted>
0.0000

> <Gold.Chemscore.DEClash.Weighted>
0.0004

> <Gold.Chemscore.DEInternal.Weighted>
0.2206

> <Gold.Chemscore.Rot.Weighted>
5.7631

> <Gold.Chemscore.Internal.Correction.Weighted>
   9.000000E+99

> <Gold.Protein.RotatedTorsions>
[ 6907 6896 6895 6894 ] final   74.24 input  -60.11 | X-H torsion
[ 7974 7965 7964 7962 ] final    3.35 input  175.53 | X-H torsion
[ 8008 7997 7996 7995 ] final -150.38 input   59.86 | X-H torsion
[ 10167 10162 10161 10158 ] final  110.49 input  -65.29 | X-H torsion
[ 10718 10713 10712 10709 ] final -136.69 input   66.30 | X-H torsion
[ 10763 10752 10751 10750 ] final  171.10 input  -60.55 | X-H torsion
[ 11005 11000 10999 10996 ] final  144.68 input  -57.11 | X-H torsion

> <Gold.Protein.ActiveResidues>
 VAL166  LYS551  ARG553  GLY616  TRP617  ASP618  TYR619  PRO620  LYS621  CYS622 
 ASP623  PHE694  ASN695  SER759  ASP760  ASP761  ALA762  ILE779  LEU786  VAL792 
 PHE793  MET794  SER795  GLU796  ALA797  LYS798  CYS799  TRP800  GLU811  SER814 

> <Gold.Protein.RotatedAtoms>
  152.4966  134.4300  159.9508 H   0  0  0  0  0  0  0  0  0  0  0  0  # atno 6907 bound_to 6896
  151.4278  133.3673  159.2772 H   0  0  0  0  0  0  0  0  0  0  0  0  # atno 6908 bound_to 6896
  150.9176  134.8617  159.7527 H   0  0  0  0  0  0  0  0  0  0  0  0  # atno 6909 bound_to 6896
  146.2445  140.0698  142.8363 H   0  0  0  0  0  0  0  0  0  0  0  0  # atno 7974 bound_to 7965
  155.6226  140.0683  157.2673 H   0  0  0  0  0  0  0  0  0  0  0  0  # atno 8008 bound_to 7997
  154.4225  140.1782  156.1436 H   0  0  0  0  0  0  0  0  0  0  0  0  # atno 8009 bound_to 7997
  155.9997  140.3337  155.6837 H   0  0  0  0  0  0  0  0  0  0  0  0  # atno 8010 bound_to 7997
  139.6684  144.7126  151.1734 H   0  0  0  0  0  0  0  0  0  0  0  0  # atno 10167 bound_to 10162
  156.2798  130.7314  151.1308 H   0  0  0  0  0  0  0  0  0  0  0  0  # atno 10718 bound_to 10713
  154.4071  135.2755  155.2060 H   0  0  0  0  0  0  0  0  0  0  0  0  # atno 10763 bound_to 10752
  154.4062  135.6033  153.5929 H   0  0  0  0  0  0  0  0  0  0  0  0  # atno 10764 bound_to 10752
  152.9831  135.5938  154.4347 H   0  0  0  0  0  0  0  0  0  0  0  0  # atno 10765 bound_to 10752
  140.0651  134.9183  157.1251 H   0  0  0  0  0  0  0  0  0  0  0  0  # atno 11005 bound_to 11000
  145.0826  140.9231  143.4816 LP  0  0  0  0  0  0  0  0  0  0  0  0  # atno 17320 bound_to 7965
  145.0854  139.2929  143.5762 LP  0  0  0  0  0  0  0  0  0  0  0  0  # atno 17321 bound_to 7965
  140.7608  143.5883  150.8823 LP  0  0  0  0  0  0  0  0  0  0  0  0  # atno 17342 bound_to 10162
  139.9546  143.6233  152.3019 LP  0  0  0  0  0  0  0  0  0  0  0  0  # atno 17343 bound_to 10162
  157.7311  131.0611  150.5695 LP  0  0  0  0  0  0  0  0  0  0  0  0  # atno 17370 bound_to 10713
  156.5800  130.4302  149.5981 LP  0  0  0  0  0  0  0  0  0  0  0  0  # atno 17371 bound_to 10713
  140.3711  134.2389  155.7178 LP  0  0  0  0  0  0  0  0  0  0  0  0  # atno 17394 bound_to 11000
  141.1989  133.8023  157.0559 LP  0  0  0  0  0  0  0  0  0  0  0  0  # atno 17395 bound_to 11000

$$$$
