AV-unprocessed.smi:2783|AV-procd|sdf|10725|dock5
  -GOLD-   2272015163D 1   1.00000     0.00000
 Structure written by MMmdl.
 28 28  0  0  0  0  0  0  0  0  2 V2000
  152.1748  144.0759  161.6180 C   0  0  0  0  0  0  0  0  0  0  0  0
  151.3993  143.4999  160.5685 O   0  0  0  0  0  0  0  0  0  0  0  0
  152.0910  142.9317  159.4462 C   0  0  0  0  0  0  0  0  0  0  0  0
  152.7553  144.1197  158.7282 C   0  0  0  0  0  0  0  0  0  0  0  0
  153.1835  141.9466  159.9243 C   0  0  0  0  0  0  0  0  0  0  0  0
  151.1007  142.2529  158.4704 C   0  0  0  0  0  0  0  0  0  0  0  0
  149.8990  142.2455  158.7384 O   0  0  0  0  0  0  0  0  0  0  0  0
  151.6431  141.6793  157.3786 N   0  0  0  0  0  0  0  0  0  0  0  0
  151.0309  140.9966  156.2883 C   0  0  0  0  0  0  0  0  0  0  0  0
  149.8160  141.3935  155.6771 C   0  0  0  0  0  0  0  0  0  0  0  0
  149.3205  140.6342  154.5989 C   0  0  0  0  0  0  0  0  0  0  0  0
  149.9420  139.5437  154.1055 N   0  0  0  0  0  0  0  0  0  0  0  0
  151.1023  139.1697  154.6831 C   0  0  0  0  0  0  0  0  0  0  0  0
  151.6878  139.8556  155.7675 C   0  0  0  0  0  0  0  0  0  0  0  0
  152.8708  139.4087  156.2901 O   0  5  0  0  0  0  0  0  0  0  0  0
  151.5130  144.3463  162.4403 H   0  0  0  0  0  0  0  0  0  0  0  0
  152.6725  144.9890  161.2922 H   0  0  0  0  0  0  0  0  0  0  0  0
  152.9260  143.3932  162.0144 H   0  0  0  0  0  0  0  0  0  0  0  0
  153.3207  143.7960  157.8533 H   0  0  0  0  0  0  0  0  0  0  0  0
  153.4460  144.6418  159.3911 H   0  0  0  0  0  0  0  0  0  0  0  0
  152.0147  144.8474  158.3929 H   0  0  0  0  0  0  0  0  0  0  0  0
  153.8401  141.6508  159.1051 H   0  0  0  0  0  0  0  0  0  0  0  0
  152.7583  141.0325  160.3400 H   0  0  0  0  0  0  0  0  0  0  0  0
  153.8098  142.4005  160.6928 H   0  0  0  0  0  0  0  0  0  0  0  0
  152.6503  141.7316  157.3187 H   0  0  0  0  0  0  0  0  0  0  0  0
  149.2559  142.2567  155.9969 H   0  0  0  0  0  0  0  0  0  0  0  0
  148.3964  140.9150  154.1158 H   0  0  0  0  0  0  0  0  0  0  0  0
  151.5794  138.2957  154.2638 H   0  0  0  0  0  0  0  0  0  0  0  0
  1  2  1  0  0  0  0
  1 16  1  0  0  0  0
  1 17  1  0  0  0  0
  1 18  1  0  0  0  0
  2  3  1  0  0  0  0
  3  4  1  0  0  0  0
  3  5  1  0  0  0  0
  3  6  1  0  0  0  0
  4 19  1  0  0  0  0
  4 20  1  0  0  0  0
  4 21  1  0  0  0  0
  5 22  1  0  0  0  0
  5 23  1  0  0  0  0
  5 24  1  0  0  0  0
  6  7  2  0  0  0  0
  6  8  1  0  0  0  0
  8 25  1  0  0  0  0
  8  9  1  0  0  0  0
  9 10  2  0  0  0  0
  9 14  1  0  0  0  0
 10 11  1  0  0  0  0
 10 26  1  0  0  0  0
 11 12  2  0  0  0  0
 11 27  1  0  0  0  0
 12 13  1  0  0  0  0
 13 14  2  0  0  0  0
 13 28  1  0  0  0  0
 14 15  1  0  0  0  0
M  CHG  1  15  -1
M  END
> <s_m_source_file>
AV-unprocessed.smi

> <i_m_source_file_index>
2783

> <i_lp_mmshare_version>
43012

> <i_f3d_flags>
0

> <s_epik_input>
W0NIM11PQyhbQ0gzXSkoW0NIM10pQyg9TylbTkhdYzFbY0hdW2NIXW5bY0hdYzFbT0hd

> <s_epik_cmdline>
J2VwaWtfcHl0aG9uJywgJy1waCcsICc3LjAnLCAnLXRuJywgJzgnLCAnLW1hJywgJzIwMCcsICctbWV0YWxfYmluZGluZycsICctaW1hZScsICc8aW5maWxlLm1hZT4nLCAnLW9tYWUnLCAnPG91dGZpbGUubWFlPic=

> <r_lp_tautomer_probability>
0.56342

> <r_epik_Ionization_Penalty>
4.44895

> <r_epik_Ionization_Penalty_Charging>
2.11839

> <r_epik_Ionization_Penalty_Neutral>
2.33056

> <r_epik_State_Penalty>
2.66573

> <r_epik_Charging_Adjusted_Penalty>
4.78411

> <i_epik_Tot_Q>
-1

> <i_epik_Tot_abs_Q>
1

> <r_epik_Metal_State_Penalty>
0.617134

> <b_epik_Metal_Only>
1

> <s_lp_Force_Field>
OPLS_2005

> <r_lp_Energy>
12.8614

> <b_lp_Chiralities_Consistent>
1

> <s_lp_Variant>
AV-unprocessed.smi:2783-3

> <Gold.Version>
5.8.1

> <Gold.Id.Protein>
6NUR|6NUR_protein|mol2

> <Gold.PLP.Fitness>
41.1610

> <Gold.PLP.PLP>
-35.8642

> <Gold.PLP.part.hbond>
-2.4411

> <Gold.PLP.part.metal>
0.0000

> <Gold.PLP.part.buried>
-3.4593

> <Gold.PLP.part.nonpolar>
-30.3193

> <Gold.PLP.part.repulsive>
1.2163

> <Gold.PLP.ligand.clash>
0.0000

> <Gold.PLP.ligand.torsion>
0.3676

> <Gold.PLP.Chemscore.Hbond>
2.0000

> <Gold.PLP.Chemscore.CHOScore>
0.0000

> <Gold.PLP.Chemscore.Metal>
0.0000

> <Gold.Chemscore.Hbonds>
donor molecule, donor type, donor heavy atom, donor atom, acceptor molecule, acceptor atom, score
      P1  H  7997  8010       L1    15  2.00

> <Gold.PLP.Chemscore.Internal.Correction>
0.0321

> <Gold.Rescore>
     Score         DG    S(hbond)    S(metal)    S(lipo)     H(rot)  DE(clash)    DE(int)     intcor
     14.97     -15.53       1.00        0.00      84.52       1.24       0.24       0.33       ----

> <Gold.Chemscore.Fitness>
14.9675

> <Gold.Chemscore.DG>
-15.5320

> <Gold.Chemscore.ZeroCoef>
-5.4800

> <Gold.Chemscore.Hbond>
0.9994

> <Gold.Chemscore.Metal>
0.0000

> <Gold.Chemscore.Lipo>
84.5199

> <Gold.Chemscore.Internal_Hbond>
0.0000

> <Gold.Chemscore.DEClash>
0.2386

> <Gold.Chemscore.DEInternal>
0.3259

> <Gold.Chemscore.Rot>
1.2402

> <Gold.Chemscore.Internal.Correction>
   9.000000E+99

> <Gold.Chemscore.Hbonds>
donor molecule, donor type, donor heavy atom, donor atom, acceptor molecule, acceptor atom, score
      P1  H  7997  8010       L1    15  1.00

> <Gold.Chemscore.Hbond.Weighted>
-3.3381

> <Gold.Chemscore.Metal.Weighted>
-0.0000

> <Gold.Chemscore.Lipo.Weighted>
-9.8888

> <Gold.Chemscore.Internal_Hbond.Weighted>
0.0000

> <Gold.Chemscore.DEClash.Weighted>
0.2386

> <Gold.Chemscore.DEInternal.Weighted>
0.3259

> <Gold.Chemscore.Rot.Weighted>
3.1750

> <Gold.Chemscore.Internal.Correction.Weighted>
   9.000000E+99

> <Gold.Protein.RotatedTorsions>
[ 6907 6896 6895 6894 ] final -100.44 input  -60.11 | X-H torsion
[ 7974 7965 7964 7962 ] final -110.45 input  175.53 | X-H torsion
[ 8008 7997 7996 7995 ] final   87.20 input   59.86 | X-H torsion
[ 10167 10162 10161 10158 ] final   -0.69 input  -65.29 | X-H torsion
[ 10718 10713 10712 10709 ] final  -77.31 input   66.30 | X-H torsion
[ 10763 10752 10751 10750 ] final  -37.12 input  -60.55 | X-H torsion
[ 11005 11000 10999 10996 ] final   32.39 input  -57.11 | X-H torsion

> <Gold.Protein.ActiveResidues>
 VAL166  LYS551  ARG553  GLY616  TRP617  ASP618  TYR619  PRO620  LYS621  CYS622 
 ASP623  PHE694  ASN695  SER759  ASP760  ASP761  ALA762  ILE779  LEU786  VAL792 
 PHE793  MET794  SER795  GLU796  ALA797  LYS798  CYS799  TRP800  GLU811  SER814 

> <Gold.Protein.RotatedAtoms>
  150.7116  134.0887  159.3923 H   0  0  0  0  0  0  0  0  0  0  0  0  # atno 6907 bound_to 6896
  151.8872  135.0428  160.0503 H   0  0  0  0  0  0  0  0  0  0  0  0  # atno 6908 bound_to 6896
  152.2520  133.5188  159.5368 H   0  0  0  0  0  0  0  0  0  0  0  0  # atno 6909 bound_to 6896
  145.1681  140.8912  143.3551 H   0  0  0  0  0  0  0  0  0  0  0  0  # atno 7974 bound_to 7965
  155.9724  140.3384  155.6587 H   0  0  0  0  0  0  0  0  0  0  0  0  # atno 8008 bound_to 7997
  155.6657  140.0721  157.2556 H   0  0  0  0  0  0  0  0  0  0  0  0  # atno 8009 bound_to 7997
  154.4170  140.1700  156.1812 H   0  0  0  0  0  0  0  0  0  0  0  0  # atno 8010 bound_to 7997
  140.6778  143.6865  150.8063 H   0  0  0  0  0  0  0  0  0  0  0  0  # atno 10167 bound_to 10162
  156.0148  130.4488  150.3326 H   0  0  0  0  0  0  0  0  0  0  0  0  # atno 10718 bound_to 10713
  153.8910  135.6812  153.4760 H   0  0  0  0  0  0  0  0  0  0  0  0  # atno 10763 bound_to 10752
  153.1181  135.4752  154.9147 H   0  0  0  0  0  0  0  0  0  0  0  0  # atno 10764 bound_to 10752
  154.7622  135.3214  154.8309 H   0  0  0  0  0  0  0  0  0  0  0  0  # atno 10765 bound_to 10752
  140.2739  134.3050  155.7819 H   0  0  0  0  0  0  0  0  0  0  0  0  # atno 11005 bound_to 11000
  145.0261  139.3381  143.6048 LP  0  0  0  0  0  0  0  0  0  0  0  0  # atno 17320 bound_to 7965
  146.3473  139.9581  142.8720 LP  0  0  0  0  0  0  0  0  0  0  0  0  # atno 17321 bound_to 7965
  140.0560  143.5202  152.2651 LP  0  0  0  0  0  0  0  0  0  0  0  0  # atno 17342 bound_to 10162
  139.6081  144.7601  151.3015 LP  0  0  0  0  0  0  0  0  0  0  0  0  # atno 17343 bound_to 10162
  157.1424  131.0300  151.2922 LP  0  0  0  0  0  0  0  0  0  0  0  0  # atno 17370 bound_to 10713
  157.4461  130.7571  149.7110 LP  0  0  0  0  0  0  0  0  0  0  0  0  # atno 17371 bound_to 10713
  141.2173  133.7484  156.9378 LP  0  0  0  0  0  0  0  0  0  0  0  0  # atno 17394 bound_to 11000
  140.1347  134.9333  157.2385 LP  0  0  0  0  0  0  0  0  0  0  0  0  # atno 17395 bound_to 11000

$$$$
