AV-unprocessed.smi:283|AV-procd|sdf|2156|dock6
  -GOLD-   2262021503D 1   1.00000     0.00000
 Structure written by MMmdl.
 48 51  0  0  0  0  0  0  0  0  1 V2000
  154.8759  139.8377  160.1626 C   0  0  0  0  0  0  0  0  0  0  0  0
  153.6876  140.6008  159.5500 C   0  0  1  0  0  0  0  0  0  0  0  0
  152.5755  139.6991  159.2512 N   0  0  0  0  0  0  0  0  0  0  0  0
  152.5276  138.9804  158.1078 C   0  0  0  0  0  0  0  0  0  0  0  0
  153.6419  138.7585  157.3628 N   0  0  0  0  0  0  0  0  0  0  0  0
  153.5619  138.0452  156.2357 C   0  0  0  0  0  0  0  0  0  0  0  0
  152.4869  137.4825  155.6791 N   0  0  0  0  0  0  0  0  0  0  0  0
  151.3627  137.7121  156.4177 C   0  0  0  0  0  0  0  0  0  0  0  0
  151.3028  138.4395  157.6384 C   0  0  0  0  0  0  0  0  0  0  0  0
  149.9994  138.4493  158.1157 N   0  0  0  0  0  0  0  0  0  0  0  0
  149.3335  137.7607  157.2283 C   0  0  0  0  0  0  0  0  0  0  0  0
  150.0707  137.3072  156.1533 N   0  0  0  0  0  0  0  0  0  0  0  0
  149.6256  136.4815  154.9826 C   0  0  1  0  0  0  0  0  0  0  0  0
  150.1955  135.2102  155.1088 O   0  0  0  0  0  0  0  0  0  0  0  0
  149.2306  134.2517  155.5387 C   0  0  1  0  0  0  0  0  0  0  0  0
  149.2147  134.1545  157.0768 C   0  0  0  0  0  0  0  0  0  0  0  0
  150.3978  133.5421  157.5437 O   0  0  0  0  0  0  0  0  0  0  0  0
  147.9244  134.7772  154.9383 C   0  0  2  0  0  0  0  0  0  0  0  0
  147.7993  134.2700  153.6202 O   0  0  0  0  0  0  0  0  0  0  0  0
  148.0947  136.2948  154.9860 C   0  0  2  0  0  0  0  0  0  0  0  0
  147.4495  136.9346  153.9010 O   0  0  0  0  0  0  0  0  0  0  0  0
  153.2777  141.7506  160.4687 C   0  0  0  0  0  0  0  0  0  0  0  0
  153.5763  141.6905  161.8505 C   0  0  0  0  0  0  0  0  0  0  0  0
  153.2130  142.7437  162.7107 C   0  0  0  0  0  0  0  0  0  0  0  0
  152.5508  143.8732  162.1981 C   0  0  0  0  0  0  0  0  0  0  0  0
  152.2592  143.9500  160.8239 C   0  0  0  0  0  0  0  0  0  0  0  0
  152.6222  142.8996  159.9571 C   0  0  0  0  0  0  0  0  0  0  0  0
  152.2548  143.0610  158.2748 Cl  0  0  0  0  0  0  0  0  0  0  0  0
  150.0196  137.0055  154.1109 H   0  0  0  0  0  0  0  0  0  0  0  0
  149.4996  133.2754  155.1316 H   0  0  0  0  0  0  0  0  0  0  0  0
  147.0490  134.4530  155.5020 H   0  0  0  0  0  0  0  0  0  0  0  0
  147.6815  136.6701  155.9235 H   0  0  0  0  0  0  0  0  0  0  0  0
  155.7179  140.5069  160.3415 H   0  0  0  0  0  0  0  0  0  0  0  0
  155.2299  139.0419  159.5080 H   0  0  0  0  0  0  0  0  0  0  0  0
  154.6053  139.3843  161.1167 H   0  0  0  0  0  0  0  0  0  0  0  0
  154.0041  141.0345  158.6024 H   0  0  0  0  0  0  0  0  0  0  0  0
  151.8713  139.6250  159.9712 H   0  0  0  0  0  0  0  0  0  0  0  0
  154.4910  137.9082  155.7023 H   0  0  0  0  0  0  0  0  0  0  0  0
  148.2758  137.5712  157.3386 H   0  0  0  0  0  0  0  0  0  0  0  0
  149.1581  135.1518  157.5131 H   0  0  0  0  0  0  0  0  0  0  0  0
  148.3523  133.5930  157.4369 H   0  0  0  0  0  0  0  0  0  0  0  0
  150.8197  133.1095  156.8170 H   0  0  0  0  0  0  0  0  0  0  0  0
  148.4815  134.6508  153.0885 H   0  0  0  0  0  0  0  0  0  0  0  0
  147.8678  136.6554  153.1008 H   0  0  0  0  0  0  0  0  0  0  0  0
  154.0924  140.8358  162.2627 H   0  0  0  0  0  0  0  0  0  0  0  0
  153.4449  142.6854  163.7641 H   0  0  0  0  0  0  0  0  0  0  0  0
  152.2708  144.6820  162.8567 H   0  0  0  0  0  0  0  0  0  0  0  0
  151.7562  144.8221  160.4324 H   0  0  0  0  0  0  0  0  0  0  0  0
  1  2  1  0  0  0  0
  1 33  1  0  0  0  0
  1 34  1  0  0  0  0
  1 35  1  0  0  0  0
  2  3  1  0  0  0  0
  2 22  1  0  0  0  0
  2 36  1  0  0  0  0
  3  4  1  0  0  0  0
  3 37  1  0  0  0  0
  4  9  1  0  0  0  0
  4  5  2  0  0  0  0
  5  6  1  0  0  0  0
  6  7  2  0  0  0  0
  6 38  1  0  0  0  0
  7  8  1  0  0  0  0
  8 12  1  0  0  0  0
  8  9  2  0  0  0  0
  9 10  1  0  0  0  0
 10 11  2  0  0  0  0
 11 12  1  0  0  0  0
 11 39  1  0  0  0  0
 12 13  1  0  0  0  0
 13 29  1  0  0  0  0
 13 20  1  0  0  0  0
 13 14  1  0  0  0  0
 14 15  1  0  0  0  0
 15 30  1  0  0  0  0
 15 16  1  0  0  0  0
 15 18  1  0  0  0  0
 16 17  1  0  0  0  0
 16 40  1  0  0  0  0
 16 41  1  0  0  0  0
 17 42  1  0  0  0  0
 18 31  1  0  0  0  0
 18 19  1  0  0  0  0
 18 20  1  0  0  0  0
 19 43  1  0  0  0  0
 20 32  1  0  0  0  0
 20 21  1  0  0  0  0
 21 44  1  0  0  0  0
 22 27  1  0  0  0  0
 22 23  2  0  0  0  0
 23 24  1  0  0  0  0
 23 45  1  0  0  0  0
 24 25  2  0  0  0  0
 24 46  1  0  0  0  0
 25 26  1  0  0  0  0
 25 47  1  0  0  0  0
 26 27  2  0  0  0  0
 26 48  1  0  0  0  0
 27 28  1  0  0  0  0
M  END
> <s_m_source_file>
AV-unprocessed.smi

> <i_m_source_file_index>
283

> <i_lp_mmshare_version>
43012

> <i_f3d_flags>
0

> <s_epik_input>
Q2xjMVtjSF1bY0hdW2NIXVtjSF1jMVtDQEhdKFtDSDNdKVtOSF1jKG5bY0hdbjIpYyhjMjMpbltjSF1uM1tDQEBIXTRPW0NASF0oW0NIMl1bT0hdKVtDQEBIXShbT0hdKVtDQEhdNFtPSF0=

> <s_epik_cmdline>
J2VwaWtfcHl0aG9uJywgJy1waCcsICc3LjAnLCAnLXRuJywgJzgnLCAnLW1hJywgJzIwMCcsICctbWV0YWxfYmluZGluZycsICctaW1hZScsICc8aW5maWxlLm1hZT4nLCAnLW9tYWUnLCAnPG91dGZpbGUubWFlPic=

> <r_lp_tautomer_probability>
1

> <r_epik_Ionization_Penalty>
0.000266407

> <r_epik_Ionization_Penalty_Charging>
0

> <r_epik_Ionization_Penalty_Neutral>
0.000266407

> <r_epik_State_Penalty>
-0

> <r_epik_Charging_Adjusted_Penalty>
0

> <i_epik_Tot_Q>
0

> <i_epik_Tot_abs_Q>
0

> <r_epik_Metal_State_Penalty>
-0

> <b_epik_Metal_Only>
0

> <s_epik_Chemistry_Notes>
This compound contains an acetal/aminal-like group ( X-CH(R)-Y where X, Y are N, S, or O) that may be acid/base labile, releasing an aldehyde.

> <s_lp_Force_Field>
OPLS_2005

> <r_lp_Energy>
46.4468

> <b_lp_Chiralities_Consistent>
1

> <s_lp_Variant>
AV-unprocessed.smi:283-32

> <Gold.Version>
5.8.1

> <Gold.Id.Protein>
6NUR|6NUR_protein|mol2

> <Gold.PLP.Fitness>
53.6346

> <Gold.PLP.PLP>
-43.1187

> <Gold.PLP.part.hbond>
-4.9240

> <Gold.PLP.part.metal>
0.0000

> <Gold.PLP.part.buried>
-3.2609

> <Gold.PLP.part.nonpolar>
-34.6845

> <Gold.PLP.part.repulsive>
0.2744

> <Gold.PLP.ligand.clash>
0.0000

> <Gold.PLP.ligand.torsion>
1.1968

> <Gold.PLP.Chemscore.Hbond>
4.2635

> <Gold.PLP.Chemscore.CHOScore>
0.0000

> <Gold.PLP.Chemscore.Metal>
0.0000

> <Gold.Chemscore.Hbonds>
donor molecule, donor type, donor heavy atom, donor atom, acceptor molecule, acceptor atom, score
      L1  H    19    43       P1  7948  0.91
      L1  H    21    44       P1  7948  1.00
      P1  H  6896  6909       L1    17  0.96
      P1  H  7997  8008       L1     5  1.00
      P1  H 10752 10765       L1     7  0.45

> <Gold.PLP.Chemscore.Internal.Correction>
0.1191

> <Gold.Rescore>
     Score         DG    S(hbond)    S(metal)    S(lipo)     H(rot)  DE(clash)    DE(int)     intcor
     18.13     -19.67       3.48        0.00     111.58       4.10       0.17       1.38       ----

> <Gold.Chemscore.Fitness>
18.1256

> <Gold.Chemscore.DG>
-19.6712

> <Gold.Chemscore.ZeroCoef>
-5.4800

> <Gold.Chemscore.Hbond>
3.4802

> <Gold.Chemscore.Metal>
0.0000

> <Gold.Chemscore.Lipo>
111.5842

> <Gold.Chemscore.Internal_Hbond>
0.0000

> <Gold.Chemscore.DEClash>
0.1672

> <Gold.Chemscore.DEInternal>
1.3784

> <Gold.Chemscore.Rot>
4.0968

> <Gold.Chemscore.Internal.Correction>
   9.000000E+99

> <Gold.Chemscore.Hbonds>
donor molecule, donor type, donor heavy atom, donor atom, acceptor molecule, acceptor atom, score
      L1  H    19    43       P1  7948  0.38
      L1  H    21    44       P1  7948  1.00
      P1  H  6896  6909       L1    17  0.91
      P1  H  7997  8008       L1     5  0.24
      P1  H 10752 10765       L1     7  0.27

> <Gold.Chemscore.Hbond.Weighted>
-11.6238

> <Gold.Chemscore.Metal.Weighted>
-0.0000

> <Gold.Chemscore.Lipo.Weighted>
-13.0554

> <Gold.Chemscore.Internal_Hbond.Weighted>
0.0000

> <Gold.Chemscore.DEClash.Weighted>
0.1672

> <Gold.Chemscore.DEInternal.Weighted>
1.3784

> <Gold.Chemscore.Rot.Weighted>
10.4879

> <Gold.Chemscore.Internal.Correction.Weighted>
   9.000000E+99

> <Gold.Protein.RotatedTorsions>
[ 6907 6896 6895 6894 ] final   -9.09 input  -60.11 | X-H torsion
[ 7974 7965 7964 7962 ] final -102.74 input  175.53 | X-H torsion
[ 8008 7997 7996 7995 ] final  -72.99 input   59.86 | X-H torsion
[ 10167 10162 10161 10158 ] final -137.26 input  -65.29 | X-H torsion
[ 10718 10713 10712 10709 ] final  -86.10 input   66.30 | X-H torsion
[ 10763 10752 10751 10750 ] final -158.14 input  -60.55 | X-H torsion
[ 11005 11000 10999 10996 ] final  -85.37 input  -57.11 | X-H torsion

> <Gold.Protein.ActiveResidues>
 VAL166  LYS551  ARG553  GLY616  TRP617  ASP618  TYR619  PRO620  LYS621  CYS622 
 ASP623  PHE694  ASN695  SER759  ASP760  ASP761  ALA762  ILE779  LEU786  VAL792 
 PHE793  MET794  SER795  GLU796  ALA797  LYS798  CYS799  TRP800  GLU811  SER814 

> <Gold.Protein.RotatedAtoms>
  151.4233  135.1000  159.9620 H   0  0  0  0  0  0  0  0  0  0  0  0  # atno 6907 bound_to 6896
  152.4981  133.8686  159.7297 H   0  0  0  0  0  0  0  0  0  0  0  0  # atno 6908 bound_to 6896
  150.9207  133.6826  159.2860 H   0  0  0  0  0  0  0  0  0  0  0  0  # atno 6909 bound_to 6896
  145.2648  140.9280  143.3020 H   0  0  0  0  0  0  0  0  0  0  0  0  # atno 7974 bound_to 7965
  154.5211  140.0787  156.8173 H   0  0  0  0  0  0  0  0  0  0  0  0  # atno 8008 bound_to 7997
  155.3575  140.3416  155.4222 H   0  0  0  0  0  0  0  0  0  0  0  0  # atno 8009 bound_to 7997
  156.1681  140.1610  156.8482 H   0  0  0  0  0  0  0  0  0  0  0  0  # atno 8010 bound_to 7997
  139.8596  143.7094  152.2651 H   0  0  0  0  0  0  0  0  0  0  0  0  # atno 10167 bound_to 10162
  155.9992  130.4753  150.4664 H   0  0  0  0  0  0  0  0  0  0  0  0  # atno 10718 bound_to 10713
  154.7580  135.3110  154.8432 H   0  0  0  0  0  0  0  0  0  0  0  0  # atno 10763 bound_to 10752
  153.9201  135.6796  153.4752 H   0  0  0  0  0  0  0  0  0  0  0  0  # atno 10764 bound_to 10752
  153.1179  135.4836  154.9076 H   0  0  0  0  0  0  0  0  0  0  0  0  # atno 10765 bound_to 10752
  141.1642  133.7395  156.9004 H   0  0  0  0  0  0  0  0  0  0  0  0  # atno 11005 bound_to 11000
  144.9386  139.4215  143.6460 LP  0  0  0  0  0  0  0  0  0  0  0  0  # atno 17320 bound_to 7965
  146.3264  139.8335  142.8904 LP  0  0  0  0  0  0  0  0  0  0  0  0  # atno 17321 bound_to 7965
  139.7387  144.7565  151.0687 LP  0  0  0  0  0  0  0  0  0  0  0  0  # atno 17342 bound_to 10162
  140.7777  143.4999  150.9784 LP  0  0  0  0  0  0  0  0  0  0  0  0  # atno 17343 bound_to 10162
  157.2683  131.0581  151.2276 LP  0  0  0  0  0  0  0  0  0  0  0  0  # atno 17370 bound_to 10713
  157.3366  130.7012  149.6356 LP  0  0  0  0  0  0  0  0  0  0  0  0  # atno 17371 bound_to 10713
  140.1586  134.9181  157.2686 LP  0  0  0  0  0  0  0  0  0  0  0  0  # atno 17394 bound_to 11000
  140.2637  134.3541  155.7397 LP  0  0  0  0  0  0  0  0  0  0  0  0  # atno 17395 bound_to 11000

$$$$
