AV-unprocessed.smi:516|AV-procd|sdf|2784|dock7
  -GOLD-   2262023253D 1   1.00000     0.00000
 Structure written by MMmdl.
 44 46  0  0  0  0  0  0  0  0  1 V2000
  152.3931  138.4699  155.0211 C   0  0  0  0  0  0  0  0  0  0  0  0
  151.3752  139.2766  154.4553 O   0  0  0  0  0  0  0  0  0  0  0  0
  150.4392  139.7257  155.4199 C   0  0  0  0  0  0  0  0  0  0  0  0
  149.5799  140.8314  154.7959 C   0  0  0  0  0  0  0  0  0  0  0  0
  148.6410  141.3928  155.7588 N   0  0  0  0  0  0  0  0  0  0  0  0
  148.9060  141.8418  157.0131 C   0  0  0  0  0  0  0  0  0  0  0  0
  150.2784  141.8122  157.6161 C   0  0  0  0  0  0  0  0  0  0  0  0
  150.7811  143.1269  158.0104 N   0  0  0  0  0  0  0  0  0  0  0  0
  149.9876  143.7367  159.0753 C   0  0  0  0  0  0  0  0  0  0  0  0
  150.5457  145.1099  159.4889 C   0  0  0  0  0  0  0  0  0  0  0  0
  151.9096  144.9766  159.8761 O   0  0  0  0  0  0  0  0  0  0  0  0
  152.7231  144.4273  158.8445 C   0  0  0  0  0  0  0  0  0  0  0  0
  152.1736  143.0504  158.4345 C   0  0  0  0  0  0  0  0  0  0  0  0
  147.8366  142.3046  157.6694 N   0  0  0  0  0  0  0  0  0  0  0  0
  146.8079  142.1318  156.7550 C   0  0  0  0  0  0  0  0  0  0  0  0
  147.2689  141.5793  155.6059 C   0  0  0  0  0  0  0  0  0  0  0  0
  146.3916  141.2692  154.4712 C   0  0  0  0  0  0  0  0  0  0  0  0
  146.7897  140.7571  153.4272 O   0  0  0  0  0  0  0  0  0  0  0  0
  145.0971  141.6010  154.6980 N   0  0  0  0  0  0  0  0  0  0  0  0
  144.5670  142.1645  155.8272 C   0  0  0  0  0  0  0  0  0  0  0  0
  143.3619  142.4089  155.8777 O   0  0  0  0  0  0  0  0  0  0  0  0
  145.4226  142.4337  156.8673 N   0  0  0  0  0  0  0  0  0  0  0  0
  144.9578  143.0364  158.1182 C   0  0  0  0  0  0  0  0  0  0  0  0
  144.4487  141.4090  153.9485 H   0  0  0  0  0  0  0  0  0  0  0  0
  153.0847  138.1520  154.2409 H   0  0  0  0  0  0  0  0  0  0  0  0
  151.9751  137.5757  155.4852 H   0  0  0  0  0  0  0  0  0  0  0  0
  152.9617  139.0210  155.7711 H   0  0  0  0  0  0  0  0  0  0  0  0
  149.8096  138.8957  155.7447 H   0  0  0  0  0  0  0  0  0  0  0  0
  150.9628  140.1067  156.2982 H   0  0  0  0  0  0  0  0  0  0  0  0
  150.2176  141.6236  154.4051 H   0  0  0  0  0  0  0  0  0  0  0  0
  149.0261  140.4502  153.9383 H   0  0  0  0  0  0  0  0  0  0  0  0
  150.2723  141.1406  158.4761 H   0  0  0  0  0  0  0  0  0  0  0  0
  150.9532  141.3633  156.8865 H   0  0  0  0  0  0  0  0  0  0  0  0
  148.9531  143.8590  158.7538 H   0  0  0  0  0  0  0  0  0  0  0  0
  149.9684  143.0785  159.9453 H   0  0  0  0  0  0  0  0  0  0  0  0
  150.4623  145.8233  158.6677 H   0  0  0  0  0  0  0  0  0  0  0  0
  149.9758  145.5149  160.3252 H   0  0  0  0  0  0  0  0  0  0  0  0
  152.7458  145.1044  157.9892 H   0  0  0  0  0  0  0  0  0  0  0  0
  153.7466  144.3348  159.2081 H   0  0  0  0  0  0  0  0  0  0  0  0
  152.2674  142.3596  159.2740 H   0  0  0  0  0  0  0  0  0  0  0  0
  152.7846  142.6453  157.6272 H   0  0  0  0  0  0  0  0  0  0  0  0
  143.8872  143.2426  158.1420 H   0  0  0  0  0  0  0  0  0  0  0  0
  145.4752  143.9808  158.2899 H   0  0  0  0  0  0  0  0  0  0  0  0
  145.1813  142.3744  158.9554 H   0  0  0  0  0  0  0  0  0  0  0  0
  1  2  1  0  0  0  0
  1 25  1  0  0  0  0
  1 26  1  0  0  0  0
  1 27  1  0  0  0  0
  2  3  1  0  0  0  0
  3  4  1  0  0  0  0
  3 28  1  0  0  0  0
  3 29  1  0  0  0  0
  4  5  1  0  0  0  0
  4 30  1  0  0  0  0
  4 31  1  0  0  0  0
  5 16  1  0  0  0  0
  5  6  1  0  0  0  0
  6  7  1  0  0  0  0
  6 14  2  0  0  0  0
  7  8  1  0  0  0  0
  7 32  1  0  0  0  0
  7 33  1  0  0  0  0
  8 13  1  0  0  0  0
  8  9  1  0  0  0  0
  9 10  1  0  0  0  0
  9 34  1  0  0  0  0
  9 35  1  0  0  0  0
 10 11  1  0  0  0  0
 10 36  1  0  0  0  0
 10 37  1  0  0  0  0
 11 12  1  0  0  0  0
 12 13  1  0  0  0  0
 12 38  1  0  0  0  0
 12 39  1  0  0  0  0
 13 40  1  0  0  0  0
 13 41  1  0  0  0  0
 14 15  1  0  0  0  0
 15 22  1  0  0  0  0
 15 16  2  0  0  0  0
 16 17  1  0  0  0  0
 17 18  2  0  0  0  0
 17 19  1  0  0  0  0
 19 24  1  0  0  0  0
 19 20  1  0  0  0  0
 20 21  2  0  0  0  0
 20 22  1  0  0  0  0
 22 23  1  0  0  0  0
 23 42  1  0  0  0  0
 23 43  1  0  0  0  0
 23 44  1  0  0  0  0
M  END
> <s_m_source_file>
AV-unprocessed.smi

> <i_m_source_file_index>
516

> <i_lp_mmshare_version>
43012

> <i_f3d_flags>
0

> <s_epik_input>
W0NIM11uMWMoPU8pW25IXWMoPU8pYyhjMTIpbihbQ0gyXVtDSDJdT1tDSDNdKWMobjIpW0NIMl1OM1tDSDJdW0NIMl1PW0NIMl1bQ0gyXTM=

> <s_epik_cmdline>
J2VwaWtfcHl0aG9uJywgJy1waCcsICc3LjAnLCAnLXRuJywgJzgnLCAnLW1hJywgJzIwMCcsICctbWV0YWxfYmluZGluZycsICctaW1hZScsICc8aW5maWxlLm1hZT4nLCAnLW9tYWUnLCAnPG91dGZpbGUubWFlPic=

> <r_epik_Ionization_Penalty>
0.0972048

> <r_epik_Ionization_Penalty_Charging>
0.000199653

> <r_epik_Ionization_Penalty_Neutral>
0.0970052

> <r_epik_State_Penalty>
0.0871068

> <r_epik_Charging_Adjusted_Penalty>
0.0873064

> <i_epik_Tot_Q>
0

> <i_epik_Tot_abs_Q>
0

> <r_epik_Metal_State_Penalty>
0.236525

> <b_epik_Metal_Only>
0

> <s_lp_Force_Field>
OPLS_2005

> <r_lp_Energy>
41.4517

> <b_lp_Chiralities_Consistent>
1

> <s_lp_Variant>
AV-unprocessed.smi:516-1

> <Gold.Version>
5.8.1

> <Gold.Id.Protein>
6NUR|6NUR_protein|mol2

> <Gold.PLP.Fitness>
39.5401

> <Gold.PLP.PLP>
-33.8262

> <Gold.PLP.part.hbond>
-2.0000

> <Gold.PLP.part.metal>
0.0000

> <Gold.PLP.part.buried>
-5.5904

> <Gold.PLP.part.nonpolar>
-27.6676

> <Gold.PLP.part.repulsive>
0.8007

> <Gold.PLP.ligand.clash>
0.0000

> <Gold.PLP.ligand.torsion>
0.1489

> <Gold.PLP.Chemscore.Hbond>
2.0000

> <Gold.PLP.Chemscore.CHOScore>
0.0000

> <Gold.PLP.Chemscore.Metal>
0.0000

> <Gold.Chemscore.Hbonds>
donor molecule, donor type, donor heavy atom, donor atom, acceptor molecule, acceptor atom, score
      L1  H    19    24       P1 10175  1.00
      P1  H  7989  7998       L1     2  1.00

> <Gold.PLP.Chemscore.Internal.Correction>
0.0117

> <Gold.Rescore>
     Score         DG    S(hbond)    S(metal)    S(lipo)     H(rot)  DE(clash)    DE(int)     intcor
     12.97     -14.28       1.84        0.00      67.56       2.04       0.01       1.31       ----

> <Gold.Chemscore.Fitness>
12.9662

> <Gold.Chemscore.DG>
-14.2850

> <Gold.Chemscore.ZeroCoef>
-5.4800

> <Gold.Chemscore.Hbond>
1.8359

> <Gold.Chemscore.Metal>
0.0000

> <Gold.Chemscore.Lipo>
67.5629

> <Gold.Chemscore.Internal_Hbond>
0.0000

> <Gold.Chemscore.DEClash>
0.0106

> <Gold.Chemscore.DEInternal>
1.3081

> <Gold.Chemscore.Rot>
2.0437

> <Gold.Chemscore.Internal.Correction>
   9.000000E+99

> <Gold.Chemscore.Hbonds>
donor molecule, donor type, donor heavy atom, donor atom, acceptor molecule, acceptor atom, score
      L1  H    19    24       P1 10175  0.30
      P1  H  7989  7998       L1     2  0.30

> <Gold.Chemscore.Hbond.Weighted>
-6.1320

> <Gold.Chemscore.Metal.Weighted>
-0.0000

> <Gold.Chemscore.Lipo.Weighted>
-7.9049

> <Gold.Chemscore.Internal_Hbond.Weighted>
0.0000

> <Gold.Chemscore.DEClash.Weighted>
0.0106

> <Gold.Chemscore.DEInternal.Weighted>
1.3081

> <Gold.Chemscore.Rot.Weighted>
5.2319

> <Gold.Chemscore.Internal.Correction.Weighted>
   9.000000E+99

> <Gold.Protein.RotatedTorsions>
[ 6907 6896 6895 6894 ] final -157.24 input  -60.11 | X-H torsion
[ 7974 7965 7964 7962 ] final    3.73 input  175.53 | X-H torsion
[ 8008 7997 7996 7995 ] final  -13.80 input   59.86 | X-H torsion
[ 10167 10162 10161 10158 ] final  172.63 input  -65.29 | X-H torsion
[ 10718 10713 10712 10709 ] final -109.10 input   66.30 | X-H torsion
[ 10763 10752 10751 10750 ] final  131.48 input  -60.55 | X-H torsion
[ 11005 11000 10999 10996 ] final  159.46 input  -57.11 | X-H torsion

> <Gold.Protein.ActiveResidues>
 VAL166  LYS551  ARG553  GLY616  TRP617  ASP618  TYR619  PRO620  LYS621  CYS622 
 ASP623  PHE694  ASN695  SER759  ASP760  ASP761  ALA762  ILE779  LEU786  VAL792 
 PHE793  MET794  SER795  GLU796  ALA797  LYS798  CYS799  TRP800  GLU811  SER814 

> <Gold.Protein.RotatedAtoms>
  151.2998  133.4127  159.2638 H   0  0  0  0  0  0  0  0  0  0  0  0  # atno 6907 bound_to 6896
  151.0205  134.9466  159.8067 H   0  0  0  0  0  0  0  0  0  0  0  0  # atno 6908 bound_to 6896
  152.5323  134.2961  159.9113 H   0  0  0  0  0  0  0  0  0  0  0  0  # atno 6909 bound_to 6896
  146.2445  140.0641  142.8366 H   0  0  0  0  0  0  0  0  0  0  0  0  # atno 7974 bound_to 7965
  154.5263  140.2240  155.8885 H   0  0  0  0  0  0  0  0  0  0  0  0  # atno 8008 bound_to 7997
  156.1716  140.3120  155.8948 H   0  0  0  0  0  0  0  0  0  0  0  0  # atno 8009 bound_to 7997
  155.3546  140.0457  157.3037 H   0  0  0  0  0  0  0  0  0  0  0  0  # atno 8010 bound_to 7997
  139.5082  144.3352  152.0072 H   0  0  0  0  0  0  0  0  0  0  0  0  # atno 10167 bound_to 10162
  156.0519  130.5746  150.8052 H   0  0  0  0  0  0  0  0  0  0  0  0  # atno 10718 bound_to 10713
  153.7750  135.3176  155.3357 H   0  0  0  0  0  0  0  0  0  0  0  0  # atno 10763 bound_to 10752
  154.8182  135.4621  154.0707 H   0  0  0  0  0  0  0  0  0  0  0  0  # atno 10764 bound_to 10752
  153.1978  135.6918  153.8354 H   0  0  0  0  0  0  0  0  0  0  0  0  # atno 10765 bound_to 10752
  140.1964  134.8370  157.2969 H   0  0  0  0  0  0  0  0  0  0  0  0  # atno 11005 bound_to 11000
  145.0873  140.9261  143.4789 LP  0  0  0  0  0  0  0  0  0  0  0  0  # atno 17320 bound_to 7965
  145.0807  139.2962  143.5785 LP  0  0  0  0  0  0  0  0  0  0  0  0  # atno 17321 bound_to 7965
  140.2791  144.3879  150.6125 LP  0  0  0  0  0  0  0  0  0  0  0  0  # atno 17342 bound_to 10162
  140.6031  143.2167  151.7033 LP  0  0  0  0  0  0  0  0  0  0  0  0  # atno 17343 bound_to 10162
  157.5454  131.0942  150.9770 LP  0  0  0  0  0  0  0  0  0  0  0  0  # atno 17370 bound_to 10713
  157.0043  130.5612  149.5314 LP  0  0  0  0  0  0  0  0  0  0  0  0  # atno 17371 bound_to 10713
  140.2102  134.4147  155.7616 LP  0  0  0  0  0  0  0  0  0  0  0  0  # atno 17394 bound_to 11000
  141.2227  133.7115  156.8326 LP  0  0  0  0  0  0  0  0  0  0  0  0  # atno 17395 bound_to 11000

$$$$
