#       Name:                AV-unprocessed.smi:1035
#       Creating user name   scv26
#       Creation time:       Fri Mar 27 02:52:43 2020


#       File generated by GOLD software.
#

@<TRIPOS>MOLECULE
AV-unprocessed.smi:1035
    46    47     1
SMALL
NO_CHARGES


@<TRIPOS>ATOM
      1 ****        -2.5093   3.7690  -3.4956 C.3            1 S1                 0.0000
      2 ****        -2.5477   3.6533  -1.9818 C.2            1 S1                 0.0000
      3 ****        -3.1049   4.6158  -1.2152 C.2            1 S1                 0.0000
      4 ****        -3.1329   4.5006   0.2226 C.2            1 S1                 0.0000
      5 ****        -2.5910   3.4092   0.7812 C.2            1 S1                 0.0000
      6 ****        -2.0068   2.3906   0.0055 N.am           1 S1                 0.0000
      7 ****        -1.4390   1.2417   0.7321 C.3            1 S1                 0.0000
      8 ****         0.0788   1.3394   0.9451 C.2            1 S1                 0.0000
      9 ****         0.6829   2.3952   0.7492 O.2            1 S1                 0.0000
     10 ****         0.6831   0.2189   1.3637 N.am           1 S1                 0.0000
     11 ****         2.1129   0.0994   1.6214 C.3            1 S1                 0.0000
     12 ****         2.4760  -1.3023   2.1410 C.3            1 S1                 0.0000
     13 ****         2.0434  -2.4292   1.2143 C.2            1 S1                 0.0000
     14 ****         1.1224  -3.3418   1.5812 C.2            1 S1                 0.0000
     15 ****         0.6400  -4.4731   0.6901 C.3            1 S1                 0.0000
     16 ****         1.0453  -4.2744  -0.7802 C.3            1 S1                 0.0000
     17 ****         2.4981  -3.7964  -0.8942 C.3            1 S1                 0.0000
     18 ****         2.7082  -2.4616  -0.1572 C.3            1 S1                 0.0000
     19 ****        -1.9542   2.4538  -1.3615 C.2            1 S1                 0.0000
     20 ****        -1.4374   1.5543  -2.0273 O.2            1 S1                 0.0000
     21 ****        -2.9833   4.6899  -3.8370 H              1 S1                 0.0000
     22 ****        -3.0326   2.9305  -3.9561 H              1 S1                 0.0000
     23 ****        -1.4785   3.7695  -3.8514 H              1 S1                 0.0000
     24 ****        -3.5365   5.4913  -1.6784 H              1 S1                 0.0000
     25 ****        -3.5745   5.2749   0.8325 H              1 S1                 0.0000
     26 ****        -2.5640   3.2495   1.8495 H              1 S1                 0.0000
     27 ****        -1.9130   1.1362   1.7091 H              1 S1                 0.0000
     28 ****        -1.6671   0.3132   0.2049 H              1 S1                 0.0000
     29 ****         0.1201  -0.6078   1.5026 H              1 S1                 0.0000
     30 ****         2.6634   0.3165   0.7048 H              1 S1                 0.0000
     31 ****         2.4136   0.8500   2.3540 H              1 S1                 0.0000
     32 ****         3.5537  -1.3706   2.2919 H              1 S1                 0.0000
     33 ****         2.0239  -1.4476   3.1232 H              1 S1                 0.0000
     34 ****         0.6851  -3.2975   2.5680 H              1 S1                 0.0000
     35 ****         1.0573  -5.4048   1.0734 H              1 S1                 0.0000
     36 ****        -0.4444  -4.5554   0.7677 H              1 S1                 0.0000
     37 ****         0.9056  -5.2031  -1.3344 H              1 S1                 0.0000
     38 ****         0.3890  -3.5362  -1.2432 H              1 S1                 0.0000
     39 ****         3.1581  -4.5543  -0.4698 H              1 S1                 0.0000
     40 ****         2.7824  -3.6917  -1.9416 H              1 S1                 0.0000
     41 ****         2.2986  -1.6447  -0.7523 H              1 S1                 0.0000
     42 ****         3.7764  -2.2699  -0.0504 H              1 S1                 0.0000
     43 ****         0.1846   3.2076   0.4462 LP             1 S1                 0.0000
     44 ****         1.6714   2.4398   0.8932 LP             1 S1                 0.0000
     45 ****        -1.4103   1.6228  -3.0246 LP             1 S1                 0.0000
     46 ****        -1.0453   0.7560  -1.5702 LP             1 S1                 0.0000
@<TRIPOS>BOND
    1    1    2 1     
    2    1   21 1     
    3    1   22 1     
    4    1   23 1     
    5    2   19 1     
    6    2    3 2     
    7    3    4 1     
    8    3   24 1     
    9    4    5 2     
   10    4   25 1     
   11    5    6 1     
   12    5   26 1     
   13    6    7 1     
   14    6   19 am    
   15    7    8 1     
   16    7   27 1     
   17    7   28 1     
   18    8    9 2     
   19    8   10 am    
   20   10   11 1     
   21   10   29 1     
   22   11   12 1     
   23   11   30 1     
   24   11   31 1     
   25   12   13 1     
   26   12   32 1     
   27   12   33 1     
   28   13   18 1     
   29   13   14 2     
   30   14   15 1     
   31   14   34 1     
   32   15   16 1     
   33   15   35 1     
   34   15   36 1     
   35   16   17 1     
   36   16   37 1     
   37   16   38 1     
   38   17   18 1     
   39   17   39 1     
   40   17   40 1     
   41   18   41 1     
   42   18   42 1     
   43   19   20 2     
   44    9   43 1     
   45    9   44 1     
   46   20   45 1     
   47   20   46 1     
@<TRIPOS>SUBSTRUCTURE
      1 S1             1
@<TRIPOS>SET
LONE_PAIRS      STATIC     ATOMS    <user>   **** ""
4 43 44 45 46
DONOR_HYDROGENS      STATIC     ATOMS    <user>   **** ""
1 29
ATOM$BLUE        STATIC     ATOMS    COLORGROUP SYSTEM
4 43 44 45 46
ATOM$RED        STATIC     ATOMS    COLORGROUP SYSTEM
1 29
