AV-unprocessed.smi:1184|AV-procd|sdf|4971|dock10
  -GOLD-   22720 3563D 1   1.00000     0.00000
 Structure written by MMmdl.
 43 44  0  0  0  0  0  0  0  0  2 V2000
  144.8888  131.7929  150.2589 C   0  0  0  0  0  0  0  0  0  0  0  0
  143.6985  132.6019  149.7252 C   0  0  0  0  0  0  0  0  0  0  0  0
  143.5076  133.8724  150.4646 N   0  3  1  0  0  0  0  0  0  0  0  0
  143.4171  133.7308  151.9356 C   0  0  0  0  0  0  0  0  0  0  0  0
  143.9987  135.0208  152.5072 C   0  0  0  0  0  0  0  0  0  0  0  0
  145.1228  135.3403  151.5266 C   0  0  2  0  0  0  0  0  0  0  0  0
  145.6111  136.8004  151.5920 C   0  0  0  0  0  0  0  0  0  0  0  0
  146.2134  137.1209  152.8823 N   0  0  0  0  0  0  0  0  0  0  0  0
  146.8004  138.2842  153.2046 C   0  0  0  0  0  0  0  0  0  0  0  0
  146.9159  139.2269  152.4221 O   0  0  0  0  0  0  0  0  0  0  0  0
  147.3409  138.4044  154.6295 C   0  0  0  0  0  0  0  0  0  0  0  0
  148.7636  138.9016  154.5937 C   0  0  0  0  0  0  0  0  0  0  0  0
  149.9658  138.1546  154.7644 C   0  0  0  0  0  0  0  0  0  0  0  0
  150.1365  136.6853  155.0242 C   0  0  0  0  0  0  0  0  0  0  0  0
  151.0399  138.9192  154.6678 N   0  0  0  0  0  0  0  0  0  0  0  0
  150.5698  140.2134  154.4273 O   0  0  0  0  0  0  0  0  0  0  0  0
  149.2140  140.1773  154.3879 C   0  0  0  0  0  0  0  0  0  0  0  0
  148.5211  141.4743  154.1398 C   0  0  0  0  0  0  0  0  0  0  0  0
  144.5317  134.9053  150.1759 C   0  0  0  0  0  0  0  0  0  0  0  0
  144.9718  130.8402  149.7356 H   0  0  0  0  0  0  0  0  0  0  0  0
  144.7742  131.5778  151.3218 H   0  0  0  0  0  0  0  0  0  0  0  0
  145.8314  132.3234  150.1225 H   0  0  0  0  0  0  0  0  0  0  0  0
  143.8215  132.8049  148.6604 H   0  0  0  0  0  0  0  0  0  0  0  0
  142.7951  131.9993  149.8280 H   0  0  0  0  0  0  0  0  0  0  0  0
  142.3906  133.5566  152.2592 H   0  0  0  0  0  0  0  0  0  0  0  0
  144.0226  132.8855  152.2672 H   0  0  0  0  0  0  0  0  0  0  0  0
  143.2445  135.8090  152.4927 H   0  0  0  0  0  0  0  0  0  0  0  0
  144.3499  134.9065  153.5332 H   0  0  0  0  0  0  0  0  0  0  0  0
  145.9598  134.6794  151.7592 H   0  0  0  0  0  0  0  0  0  0  0  0
  146.3037  137.0146  150.7762 H   0  0  0  0  0  0  0  0  0  0  0  0
  144.7633  137.4717  151.4532 H   0  0  0  0  0  0  0  0  0  0  0  0
  146.1607  136.4083  153.5960 H   0  0  0  0  0  0  0  0  0  0  0  0
  146.6967  139.0673  155.2084 H   0  0  0  0  0  0  0  0  0  0  0  0
  147.2759  137.4291  155.1134 H   0  0  0  0  0  0  0  0  0  0  0  0
  149.1978  136.2192  155.3227 H   0  0  0  0  0  0  0  0  0  0  0  0
  150.8584  136.5074  155.8216 H   0  0  0  0  0  0  0  0  0  0  0  0
  150.4927  136.1707  154.1315 H   0  0  0  0  0  0  0  0  0  0  0  0
  147.4741  141.4230  154.4382 H   0  0  0  0  0  0  0  0  0  0  0  0
  148.5587  141.7349  153.0822 H   0  0  0  0  0  0  0  0  0  0  0  0
  148.9914  142.2794  154.7047 H   0  0  0  0  0  0  0  0  0  0  0  0
  145.3107  134.5537  149.4975 H   0  0  0  0  0  0  0  0  0  0  0  0
  144.0247  135.7382  149.6883 H   0  0  0  0  0  0  0  0  0  0  0  0
  142.6294  134.2645  150.1552 H   0  0  0  0  0  0  0  0  0  0  0  0
  1  2  1  0  0  0  0
  1 20  1  0  0  0  0
  1 21  1  0  0  0  0
  1 22  1  0  0  0  0
  2  3  1  0  0  0  0
  2 23  1  0  0  0  0
  2 24  1  0  0  0  0
  3 19  1  0  0  0  0
  3  4  1  0  0  0  0
  3 43  1  0  0  0  0
  4  5  1  0  0  0  0
  4 25  1  0  0  0  0
  4 26  1  0  0  0  0
  5  6  1  0  0  0  0
  5 27  1  0  0  0  0
  5 28  1  0  0  0  0
  6  7  1  0  0  0  0
  6 19  1  0  0  0  0
  6 29  1  0  0  0  0
  7  8  1  0  0  0  0
  7 30  1  0  0  0  0
  7 31  1  0  0  0  0
  8  9  1  0  0  0  0
  8 32  1  0  0  0  0
  9 10  2  0  0  0  0
  9 11  1  0  0  0  0
 11 12  1  0  0  0  0
 11 33  1  0  0  0  0
 11 34  1  0  0  0  0
 12 17  2  0  0  0  0
 12 13  1  0  0  0  0
 13 14  1  0  0  0  0
 13 15  2  0  0  0  0
 14 35  1  0  0  0  0
 14 36  1  0  0  0  0
 14 37  1  0  0  0  0
 15 16  1  0  0  0  0
 16 17  1  0  0  0  0
 17 18  1  0  0  0  0
 18 38  1  0  0  0  0
 18 39  1  0  0  0  0
 18 40  1  0  0  0  0
 19 41  1  0  0  0  0
 19 42  1  0  0  0  0
M  CHG  1   3   1
M  END
> <s_m_source_file>
AV-unprocessed.smi

> <i_m_source_file_index>
1184

> <i_lp_mmshare_version>
43012

> <i_f3d_flags>
0

> <s_epik_input>
W0NIM11bQ0gyXU4xW0NIMl1bQ0gyXVtDQEhdKFtDSDJdMSlbQ0gyXVtOSF1DKD1PKVtDSDJdYzJjKFtDSDNdKW5vYzJbQ0gzXQ==

> <s_epik_cmdline>
J2VwaWtfcHl0aG9uJywgJy1waCcsICc3LjAnLCAnLXRuJywgJzgnLCAnLW1hJywgJzIwMCcsICctbWV0YWxfYmluZGluZycsICctaW1hZScsICc8aW5maWxlLm1hZT4nLCAnLW9tYWUnLCAnPG91dGZpbGUubWFlPic=

> <r_epik_Ionization_Penalty>
0.000590726

> <r_epik_Ionization_Penalty_Charging>
0.000590692

> <r_epik_Ionization_Penalty_Neutral>
3.44741e-08

> <r_epik_State_Penalty>
0.000371644

> <r_epik_Charging_Adjusted_Penalty>
0.000962336

> <i_epik_Tot_Q>
1

> <i_epik_Tot_abs_Q>
1

> <r_epik_Metal_State_Penalty>
-0

> <b_epik_Metal_Only>
0

> <s_lp_Force_Field>
OPLS_2005

> <r_lp_Energy>
22.6293

> <b_lp_Chiralities_Consistent>
1

> <s_lp_Variant>
AV-unprocessed.smi:1184-3

> <Gold.Version>
5.8.1

> <Gold.Id.Protein>
6NUR|6NUR_protein|mol2

> <Gold.PLP.Fitness>
41.7224

> <Gold.PLP.PLP>
-33.4797

> <Gold.PLP.part.hbond>
-3.1715

> <Gold.PLP.part.metal>
0.0000

> <Gold.PLP.part.buried>
-3.4777

> <Gold.PLP.part.nonpolar>
-28.6817

> <Gold.PLP.part.repulsive>
0.8737

> <Gold.PLP.ligand.clash>
0.0000

> <Gold.PLP.ligand.torsion>
0.3961

> <Gold.PLP.Chemscore.Hbond>
3.0000

> <Gold.PLP.Chemscore.CHOScore>
0.0000

> <Gold.PLP.Chemscore.Metal>
0.0000

> <Gold.Chemscore.Hbonds>
donor molecule, donor type, donor heavy atom, donor atom, acceptor molecule, acceptor atom, score
      L1  H     3    43       P1 10186  2.00
      P1  H  7989  7998       L1    16  1.00

> <Gold.PLP.Chemscore.Internal.Correction>
0.0349

> <Gold.Rescore>
     Score         DG    S(hbond)    S(metal)    S(lipo)     H(rot)  DE(clash)    DE(int)     intcor
     16.31     -17.16       1.93        0.00      81.17       1.67       0.52       0.33       ----

> <Gold.Chemscore.Fitness>
16.3107

> <Gold.Chemscore.DG>
-17.1607

> <Gold.Chemscore.ZeroCoef>
-5.4800

> <Gold.Chemscore.Hbond>
1.9327

> <Gold.Chemscore.Metal>
0.0000

> <Gold.Chemscore.Lipo>
81.1669

> <Gold.Chemscore.Internal_Hbond>
0.0000

> <Gold.Chemscore.DEClash>
0.5242

> <Gold.Chemscore.DEInternal>
0.3258

> <Gold.Chemscore.Rot>
1.6684

> <Gold.Chemscore.Internal.Correction>
   9.000000E+99

> <Gold.Chemscore.Hbonds>
donor molecule, donor type, donor heavy atom, donor atom, acceptor molecule, acceptor atom, score
      L1  H     3    43       P1 10186  0.90
      P1  H  7989  7998       L1    16  0.52

> <Gold.Chemscore.Hbond.Weighted>
-6.4554

> <Gold.Chemscore.Metal.Weighted>
-0.0000

> <Gold.Chemscore.Lipo.Weighted>
-9.4965

> <Gold.Chemscore.Internal_Hbond.Weighted>
0.0000

> <Gold.Chemscore.DEClash.Weighted>
0.5242

> <Gold.Chemscore.DEInternal.Weighted>
0.3258

> <Gold.Chemscore.Rot.Weighted>
4.2712

> <Gold.Chemscore.Internal.Correction.Weighted>
   9.000000E+99

> <Gold.Protein.RotatedTorsions>
[ 6907 6896 6895 6894 ] final -149.33 input  -60.11 | X-H torsion
[ 7974 7965 7964 7962 ] final -127.62 input  175.53 | X-H torsion
[ 8008 7997 7996 7995 ] final   93.91 input   59.86 | X-H torsion
[ 10167 10162 10161 10158 ] final   72.49 input  -65.29 | X-H torsion
[ 10718 10713 10712 10709 ] final -151.30 input   66.30 | X-H torsion
[ 10763 10752 10751 10750 ] final  -77.37 input  -60.55 | X-H torsion
[ 11005 11000 10999 10996 ] final -102.47 input  -57.11 | X-H torsion

> <Gold.Protein.ActiveResidues>
 VAL166  LYS551  ARG553  GLY616  TRP617  ASP618  TYR619  PRO620  LYS621  CYS622 
 ASP623  PHE694  ASN695  SER759  ASP760  ASP761  ALA762  ILE779  LEU786  VAL792 
 PHE793  MET794  SER795  GLU796  ALA797  LYS798  CYS799  TRP800  GLU811  SER814 

> <Gold.Protein.RotatedAtoms>
  151.1825  133.4716  159.2593 H   0  0  0  0  0  0  0  0  0  0  0  0  # atno 6907 bound_to 6896
  151.1245  135.0097  159.8564 H   0  0  0  0  0  0  0  0  0  0  0  0  # atno 6908 bound_to 6896
  152.5457  134.1733  159.8659 H   0  0  0  0  0  0  0  0  0  0  0  0  # atno 6909 bound_to 6896
  144.9752  140.7585  143.4646 H   0  0  0  0  0  0  0  0  0  0  0  0  # atno 7974 bound_to 7965
  156.0520  140.3307  155.7362 H   0  0  0  0  0  0  0  0  0  0  0  0  # atno 8008 bound_to 7997
  155.5587  140.0617  157.2851 H   0  0  0  0  0  0  0  0  0  0  0  0  # atno 8009 bound_to 7997
  154.4440  140.1881  156.0748 H   0  0  0  0  0  0  0  0  0  0  0  0  # atno 8010 bound_to 7997
  140.0347  144.5437  150.7479 H   0  0  0  0  0  0  0  0  0  0  0  0  # atno 10167 bound_to 10162
  156.4574  130.8197  151.2428 H   0  0  0  0  0  0  0  0  0  0  0  0  # atno 10718 bound_to 10713
  154.5121  135.5766  153.6613 H   0  0  0  0  0  0  0  0  0  0  0  0  # atno 10763 bound_to 10752
  152.9899  135.6161  154.2866 H   0  0  0  0  0  0  0  0  0  0  0  0  # atno 10764 bound_to 10752
  154.2781  135.2851  155.2689 H   0  0  0  0  0  0  0  0  0  0  0  0  # atno 10765 bound_to 10752
  141.1188  133.8561  157.1364 H   0  0  0  0  0  0  0  0  0  0  0  0  # atno 11005 bound_to 11000
  145.2501  139.2035  143.4947 LP  0  0  0  0  0  0  0  0  0  0  0  0  # atno 17320 bound_to 7965
  146.3393  140.2412  142.8596 LP  0  0  0  0  0  0  0  0  0  0  0  0  # atno 17321 bound_to 7965
  140.7286  143.2664  151.4031 LP  0  0  0  0  0  0  0  0  0  0  0  0  # atno 17342 bound_to 10162
  139.6053  144.1211  152.2242 LP  0  0  0  0  0  0  0  0  0  0  0  0  # atno 17343 bound_to 10162
  157.7500  131.0118  150.3360 LP  0  0  0  0  0  0  0  0  0  0  0  0  # atno 17370 bound_to 10713
  156.3752  130.3870  149.7144 LP  0  0  0  0  0  0  0  0  0  0  0  0  # atno 17371 bound_to 10713
  140.0129  134.9980  157.0432 LP  0  0  0  0  0  0  0  0  0  0  0  0  # atno 17394 bound_to 11000
  140.4569  134.1524  155.7187 LP  0  0  0  0  0  0  0  0  0  0  0  0  # atno 17395 bound_to 11000

$$$$
