AV-unprocessed.smi:1158|AV-procd|sdf|4912|dock6
  -GOLD-   22720 3493D 1   1.00000     0.00000
 Structure written by MMmdl.
 43 44  0  0  0  0  0  0  0  0  2 V2000
  152.0210  145.7199  159.5063 C   0  0  0  0  0  0  0  0  0  0  0  0
  151.6598  144.5330  158.8083 O   0  0  0  0  0  0  0  0  0  0  0  0
  152.1921  143.3300  159.2320 C   0  0  0  0  0  0  0  0  0  0  0  0
  153.0399  143.3378  160.2915 N   0  0  0  0  0  0  0  0  0  0  0  0
  153.5649  142.1658  160.7033 C   0  0  0  0  0  0  0  0  0  0  0  0
  153.2825  140.9354  160.0829 C   0  0  0  0  0  0  0  0  0  0  0  0
  152.4035  140.9243  158.9842 C   0  0  0  0  0  0  0  0  0  0  0  0
  151.8310  142.1447  158.5491 C   0  0  0  0  0  0  0  0  0  0  0  0
  150.9431  142.2529  157.4424 N   0  0  0  0  0  0  0  0  0  0  0  0
  150.7145  141.3691  156.4561 C   0  0  0  0  0  0  0  0  0  0  0  0
  151.2651  140.2755  156.3338 O   0  0  0  0  0  0  0  0  0  0  0  0
  149.7811  141.8229  155.6070 N   0  0  0  0  0  0  0  0  0  0  0  0
  149.2814  141.0976  154.4423 C   0  0  2  0  0  0  0  0  0  0  0  0
  147.9787  141.7263  153.9184 C   0  0  0  0  0  0  0  0  0  0  0  0
  147.4005  140.9091  152.7517 C   0  0  0  0  0  0  0  0  0  0  0  0
  147.1674  139.4935  153.1422 N   0  3  1  0  0  0  0  0  0  0  0  0
  146.4879  138.7266  152.0650 C   0  0  0  0  0  0  0  0  0  0  0  0
  145.8236  137.4324  152.5664 C   0  0  0  0  0  0  0  0  0  0  0  0
  144.7361  137.7387  153.2726 F   0  0  0  0  0  0  0  0  0  0  0  0
  145.4628  136.6351  151.5620 F   0  0  0  0  0  0  0  0  0  0  0  0
  148.4187  138.8523  153.6283 C   0  0  0  0  0  0  0  0  0  0  0  0
  149.0247  139.6283  154.8105 C   0  0  0  0  0  0  0  0  0  0  0  0
  151.5254  146.5737  159.0445 H   0  0  0  0  0  0  0  0  0  0  0  0
  153.0964  145.8981  159.4620 H   0  0  0  0  0  0  0  0  0  0  0  0
  151.7070  145.6806  160.5502 H   0  0  0  0  0  0  0  0  0  0  0  0
  154.2349  142.2109  161.5492 H   0  0  0  0  0  0  0  0  0  0  0  0
  153.7333  140.0209  160.4390 H   0  0  0  0  0  0  0  0  0  0  0  0
  152.2006  139.9857  158.4933 H   0  0  0  0  0  0  0  0  0  0  0  0
  150.3584  143.0760  157.4442 H   0  0  0  0  0  0  0  0  0  0  0  0
  149.3787  142.7313  155.7871 H   0  0  0  0  0  0  0  0  0  0  0  0
  150.0356  141.1262  153.6532 H   0  0  0  0  0  0  0  0  0  0  0  0
  147.2429  141.7832  154.7222 H   0  0  0  0  0  0  0  0  0  0  0  0
  148.1581  142.7512  153.5912 H   0  0  0  0  0  0  0  0  0  0  0  0
  146.4625  141.3647  152.4324 H   0  0  0  0  0  0  0  0  0  0  0  0
  148.0769  140.9447  151.8959 H   0  0  0  0  0  0  0  0  0  0  0  0
  145.6967  139.3509  151.6470 H   0  0  0  0  0  0  0  0  0  0  0  0
  147.1774  138.5223  151.2445 H   0  0  0  0  0  0  0  0  0  0  0  0
  146.4814  136.8656  153.2263 H   0  0  0  0  0  0  0  0  0  0  0  0
  148.2227  137.8327  153.9543 H   0  0  0  0  0  0  0  0  0  0  0  0
  149.1391  138.7906  152.8111 H   0  0  0  0  0  0  0  0  0  0  0  0
  149.9559  139.1535  155.1225 H   0  0  0  0  0  0  0  0  0  0  0  0
  148.3479  139.5720  155.6645 H   0  0  0  0  0  0  0  0  0  0  0  0
  146.5265  139.5201  153.9223 H   0  0  0  0  0  0  0  0  0  0  0  0
  1  2  1  0  0  0  0
  1 23  1  0  0  0  0
  1 24  1  0  0  0  0
  1 25  1  0  0  0  0
  2  3  1  0  0  0  0
  3  8  1  0  0  0  0
  3  4  2  0  0  0  0
  4  5  1  0  0  0  0
  5  6  2  0  0  0  0
  5 26  1  0  0  0  0
  6  7  1  0  0  0  0
  6 27  1  0  0  0  0
  7  8  2  0  0  0  0
  7 28  1  0  0  0  0
  8  9  1  0  0  0  0
  9 10  1  0  0  0  0
  9 29  1  0  0  0  0
 10 11  2  0  0  0  0
 10 12  1  0  0  0  0
 12 13  1  0  0  0  0
 12 30  1  0  0  0  0
 13 22  1  0  0  0  0
 13 14  1  0  0  0  0
 13 31  1  0  0  0  0
 14 15  1  0  0  0  0
 14 32  1  0  0  0  0
 14 33  1  0  0  0  0
 15 16  1  0  0  0  0
 15 34  1  0  0  0  0
 15 35  1  0  0  0  0
 16 17  1  0  0  0  0
 16 21  1  0  0  0  0
 16 43  1  0  0  0  0
 17 18  1  0  0  0  0
 17 36  1  0  0  0  0
 17 37  1  0  0  0  0
 18 19  1  0  0  0  0
 18 20  1  0  0  0  0
 18 38  1  0  0  0  0
 21 22  1  0  0  0  0
 21 39  1  0  0  0  0
 21 40  1  0  0  0  0
 22 41  1  0  0  0  0
 22 42  1  0  0  0  0
M  CHG  1  16   1
M  END
> <s_m_source_file>
AV-unprocessed.smi

> <i_m_source_file_index>
1158

> <i_lp_mmshare_version>
43012

> <i_f3d_flags>
0

> <s_epik_input>
W0NIM11PYzFuW2NIXVtjSF1bY0hdYzFbTkhdQyg9TylbTkhdW0NIXTJbQ0gyXVtDSDJdTihbQ0gyXVtDSF0oRilGKVtDSDJdW0NIMl0y

> <s_epik_cmdline>
J2VwaWtfcHl0aG9uJywgJy1waCcsICc3LjAnLCAnLXRuJywgJzgnLCAnLW1hJywgJzIwMCcsICctbWV0YWxfYmluZGluZycsICctaW1hZScsICc8aW5maWxlLm1hZT4nLCAnLW9tYWUnLCAnPG91dGZpbGUubWFlPic=

> <r_lp_tautomer_probability>
1

> <r_epik_Ionization_Penalty>
0.802109

> <r_epik_Ionization_Penalty_Charging>
0.802031

> <r_epik_Ionization_Penalty_Neutral>
7.83352e-05

> <r_epik_State_Penalty>
0.833408

> <r_epik_Charging_Adjusted_Penalty>
1.63544

> <i_epik_Tot_Q>
1

> <i_epik_Tot_abs_Q>
1

> <r_epik_Metal_State_Penalty>
0.833416

> <b_epik_Metal_Only>
0

> <s_lp_Force_Field>
OPLS_2005

> <r_lp_Energy>
21.1994

> <b_lp_Chiralities_Consistent>
1

> <s_lp_Variant>
AV-unprocessed.smi:1158-2

> <Gold.Version>
5.8.1

> <Gold.Id.Protein>
6NUR|6NUR_protein|mol2

> <Gold.PLP.Fitness>
44.4689

> <Gold.PLP.PLP>
-42.6301

> <Gold.PLP.part.hbond>
-1.3721

> <Gold.PLP.part.metal>
0.0000

> <Gold.PLP.part.buried>
-2.1866

> <Gold.PLP.part.nonpolar>
-40.1203

> <Gold.PLP.part.repulsive>
0.2702

> <Gold.PLP.ligand.clash>
0.0000

> <Gold.PLP.ligand.torsion>
0.4630

> <Gold.PLP.Chemscore.Hbond>
0.9027

> <Gold.PLP.Chemscore.CHOScore>
0.0000

> <Gold.PLP.Chemscore.Metal>
0.0000

> <Gold.Chemscore.Hbonds>
donor molecule, donor type, donor heavy atom, donor atom, acceptor molecule, acceptor atom, score
      L1  H    12    30       P1  8028  0.94

> <Gold.PLP.Chemscore.Internal.Correction>
0.0566

> <Gold.Rescore>
     Score         DG    S(hbond)    S(metal)    S(lipo)     H(rot)  DE(clash)    DE(int)     intcor
     12.61     -15.78       0.84        0.00      98.39       1.58       0.21       2.96       ----

> <Gold.Chemscore.Fitness>
12.6061

> <Gold.Chemscore.DG>
-15.7763

> <Gold.Chemscore.ZeroCoef>
-5.4800

> <Gold.Chemscore.Hbond>
0.8448

> <Gold.Chemscore.Metal>
0.0000

> <Gold.Chemscore.Lipo>
98.3927

> <Gold.Chemscore.Internal_Hbond>
0.0000

> <Gold.Chemscore.DEClash>
0.2126

> <Gold.Chemscore.DEInternal>
2.9576

> <Gold.Chemscore.Rot>
1.5770

> <Gold.Chemscore.Internal.Correction>
   9.000000E+99

> <Gold.Chemscore.Hbonds>
donor molecule, donor type, donor heavy atom, donor atom, acceptor molecule, acceptor atom, score
      L1  H    12    30       P1  8028  0.90

> <Gold.Chemscore.Hbond.Weighted>
-2.8215

> <Gold.Chemscore.Metal.Weighted>
-0.0000

> <Gold.Chemscore.Lipo.Weighted>
-11.5119

> <Gold.Chemscore.Internal_Hbond.Weighted>
0.0000

> <Gold.Chemscore.DEClash.Weighted>
0.2126

> <Gold.Chemscore.DEInternal.Weighted>
2.9576

> <Gold.Chemscore.Rot.Weighted>
4.0371

> <Gold.Chemscore.Internal.Correction.Weighted>
   9.000000E+99

> <Gold.Protein.RotatedTorsions>
[ 6907 6896 6895 6894 ] final   56.96 input  -60.11 | X-H torsion
[ 7974 7965 7964 7962 ] final -144.83 input  175.53 | X-H torsion
[ 8008 7997 7996 7995 ] final   19.89 input   59.86 | X-H torsion
[ 10167 10162 10161 10158 ] final -157.24 input  -65.29 | X-H torsion
[ 10718 10713 10712 10709 ] final  128.49 input   66.30 | X-H torsion
[ 10763 10752 10751 10750 ] final   87.90 input  -60.55 | X-H torsion
[ 11005 11000 10999 10996 ] final  -69.89 input  -57.11 | X-H torsion

> <Gold.Protein.ActiveResidues>
 VAL166  LYS551  ARG553  GLY616  TRP617  ASP618  TYR619  PRO620  LYS621  CYS622 
 ASP623  PHE694  ASN695  SER759  ASP760  ASP761  ALA762  ILE779  LEU786  VAL792 
 PHE793  MET794  SER795  GLU796  ALA797  LYS798  CYS799  TRP800  GLU811  SER814 

> <Gold.Protein.RotatedAtoms>
  152.3686  134.6767  160.0183 H   0  0  0  0  0  0  0  0  0  0  0  0  # atno 6907 bound_to 6896
  151.7068  133.3306  159.3288 H   0  0  0  0  0  0  0  0  0  0  0  0  # atno 6908 bound_to 6896
  150.7657  134.6502  159.6329 H   0  0  0  0  0  0  0  0  0  0  0  0  # atno 6909 bound_to 6896
  144.8270  140.5661  143.5540 H   0  0  0  0  0  0  0  0  0  0  0  0  # atno 7974 bound_to 7965
  154.9274  140.3035  155.5185 H   0  0  0  0  0  0  0  0  0  0  0  0  # atno 8008 bound_to 7997
  156.3006  140.2360  156.4267 H   0  0  0  0  0  0  0  0  0  0  0  0  # atno 8009 bound_to 7997
  154.8270  140.0420  157.1439 H   0  0  0  0  0  0  0  0  0  0  0  0  # atno 8010 bound_to 7997
  139.6786  143.9620  152.2324 H   0  0  0  0  0  0  0  0  0  0  0  0  # atno 10167 bound_to 10162
  157.5239  131.1098  150.9112 H   0  0  0  0  0  0  0  0  0  0  0  0  # atno 10718 bound_to 10713
  153.1714  135.4526  154.9908 H   0  0  0  0  0  0  0  0  0  0  0  0  # atno 10763 bound_to 10752
  154.7969  135.3241  154.7648 H   0  0  0  0  0  0  0  0  0  0  0  0  # atno 10764 bound_to 10752
  153.8124  135.6953  153.4893 H   0  0  0  0  0  0  0  0  0  0  0  0  # atno 10765 bound_to 10752
  141.1563  133.6776  156.6668 H   0  0  0  0  0  0  0  0  0  0  0  0  # atno 11005 bound_to 11000
  145.4979  139.1485  143.3674 LP  0  0  0  0  0  0  0  0  0  0  0  0  # atno 17320 bound_to 7965
  146.2575  140.5118  142.8867 LP  0  0  0  0  0  0  0  0  0  0  0  0  # atno 17321 bound_to 7965
  139.9404  144.6685  150.8272 LP  0  0  0  0  0  0  0  0  0  0  0  0  # atno 17342 bound_to 10162
  140.7644  143.3249  151.2539 LP  0  0  0  0  0  0  0  0  0  0  0  0  # atno 17343 bound_to 10162
  156.9713  130.5492  149.5291 LP  0  0  0  0  0  0  0  0  0  0  0  0  # atno 17370 bound_to 10713
  156.0373  130.5459  150.8685 LP  0  0  0  0  0  0  0  0  0  0  0  0  # atno 17371 bound_to 10713
  140.3205  134.8011  157.4248 LP  0  0  0  0  0  0  0  0  0  0  0  0  # atno 17394 bound_to 11000
  140.1101  134.5357  155.8274 LP  0  0  0  0  0  0  0  0  0  0  0  0  # atno 17395 bound_to 11000

$$$$
