#       Name:                AV-unprocessed.smi:1232
#       Creating user name   scv26
#       Creation time:       Fri Mar 27 04:24:23 2020


#       File generated by GOLD software.
#

@<TRIPOS>MOLECULE
AV-unprocessed.smi:1232
    61    62     1
SMALL
NO_CHARGES


@<TRIPOS>ATOM
      1 ****        -1.7420  -5.9255  -4.1807 C.3            1 S1                 0.0000
      2 ****        -2.1479  -4.6400  -3.4686 C.2            1 S1                 0.0000
      3 ****        -2.9508  -3.8697  -3.9942 O.2            1 S1                 0.0000
      4 ****        -1.5870  -4.4228  -2.2684 N.am           1 S1                 0.0000
      5 ****        -1.8249  -3.2557  -1.4167 C.3            1 S1                 0.0000
      6 ****        -0.9488  -2.0911  -1.9164 C.2            1 S1                 0.0000
      7 ****         0.2626  -2.2453  -2.0807 O.2            1 S1                 0.0000
      8 ****        -1.5772  -0.9252  -2.1325 N.am           1 S1                 0.0000
      9 ****        -0.9259   0.3061  -2.5660 C.3            1 S1                 0.0000
     10 ****        -0.2082   1.0425  -1.4451 C.ar           1 S1                 0.0000
     11 ****         1.0385   1.6562  -1.6746 C.ar           1 S1                 0.0000
     12 ****         1.6770   2.3246  -0.6125 C.ar           1 S1                 0.0000
     13 ****         1.0490   2.3661   0.6553 C.ar           1 S1                 0.0000
     14 ****         1.6747   3.0240   1.7361 N.3            1 S1                 0.0000
     15 ****         1.1283   2.8152   3.0752 C.3            1 S1                 0.0000
     16 ****         2.0973   3.3581   4.1377 C.3            1 S1                 0.0000
     17 ****         2.3881   4.7252   3.8662 O.3            1 S1                 0.0000
     18 ****         3.0232   4.8986   2.6023 C.3            1 S1                 0.0000
     19 ****         3.3765   6.3810   2.4416 C.3            1 S1                 0.0000
     20 ****         2.0817   4.4044   1.4868 C.3            1 S1                 0.0000
     21 ****        -0.1533   1.7770   0.8707 N.ar           1 S1                 0.0000
     22 ****        -0.7622   1.1411  -0.1515 C.ar           1 S1                 0.0000
     23 ****        -1.4503  -3.6228   0.0502 C.3            1 S1                 0.0000
     24 ****        -2.2908  -4.8040   0.5740 C.3            1 S1                 0.0000
     25 ****        -1.5808  -2.4370   1.0289 C.3            1 S1                 0.0000
     26 ****        -0.6709  -6.1034  -4.0791 H              1 S1                 0.0000
     27 ****        -1.9768  -5.8680  -5.2441 H              1 S1                 0.0000
     28 ****        -2.2759  -6.7761  -3.7564 H              1 S1                 0.0000
     29 ****        -0.9341  -5.1099  -1.9208 H              1 S1                 0.0000
     30 ****        -2.8794  -2.9749  -1.4619 H              1 S1                 0.0000
     31 ****        -2.5745  -0.8865  -1.9779 H              1 S1                 0.0000
     32 ****        -0.2312   0.0908  -3.3799 H              1 S1                 0.0000
     33 ****        -1.6878   0.9682  -2.9778 H              1 S1                 0.0000
     34 ****         1.5066   1.6098  -2.6469 H              1 S1                 0.0000
     35 ****         2.6430   2.7784  -0.7768 H              1 S1                 0.0000
     36 ****         0.1649   3.3207   3.1556 H              1 S1                 0.0000
     37 ****         0.9565   1.7526   3.2522 H              1 S1                 0.0000
     38 ****         1.6495   3.2796   5.1284 H              1 S1                 0.0000
     39 ****         3.0191   2.7745   4.1581 H              1 S1                 0.0000
     40 ****         3.9476   4.3182   2.5849 H              1 S1                 0.0000
     41 ****         3.8770   6.5643   1.4906 H              1 S1                 0.0000
     42 ****         4.0443   6.7111   3.2376 H              1 S1                 0.0000
     43 ****         2.4832   7.0054   2.4758 H              1 S1                 0.0000
     44 ****         2.5846   4.5070   0.5262 H              1 S1                 0.0000
     45 ****         1.1885   5.0293   1.4445 H              1 S1                 0.0000
     46 ****        -1.7199   0.6963   0.0754 H              1 S1                 0.0000
     47 ****        -0.4064  -3.9410   0.0710 H              1 S1                 0.0000
     48 ****        -3.3555  -4.5680   0.5575 H              1 S1                 0.0000
     49 ****        -2.0231  -5.0514   1.6016 H              1 S1                 0.0000
     50 ****        -2.1410  -5.7069  -0.0180 H              1 S1                 0.0000
     51 ****        -2.5836  -2.0096   1.0019 H              1 S1                 0.0000
     52 ****        -0.8706  -1.6414   0.8049 H              1 S1                 0.0000
     53 ****        -1.3825  -2.7504   2.0542 H              1 S1                 0.0000
     54 ****        -3.3384  -4.0863  -4.8902 LP             1 S1                 0.0000
     55 ****        -3.2156  -3.0271  -3.5253 LP             1 S1                 0.0000
     56 ****         0.6843  -3.1316  -1.8893 LP             1 S1                 0.0000
     57 ****         0.8241  -1.4841  -2.4053 LP             1 S1                 0.0000
     58 ****         2.5226   2.4948   1.7676 LP             1 S1                 0.0000
     59 ****         2.9935   5.0741   4.5816 LP             1 S1                 0.0000
     60 ****         1.5330   5.2437   3.8710 LP             1 S1                 0.0000
     61 ****        -0.5820   1.8134   1.7735 LP             1 S1                 0.0000
@<TRIPOS>BOND
    1    1    2 1     
    2    1   26 1     
    3    1   27 1     
    4    1   28 1     
    5    2    3 2     
    6    2    4 am    
    7    4    5 1     
    8    4   29 1     
    9    5    6 1     
   10    5   23 1     
   11    5   30 1     
   12    6    7 2     
   13    6    8 am    
   14    8    9 1     
   15    8   31 1     
   16    9   10 1     
   17    9   32 1     
   18    9   33 1     
   19   10   22 ar    
   20   10   11 ar    
   21   11   12 ar    
   22   11   34 1     
   23   12   13 ar    
   24   12   35 1     
   25   13   14 1     
   26   13   21 ar    
   27   14   20 1     
   28   14   15 1     
   29   15   16 1     
   30   15   36 1     
   31   15   37 1     
   32   16   17 1     
   33   16   38 1     
   34   16   39 1     
   35   17   18 1     
   36   18   19 1     
   37   18   20 1     
   38   18   40 1     
   39   19   41 1     
   40   19   42 1     
   41   19   43 1     
   42   20   44 1     
   43   20   45 1     
   44   21   22 ar    
   45   22   46 1     
   46   23   24 1     
   47   23   25 1     
   48   23   47 1     
   49   24   48 1     
   50   24   49 1     
   51   24   50 1     
   52   25   51 1     
   53   25   52 1     
   54   25   53 1     
   55    3   54 1     
   56    3   55 1     
   57    7   56 1     
   58    7   57 1     
   59   14   58 1     
   60   17   59 1     
   61   17   60 1     
   62   21   61 1     
@<TRIPOS>SUBSTRUCTURE
      1 S1             1
@<TRIPOS>SET
LONE_PAIRS      STATIC     ATOMS    <user>   **** ""
8 54 55 56 57 58 59 60 61
DONOR_HYDROGENS      STATIC     ATOMS    <user>   **** ""
2 29 31
ATOM$BLUE        STATIC     ATOMS    COLORGROUP SYSTEM
8 54 55 56 57 58 59 60 61
ATOM$RED        STATIC     ATOMS    COLORGROUP SYSTEM
2 29 31
