#       Name:                AV-unprocessed.smi:1702
#       Creating user name   scv26
#       Creation time:       Fri Mar 27 08:02:41 2020


#       File generated by GOLD software.
#

@<TRIPOS>MOLECULE
AV-unprocessed.smi:1702
    47    49     1
SMALL
NO_CHARGES


@<TRIPOS>ATOM
      1 ****        -4.3979   2.8969   2.0030 C.3            1 S1                 0.0000
      2 ****        -3.3666   3.2452   0.9157 C.3            1 S1                 0.0000
      3 ****        -3.5387   2.3999  -0.3597 C.3            1 S1                 0.0000
      4 ****        -3.0469   0.9531  -0.1722 C.3            1 S1                 0.0000
      5 ****        -1.6353   0.9219   0.2888 N.4            1 S1                 1.0000
      6 ****        -1.0842  -0.4573   0.3341 C.3            1 S1                 0.0000
      7 ****         0.4474  -0.4865   0.1610 C.3            1 S1                 0.0000
      8 ****         0.7661  -0.0300  -1.1402 O.3            1 S1                 0.0000
      9 ****         1.0199  -1.9032   0.3617 C.3            1 S1                 0.0000
     10 ****         2.4627  -1.9483   0.2006 N.pl3          1 S1                 0.0000
     11 ****         3.3890  -1.5760   1.1049 C.2            1 S1                 0.0000
     12 ****         4.6659  -1.6964   0.7546 N.2            1 S1                 0.0000
     13 ****         4.5576  -2.2096  -0.5264 C.ar           1 S1                 0.0000
     14 ****         5.5578  -2.5673  -1.4583 C.ar           1 S1                 0.0000
     15 ****         5.2054  -3.0787  -2.7245 C.ar           1 S1                 0.0000
     16 ****         6.1764  -3.4169  -3.6056 F              1 S1                 0.0000
     17 ****         3.8490  -3.2393  -3.0776 C.ar           1 S1                 0.0000
     18 ****         3.5187  -3.7312  -4.2951 F              1 S1                 0.0000
     19 ****         2.8347  -2.8891  -2.1659 C.ar           1 S1                 0.0000
     20 ****         3.1910  -2.3801  -0.9033 C.ar           1 S1                 0.0000
     21 ****        -1.4614   1.6686   1.5629 C.3            1 S1                 0.0000
     22 ****        -1.9139   3.1322   1.4131 C.3            1 S1                 0.0000
     23 ****        -4.3098   1.8642   2.3392 H              1 S1                 0.0000
     24 ****        -5.4146   3.0367   1.6344 H              1 S1                 0.0000
     25 ****        -4.2768   3.5389   2.8758 H              1 S1                 0.0000
     26 ****        -3.5424   4.2878   0.6473 H              1 S1                 0.0000
     27 ****        -4.5816   2.4031  -0.6784 H              1 S1                 0.0000
     28 ****        -2.9747   2.8613  -1.1715 H              1 S1                 0.0000
     29 ****        -3.6785   0.4202   0.5397 H              1 S1                 0.0000
     30 ****        -3.1336   0.4265  -1.1234 H              1 S1                 0.0000
     31 ****        -1.3741  -0.9285   1.2746 H              1 S1                 0.0000
     32 ****        -1.5306  -1.0631  -0.4562 H              1 S1                 0.0000
     33 ****         0.9229   0.1818   0.8783 H              1 S1                 0.0000
     34 ****         0.4360  -0.6523  -1.7706 H              1 S1                 0.0000
     35 ****         0.7799  -2.2670   1.3617 H              1 S1                 0.0000
     36 ****         0.5667  -2.6046  -0.3401 H              1 S1                 0.0000
     37 ****         3.1092  -1.1921   2.0751 H              1 S1                 0.0000
     38 ****         6.5994  -2.4485  -1.1994 H              1 S1                 0.0000
     39 ****         1.7968  -3.0114  -2.4363 H              1 S1                 0.0000
     40 ****        -2.0236   1.1755   2.3570 H              1 S1                 0.0000
     41 ****        -0.4166   1.6558   1.8703 H              1 S1                 0.0000
     42 ****        -1.2541   3.6342   0.7041 H              1 S1                 0.0000
     43 ****        -1.7959   3.6604   2.3599 H              1 S1                 0.0000
     44 ****        -1.1017   1.4126  -0.4151 H              1 S1                 0.0000
     45 ****         1.7584   0.0500  -1.2347 LP             1 S1                 0.0000
     46 ****         0.3434   0.8628  -1.2961 LP             1 S1                 0.0000
     47 ****         5.4882  -1.4746   1.2787 LP             1 S1                 0.0000
@<TRIPOS>BOND
    1    1    2 1     
    2    1   23 1     
    3    1   24 1     
    4    1   25 1     
    5    2   22 1     
    6    2    3 1     
    7    2   26 1     
    8    3    4 1     
    9    3   27 1     
   10    3   28 1     
   11    4    5 1     
   12    4   29 1     
   13    4   30 1     
   14    5    6 1     
   15    5   21 1     
   16    5   44 1     
   17    6    7 1     
   18    6   31 1     
   19    6   32 1     
   20    7    8 1     
   21    7    9 1     
   22    7   33 1     
   23    8   34 1     
   24    9   10 1     
   25    9   35 1     
   26    9   36 1     
   27   10   20 1     
   28   10   11 1     
   29   11   12 2     
   30   11   37 1     
   31   12   13 1     
   32   13   20 ar    
   33   13   14 ar    
   34   14   15 ar    
   35   14   38 1     
   36   15   16 1     
   37   15   17 ar    
   38   17   18 1     
   39   17   19 ar    
   40   19   20 ar    
   41   19   39 1     
   42   21   22 1     
   43   21   40 1     
   44   21   41 1     
   45   22   42 1     
   46   22   43 1     
   47    8   45 1     
   48    8   46 1     
   49   12   47 1     
@<TRIPOS>SUBSTRUCTURE
      1 S1             1
@<TRIPOS>SET
LONE_PAIRS      STATIC     ATOMS    <user>   **** ""
3 45 46 47
DONOR_HYDROGENS      STATIC     ATOMS    <user>   **** ""
2 44 34
ATOM$BLUE        STATIC     ATOMS    COLORGROUP SYSTEM
3 45 46 47
ATOM$RED        STATIC     ATOMS    COLORGROUP SYSTEM
2 44 34
