#       Name:                AV-unprocessed.smi:34
#       Creating user name   scv26
#       Creation time:       Thu Mar 26 15:56:03 2020


#       File generated by GOLD software.
#

@<TRIPOS>MOLECULE
AV-unprocessed.smi:34
    66    70     1
SMALL
NO_CHARGES


@<TRIPOS>ATOM
      1 ****        -5.4159   2.1645  -2.6437 O.2            1 S1                 0.0000
      2 ****        -5.1337   1.3282  -1.7850 C.2            1 S1                 0.0000
      3 ****        -3.7647   1.0735  -1.3732 N.am           1 S1                 0.0000
      4 ****        -2.6262   1.5955  -1.8861 C.ar           1 S1                 0.0000
      5 ****        -2.6248   2.4374  -2.9535 N.ar           1 S1                 0.0000
      6 ****        -1.4731   2.9228  -3.4270 C.ar           1 S1                 0.0000
      7 ****        -0.2308   2.6954  -2.9940 N.ar           1 S1                 0.0000
      8 ****        -0.2261   1.8482  -1.9248 C.ar           1 S1                 0.0000
      9 ****        -1.3699   1.2622  -1.3164 C.ar           1 S1                 0.0000
     10 ****        -0.9760   0.4607  -0.2526 N.2            1 S1                 0.0000
     11 ****         0.3256   0.5727  -0.2360 C.2            1 S1                 0.0000
     12 ****         0.8603   1.3796  -1.2199 N.pl3          1 S1                 0.0000
     13 ****         2.2896   1.7325  -1.4935 C.3            1 S1                 0.0000
     14 ****         3.0760   1.1603  -0.4901 O.3            1 S1                 0.0000
     15 ****         3.5946  -0.0777  -0.9636 C.3            1 S1                 0.0000
     16 ****         4.7667  -0.5506  -0.0971 C.3            1 S1                 0.0000
     17 ****         4.2486  -1.0375   1.1297 O.3            1 S1                 0.0000
     18 ****         5.0822  -1.4804   2.0891 C.2            1 S1                 0.0000
     19 ****         6.3088  -1.5065   1.9692 O.2            1 S1                 0.0000
     20 ****         4.3632  -1.9384   3.3130 C.ar           1 S1                 0.0000
     21 ****         5.1049  -2.4597   4.3988 C.ar           1 S1                 0.0000
     22 ****         4.4532  -2.8996   5.5673 C.ar           1 S1                 0.0000
     23 ****         3.0517  -2.8220   5.6651 C.ar           1 S1                 0.0000
     24 ****         2.3023  -2.3045   4.5925 C.ar           1 S1                 0.0000
     25 ****         2.9521  -1.8654   3.4225 C.ar           1 S1                 0.0000
     26 ****         3.9597   0.2844  -2.4004 C.3            1 S1                 0.0000
     27 ****         5.0601   1.0427  -2.3859 F              1 S1                 0.0000
     28 ****         2.7401   1.0942  -2.8226 C.3            1 S1                 0.0000
     29 ****         3.0611   2.0367  -3.8256 O.3            1 S1                 0.0000
     30 ****        -6.1948   0.5762  -1.0360 C.ar           1 S1                 0.0000
     31 ****        -7.4699   1.1543  -0.8449 C.ar           1 S1                 0.0000
     32 ****        -8.4759   0.4495  -0.1556 C.ar           1 S1                 0.0000
     33 ****        -8.2182  -0.8422   0.3410 C.ar           1 S1                 0.0000
     34 ****        -6.9549  -1.4307   0.1439 C.ar           1 S1                 0.0000
     35 ****        -5.9477  -0.7267  -0.5447 C.ar           1 S1                 0.0000
     36 ****        -3.6466   0.4133  -0.6188 H              1 S1                 0.0000
     37 ****        -1.5597   3.5872  -4.2741 H              1 S1                 0.0000
     38 ****         0.9286   0.0618   0.5008 H              1 S1                 0.0000
     39 ****         2.3258   2.8222  -1.4631 H              1 S1                 0.0000
     40 ****         2.8067  -0.8335  -0.9712 H              1 S1                 0.0000
     41 ****         5.3024  -1.3554  -0.6022 H              1 S1                 0.0000
     42 ****         5.4733   0.2619   0.0775 H              1 S1                 0.0000
     43 ****         6.1822  -2.5280   4.3473 H              1 S1                 0.0000
     44 ****         5.0302  -3.2966   6.3894 H              1 S1                 0.0000
     45 ****         2.5521  -3.1588   6.5616 H              1 S1                 0.0000
     46 ****         1.2265  -2.2443   4.6667 H              1 S1                 0.0000
     47 ****         2.3464  -1.4725   2.6189 H              1 S1                 0.0000
     48 ****         4.1513  -0.5800  -3.0366 H              1 S1                 0.0000
     49 ****         1.9646   0.4211  -3.1925 H              1 S1                 0.0000
     50 ****         2.2827   2.5336  -4.0281 H              1 S1                 0.0000
     51 ****        -7.6836   2.1446  -1.2207 H              1 S1                 0.0000
     52 ****        -9.4464   0.9003  -0.0088 H              1 S1                 0.0000
     53 ****        -8.9901  -1.3822   0.8689 H              1 S1                 0.0000
     54 ****        -6.7586  -2.4244   0.5189 H              1 S1                 0.0000
     55 ****        -4.9885  -1.2008  -0.6938 H              1 S1                 0.0000
     56 ****        -4.6905   2.6950  -3.0825 LP             1 S1                 0.0000
     57 ****        -6.3703   2.3132  -2.9023 LP             1 S1                 0.0000
     58 ****        -3.4889   2.6945  -3.3861 LP             1 S1                 0.0000
     59 ****         0.5907   3.0948  -3.4011 LP             1 S1                 0.0000
     60 ****        -1.5551  -0.0779   0.3594 LP             1 S1                 0.0000
     61 ****         2.5182   1.0015   0.3245 LP             1 S1                 0.0000
     62 ****         3.8307   1.7758  -0.2625 LP             1 S1                 0.0000
     63 ****         6.7354  -1.1870   1.1231 LP             1 S1                 0.0000
     64 ****         6.8773  -1.8472   2.7181 LP             1 S1                 0.0000
     65 ****         3.3815   1.5618  -4.6453 LP             1 S1                 0.0000
     66 ****         3.7775   2.6511  -3.4949 LP             1 S1                 0.0000
@<TRIPOS>BOND
    1    1    2 2     
    2    2    3 am    
    3    2   30 1     
    4    3    4 1     
    5    3   36 1     
    6    4    9 ar    
    7    4    5 ar    
    8    5    6 ar    
    9    6    7 ar    
   10    6   37 1     
   11    7    8 ar    
   12    8   12 1     
   13    8    9 ar    
   14    9   10 1     
   15   10   11 2     
   16   11   12 1     
   17   11   38 1     
   18   12   13 1     
   19   13   28 1     
   20   13   14 1     
   21   13   39 1     
   22   14   15 1     
   23   15   16 1     
   24   15   26 1     
   25   15   40 1     
   26   16   17 1     
   27   16   41 1     
   28   16   42 1     
   29   17   18 1     
   30   18   19 2     
   31   18   20 1     
   32   20   25 ar    
   33   20   21 ar    
   34   21   22 ar    
   35   21   43 1     
   36   22   23 ar    
   37   22   44 1     
   38   23   24 ar    
   39   23   45 1     
   40   24   25 ar    
   41   24   46 1     
   42   25   47 1     
   43   26   27 1     
   44   26   28 1     
   45   26   48 1     
   46   28   29 1     
   47   28   49 1     
   48   29   50 1     
   49   30   35 ar    
   50   30   31 ar    
   51   31   32 ar    
   52   31   51 1     
   53   32   33 ar    
   54   32   52 1     
   55   33   34 ar    
   56   33   53 1     
   57   34   35 ar    
   58   34   54 1     
   59   35   55 1     
   60    1   56 1     
   61    1   57 1     
   62    5   58 1     
   63    7   59 1     
   64   10   60 1     
   65   14   61 1     
   66   14   62 1     
   67   19   63 1     
   68   19   64 1     
   69   29   65 1     
   70   29   66 1     
@<TRIPOS>SUBSTRUCTURE
      1 S1             1
@<TRIPOS>SET
LONE_PAIRS      STATIC     ATOMS    <user>   **** ""
11 56 57 58 59 60 61 62 63 64 65 66
DONOR_HYDROGENS      STATIC     ATOMS    <user>   **** ""
2 36 50
ATOM$BLUE        STATIC     ATOMS    COLORGROUP SYSTEM
11 56 57 58 59 60 61 62 63 64 65 66
ATOM$RED        STATIC     ATOMS    COLORGROUP SYSTEM
2 36 50
