AV-unprocessed.smi:2607|AV-procd|sdf|10198|dock10
  -GOLD-   2272014213D 1   1.00000     0.00000
 Structure written by MMmdl.
 22 23  0  0  0  0  0  0  0  0  1 V2000
  147.6513  137.1395  154.9753 C   0  0  0  0  0  0  0  0  0  0  0  0
  147.6494  138.4541  154.1712 C   0  0  1  0  0  0  0  0  0  0  0  0
  148.6790  139.4594  154.7122 C   0  0  0  0  0  0  0  0  0  0  0  0
  150.0775  139.2519  154.5995 C   0  0  0  0  0  0  0  0  0  0  0  0
  150.9769  140.1393  155.0797 N   0  0  0  0  0  0  0  0  0  0  0  0
  150.4794  141.2423  155.6799 C   0  0  0  0  0  0  0  0  0  0  0  0
  149.0913  141.4563  155.8018 C   0  0  0  0  0  0  0  0  0  0  0  0
  148.1924  140.5691  155.3226 N   0  0  0  0  0  0  0  0  0  0  0  0
  147.8210  138.1640  152.7527 N   0  0  0  0  0  0  0  0  0  0  0  0
  146.7990  138.5897  151.9991 C   0  0  0  0  0  0  0  0  0  0  0  0
  146.7144  138.4964  150.7771 O   0  0  0  0  0  0  0  0  0  0  0  0
  145.8848  139.1223  152.8135 N   0  0  0  0  0  0  0  0  0  0  0  0
  146.2530  139.0727  154.0924 C   0  0  0  0  0  0  0  0  0  0  0  0
  145.5861  139.4444  155.0571 O   0  0  0  0  0  0  0  0  0  0  0  0
  147.4489  137.3158  156.0324 H   0  0  0  0  0  0  0  0  0  0  0  0
  148.6183  136.6403  154.9054 H   0  0  0  0  0  0  0  0  0  0  0  0
  146.8950  136.4429  154.6102 H   0  0  0  0  0  0  0  0  0  0  0  0
  150.4917  138.3750  154.1253 H   0  0  0  0  0  0  0  0  0  0  0  0
  151.1912  141.9568  156.0659 H   0  0  0  0  0  0  0  0  0  0  0  0
  148.7012  142.3399  156.2846 H   0  0  0  0  0  0  0  0  0  0  0  0
  148.6482  137.7172  152.3846 H   0  0  0  0  0  0  0  0  0  0  0  0
  145.0040  139.5010  152.4975 H   0  0  0  0  0  0  0  0  0  0  0  0
  1  2  1  0  0  0  0
  1 15  1  0  0  0  0
  1 16  1  0  0  0  0
  1 17  1  0  0  0  0
  2 13  1  0  0  0  0
  2  3  1  0  0  0  0
  2  9  1  0  0  0  0
  3  8  1  0  0  0  0
  3  4  2  0  0  0  0
  4  5  1  0  0  0  0
  4 18  1  0  0  0  0
  5  6  2  0  0  0  0
  6  7  1  0  0  0  0
  6 19  1  0  0  0  0
  7  8  2  0  0  0  0
  7 20  1  0  0  0  0
  9 10  1  0  0  0  0
  9 21  1  0  0  0  0
 10 11  2  0  0  0  0
 10 12  1  0  0  0  0
 12 13  1  0  0  0  0
 12 22  1  0  0  0  0
 13 14  2  0  0  0  0
M  END
> <s_m_source_file>
AV-unprocessed.smi

> <i_m_source_file_index>
2607

> <i_lp_mmshare_version>
43012

> <i_f3d_flags>
0

> <s_epik_input>
Tz1DMVtOSF1DKD1PKVtOSF1bQ0BAXTEoW0NIM10pYzJbY0hdbltjSF1bY0hdbjI=

> <s_epik_cmdline>
J2VwaWtfcHl0aG9uJywgJy1waCcsICc3LjAnLCAnLXRuJywgJzgnLCAnLW1hJywgJzIwMCcsICctbWV0YWxfYmluZGluZycsICctaW1hZScsICc8aW5maWxlLm1hZT4nLCAnLW9tYWUnLCAnPG91dGZpbGUubWFlPic=

> <r_lp_tautomer_probability>
1

> <r_epik_Ionization_Penalty>
0.0333762

> <r_epik_Ionization_Penalty_Charging>
0

> <r_epik_Ionization_Penalty_Neutral>
0.0333762

> <r_epik_State_Penalty>
0.027503

> <r_epik_Charging_Adjusted_Penalty>
0.027503

> <i_epik_Tot_Q>
0

> <i_epik_Tot_abs_Q>
0

> <r_epik_Metal_State_Penalty>
0.445281

> <b_epik_Metal_Only>
0

> <s_lp_Force_Field>
OPLS_2005

> <r_lp_Energy>
24.1998

> <b_lp_Chiralities_Consistent>
1

> <s_lp_Variant>
AV-unprocessed.smi:2607-1

> <Gold.Version>
5.8.1

> <Gold.Id.Protein>
6NUR|6NUR_protein|mol2

> <Gold.PLP.Fitness>
31.7813

> <Gold.PLP.PLP>
-18.2844

> <Gold.PLP.part.hbond>
-4.5429

> <Gold.PLP.part.metal>
0.0000

> <Gold.PLP.part.buried>
-3.1853

> <Gold.PLP.part.nonpolar>
-13.3169

> <Gold.PLP.part.repulsive>
1.5214

> <Gold.PLP.ligand.clash>
0.0000

> <Gold.PLP.ligand.torsion>
0.2824

> <Gold.PLP.Chemscore.Hbond>
3.6480

> <Gold.PLP.Chemscore.CHOScore>
1.0000

> <Gold.PLP.Chemscore.Metal>
0.0000

> <Gold.Chemscore.Hbonds>
donor molecule, donor type, donor heavy atom, donor atom, acceptor molecule, acceptor atom, score
      L1  H     9    21       P1  7948  0.69
      L1  H    12    22       P1 10175  1.00
      P1  H  7954  7966       L1    11  0.94
      P1  H  7989  7998       L1     5  1.00
      L1  C     7    20       P1  8028  1.00

> <Gold.PLP.Chemscore.Internal.Correction>
0.1176

> <Gold.Rescore>
     Score         DG    S(hbond)    S(metal)    S(lipo)     H(rot)  DE(clash)    DE(int)     intcor
     13.90     -16.20       3.01        0.00      27.67       1.00       0.13       2.17       ----

> <Gold.Chemscore.Fitness>
13.9037

> <Gold.Chemscore.DG>
-16.1966

> <Gold.Chemscore.ZeroCoef>
-5.4800

> <Gold.Chemscore.Hbond>
3.0056

> <Gold.Chemscore.Metal>
0.0000

> <Gold.Chemscore.Lipo>
27.6730

> <Gold.Chemscore.Internal_Hbond>
0.0000

> <Gold.Chemscore.DEClash>
0.1263

> <Gold.Chemscore.DEInternal>
2.1666

> <Gold.Chemscore.Rot>
1.0000

> <Gold.Chemscore.Internal.Correction>
   9.000000E+99

> <Gold.Chemscore.Hbonds>
donor molecule, donor type, donor heavy atom, donor atom, acceptor molecule, acceptor atom, score
      L1  H     9    21       P1  7948  0.68
      L1  H    12    22       P1 10175  0.99
      P1  H  7954  7966       L1    11  0.87
      P1  H  7989  7998       L1     5  0.09

> <Gold.Chemscore.Hbond.Weighted>
-10.0388

> <Gold.Chemscore.Metal.Weighted>
-0.0000

> <Gold.Chemscore.Lipo.Weighted>
-3.2377

> <Gold.Chemscore.Internal_Hbond.Weighted>
0.0000

> <Gold.Chemscore.DEClash.Weighted>
0.1263

> <Gold.Chemscore.DEInternal.Weighted>
2.1666

> <Gold.Chemscore.Rot.Weighted>
2.5600

> <Gold.Chemscore.Internal.Correction.Weighted>
   9.000000E+99

> <Gold.Protein.RotatedTorsions>
[ 6907 6896 6895 6894 ] final -139.62 input  -60.11 | X-H torsion
[ 7974 7965 7964 7962 ] final  158.78 input  175.53 | X-H torsion
[ 8008 7997 7996 7995 ] final  -25.48 input   59.86 | X-H torsion
[ 10167 10162 10161 10158 ] final  124.32 input  -65.29 | X-H torsion
[ 10718 10713 10712 10709 ] final -165.81 input   66.30 | X-H torsion
[ 10763 10752 10751 10750 ] final  114.56 input  -60.55 | X-H torsion
[ 11005 11000 10999 10996 ] final    2.97 input  -57.11 | X-H torsion

> <Gold.Protein.ActiveResidues>
 VAL166  LYS551  ARG553  GLY616  TRP617  ASP618  TYR619  PRO620  LYS621  CYS622 
 ASP623  PHE694  ASN695  SER759  ASP760  ASP761  ALA762  ILE779  LEU786  VAL792 
 PHE793  MET794  SER795  GLU796  ALA797  LYS798  CYS799  TRP800  GLU811  SER814 

> <Gold.Protein.RotatedAtoms>
  151.0502  133.5631  159.2642 H   0  0  0  0  0  0  0  0  0  0  0  0  # atno 6907 bound_to 6896
  151.2645  135.0664  159.9120 H   0  0  0  0  0  0  0  0  0  0  0  0  # atno 6908 bound_to 6896
  152.5380  134.0242  159.8049 H   0  0  0  0  0  0  0  0  0  0  0  0  # atno 6909 bound_to 6896
  144.7827  139.7525  143.6253 H   0  0  0  0  0  0  0  0  0  0  0  0  # atno 7974 bound_to 7965
  154.4474  140.1925  156.0626 H   0  0  0  0  0  0  0  0  0  0  0  0  # atno 8008 bound_to 7997
  156.0571  140.3301  155.7391 H   0  0  0  0  0  0  0  0  0  0  0  0  # atno 8009 bound_to 7997
  155.5468  140.0591  157.2849 H   0  0  0  0  0  0  0  0  0  0  0  0  # atno 8010 bound_to 7997
  139.5748  144.6958  151.3681 H   0  0  0  0  0  0  0  0  0  0  0  0  # atno 10167 bound_to 10162
  156.6587  130.9037  151.3025 H   0  0  0  0  0  0  0  0  0  0  0  0  # atno 10718 bound_to 10713
  153.5091  135.3622  155.2577 H   0  0  0  0  0  0  0  0  0  0  0  0  # atno 10763 bound_to 10752
  154.8743  135.4018  154.3390 H   0  0  0  0  0  0  0  0  0  0  0  0  # atno 10764 bound_to 10752
  153.4040  135.7076  153.6473 H   0  0  0  0  0  0  0  0  0  0  0  0  # atno 10765 bound_to 10752
  140.5983  133.9859  155.8120 H   0  0  0  0  0  0  0  0  0  0  0  0  # atno 11005 bound_to 11000
  146.2043  139.5357  142.9723 LP  0  0  0  0  0  0  0  0  0  0  0  0  # atno 17320 bound_to 7965
  145.6007  141.0355  143.2020 LP  0  0  0  0  0  0  0  0  0  0  0  0  # atno 17321 bound_to 7965
  140.7032  143.7581  150.7437 LP  0  0  0  0  0  0  0  0  0  0  0  0  # atno 17342 bound_to 10162
  140.1097  143.4710  152.2377 LP  0  0  0  0  0  0  0  0  0  0  0  0  # atno 17343 bound_to 10162
  157.7117  130.9448  150.1111 LP  0  0  0  0  0  0  0  0  0  0  0  0  # atno 17370 bound_to 10713
  156.2027  130.3661  149.8768 LP  0  0  0  0  0  0  0  0  0  0  0  0  # atno 17371 bound_to 10713
  141.0889  133.9948  157.3269 LP  0  0  0  0  0  0  0  0  0  0  0  0  # atno 17394 bound_to 11000
  139.9243  135.0201  156.8179 LP  0  0  0  0  0  0  0  0  0  0  0  0  # atno 17395 bound_to 11000

$$$$
