AV-unprocessed.smi:3015|AV-procd|sdf|11473|dock3
  -GOLD-   2272016413D 1   1.00000     0.00000
 Structure written by MMmdl.
 23 23  0  0  0  0  0  0  0  0  1 V2000
  151.4829  140.3895  155.3303 N   0  0  0  0  0  0  0  0  0  0  0  0
  150.3886  141.3090  155.6845 C   0  0  1  0  0  0  0  0  0  0  0  0
  149.1282  140.9926  154.8588 C   0  0  0  0  0  0  0  0  0  0  0  0
  149.3581  141.2073  153.4821 O   0  0  0  0  0  0  0  0  0  0  0  0
  150.1047  141.2806  157.2014 C   0  0  0  0  0  0  0  0  0  0  0  0
  151.1408  142.0379  158.0131 C   0  0  0  0  0  0  0  0  0  0  0  0
  151.8689  141.4011  159.0393 C   0  0  0  0  0  0  0  0  0  0  0  0
  152.8178  142.1488  159.7628 C   0  0  0  0  0  0  0  0  0  0  0  0
  152.9992  143.5054  159.4277 C   0  0  0  0  0  0  0  0  0  0  0  0
  152.3084  144.1259  158.4470 N   0  0  0  0  0  0  0  0  0  0  0  0
  151.4001  143.4014  157.7585 C   0  0  0  0  0  0  0  0  0  0  0  0
  152.2804  140.5317  155.9485 H   0  0  0  0  0  0  0  0  0  0  0  0
  151.1857  139.4224  155.4505 H   0  0  0  0  0  0  0  0  0  0  0  0
  150.7001  142.3206  155.4209 H   0  0  0  0  0  0  0  0  0  0  0  0
  148.8386  139.9496  154.9923 H   0  0  0  0  0  0  0  0  0  0  0  0
  148.2857  141.6046  155.1828 H   0  0  0  0  0  0  0  0  0  0  0  0
  149.2932  140.3781  153.0334 H   0  0  0  0  0  0  0  0  0  0  0  0
  149.1315  141.7247  157.4129 H   0  0  0  0  0  0  0  0  0  0  0  0
  150.0479  140.2501  157.5551 H   0  0  0  0  0  0  0  0  0  0  0  0
  151.7061  140.3580  159.2680 H   0  0  0  0  0  0  0  0  0  0  0  0
  153.3930  141.6939  160.5555 H   0  0  0  0  0  0  0  0  0  0  0  0
  153.7179  144.1084  159.9626 H   0  0  0  0  0  0  0  0  0  0  0  0
  150.8646  143.9261  156.9809 H   0  0  0  0  0  0  0  0  0  0  0  0
  1  2  1  0  0  0  0
  1 12  1  0  0  0  0
  1 13  1  0  0  0  0
  2  3  1  0  0  0  0
  2  5  1  0  0  0  0
  2 14  1  0  0  0  0
  3  4  1  0  0  0  0
  3 15  1  0  0  0  0
  3 16  1  0  0  0  0
  4 17  1  0  0  0  0
  5  6  1  0  0  0  0
  5 18  1  0  0  0  0
  5 19  1  0  0  0  0
  6 11  1  0  0  0  0
  6  7  2  0  0  0  0
  7  8  1  0  0  0  0
  7 20  1  0  0  0  0
  8  9  2  0  0  0  0
  8 21  1  0  0  0  0
  9 10  1  0  0  0  0
  9 22  1  0  0  0  0
 10 11  2  0  0  0  0
 11 23  1  0  0  0  0
M  END
> <s_m_source_file>
AV-unprocessed.smi

> <i_m_source_file_index>
3015

> <i_lp_mmshare_version>
43012

> <i_f3d_flags>
0

> <s_epik_input>
W09IXVtDSDJdW0NAQEhdKFtOSDJdKVtDSDJdYzFbY0hdW2NIXVtjSF1uW2NIXTE=

> <s_epik_cmdline>
J2VwaWtfcHl0aG9uJywgJy1waCcsICc3LjAnLCAnLXRuJywgJzgnLCAnLW1hJywgJzIwMCcsICctbWV0YWxfYmluZGluZycsICctaW1hZScsICc8aW5maWxlLm1hZT4nLCAnLW9tYWUnLCAnPG91dGZpbGUubWFlPic=

> <r_epik_Ionization_Penalty>
2.0687

> <r_epik_Ionization_Penalty_Charging>
0

> <r_epik_Ionization_Penalty_Neutral>
2.0687

> <r_epik_State_Penalty>
2.52199

> <r_epik_Charging_Adjusted_Penalty>
2.52199

> <i_epik_Tot_Q>
0

> <i_epik_Tot_abs_Q>
0

> <r_epik_Metal_State_Penalty>
2.50694

> <b_epik_Metal_Only>
0

> <s_lp_Force_Field>
OPLS_2005

> <r_lp_Energy>
7.66909

> <b_lp_Chiralities_Consistent>
1

> <s_lp_Variant>
AV-unprocessed.smi:3015-4

> <Gold.Version>
5.8.1

> <Gold.Id.Protein>
6NUR|6NUR_protein|mol2

> <Gold.PLP.Fitness>
37.8810

> <Gold.PLP.PLP>
-27.7972

> <Gold.PLP.part.hbond>
-4.0000

> <Gold.PLP.part.metal>
0.0000

> <Gold.PLP.part.buried>
-3.8934

> <Gold.PLP.part.nonpolar>
-19.6559

> <Gold.PLP.part.repulsive>
0.0262

> <Gold.PLP.ligand.clash>
0.0000

> <Gold.PLP.ligand.torsion>
0.1865

> <Gold.PLP.Chemscore.Hbond>
2.4800

> <Gold.PLP.Chemscore.CHOScore>
1.0000

> <Gold.PLP.Chemscore.Metal>
0.0000

> <Gold.Chemscore.Hbonds>
donor molecule, donor type, donor heavy atom, donor atom, acceptor molecule, acceptor atom, score
      L1  H     4    17       P1  7957  0.53
      P1  H  7989  7998       L1     1  0.81
      P1  H  8011  8017       L1     4  1.00
      L1  C    11    23       P1  8028  1.00

> <Gold.PLP.Chemscore.Internal.Correction>
0.0168

> <Gold.Rescore>
     Score         DG    S(hbond)    S(metal)    S(lipo)     H(rot)  DE(clash)    DE(int)     intcor
     13.64     -13.78       1.65        0.00      69.14       2.08       0.00       0.13       ----

> <Gold.Chemscore.Fitness>
13.6412

> <Gold.Chemscore.DG>
-13.7765

> <Gold.Chemscore.ZeroCoef>
-5.4800

> <Gold.Chemscore.Hbond>
1.6546

> <Gold.Chemscore.Metal>
0.0000

> <Gold.Chemscore.Lipo>
69.1410

> <Gold.Chemscore.Internal_Hbond>
0.0000

> <Gold.Chemscore.DEClash>
0.0021

> <Gold.Chemscore.DEInternal>
0.1331

> <Gold.Chemscore.Rot>
2.0778

> <Gold.Chemscore.Internal.Correction>
   9.000000E+99

> <Gold.Chemscore.Hbonds>
donor molecule, donor type, donor heavy atom, donor atom, acceptor molecule, acceptor atom, score
      L1  H     4    17       P1  7957  0.54
      P1  H  7989  7998       L1     1  0.13
      P1  H  8011  8017       L1     4  0.62

> <Gold.Chemscore.Hbond.Weighted>
-5.5262

> <Gold.Chemscore.Metal.Weighted>
-0.0000

> <Gold.Chemscore.Lipo.Weighted>
-8.0895

> <Gold.Chemscore.Internal_Hbond.Weighted>
0.0000

> <Gold.Chemscore.DEClash.Weighted>
0.0021

> <Gold.Chemscore.DEInternal.Weighted>
0.1331

> <Gold.Chemscore.Rot.Weighted>
5.3193

> <Gold.Chemscore.Internal.Correction.Weighted>
   9.000000E+99

> <Gold.Protein.RotatedTorsions>
[ 6907 6896 6895 6894 ] final -148.67 input  -60.11 | X-H torsion
[ 7974 7965 7964 7962 ] final  120.38 input  175.53 | X-H torsion
[ 8008 7997 7996 7995 ] final  139.64 input   59.86 | X-H torsion
[ 10167 10162 10161 10158 ] final  -61.44 input  -65.29 | X-H torsion
[ 10718 10713 10712 10709 ] final  -85.87 input   66.30 | X-H torsion
[ 10763 10752 10751 10750 ] final  143.57 input  -60.55 | X-H torsion
[ 11005 11000 10999 10996 ] final -124.21 input  -57.11 | X-H torsion

> <Gold.Protein.ActiveResidues>
 VAL166  LYS551  ARG553  GLY616  TRP617  ASP618  TYR619  PRO620  LYS621  CYS622 
 ASP623  PHE694  ASN695  SER759  ASP760  ASP761  ALA762  ILE779  LEU786  VAL792 
 PHE793  MET794  SER795  GLU796  ALA797  LYS798  CYS799  TRP800  GLU811  SER814 

> <Gold.Protein.RotatedAtoms>
  151.1732  133.4771  159.2593 H   0  0  0  0  0  0  0  0  0  0  0  0  # atno 6907 bound_to 6896
  151.1335  135.0142  159.8603 H   0  0  0  0  0  0  0  0  0  0  0  0  # atno 6908 bound_to 6896
  152.5460  134.1633  159.8619 H   0  0  0  0  0  0  0  0  0  0  0  0  # atno 6909 bound_to 6896
  145.1319  139.3322  143.4661 H   0  0  0  0  0  0  0  0  0  0  0  0  # atno 7974 bound_to 7965
  156.2987  140.2362  156.4271 H   0  0  0  0  0  0  0  0  0  0  0  0  # atno 8008 bound_to 7997
  154.8303  140.0433  157.1493 H   0  0  0  0  0  0  0  0  0  0  0  0  # atno 8009 bound_to 7997
  154.9215  140.3004  155.5217 H   0  0  0  0  0  0  0  0  0  0  0  0  # atno 8010 bound_to 7997
  140.6006  143.2360  151.5938 H   0  0  0  0  0  0  0  0  0  0  0  0  # atno 10167 bound_to 10162
  155.9993  130.4745  150.4628 H   0  0  0  0  0  0  0  0  0  0  0  0  # atno 10718 bound_to 10713
  153.9746  135.2947  155.3425 H   0  0  0  0  0  0  0  0  0  0  0  0  # atno 10763 bound_to 10752
  154.7303  135.5070  153.8956 H   0  0  0  0  0  0  0  0  0  0  0  0  # atno 10764 bound_to 10752
  153.0884  135.6700  154.0017 H   0  0  0  0  0  0  0  0  0  0  0  0  # atno 10765 bound_to 10752
  140.9859  134.0608  157.3711 H   0  0  0  0  0  0  0  0  0  0  0  0  # atno 11005 bound_to 11000
  146.3513  140.1321  142.8597 LP  0  0  0  0  0  0  0  0  0  0  0  0  # atno 17320 bound_to 7965
  145.0626  140.9099  143.4929 LP  0  0  0  0  0  0  0  0  0  0  0  0  # atno 17321 bound_to 7965
  139.5288  144.2978  152.1099 LP  0  0  0  0  0  0  0  0  0  0  0  0  # atno 17342 bound_to 10162
  140.2158  144.4517  150.6364 LP  0  0  0  0  0  0  0  0  0  0  0  0  # atno 17343 bound_to 10162
  157.2650  131.0575  151.2296 LP  0  0  0  0  0  0  0  0  0  0  0  0  # atno 17370 bound_to 10713
  157.3397  130.7027  149.6374 LP  0  0  0  0  0  0  0  0  0  0  0  0  # atno 17371 bound_to 10713
  139.8970  135.0148  156.7080 LP  0  0  0  0  0  0  0  0  0  0  0  0  # atno 17394 bound_to 11000
  140.7115  133.9219  155.8087 LP  0  0  0  0  0  0  0  0  0  0  0  0  # atno 17395 bound_to 11000

$$$$
