#       Name:                AV-unprocessed.smi:1582
#       Creating user name   scv26
#       Creation time:       Fri Mar 27 06:58:35 2020


#       File generated by GOLD software.
#

@<TRIPOS>MOLECULE
AV-unprocessed.smi:1582
    46    47     1
SMALL
NO_CHARGES


@<TRIPOS>ATOM
      1 ****        -2.3898   1.2854  -2.0135 O.2            1 S1                 0.0000
      2 ****        -2.6005   1.6518  -0.8573 C.2            1 S1                 0.0000
      3 ****        -2.3762   0.8801   0.2154 N.am           1 S1                 0.0000
      4 ****        -1.8890  -0.4949   0.1731 C.3            1 S1                 0.0000
      5 ****        -0.3498  -0.5649   0.0891 C.3            1 S1                 0.0000
      6 ****         0.0269  -0.4932  -1.2722 O.3            1 S1                 0.0000
      7 ****         0.1846  -1.9057   0.6347 C.3            1 S1                 0.0000
      8 ****         1.6681  -1.9883   0.6058 N.4            1 S1                 1.0000
      9 ****         2.1518  -3.3927   0.5513 C.3            1 S1                 0.0000
     10 ****         3.6787  -3.4508   0.3774 C.3            1 S1                 0.0000
     11 ****         4.3886  -2.6740   1.4932 C.3            1 S1                 0.0000
     12 ****         3.8537  -1.2375   1.5501 C.3            1 S1                 0.0000
     13 ****         2.3233  -1.2249   1.7021 C.3            1 S1                 0.0000
     14 ****        -3.0757   2.8568  -0.5026 N.am           1 S1                 0.0000
     15 ****        -3.4490   3.9214  -1.3616 C.2            1 S1                 0.0000
     16 ****        -3.9721   5.1687  -0.9243 C.2            1 S1                 0.0000
     17 ****        -4.2345   5.9688  -1.9478 N.2            1 S1                 0.0000
     18 ****        -3.8828   5.2446  -3.0342 N.pl3          1 S1                 0.0000
     19 ****        -3.3991   3.9924  -2.7256 C.2            1 S1                 0.0000
     20 ****        -3.9784   5.6143  -3.9695 H              1 S1                 0.0000
     21 ****        -2.5779   1.2642   1.1271 H              1 S1                 0.0000
     22 ****        -2.2223  -0.9542   1.1041 H              1 S1                 0.0000
     23 ****        -2.3649  -1.0638  -0.6281 H              1 S1                 0.0000
     24 ****         0.0864   0.2728   0.6331 H              1 S1                 0.0000
     25 ****        -0.3720   0.2753  -1.6540 H              1 S1                 0.0000
     26 ****        -0.1619  -2.0721   1.6559 H              1 S1                 0.0000
     27 ****        -0.2415  -2.7133   0.0368 H              1 S1                 0.0000
     28 ****         1.8549  -3.9164   1.4614 H              1 S1                 0.0000
     29 ****         1.6799  -3.9131  -0.2830 H              1 S1                 0.0000
     30 ****         4.0144  -4.4882   0.3734 H              1 S1                 0.0000
     31 ****         3.9533  -3.0330  -0.5923 H              1 S1                 0.0000
     32 ****         4.2230  -3.1688   2.4511 H              1 S1                 0.0000
     33 ****         5.4659  -2.6700   1.3246 H              1 S1                 0.0000
     34 ****         4.3158  -0.7010   2.3795 H              1 S1                 0.0000
     35 ****         4.1357  -0.7044   0.6410 H              1 S1                 0.0000
     36 ****         1.9795  -0.1914   1.7051 H              1 S1                 0.0000
     37 ****         2.0405  -1.6536   2.6649 H              1 S1                 0.0000
     38 ****        -3.1986   3.0264   0.4849 H              1 S1                 0.0000
     39 ****        -4.1673   5.5127   0.0809 H              1 S1                 0.0000
     40 ****        -3.0767   3.2944  -3.4840 H              1 S1                 0.0000
     41 ****         1.9533  -1.5611  -0.2643 H              1 S1                 0.0000
     42 ****        -2.0324   0.3683  -2.1901 LP             1 S1                 0.0000
     43 ****        -2.5760   1.9049  -2.7762 LP             1 S1                 0.0000
     44 ****        -0.2886  -1.3112  -1.7531 LP             1 S1                 0.0000
     45 ****         1.0222  -0.4275  -1.3438 LP             1 S1                 0.0000
     46 ****        -4.6074   6.8963  -1.9224 LP             1 S1                 0.0000
@<TRIPOS>BOND
    1    1    2 2     
    2    2    3 am    
    3    2   14 am    
    4    3    4 1     
    5    3   21 1     
    6    4    5 1     
    7    4   22 1     
    8    4   23 1     
    9    5    6 1     
   10    5    7 1     
   11    5   24 1     
   12    6   25 1     
   13    7    8 1     
   14    7   26 1     
   15    7   27 1     
   16    8   13 1     
   17    8    9 1     
   18    8   41 1     
   19    9   10 1     
   20    9   28 1     
   21    9   29 1     
   22   10   11 1     
   23   10   30 1     
   24   10   31 1     
   25   11   12 1     
   26   11   32 1     
   27   11   33 1     
   28   12   13 1     
   29   12   34 1     
   30   12   35 1     
   31   13   36 1     
   32   13   37 1     
   33   14   15 1     
   34   14   38 1     
   35   15   19 2     
   36   15   16 1     
   37   16   17 2     
   38   16   39 1     
   39   17   18 1     
   40   18   20 1     
   41   18   19 1     
   42   19   40 1     
   43    1   42 1     
   44    1   43 1     
   45    6   44 1     
   46    6   45 1     
   47   17   46 1     
@<TRIPOS>SUBSTRUCTURE
      1 S1             1
@<TRIPOS>SET
LONE_PAIRS      STATIC     ATOMS    <user>   **** ""
5 42 43 44 45 46
DONOR_HYDROGENS      STATIC     ATOMS    <user>   **** ""
5 21 25 41 38 20
ATOM$BLUE        STATIC     ATOMS    COLORGROUP SYSTEM
5 42 43 44 45 46
ATOM$RED        STATIC     ATOMS    COLORGROUP SYSTEM
5 21 25 41 38 20
