AV-unprocessed.smi:2101|AV-procd|sdf|8580|dock1
  -GOLD-   2272011313D 1   1.00000     0.00000
 Structure written by MMmdl.
 42 43  0  0  0  0  0  0  0  0  2 V2000
  152.8133  144.0205  159.4753 C   0  0  0  0  0  0  0  0  0  0  0  0
  152.3290  142.3584  160.0971 S   0  0  0  0  0  0  0  0  0  0  0  0
  153.5083  141.4815  160.0344 O   0  0  0  0  0  0  0  0  0  0  0  0
  151.6159  142.5321  161.3719 O   0  0  0  0  0  0  0  0  0  0  0  0
  151.1827  141.7954  158.9167 N   0  0  0  0  0  0  0  0  0  0  0  0
  150.3606  142.7809  158.1773 C   0  0  0  0  0  0  0  0  0  0  0  0
  150.8533  142.9588  156.7278 C   0  0  0  0  0  0  0  0  0  0  0  0
  150.9041  141.6411  156.0812 N   0  0  0  0  0  0  0  0  0  0  0  0
  150.0077  141.1422  155.1946 C   0  0  0  0  0  0  0  0  0  0  0  0
  150.1245  140.0346  154.6678 O   0  0  0  0  0  0  0  0  0  0  0  0
  148.9922  141.9703  154.8945 N   0  0  0  0  0  0  0  0  0  0  0  0
  147.9141  141.6668  153.9605 C   0  0  0  0  0  0  0  0  0  0  0  0
  146.5535  141.5972  154.6743 C   0  0  0  0  0  0  0  0  0  0  0  0
  145.7474  142.8685  154.4958 C   0  0  0  0  0  0  0  0  0  0  0  0
  145.7851  143.6245  153.3039 C   0  0  0  0  0  0  0  0  0  0  0  0
  145.0026  144.7943  153.2053 C   0  0  0  0  0  0  0  0  0  0  0  0
  144.2010  145.1830  154.2990 C   0  0  0  0  0  0  0  0  0  0  0  0
  144.2008  144.3900  155.4647 C   0  0  0  0  0  0  0  0  0  0  0  0
  144.9628  143.2754  155.5200 N   0  3  0  0  0  0  0  0  0  0  0  0
  151.9038  140.7994  156.7413 C   0  0  0  0  0  0  0  0  0  0  0  0
  151.4541  140.5331  158.1909 C   0  0  0  0  0  0  0  0  0  0  0  0
  153.5387  144.4600  160.1595 H   0  0  0  0  0  0  0  0  0  0  0  0
  151.9375  144.6654  159.4228 H   0  0  0  0  0  0  0  0  0  0  0  0
  153.2663  143.9282  158.4893 H   0  0  0  0  0  0  0  0  0  0  0  0
  149.3279  142.4303  158.1716 H   0  0  0  0  0  0  0  0  0  0  0  0
  150.3565  143.7396  158.6948 H   0  0  0  0  0  0  0  0  0  0  0  0
  150.2162  143.6766  156.2113 H   0  0  0  0  0  0  0  0  0  0  0  0
  151.8489  143.4027  156.7158 H   0  0  0  0  0  0  0  0  0  0  0  0
  148.9665  142.8727  155.3471 H   0  0  0  0  0  0  0  0  0  0  0  0
  147.8943  142.4446  153.1965 H   0  0  0  0  0  0  0  0  0  0  0  0
  148.1263  140.7297  153.4427 H   0  0  0  0  0  0  0  0  0  0  0  0
  145.9672  140.7590  154.2948 H   0  0  0  0  0  0  0  0  0  0  0  0
  146.7001  141.4111  155.7391 H   0  0  0  0  0  0  0  0  0  0  0  0
  146.4027  143.3127  152.4740 H   0  0  0  0  0  0  0  0  0  0  0  0
  145.0163  145.3862  152.3017 H   0  0  0  0  0  0  0  0  0  0  0  0
  143.5953  146.0758  154.2440 H   0  0  0  0  0  0  0  0  0  0  0  0
  143.6188  144.6110  156.3477 H   0  0  0  0  0  0  0  0  0  0  0  0
  152.0610  139.8537  156.2208 H   0  0  0  0  0  0  0  0  0  0  0  0
  152.8704  141.3030  156.7252 H   0  0  0  0  0  0  0  0  0  0  0  0
  152.2046  139.9442  158.7172 H   0  0  0  0  0  0  0  0  0  0  0  0
  150.5417  139.9356  158.1872 H   0  0  0  0  0  0  0  0  0  0  0  0
  144.9467  142.7157  156.3732 H   0  0  0  0  0  0  0  0  0  0  0  0
  1  2  1  0  0  0  0
  1 22  1  0  0  0  0
  1 23  1  0  0  0  0
  1 24  1  0  0  0  0
  2  3  2  0  0  0  0
  2  4  2  0  0  0  0
  2  5  1  0  0  0  0
  5 21  1  0  0  0  0
  5  6  1  0  0  0  0
  6  7  1  0  0  0  0
  6 25  1  0  0  0  0
  6 26  1  0  0  0  0
  7  8  1  0  0  0  0
  7 27  1  0  0  0  0
  7 28  1  0  0  0  0
  8  9  1  0  0  0  0
  8 20  1  0  0  0  0
  9 10  2  0  0  0  0
  9 11  1  0  0  0  0
 11 12  1  0  0  0  0
 11 29  1  0  0  0  0
 12 13  1  0  0  0  0
 12 30  1  0  0  0  0
 12 31  1  0  0  0  0
 13 14  1  0  0  0  0
 13 32  1  0  0  0  0
 13 33  1  0  0  0  0
 14 19  1  0  0  0  0
 14 15  2  0  0  0  0
 15 16  1  0  0  0  0
 15 34  1  0  0  0  0
 16 17  2  0  0  0  0
 16 35  1  0  0  0  0
 17 18  1  0  0  0  0
 17 36  1  0  0  0  0
 18 19  2  0  0  0  0
 18 37  1  0  0  0  0
 19 42  1  0  0  0  0
 20 21  1  0  0  0  0
 20 38  1  0  0  0  0
 20 39  1  0  0  0  0
 21 40  1  0  0  0  0
 21 41  1  0  0  0  0
M  CHG  1  19   1
M  END
> <s_m_source_file>
AV-unprocessed.smi

> <i_m_source_file_index>
2101

> <i_lp_mmshare_version>
43012

> <i_f3d_flags>
0

> <s_epik_input>
W0NIM11TKD1PKSg9TylOMVtDSDJdW0NIMl1OKFtDSDJdW0NIMl0xKUMoPU8pW05IXVtDSDJdW0NIMl1jMltjSF1bY0hdW2NIXVtjSF1uMg==

> <s_epik_cmdline>
J2VwaWtfcHl0aG9uJywgJy1waCcsICc3LjAnLCAnLXRuJywgJzgnLCAnLW1hJywgJzIwMCcsICctbWV0YWxfYmluZGluZycsICctaW1hZScsICc8aW5maWxlLm1hZT4nLCAnLW9tYWUnLCAnPG91dGZpbGUubWFlPic=

> <r_epik_Ionization_Penalty>
1.56137

> <r_epik_Ionization_Penalty_Charging>
1.56133

> <r_epik_Ionization_Penalty_Neutral>
3.86464e-05

> <r_epik_State_Penalty>
1.65637

> <r_epik_Charging_Adjusted_Penalty>
3.2177

> <i_epik_Tot_Q>
1

> <i_epik_Tot_abs_Q>
1

> <r_epik_Metal_State_Penalty>
1.69784

> <b_epik_Metal_Only>
0

> <s_lp_Force_Field>
OPLS_2005

> <r_lp_Energy>
29.4976

> <b_lp_Chiralities_Consistent>
1

> <s_lp_Variant>
AV-unprocessed.smi:2101-2

> <Gold.Version>
5.8.1

> <Gold.Id.Protein>
6NUR|6NUR_protein|mol2

> <Gold.PLP.Fitness>
46.9398

> <Gold.PLP.PLP>
-42.9510

> <Gold.PLP.part.hbond>
-2.9975

> <Gold.PLP.part.metal>
0.0000

> <Gold.PLP.part.buried>
-5.1997

> <Gold.PLP.part.nonpolar>
-34.6411

> <Gold.PLP.part.repulsive>
0.4049

> <Gold.PLP.ligand.clash>
0.0000

> <Gold.PLP.ligand.torsion>
1.8233

> <Gold.PLP.Chemscore.Hbond>
1.8191

> <Gold.PLP.Chemscore.CHOScore>
0.0000

> <Gold.PLP.Chemscore.Metal>
0.0000

> <Gold.Chemscore.Hbonds>
donor molecule, donor type, donor heavy atom, donor atom, acceptor molecule, acceptor atom, score
      L1  H    11    29       P1  8028  1.00
      P1  H  6933  6945       L1     4  0.51
      P1  H  7989  7998       L1    10  0.31

> <Gold.PLP.Chemscore.Internal.Correction>
2.1780

> <Gold.Rescore>
     Score         DG    S(hbond)    S(metal)    S(lipo)     H(rot)  DE(clash)    DE(int)     intcor
     15.54     -17.42       1.70        0.00      85.67       1.47       0.15       1.73       ----

> <Gold.Chemscore.Fitness>
15.5431

> <Gold.Chemscore.DG>
-17.4186

> <Gold.Chemscore.ZeroCoef>
-5.4800

> <Gold.Chemscore.Hbond>
1.7010

> <Gold.Chemscore.Metal>
0.0000

> <Gold.Chemscore.Lipo>
85.6730

> <Gold.Chemscore.Internal_Hbond>
0.0000

> <Gold.Chemscore.DEClash>
0.1465

> <Gold.Chemscore.DEInternal>
1.7290

> <Gold.Chemscore.Rot>
1.4714

> <Gold.Chemscore.Internal.Correction>
   9.000000E+99

> <Gold.Chemscore.Hbonds>
donor molecule, donor type, donor heavy atom, donor atom, acceptor molecule, acceptor atom, score
      L1  H    11    29       P1  8028  1.00
      P1  H  6933  6945       L1     4  0.52
      P1  H  7989  7998       L1    10  0.01

> <Gold.Chemscore.Hbond.Weighted>
-5.6815

> <Gold.Chemscore.Metal.Weighted>
-0.0000

> <Gold.Chemscore.Lipo.Weighted>
-10.0237

> <Gold.Chemscore.Internal_Hbond.Weighted>
0.0000

> <Gold.Chemscore.DEClash.Weighted>
0.1465

> <Gold.Chemscore.DEInternal.Weighted>
1.7290

> <Gold.Chemscore.Rot.Weighted>
3.7667

> <Gold.Chemscore.Internal.Correction.Weighted>
   9.000000E+99

> <Gold.Protein.RotatedTorsions>
[ 6907 6896 6895 6894 ] final -110.89 input  -60.11 | X-H torsion
[ 7974 7965 7964 7962 ] final -123.52 input  175.53 | X-H torsion
[ 8008 7997 7996 7995 ] final  167.00 input   59.86 | X-H torsion
[ 10167 10162 10161 10158 ] final -178.35 input  -65.29 | X-H torsion
[ 10718 10713 10712 10709 ] final -121.71 input   66.30 | X-H torsion
[ 10763 10752 10751 10750 ] final  161.13 input  -60.55 | X-H torsion
[ 11005 11000 10999 10996 ] final  147.46 input  -57.11 | X-H torsion

> <Gold.Protein.ActiveResidues>
 VAL166  LYS551  ARG553  GLY616  TRP617  ASP618  TYR619  PRO620  LYS621  CYS622 
 ASP623  PHE694  ASN695  SER759  ASP760  ASP761  ALA762  ILE779  LEU786  VAL792 
 PHE793  MET794  SER795  GLU796  ALA797  LYS798  CYS799  TRP800  GLU811  SER814 

> <Gold.Protein.RotatedAtoms>
  150.7654  133.9315  159.3428 H   0  0  0  0  0  0  0  0  0  0  0  0  # atno 6907 bound_to 6896
  151.7214  135.0891  160.0294 H   0  0  0  0  0  0  0  0  0  0  0  0  # atno 6908 bound_to 6896
  152.3647  133.6304  159.6077 H   0  0  0  0  0  0  0  0  0  0  0  0  # atno 6909 bound_to 6896
  145.0178  140.7962  143.4399 H   0  0  0  0  0  0  0  0  0  0  0  0  # atno 7974 bound_to 7965
  156.1671  140.1628  156.8512 H   0  0  0  0  0  0  0  0  0  0  0  0  # atno 8008 bound_to 7997
  154.5219  140.0776  156.8222 H   0  0  0  0  0  0  0  0  0  0  0  0  # atno 8009 bound_to 7997
  155.3589  140.3394  155.4242 H   0  0  0  0  0  0  0  0  0  0  0  0  # atno 8010 bound_to 7997
  139.5436  144.2295  152.0945 H   0  0  0  0  0  0  0  0  0  0  0  0  # atno 10167 bound_to 10162
  156.1359  130.6430  150.9696 H   0  0  0  0  0  0  0  0  0  0  0  0  # atno 10718 bound_to 10713
  154.2581  135.2769  155.2789 H   0  0  0  0  0  0  0  0  0  0  0  0  # atno 10763 bound_to 10752
  154.5407  135.5703  153.6840 H   0  0  0  0  0  0  0  0  0  0  0  0  # atno 10764 bound_to 10752
  152.9967  135.6250  154.2730 H   0  0  0  0  0  0  0  0  0  0  0  0  # atno 10765 bound_to 10752
  140.0878  134.9059  157.1602 H   0  0  0  0  0  0  0  0  0  0  0  0  # atno 11005 bound_to 11000
  145.1937  139.2288  143.5229 LP  0  0  0  0  0  0  0  0  0  0  0  0  # atno 17320 bound_to 7965
  146.3480  140.1738  142.8589 LP  0  0  0  0  0  0  0  0  0  0  0  0  # atno 17321 bound_to 7965
  140.1778  144.4874  150.6545 LP  0  0  0  0  0  0  0  0  0  0  0  0  # atno 17342 bound_to 10162
  140.6676  143.2273  151.5704 LP  0  0  0  0  0  0  0  0  0  0  0  0  # atno 17343 bound_to 10162
  157.6532  131.0893  150.8005 LP  0  0  0  0  0  0  0  0  0  0  0  0  # atno 17370 bound_to 10713
  156.8085  130.4944  149.5359 LP  0  0  0  0  0  0  0  0  0  0  0  0  # atno 17371 bound_to 10713
  140.3396  134.2719  155.7214 LP  0  0  0  0  0  0  0  0  0  0  0  0  # atno 17394 bound_to 11000
  141.2068  133.7823  157.0156 LP  0  0  0  0  0  0  0  0  0  0  0  0  # atno 17395 bound_to 11000

$$$$
