AV-unprocessed.smi:1792|AV-procd|sdf|7222|dock7
  -GOLD-   22720 8463D 1   1.00000     0.00000
 Structure written by MMmdl.
 42 43  0  0  0  0  0  0  0  0  1 V2000
  147.2663  142.3512  154.1865 C   0  0  0  0  0  0  0  0  0  0  0  0
  147.8360  140.9393  154.4650 C   0  0  0  0  0  0  0  0  0  0  0  0
  147.5872  140.0846  153.1957 C   0  0  0  0  0  0  0  0  0  0  0  0
  149.3799  141.0805  154.5958 C   0  0  0  0  0  0  0  0  0  0  0  0
  149.7556  142.2360  155.4088 N   0  0  0  0  0  0  0  0  0  0  0  0
  150.5074  142.2054  156.5174 C   0  0  0  0  0  0  0  0  0  0  0  0
  151.0119  141.1784  156.9723 O   0  0  0  0  0  0  0  0  0  0  0  0
  150.6241  143.4332  157.0528 N   0  0  0  0  0  0  0  0  0  0  0  0
  151.3150  143.8159  158.2331 C   0  0  0  0  0  0  0  0  0  0  0  0
  151.1974  145.1812  158.5783 C   0  0  0  0  0  0  0  0  0  0  0  0
  151.8414  145.6617  159.7349 C   0  0  0  0  0  0  0  0  0  0  0  0
  152.5894  144.7634  160.5167 C   0  0  0  0  0  0  0  0  0  0  0  0
  152.6574  143.4208  160.1013 C   0  0  0  0  0  0  0  0  0  0  0  0
  152.0399  142.9579  158.9938 N   0  0  0  0  0  0  0  0  0  0  0  0
  147.2378  140.2957  155.6689 N   0  0  0  0  0  0  0  0  0  0  0  0
  147.2262  141.1314  156.8751 C   0  0  0  0  0  0  0  0  0  0  0  0
  146.4911  140.4526  158.0436 C   0  0  0  0  0  0  0  0  0  0  0  0
  147.0831  139.1880  158.3145 O   0  0  0  0  0  0  0  0  0  0  0  0
  147.0571  138.3246  157.1849 C   0  0  0  0  0  0  0  0  0  0  0  0
  147.8012  138.9846  156.0121 C   0  0  0  0  0  0  0  0  0  0  0  0
  147.7234  142.7882  153.2978 H   0  0  0  0  0  0  0  0  0  0  0  0
  147.4569  143.0417  155.0079 H   0  0  0  0  0  0  0  0  0  0  0  0
  146.1913  142.3350  154.0094 H   0  0  0  0  0  0  0  0  0  0  0  0
  148.1667  140.4499  152.3468 H   0  0  0  0  0  0  0  0  0  0  0  0
  146.5439  140.1047  152.8813 H   0  0  0  0  0  0  0  0  0  0  0  0
  147.8650  139.0415  153.3515 H   0  0  0  0  0  0  0  0  0  0  0  0
  149.7972  140.1627  155.0145 H   0  0  0  0  0  0  0  0  0  0  0  0
  149.8546  141.1799  153.6199 H   0  0  0  0  0  0  0  0  0  0  0  0
  149.3829  143.1267  155.1139 H   0  0  0  0  0  0  0  0  0  0  0  0
  150.1508  144.1800  156.5663 H   0  0  0  0  0  0  0  0  0  0  0  0
  150.6184  145.8577  157.9664 H   0  0  0  0  0  0  0  0  0  0  0  0
  151.7616  146.7011  160.0165 H   0  0  0  0  0  0  0  0  0  0  0  0
  153.0978  145.0945  161.4100 H   0  0  0  0  0  0  0  0  0  0  0  0
  153.2220  142.6989  160.6726 H   0  0  0  0  0  0  0  0  0  0  0  0
  148.2458  141.3584  157.1869 H   0  0  0  0  0  0  0  0  0  0  0  0
  146.7337  142.0832  156.6845 H   0  0  0  0  0  0  0  0  0  0  0  0
  146.5505  141.0721  158.9386 H   0  0  0  0  0  0  0  0  0  0  0  0
  145.4325  140.3249  157.8121 H   0  0  0  0  0  0  0  0  0  0  0  0
  147.5297  137.3785  157.4488 H   0  0  0  0  0  0  0  0  0  0  0  0
  146.0248  138.1016  156.9108 H   0  0  0  0  0  0  0  0  0  0  0  0
  147.7503  138.3039  155.1643 H   0  0  0  0  0  0  0  0  0  0  0  0
  148.8541  139.0834  156.2761 H   0  0  0  0  0  0  0  0  0  0  0  0
  1  2  1  0  0  0  0
  1 21  1  0  0  0  0
  1 22  1  0  0  0  0
  1 23  1  0  0  0  0
  2  3  1  0  0  0  0
  2  4  1  0  0  0  0
  2 15  1  0  0  0  0
  3 24  1  0  0  0  0
  3 25  1  0  0  0  0
  3 26  1  0  0  0  0
  4  5  1  0  0  0  0
  4 27  1  0  0  0  0
  4 28  1  0  0  0  0
  5  6  1  0  0  0  0
  5 29  1  0  0  0  0
  6  7  2  0  0  0  0
  6  8  1  0  0  0  0
  8  9  1  0  0  0  0
  8 30  1  0  0  0  0
  9 14  1  0  0  0  0
  9 10  2  0  0  0  0
 10 11  1  0  0  0  0
 10 31  1  0  0  0  0
 11 12  2  0  0  0  0
 11 32  1  0  0  0  0
 12 13  1  0  0  0  0
 12 33  1  0  0  0  0
 13 14  2  0  0  0  0
 13 34  1  0  0  0  0
 15 20  1  0  0  0  0
 15 16  1  0  0  0  0
 16 17  1  0  0  0  0
 16 35  1  0  0  0  0
 16 36  1  0  0  0  0
 17 18  1  0  0  0  0
 17 37  1  0  0  0  0
 17 38  1  0  0  0  0
 18 19  1  0  0  0  0
 19 20  1  0  0  0  0
 19 39  1  0  0  0  0
 19 40  1  0  0  0  0
 20 41  1  0  0  0  0
 20 42  1  0  0  0  0
M  END
> <s_m_source_file>
AV-unprocessed.smi

> <i_m_source_file_index>
1792

> <i_lp_mmshare_version>
43012

> <i_f3d_flags>
0

> <s_epik_input>
W0NIMl0xW0NIMl1PW0NIMl1bQ0gyXU4xQyhbQ0gzXSkoW0NIM10pW0NIMl1bTkhdQyg9TylbTkhdYzJbY0hdW2NIXVtjSF1bY0hdbjI=

> <s_epik_cmdline>
J2VwaWtfcHl0aG9uJywgJy1waCcsICc3LjAnLCAnLXRuJywgJzgnLCAnLW1hJywgJzIwMCcsICctbWV0YWxfYmluZGluZycsICctaW1hZScsICc8aW5maWxlLm1hZT4nLCAnLW9tYWUnLCAnPG91dGZpbGUubWFlPic=

> <r_epik_Ionization_Penalty>
0.26604

> <r_epik_Ionization_Penalty_Charging>
0

> <r_epik_Ionization_Penalty_Neutral>
0.26604

> <r_epik_State_Penalty>
0.257924

> <r_epik_Charging_Adjusted_Penalty>
0.257924

> <i_epik_Tot_Q>
0

> <i_epik_Tot_abs_Q>
0

> <r_epik_Metal_State_Penalty>
0.257923

> <b_epik_Metal_Only>
0

> <s_lp_Force_Field>
OPLS_2005

> <r_lp_Energy>
43.4175

> <b_lp_Chiralities_Consistent>
1

> <s_lp_Variant>
AV-unprocessed.smi:1792-1

> <Gold.Version>
5.8.1

> <Gold.Id.Protein>
6NUR|6NUR_protein|mol2

> <Gold.PLP.Fitness>
40.0916

> <Gold.PLP.PLP>
-34.7802

> <Gold.PLP.part.hbond>
-2.9883

> <Gold.PLP.part.metal>
0.0000

> <Gold.PLP.part.buried>
-3.7340

> <Gold.PLP.part.nonpolar>
-28.7089

> <Gold.PLP.part.repulsive>
0.2169

> <Gold.PLP.ligand.clash>
0.0000

> <Gold.PLP.ligand.torsion>
0.3643

> <Gold.PLP.Chemscore.Hbond>
1.9920

> <Gold.PLP.Chemscore.CHOScore>
0.0000

> <Gold.PLP.Chemscore.Metal>
0.0000

> <Gold.Chemscore.Hbonds>
donor molecule, donor type, donor heavy atom, donor atom, acceptor molecule, acceptor atom, score
      L1  H     5    29       P1  8028  0.91
      L1  H     8    30       P1  8028  1.00

> <Gold.PLP.Chemscore.Internal.Correction>
0.0640

> <Gold.Rescore>
     Score         DG    S(hbond)    S(metal)    S(lipo)     H(rot)  DE(clash)    DE(int)     intcor
     14.85     -16.95       1.95        0.00      75.40       1.50       0.09       2.01       ----

> <Gold.Chemscore.Fitness>
14.8511

> <Gold.Chemscore.DG>
-16.9471

> <Gold.Chemscore.ZeroCoef>
-5.4800

> <Gold.Chemscore.Hbond>
1.9451

> <Gold.Chemscore.Metal>
0.0000

> <Gold.Chemscore.Lipo>
75.4021

> <Gold.Chemscore.Internal_Hbond>
0.0000

> <Gold.Chemscore.DEClash>
0.0885

> <Gold.Chemscore.DEInternal>
2.0075

> <Gold.Chemscore.Rot>
1.5045

> <Gold.Chemscore.Internal.Correction>
   9.000000E+99

> <Gold.Chemscore.Hbonds>
donor molecule, donor type, donor heavy atom, donor atom, acceptor molecule, acceptor atom, score
      L1  H     5    29       P1  8028  0.90
      L1  H     8    30       P1  8028  0.95

> <Gold.Chemscore.Hbond.Weighted>
-6.4965

> <Gold.Chemscore.Metal.Weighted>
-0.0000

> <Gold.Chemscore.Lipo.Weighted>
-8.8220

> <Gold.Chemscore.Internal_Hbond.Weighted>
0.0000

> <Gold.Chemscore.DEClash.Weighted>
0.0885

> <Gold.Chemscore.DEInternal.Weighted>
2.0075

> <Gold.Chemscore.Rot.Weighted>
3.8515

> <Gold.Chemscore.Internal.Correction.Weighted>
   9.000000E+99

> <Gold.Protein.RotatedTorsions>
[ 6907 6896 6895 6894 ] final   51.63 input  -60.11 | X-H torsion
[ 7974 7965 7964 7962 ] final  -38.59 input  175.53 | X-H torsion
[ 8008 7997 7996 7995 ] final    2.58 input   59.86 | X-H torsion
[ 10167 10162 10161 10158 ] final   14.46 input  -65.29 | X-H torsion
[ 10718 10713 10712 10709 ] final  173.94 input   66.30 | X-H torsion
[ 10763 10752 10751 10750 ] final  -91.57 input  -60.55 | X-H torsion
[ 11005 11000 10999 10996 ] final   -6.34 input  -57.11 | X-H torsion

> <Gold.Protein.ActiveResidues>
 VAL166  LYS551  ARG553  GLY616  TRP617  ASP618  TYR619  PRO620  LYS621  CYS622 
 ASP623  PHE694  ASN695  SER759  ASP760  ASP761  ALA762  ILE779  LEU786  VAL792 
 PHE793  MET794  SER795  GLU796  ALA797  LYS798  CYS799  TRP800  GLU811  SER814 

> <Gold.Protein.RotatedAtoms>
  152.3147  134.7455  160.0328 H   0  0  0  0  0  0  0  0  0  0  0  0  # atno 6907 bound_to 6896
  151.7924  133.3355  159.3511 H   0  0  0  0  0  0  0  0  0  0  0  0  # atno 6908 bound_to 6896
  150.7338  134.5761  159.5959 H   0  0  0  0  0  0  0  0  0  0  0  0  # atno 6909 bound_to 6896
  146.0473  140.6529  142.9058 H   0  0  0  0  0  0  0  0  0  0  0  0  # atno 7974 bound_to 7965
  154.6933  140.2657  155.6791 H   0  0  0  0  0  0  0  0  0  0  0  0  # atno 8008 bound_to 7997
  156.2739  140.2787  156.1442 H   0  0  0  0  0  0  0  0  0  0  0  0  # atno 8009 bound_to 7997
  155.0866  140.0373  157.2646 H   0  0  0  0  0  0  0  0  0  0  0  0  # atno 8010 bound_to 7997
  140.5934  143.8750  150.6895 H   0  0  0  0  0  0  0  0  0  0  0  0  # atno 10167 bound_to 10162
  156.9570  131.0049  151.2936 H   0  0  0  0  0  0  0  0  0  0  0  0  # atno 10718 bound_to 10713
  154.6774  135.5263  153.8217 H   0  0  0  0  0  0  0  0  0  0  0  0  # atno 10763 bound_to 10752
  153.0541  135.6544  154.0629 H   0  0  0  0  0  0  0  0  0  0  0  0  # atno 10764 bound_to 10752
  154.0521  135.2968  155.3318 H   0  0  0  0  0  0  0  0  0  0  0  0  # atno 10765 bound_to 10752
  140.7009  133.8990  155.8682 H   0  0  0  0  0  0  0  0  0  0  0  0  # atno 11005 bound_to 11000
  144.7104  140.4018  143.7085 LP  0  0  0  0  0  0  0  0  0  0  0  0  # atno 17320 bound_to 7965
  145.6784  139.1613  143.2715 LP  0  0  0  0  0  0  0  0  0  0  0  0  # atno 17321 bound_to 7965
  140.2278  143.3759  152.1590 LP  0  0  0  0  0  0  0  0  0  0  0  0  # atno 17342 bound_to 10162
  139.5242  144.7081  151.5292 LP  0  0  0  0  0  0  0  0  0  0  0  0  # atno 17343 bound_to 10162
  157.5684  130.8293  149.8358 LP  0  0  0  0  0  0  0  0  0  0  0  0  # atno 17370 bound_to 10713
  156.0338  130.3757  150.1614 LP  0  0  0  0  0  0  0  0  0  0  0  0  # atno 17371 bound_to 10713
  141.0164  134.0949  157.4167 LP  0  0  0  0  0  0  0  0  0  0  0  0  # atno 17394 bound_to 11000
  139.8897  135.0107  156.6694 LP  0  0  0  0  0  0  0  0  0  0  0  0  # atno 17395 bound_to 11000

$$$$
