#       Name:                AV-unprocessed.smi:2391
#       Creating user name   scv26
#       Creation time:       Fri Mar 27 13:11:22 2020


#       File generated by GOLD software.
#

@<TRIPOS>MOLECULE
AV-unprocessed.smi:2391
    39    40     1
SMALL
NO_CHARGES


@<TRIPOS>ATOM
      1 ****        -0.1811   1.7554   0.7388 O.2            1 S1                 0.0000
      2 ****        -0.7635   0.6680   0.7859 C.2            1 S1                 0.0000
      3 ****        -2.1301   0.4124   0.7772 N.2            1 S1                 0.0000
      4 ****        -3.0207   1.3613   0.7844 C.2            1 S1                 0.0000
      5 ****        -4.4398   1.0498   0.7639 C.2            1 S1                 0.0000
      6 ****        -5.3756   2.0272   0.7699 C.2            1 S1                 0.0000
      7 ****        -4.9346   3.4076   0.7982 C.2            1 S1                 0.0000
      8 ****        -3.6848   3.7305   0.8195 N.2            1 S1                 0.0000
      9 ****        -2.7601   2.7487   0.8140 N.pl3          1 S1                 0.0000
     10 ****        -0.0886  -0.4898   0.8538 N.am           1 S1                 0.0000
     11 ****         1.3672  -0.6558   0.8827 C.3            1 S1                 0.0000
     12 ****         1.8328  -1.3308  -0.4338 C.3            1 S1                 0.0000
     13 ****         3.3508  -1.4664  -0.5980 C.3            1 S1                 0.0000
     14 ****         3.5691  -1.7050  -2.0943 C.3            1 S1                 0.0000
     15 ****         2.3752  -1.0572  -2.8078 C.3            1 S1                 0.0000
     16 ****         1.4258  -0.5722  -1.7060 C.3            1 S1                 0.0000
     17 ****         1.7534  -1.4355   2.1607 C.3            1 S1                 0.0000
     18 ****         1.2621  -0.8147   3.2341 F              1 S1                 0.0000
     19 ****         1.2627  -2.6750   2.1223 F              1 S1                 0.0000
     20 ****         3.0768  -1.4985   2.3015 F              1 S1                 0.0000
     21 ****        -4.7866   0.0269   0.7431 H              1 S1                 0.0000
     22 ****        -6.4305   1.7966   0.7550 H              1 S1                 0.0000
     23 ****        -5.7276   4.1553   0.8001 H              1 S1                 0.0000
     24 ****        -0.6329  -1.3394   0.8939 H              1 S1                 0.0000
     25 ****         1.8479   0.3217   0.9461 H              1 S1                 0.0000
     26 ****         1.3995  -2.3309  -0.4904 H              1 S1                 0.0000
     27 ****         3.8424  -0.5388  -0.3007 H              1 S1                 0.0000
     28 ****         3.7701  -2.2737   0.0029 H              1 S1                 0.0000
     29 ****         4.5222  -1.2985  -2.4337 H              1 S1                 0.0000
     30 ****         3.5799  -2.7762  -2.3000 H              1 S1                 0.0000
     31 ****         2.6883  -0.2287  -3.4442 H              1 S1                 0.0000
     32 ****         1.8799  -1.7891  -3.4469 H              1 S1                 0.0000
     33 ****         0.3791  -0.7297  -1.9682 H              1 S1                 0.0000
     34 ****         1.5668   0.4995  -1.5578 H              1 S1                 0.0000
     35 ****        -1.7950   3.0463   0.8331 H              1 S1                 0.0000
     36 ****        -0.7087   2.6033   0.6863 LP             1 S1                 0.0000
     37 ****         0.8182   1.7884   0.7532 LP             1 S1                 0.0000
     38 ****        -2.4409  -0.5380   0.7649 LP             1 S1                 0.0000
     39 ****        -3.4074   4.6910   0.8397 LP             1 S1                 0.0000
@<TRIPOS>BOND
    1    1    2 2     
    2    2    3 1     
    3    2   10 am    
    4    3    4 2     
    5    4    9 1     
    6    4    5 1     
    7    5    6 2     
    8    5   21 1     
    9    6    7 1     
   10    6   22 1     
   11    7    8 2     
   12    7   23 1     
   13    8    9 1     
   14    9   35 1     
   15   10   11 1     
   16   10   24 1     
   17   11   12 1     
   18   11   17 1     
   19   11   25 1     
   20   12   16 1     
   21   12   13 1     
   22   12   26 1     
   23   13   14 1     
   24   13   27 1     
   25   13   28 1     
   26   14   15 1     
   27   14   29 1     
   28   14   30 1     
   29   15   16 1     
   30   15   31 1     
   31   15   32 1     
   32   16   33 1     
   33   16   34 1     
   34   17   18 1     
   35   17   19 1     
   36   17   20 1     
   37    1   36 1     
   38    1   37 1     
   39    3   38 1     
   40    8   39 1     
@<TRIPOS>SUBSTRUCTURE
      1 S1             1
@<TRIPOS>SET
LONE_PAIRS      STATIC     ATOMS    <user>   **** ""
4 36 37 38 39
DONOR_HYDROGENS      STATIC     ATOMS    <user>   **** ""
2 35 24
ATOM$BLUE        STATIC     ATOMS    COLORGROUP SYSTEM
4 36 37 38 39
ATOM$RED        STATIC     ATOMS    COLORGROUP SYSTEM
2 35 24
