AV-unprocessed.smi:2791|AV-procd|sdf|10771|dock5
  -GOLD-   2272015203D 1   1.00000     0.00000
 Structure written by MMmdl.
 35 36  0  0  0  0  0  0  0  0  1 V2000
  153.2151  143.0994  162.2478 C   0  0  0  0  0  0  0  0  0  0  0  0
  152.6004  142.9306  160.9771 O   0  0  0  0  0  0  0  0  0  0  0  0
  152.7242  144.0278  160.0714 C   0  0  0  0  0  0  0  0  0  0  0  0
  152.6810  145.3788  160.7987 C   0  0  0  0  0  0  0  0  0  0  0  0
  153.2449  146.4316  159.9647 N   0  0  0  0  0  0  0  0  0  0  0  0
  152.7510  147.6727  159.8761 C   0  0  0  0  0  0  0  0  0  0  0  0
  151.7595  148.0517  160.4999 O   0  0  0  0  0  0  0  0  0  0  0  0
  153.4741  148.4230  159.0266 N   0  0  0  0  0  0  0  0  0  0  0  0
  153.2879  149.7220  158.6711 C   0  0  0  0  0  0  0  0  0  0  0  0
  153.3768  150.2963  157.4322 C   0  0  0  0  0  0  0  0  0  0  0  0
  153.0729  151.6613  157.7031 C   0  0  0  0  0  0  0  0  0  0  0  0
  152.8204  151.8934  158.9854 N   0  0  0  0  0  0  0  0  0  0  0  0
  152.9518  150.6923  159.5898 N   0  0  0  0  0  0  0  0  0  0  0  0
  152.7420  150.5724  161.0195 C   0  0  0  0  0  0  0  0  0  0  0  0
  153.9259  143.7495  159.1487 C   0  0  0  0  0  0  0  0  0  0  0  0
  153.0574  144.1588  157.9577 C   0  0  0  0  0  0  0  0  0  0  0  0
  151.8406  143.8282  158.8235 C   0  0  0  0  0  0  0  0  0  0  0  0
  152.9558  142.2544  162.8852 H   0  0  0  0  0  0  0  0  0  0  0  0
  152.8771  144.0071  162.7482 H   0  0  0  0  0  0  0  0  0  0  0  0
  154.3018  143.1254  162.1712 H   0  0  0  0  0  0  0  0  0  0  0  0
  151.6509  145.6419  161.0441 H   0  0  0  0  0  0  0  0  0  0  0  0
  153.2134  145.3359  161.7494 H   0  0  0  0  0  0  0  0  0  0  0  0
  154.0652  146.1960  159.4254 H   0  0  0  0  0  0  0  0  0  0  0  0
  154.2537  147.9623  158.5806 H   0  0  0  0  0  0  0  0  0  0  0  0
  153.6141  149.8388  156.4839 H   0  0  0  0  0  0  0  0  0  0  0  0
  153.0265  152.4873  157.0091 H   0  0  0  0  0  0  0  0  0  0  0  0
  153.6300  150.1443  161.4854 H   0  0  0  0  0  0  0  0  0  0  0  0
  151.8897  149.9202  161.2107 H   0  0  0  0  0  0  0  0  0  0  0  0
  152.5473  151.5497  161.4631 H   0  0  0  0  0  0  0  0  0  0  0  0
  154.7932  144.3894  159.3142 H   0  0  0  0  0  0  0  0  0  0  0  0
  154.2093  142.6958  159.1155 H   0  0  0  0  0  0  0  0  0  0  0  0
  153.1347  145.2212  157.7205 H   0  0  0  0  0  0  0  0  0  0  0  0
  153.1721  143.5343  157.0713 H   0  0  0  0  0  0  0  0  0  0  0  0
  151.5048  142.7981  158.6902 H   0  0  0  0  0  0  0  0  0  0  0  0
  151.0146  144.5339  158.7298 H   0  0  0  0  0  0  0  0  0  0  0  0
  1  2  1  0  0  0  0
  1 18  1  0  0  0  0
  1 19  1  0  0  0  0
  1 20  1  0  0  0  0
  2  3  1  0  0  0  0
  3 17  1  0  0  0  0
  3  4  1  0  0  0  0
  3 15  1  0  0  0  0
  4  5  1  0  0  0  0
  4 21  1  0  0  0  0
  4 22  1  0  0  0  0
  5  6  1  0  0  0  0
  5 23  1  0  0  0  0
  6  7  2  0  0  0  0
  6  8  1  0  0  0  0
  8  9  1  0  0  0  0
  8 24  1  0  0  0  0
  9 13  1  0  0  0  0
  9 10  2  0  0  0  0
 10 11  1  0  0  0  0
 10 25  1  0  0  0  0
 11 12  2  0  0  0  0
 11 26  1  0  0  0  0
 12 13  1  0  0  0  0
 13 14  1  0  0  0  0
 14 27  1  0  0  0  0
 14 28  1  0  0  0  0
 14 29  1  0  0  0  0
 15 16  1  0  0  0  0
 15 30  1  0  0  0  0
 15 31  1  0  0  0  0
 16 17  1  0  0  0  0
 16 32  1  0  0  0  0
 16 33  1  0  0  0  0
 17 34  1  0  0  0  0
 17 35  1  0  0  0  0
M  END
> <s_m_source_file>
AV-unprocessed.smi

> <i_m_source_file_index>
2791

> <i_lp_mmshare_version>
43012

> <i_f3d_flags>
0

> <s_epik_input>
W0NIMl0xW0NIMl1bQ0gyXUMxKE9bQ0gzXSlbQ0gyXVtOSF1DKD1PKVtOSF1jMltjSF1bY0hdbm4yW0NIM10=

> <s_epik_cmdline>
J2VwaWtfcHl0aG9uJywgJy1waCcsICc3LjAnLCAnLXRuJywgJzgnLCAnLW1hJywgJzIwMCcsICctbWV0YWxfYmluZGluZycsICctaW1hZScsICc8aW5maWxlLm1hZT4nLCAnLW9tYWUnLCAnPG91dGZpbGUubWFlPic=

> <r_lp_tautomer_probability>
1

> <r_epik_Ionization_Penalty>
4.34911e-05

> <r_epik_Ionization_Penalty_Charging>
0

> <r_epik_Ionization_Penalty_Neutral>
4.34911e-05

> <r_epik_State_Penalty>
-0

> <r_epik_Charging_Adjusted_Penalty>
0

> <i_epik_Tot_Q>
0

> <i_epik_Tot_abs_Q>
0

> <r_epik_Metal_State_Penalty>
-0

> <b_epik_Metal_Only>
0

> <s_lp_Force_Field>
OPLS_2005

> <r_lp_Energy>
18.0019

> <b_lp_Chiralities_Consistent>
1

> <s_lp_Variant>
AV-unprocessed.smi:2791-1

> <Gold.Version>
5.8.1

> <Gold.Id.Protein>
6NUR|6NUR_protein|mol2

> <Gold.PLP.Fitness>
40.6516

> <Gold.PLP.PLP>
-33.5890

> <Gold.PLP.part.hbond>
-2.0000

> <Gold.PLP.part.metal>
0.0000

> <Gold.PLP.part.buried>
-1.1325

> <Gold.PLP.part.nonpolar>
-30.7790

> <Gold.PLP.part.repulsive>
0.3781

> <Gold.PLP.ligand.clash>
0.0000

> <Gold.PLP.ligand.torsion>
1.1169

> <Gold.PLP.Chemscore.Hbond>
2.0000

> <Gold.PLP.Chemscore.CHOScore>
1.0000

> <Gold.PLP.Chemscore.Metal>
0.0000

> <Gold.PLP.Chemscore.Internal.Correction>
0.2965

> <Gold.Rescore>
     Score         DG    S(hbond)    S(metal)    S(lipo)     H(rot)  DE(clash)    DE(int)     intcor
     16.17     -18.34       1.89        0.00      89.41       1.53       0.31       1.87       ----

> <Gold.Chemscore.Fitness>
16.1653

> <Gold.Chemscore.DG>
-18.3362

> <Gold.Chemscore.ZeroCoef>
-5.4800

> <Gold.Chemscore.Hbond>
1.8927

> <Gold.Chemscore.Metal>
0.0000

> <Gold.Chemscore.Lipo>
89.4121

> <Gold.Chemscore.Internal_Hbond>
0.0000

> <Gold.Chemscore.DEClash>
0.3058

> <Gold.Chemscore.DEInternal>
1.8651

> <Gold.Chemscore.Rot>
1.5339

> <Gold.Chemscore.Internal.Correction>
   9.000000E+99

> <Gold.Chemscore.Hbond.Weighted>
-6.3217

> <Gold.Chemscore.Metal.Weighted>
-0.0000

> <Gold.Chemscore.Lipo.Weighted>
-10.4612

> <Gold.Chemscore.Internal_Hbond.Weighted>
0.0000

> <Gold.Chemscore.DEClash.Weighted>
0.3058

> <Gold.Chemscore.DEInternal.Weighted>
1.8651

> <Gold.Chemscore.Rot.Weighted>
3.9267

> <Gold.Chemscore.Internal.Correction.Weighted>
   9.000000E+99

> <Gold.Protein.RotatedTorsions>
[ 6907 6896 6895 6894 ] final  152.97 input  -60.11 | X-H torsion
[ 7974 7965 7964 7962 ] final -108.08 input  175.53 | X-H torsion
[ 8008 7997 7996 7995 ] final  174.49 input   59.86 | X-H torsion
[ 10167 10162 10161 10158 ] final  -19.18 input  -65.29 | X-H torsion
[ 10718 10713 10712 10709 ] final   82.82 input   66.30 | X-H torsion
[ 10763 10752 10751 10750 ] final   63.72 input  -60.55 | X-H torsion
[ 11005 11000 10999 10996 ] final  -70.88 input  -57.11 | X-H torsion

> <Gold.Protein.ActiveResidues>
 VAL166  LYS551  ARG553  GLY616  TRP617  ASP618  TYR619  PRO620  LYS621  CYS622 
 ASP623  PHE694  ASN695  SER759  ASP760  ASP761  ALA762  ILE779  LEU786  VAL792 
 PHE793  MET794  SER795  GLU796  ALA797  LYS798  CYS799  TRP800  GLU811  SER814 

> <Gold.Protein.RotatedAtoms>
  152.0793  133.4144  159.4493 H   0  0  0  0  0  0  0  0  0  0  0  0  # atno 6907 bound_to 6896
  150.6862  134.3001  159.4712 H   0  0  0  0  0  0  0  0  0  0  0  0  # atno 6908 bound_to 6896
  152.0841  134.9451  160.0623 H   0  0  0  0  0  0  0  0  0  0  0  0  # atno 6909 bound_to 6896
  145.1973  140.9041  143.3390 H   0  0  0  0  0  0  0  0  0  0  0  0  # atno 7974 bound_to 7965
  156.0969  140.1433  156.9519 H   0  0  0  0  0  0  0  0  0  0  0  0  # atno 8008 bound_to 7997
  154.4677  140.0920  156.7109 H   0  0  0  0  0  0  0  0  0  0  0  0  # atno 8009 bound_to 7997
  155.4826  140.3445  155.4344 H   0  0  0  0  0  0  0  0  0  0  0  0  # atno 8010 bound_to 7997
  140.7266  143.4844  151.0075 H   0  0  0  0  0  0  0  0  0  0  0  0  # atno 10167 bound_to 10162
  157.6865  131.0064  150.2431 H   0  0  0  0  0  0  0  0  0  0  0  0  # atno 10718 bound_to 10713
  153.0028  135.5419  154.6396 H   0  0  0  0  0  0  0  0  0  0  0  0  # atno 10763 bound_to 10752
  154.5654  135.2837  155.0881 H   0  0  0  0  0  0  0  0  0  0  0  0  # atno 10764 bound_to 10752
  154.2067  135.6474  153.5155 H   0  0  0  0  0  0  0  0  0  0  0  0  # atno 10765 bound_to 10752
  141.1582  133.6802  156.6820 H   0  0  0  0  0  0  0  0  0  0  0  0  # atno 11005 bound_to 11000
  144.9982  139.3623  143.6180 LP  0  0  0  0  0  0  0  0  0  0  0  0  # atno 17320 bound_to 7965
  146.3424  139.9194  142.8769 LP  0  0  0  0  0  0  0  0  0  0  0  0  # atno 17321 bound_to 7965
  139.8544  143.7396  152.3176 LP  0  0  0  0  0  0  0  0  0  0  0  0  # atno 17342 bound_to 10162
  139.7589  144.7512  151.0393 LP  0  0  0  0  0  0  0  0  0  0  0  0  # atno 17343 bound_to 10162
  156.3042  130.3762  149.7722 LP  0  0  0  0  0  0  0  0  0  0  0  0  # atno 17370 bound_to 10713
  156.5343  130.8271  151.3247 LP  0  0  0  0  0  0  0  0  0  0  0  0  # atno 17371 bound_to 10713
  140.3095  134.8098  157.4164 LP  0  0  0  0  0  0  0  0  0  0  0  0  # atno 17394 bound_to 11000
  140.1191  134.5243  155.8199 LP  0  0  0  0  0  0  0  0  0  0  0  0  # atno 17395 bound_to 11000

$$$$
