#       Name:                AV-unprocessed.smi:2461
#       Creating user name   scv26
#       Creation time:       Fri Mar 27 13:35:40 2020


#       File generated by GOLD software.
#

@<TRIPOS>MOLECULE
AV-unprocessed.smi:2461
    42    43     1
SMALL
NO_CHARGES


@<TRIPOS>ATOM
      1 ****        -5.1597   0.4029   0.1247 C.3            1 S1                 0.0000
      2 ****        -3.7738   1.0562   0.0265 C.3            1 S1                 0.0000
      3 ****        -2.8998   0.8161   1.2530 C.3            1 S1                 0.0000
      4 ****        -2.3682  -0.6185   1.3092 C.3            1 S1                 0.0000
      5 ****        -0.9260  -0.7681   1.1517 N.am           1 S1                 0.0000
      6 ****        -0.2704  -0.7133  -0.0162 C.2            1 S1                 0.0000
      7 ****        -0.8301  -0.5713  -1.1036 O.2            1 S1                 0.0000
      8 ****         1.0572  -0.8210   0.1665 N.am           1 S1                 0.0000
      9 ****         2.0809  -0.7824  -0.8165 C.ar           1 S1                 0.0000
     10 ****         3.4050  -0.8072  -0.3241 C.ar           1 S1                 0.0000
     11 ****         4.4519  -0.7619  -1.2674 C.ar           1 S1                 0.0000
     12 ****         5.7591  -0.7731  -0.8268 O.3            1 S1                 0.0000
     13 ****         6.7964  -0.7027  -1.7985 C.3            1 S1                 0.0000
     14 ****         4.1981  -0.7047  -2.5972 N.ar           1 S1                 0.0000
     15 ****         2.9159  -0.6911  -2.9634 C.ar           1 S1                 0.0000
     16 ****         1.8567  -0.7254  -2.1526 N.ar           1 S1                 0.0000
     17 ****        -2.0423   1.9562   1.7795 C.3            1 S1                 0.0000
     18 ****        -3.2530   1.5158   2.5529 C.3            1 S1                 0.0000
     19 ****        -5.7540   0.6277  -0.7611 H              1 S1                 0.0000
     20 ****        -5.7081   0.7706   0.9922 H              1 S1                 0.0000
     21 ****        -5.0920  -0.6815   0.2072 H              1 S1                 0.0000
     22 ****        -3.2530   0.7001  -0.8627 H              1 S1                 0.0000
     23 ****        -3.9043   2.1302  -0.1106 H              1 S1                 0.0000
     24 ****        -2.6341  -1.0489   2.2747 H              1 S1                 0.0000
     25 ****        -2.8713  -1.2430   0.5696 H              1 S1                 0.0000
     26 ****        -0.3873  -0.8919   1.9965 H              1 S1                 0.0000
     27 ****         1.3732  -0.9187   1.1200 H              1 S1                 0.0000
     28 ****         3.6149  -0.8523   0.7347 H              1 S1                 0.0000
     29 ****         7.7629  -0.7090  -1.2949 H              1 S1                 0.0000
     30 ****         6.7345   0.2166  -2.3827 H              1 S1                 0.0000
     31 ****         6.7698  -1.5590  -2.4740 H              1 S1                 0.0000
     32 ****         2.7142  -0.6478  -4.0235 H              1 S1                 0.0000
     33 ****        -1.0715   1.7237   2.2121 H              1 S1                 0.0000
     34 ****        -2.0976   2.9138   1.2660 H              1 S1                 0.0000
     35 ****        -4.1139   2.1811   2.5543 H              1 S1                 0.0000
     36 ****        -3.0794   0.9829   3.4856 H              1 S1                 0.0000
     37 ****        -1.8259  -0.4900  -1.1466 LP             1 S1                 0.0000
     38 ****        -0.2890  -0.5373  -1.9439 LP             1 S1                 0.0000
     39 ****         5.8915  -1.6205  -0.3126 LP             1 S1                 0.0000
     40 ****         5.8725   0.0095  -0.2147 LP             1 S1                 0.0000
     41 ****         4.9362  -0.6742  -3.2712 LP             1 S1                 0.0000
     42 ****         0.9263  -0.7096  -2.5190 LP             1 S1                 0.0000
@<TRIPOS>BOND
    1    1    2 1     
    2    1   19 1     
    3    1   20 1     
    4    1   21 1     
    5    2    3 1     
    6    2   22 1     
    7    2   23 1     
    8    3   18 1     
    9    3    4 1     
   10    3   17 1     
   11    4    5 1     
   12    4   24 1     
   13    4   25 1     
   14    5    6 am    
   15    5   26 1     
   16    6    7 2     
   17    6    8 am    
   18    8    9 1     
   19    8   27 1     
   20    9   16 ar    
   21    9   10 ar    
   22   10   11 ar    
   23   10   28 1     
   24   11   12 1     
   25   11   14 ar    
   26   12   13 1     
   27   13   29 1     
   28   13   30 1     
   29   13   31 1     
   30   14   15 ar    
   31   15   16 ar    
   32   15   32 1     
   33   17   18 1     
   34   17   33 1     
   35   17   34 1     
   36   18   35 1     
   37   18   36 1     
   38    7   37 1     
   39    7   38 1     
   40   12   39 1     
   41   12   40 1     
   42   14   41 1     
   43   16   42 1     
@<TRIPOS>SUBSTRUCTURE
      1 S1             1
@<TRIPOS>SET
LONE_PAIRS      STATIC     ATOMS    <user>   **** ""
6 37 38 39 40 41 42
DONOR_HYDROGENS      STATIC     ATOMS    <user>   **** ""
2 26 27
ATOM$BLUE        STATIC     ATOMS    COLORGROUP SYSTEM
6 37 38 39 40 41 42
ATOM$RED        STATIC     ATOMS    COLORGROUP SYSTEM
2 26 27
