AV-unprocessed.smi:1817|AV-procd|sdf|7374|dock5
  -GOLD-   22720 9 43D 1   1.00000     0.00000
 Structure written by MMmdl.
 42 43  0  0  0  0  0  0  0  0  3 V2000
  146.7769  138.7488  151.8984 C   0  0  0  0  0  0  0  0  0  0  0  0
  146.8604  139.7118  153.0914 C   0  0  0  0  0  0  0  0  0  0  0  0
  148.2440  139.8638  153.6049 N   0  3  0  0  0  0  0  0  0  0  0  0
  148.7420  138.6287  154.2579 C   0  0  0  0  0  0  0  0  0  0  0  0
  150.1977  138.8208  154.7298 C   0  0  0  0  0  0  0  0  0  0  0  0
  150.3117  139.9181  155.7010 N   0  0  0  0  0  0  0  0  0  0  0  0
  149.6532  139.6961  157.0086 C   0  0  2  0  0  0  0  0  0  0  0  0
  150.0158  140.8385  157.9877 C   0  0  0  0  0  0  0  0  0  0  0  0
  150.0319  138.3206  157.6152 C   0  0  0  0  0  0  0  0  0  0  0  0
  149.3653  138.0899  158.8915 N   0  0  0  0  0  0  0  0  0  0  0  0
  149.0681  136.8885  159.4031 C   0  0  0  0  0  0  0  0  0  0  0  0
  149.3728  135.8658  158.7852 O   0  0  0  0  0  0  0  0  0  0  0  0
  148.4353  136.9477  160.5964 N   0  5  0  0  0  0  0  0  0  0  0  0
  147.8824  135.8405  161.1187 C   0  0  0  0  0  0  0  0  0  0  0  0
  147.7146  134.7167  160.4032 N   0  0  0  0  0  0  0  0  0  0  0  0
  147.1211  133.6916  161.1274 N   0  0  0  0  0  0  0  0  0  0  0  0
  146.8481  134.0730  162.3749 C   0  0  0  0  0  0  0  0  0  0  0  0
  147.2868  135.7198  162.7771 S   0  0  0  0  0  0  0  0  0  0  0  0
  149.8835  141.1324  154.9909 C   0  0  0  0  0  0  0  0  0  0  0  0
  148.4213  141.0345  154.5019 C   0  0  0  0  0  0  0  0  0  0  0  0
  145.7384  138.5913  151.6060 H   0  0  0  0  0  0  0  0  0  0  0  0
  147.1997  137.7750  152.1479 H   0  0  0  0  0  0  0  0  0  0  0  0
  147.3032  139.1323  151.0247 H   0  0  0  0  0  0  0  0  0  0  0  0
  146.4486  140.6874  152.8288 H   0  0  0  0  0  0  0  0  0  0  0  0
  146.2284  139.3141  153.8866 H   0  0  0  0  0  0  0  0  0  0  0  0
  148.0904  138.3476  155.0863 H   0  0  0  0  0  0  0  0  0  0  0  0
  148.7064  137.8062  153.5427 H   0  0  0  0  0  0  0  0  0  0  0  0
  150.6055  137.8926  155.1252 H   0  0  0  0  0  0  0  0  0  0  0  0
  150.8264  139.0514  153.8684 H   0  0  0  0  0  0  0  0  0  0  0  0
  148.5720  139.7010  156.8777 H   0  0  0  0  0  0  0  0  0  0  0  0
  149.6211  140.6600  158.9875 H   0  0  0  0  0  0  0  0  0  0  0  0
  149.5984  141.7963  157.6811 H   0  0  0  0  0  0  0  0  0  0  0  0
  151.0965  140.9523  158.0808 H   0  0  0  0  0  0  0  0  0  0  0  0
  149.7249  137.5047  156.9617 H   0  0  0  0  0  0  0  0  0  0  0  0
  151.1121  138.2453  157.7505 H   0  0  0  0  0  0  0  0  0  0  0  0
  149.1038  138.9033  159.4290 H   0  0  0  0  0  0  0  0  0  0  0  0
  146.3818  133.3821  163.0610 H   0  0  0  0  0  0  0  0  0  0  0  0
  150.0232  142.0218  155.6024 H   0  0  0  0  0  0  0  0  0  0  0  0
  150.5386  141.2800  154.1311 H   0  0  0  0  0  0  0  0  0  0  0  0
  148.1764  141.9491  153.9628 H   0  0  0  0  0  0  0  0  0  0  0  0
  147.7273  140.9781  155.3411 H   0  0  0  0  0  0  0  0  0  0  0  0
  148.8398  140.0149  152.8036 H   0  0  0  0  0  0  0  0  0  0  0  0
  1  2  1  0  0  0  0
  1 21  1  0  0  0  0
  1 22  1  0  0  0  0
  1 23  1  0  0  0  0
  2  3  1  0  0  0  0
  2 24  1  0  0  0  0
  2 25  1  0  0  0  0
  3 20  1  0  0  0  0
  3  4  1  0  0  0  0
  3 42  1  0  0  0  0
  4  5  1  0  0  0  0
  4 26  1  0  0  0  0
  4 27  1  0  0  0  0
  5  6  1  0  0  0  0
  5 28  1  0  0  0  0
  5 29  1  0  0  0  0
  6  7  1  0  0  0  0
  6 19  1  0  0  0  0
  7  8  1  0  0  0  0
  7  9  1  0  0  0  0
  7 30  1  0  0  0  0
  8 31  1  0  0  0  0
  8 32  1  0  0  0  0
  8 33  1  0  0  0  0
  9 10  1  0  0  0  0
  9 34  1  0  0  0  0
  9 35  1  0  0  0  0
 10 11  1  0  0  0  0
 10 36  1  0  0  0  0
 11 12  2  0  0  0  0
 11 13  1  0  0  0  0
 13 14  1  0  0  0  0
 14 18  1  0  0  0  0
 14 15  2  0  0  0  0
 15 16  1  0  0  0  0
 16 17  2  0  0  0  0
 17 18  1  0  0  0  0
 17 37  1  0  0  0  0
 19 20  1  0  0  0  0
 19 38  1  0  0  0  0
 19 39  1  0  0  0  0
 20 40  1  0  0  0  0
 20 41  1  0  0  0  0
M  CHG  1   3   1
M  CHG  1  13  -1
M  END
> <s_m_source_file>
AV-unprocessed.smi

> <i_m_source_file_index>
1817

> <i_lp_mmshare_version>
43012

> <i_f3d_flags>
0

> <s_epik_input>
W0NIM11bQ0gyXU4xW0NIMl1bQ0gyXU4oW0NIMl1bQ0gyXTEpW0NASF0oW0NIM10pW0NIMl1bTkhdQyg9TylbTkhdYzJubltjSF1zMg==

> <s_epik_cmdline>
J2VwaWtfcHl0aG9uJywgJy1waCcsICc3LjAnLCAnLXRuJywgJzgnLCAnLW1hJywgJzIwMCcsICctbWV0YWxfYmluZGluZycsICctaW1hZScsICc8aW5maWxlLm1hZT4nLCAnLW9tYWUnLCAnPG91dGZpbGUubWFlPic=

> <r_lp_tautomer_probability>
1

> <r_epik_Ionization_Penalty>
3.58527

> <r_epik_Ionization_Penalty_Charging>
3.54445

> <r_epik_Ionization_Penalty_Neutral>
0.0408199

> <r_epik_State_Penalty>
3.6633

> <r_epik_Charging_Adjusted_Penalty>
7.20774

> <i_epik_Tot_Q>
0

> <i_epik_Tot_abs_Q>
2

> <r_epik_Metal_State_Penalty>
0.683711

> <b_epik_Metal_Only>
1

> <s_lp_Force_Field>
OPLS_2005

> <r_lp_Energy>
15.1911

> <b_lp_Chiralities_Consistent>
1

> <s_lp_Variant>
AV-unprocessed.smi:1817-7

> <Gold.Version>
5.8.1

> <Gold.Id.Protein>
6NUR|6NUR_protein|mol2

> <Gold.PLP.Fitness>
46.7347

> <Gold.PLP.PLP>
-36.1502

> <Gold.PLP.part.hbond>
-3.3653

> <Gold.PLP.part.metal>
0.0000

> <Gold.PLP.part.buried>
-4.6420

> <Gold.PLP.part.nonpolar>
-29.4136

> <Gold.PLP.part.repulsive>
0.3229

> <Gold.PLP.ligand.clash>
0.0000

> <Gold.PLP.ligand.torsion>
0.3757

> <Gold.PLP.Chemscore.Hbond>
3.7600

> <Gold.PLP.Chemscore.CHOScore>
0.0000

> <Gold.PLP.Chemscore.Metal>
0.0000

> <Gold.Chemscore.Hbonds>
donor molecule, donor type, donor heavy atom, donor atom, acceptor molecule, acceptor atom, score
      L1  H     3    42       P1  7957  1.00
      P1  H  6896  6907       L1    12  1.00
      P1  H  6931  6943       L1    13  1.76

> <Gold.PLP.Chemscore.Internal.Correction>
0.0558

> <Gold.Rescore>
     Score         DG    S(hbond)    S(metal)    S(lipo)     H(rot)  DE(clash)    DE(int)     intcor
     16.40     -18.62       2.89        0.00      70.91       1.88       0.17       2.06       ----

> <Gold.Chemscore.Fitness>
16.3958

> <Gold.Chemscore.DG>
-18.6195

> <Gold.Chemscore.ZeroCoef>
-5.4800

> <Gold.Chemscore.Hbond>
2.8930

> <Gold.Chemscore.Metal>
0.0000

> <Gold.Chemscore.Lipo>
70.9072

> <Gold.Chemscore.Internal_Hbond>
0.0000

> <Gold.Chemscore.DEClash>
0.1677

> <Gold.Chemscore.DEInternal>
2.0560

> <Gold.Chemscore.Rot>
1.8825

> <Gold.Chemscore.Internal.Correction>
   9.000000E+99

> <Gold.Chemscore.Hbonds>
donor molecule, donor type, donor heavy atom, donor atom, acceptor molecule, acceptor atom, score
      L1  H     3    42       P1  7957  1.00
      P1  H  6896  6907       L1    12  0.79
      P1  H  6931  6943       L1    13  0.75
      P1  H  6934  6947       L1    13  0.03

> <Gold.Chemscore.Hbond.Weighted>
-9.6625

> <Gold.Chemscore.Metal.Weighted>
-0.0000

> <Gold.Chemscore.Lipo.Weighted>
-8.2961

> <Gold.Chemscore.Internal_Hbond.Weighted>
0.0000

> <Gold.Chemscore.DEClash.Weighted>
0.1677

> <Gold.Chemscore.DEInternal.Weighted>
2.0560

> <Gold.Chemscore.Rot.Weighted>
4.8191

> <Gold.Chemscore.Internal.Correction.Weighted>
   9.000000E+99

> <Gold.Protein.RotatedTorsions>
[ 6907 6896 6895 6894 ] final  -49.04 input  -60.11 | X-H torsion
[ 7974 7965 7964 7962 ] final   52.94 input  175.53 | X-H torsion
[ 8008 7997 7996 7995 ] final  179.31 input   59.86 | X-H torsion
[ 10167 10162 10161 10158 ] final  113.94 input  -65.29 | X-H torsion
[ 10718 10713 10712 10709 ] final -175.45 input   66.30 | X-H torsion
[ 10763 10752 10751 10750 ] final   -7.27 input  -60.55 | X-H torsion
[ 11005 11000 10999 10996 ] final   60.57 input  -57.11 | X-H torsion

> <Gold.Protein.ActiveResidues>
 VAL166  LYS551  ARG553  GLY616  TRP617  ASP618  TYR619  PRO620  LYS621  CYS622 
 ASP623  PHE694  ASN695  SER759  ASP760  ASP761  ALA762  ILE779  LEU786  VAL792 
 PHE793  MET794  SER795  GLU796  ALA797  LYS798  CYS799  TRP800  GLU811  SER814 

> <Gold.Protein.RotatedAtoms>
  150.8845  134.8240  159.7248 H   0  0  0  0  0  0  0  0  0  0  0  0  # atno 6907 bound_to 6896
  152.4799  134.4744  159.9656 H   0  0  0  0  0  0  0  0  0  0  0  0  # atno 6908 bound_to 6896
  151.4815  133.3506  159.2874 H   0  0  0  0  0  0  0  0  0  0  0  0  # atno 6909 bound_to 6896
  145.9762  139.4197  143.0160 H   0  0  0  0  0  0  0  0  0  0  0  0  # atno 7974 bound_to 7965
  156.0448  140.1312  157.0116 H   0  0  0  0  0  0  0  0  0  0  0  0  # atno 8008 bound_to 7997
  154.4407  140.1023  156.6360 H   0  0  0  0  0  0  0  0  0  0  0  0  # atno 8009 bound_to 7997
  155.5612  140.3465  155.4494 H   0  0  0  0  0  0  0  0  0  0  0  0  # atno 8010 bound_to 7997
  139.6425  144.7124  151.2209 H   0  0  0  0  0  0  0  0  0  0  0  0  # atno 10167 bound_to 10162
  156.8000  130.9549  151.3119 H   0  0  0  0  0  0  0  0  0  0  0  0  # atno 10718 bound_to 10713
  153.4240  135.7010  153.6275 H   0  0  0  0  0  0  0  0  0  0  0  0  # atno 10763 bound_to 10752
  153.4718  135.3713  155.2395 H   0  0  0  0  0  0  0  0  0  0  0  0  # atno 10764 bound_to 10752
  154.8723  135.4045  154.3613 H   0  0  0  0  0  0  0  0  0  0  0  0  # atno 10765 bound_to 10752
  140.0222  134.6136  155.9623 H   0  0  0  0  0  0  0  0  0  0  0  0  # atno 11005 bound_to 11000
  145.7835  140.9846  143.1086 LP  0  0  0  0  0  0  0  0  0  0  0  0  # atno 17320 bound_to 7965
  144.6849  139.9594  143.7480 LP  0  0  0  0  0  0  0  0  0  0  0  0  # atno 17321 bound_to 7965
  140.7498  143.6288  150.8443 LP  0  0  0  0  0  0  0  0  0  0  0  0  # atno 17342 bound_to 10162
  139.9927  143.5830  152.2904 LP  0  0  0  0  0  0  0  0  0  0  0  0  # atno 17343 bound_to 10162
  157.6558  130.8923  149.9726 LP  0  0  0  0  0  0  0  0  0  0  0  0  # atno 17370 bound_to 10713
  156.1107  130.3650  150.0055 LP  0  0  0  0  0  0  0  0  0  0  0  0  # atno 17371 bound_to 10713
  141.1781  133.6542  156.4908 LP  0  0  0  0  0  0  0  0  0  0  0  0  # atno 17394 bound_to 11000
  140.4367  134.7052  157.4970 LP  0  0  0  0  0  0  0  0  0  0  0  0  # atno 17395 bound_to 11000

$$$$
