AV-unprocessed.smi:1703|AV-procd|sdf|6865|dock9
  -GOLD-   22720 8 63D 1   1.00000     0.00000
 Structure written by MMmdl.
 49 51  0  0  0  0  0  0  0  0  2 V2000
  144.1146  143.4284  155.3406 C   0  0  0  0  0  0  0  0  0  0  0  0
  145.4167  143.4272  156.1488 C   0  0  2  0  0  0  0  0  0  0  0  0
  146.2974  142.2035  155.8323 C   0  0  0  0  0  0  0  0  0  0  0  0
  147.5096  142.2068  156.6872 N   0  3  2  0  0  0  0  0  0  0  0  0
  148.4502  141.0936  156.3987 C   0  0  0  0  0  0  0  0  0  0  0  0
  149.5165  141.4787  155.3545 C   0  0  1  0  0  0  0  0  0  0  0  0
  148.8891  142.1989  154.3103 O   0  0  0  0  0  0  0  0  0  0  0  0
  150.6393  142.3364  155.9723 C   0  0  0  0  0  0  0  0  0  0  0  0
  151.4408  141.6018  156.9426 N   0  0  0  0  0  0  0  0  0  0  0  0
  152.0123  140.3787  156.8040 C   0  0  0  0  0  0  0  0  0  0  0  0
  151.8737  139.5669  155.5527 C   0  0  0  0  0  0  0  0  0  0  0  0
  153.1029  139.3828  154.8840 O   0  0  0  0  0  0  0  0  0  0  0  0
  152.7043  139.9388  157.8552 N   0  0  0  0  0  0  0  0  0  0  0  0
  152.5660  140.9697  158.7636 C   0  0  0  0  0  0  0  0  0  0  0  0
  153.0714  141.1110  160.0757 C   0  0  0  0  0  0  0  0  0  0  0  0
  152.7962  142.2735  160.8252 C   0  0  0  0  0  0  0  0  0  0  0  0
  152.0122  143.3083  160.2755 C   0  0  0  0  0  0  0  0  0  0  0  0
  151.4978  143.1874  158.9704 C   0  0  0  0  0  0  0  0  0  0  0  0
  151.7776  142.0259  158.2250 C   0  0  0  0  0  0  0  0  0  0  0  0
  147.1299  142.2774  158.1179 C   0  0  0  0  0  0  0  0  0  0  0  0
  146.2242  143.4969  158.3756 C   0  0  2  0  0  0  0  0  0  0  0  0
  145.7437  143.5641  159.8294 C   0  0  0  0  0  0  0  0  0  0  0  0
  145.0805  143.4127  157.5323 O   0  0  0  0  0  0  0  0  0  0  0  0
  144.3169  143.4439  154.2693 H   0  0  0  0  0  0  0  0  0  0  0  0
  143.5105  144.3049  155.5768 H   0  0  0  0  0  0  0  0  0  0  0  0
  143.5150  142.5433  155.5553 H   0  0  0  0  0  0  0  0  0  0  0  0
  145.9660  144.3429  155.9223 H   0  0  0  0  0  0  0  0  0  0  0  0
  145.7363  141.2823  155.9986 H   0  0  0  0  0  0  0  0  0  0  0  0
  146.5744  142.2220  154.7787 H   0  0  0  0  0  0  0  0  0  0  0  0
  148.9579  140.7956  157.3176 H   0  0  0  0  0  0  0  0  0  0  0  0
  147.8855  140.2206  156.0675 H   0  0  0  0  0  0  0  0  0  0  0  0
  149.9604  140.5828  154.9228 H   0  0  0  0  0  0  0  0  0  0  0  0
  148.9170  143.1206  154.5181 H   0  0  0  0  0  0  0  0  0  0  0  0
  151.3015  142.7134  155.1916 H   0  0  0  0  0  0  0  0  0  0  0  0
  150.2189  143.2175  156.4569 H   0  0  0  0  0  0  0  0  0  0  0  0
  151.4389  138.5956  155.7868 H   0  0  0  0  0  0  0  0  0  0  0  0
  151.1804  140.0658  154.8749 H   0  0  0  0  0  0  0  0  0  0  0  0
  153.3427  138.4705  154.9419 H   0  0  0  0  0  0  0  0  0  0  0  0
  153.6720  140.3236  160.5060 H   0  0  0  0  0  0  0  0  0  0  0  0
  153.1886  142.3712  161.8267 H   0  0  0  0  0  0  0  0  0  0  0  0
  151.8061  144.1950  160.8567 H   0  0  0  0  0  0  0  0  0  0  0  0
  150.8981  143.9794  158.5481 H   0  0  0  0  0  0  0  0  0  0  0  0
  146.6186  141.3567  158.4044 H   0  0  0  0  0  0  0  0  0  0  0  0
  148.0274  142.3524  158.7336 H   0  0  0  0  0  0  0  0  0  0  0  0
  146.7697  144.4149  158.1493 H   0  0  0  0  0  0  0  0  0  0  0  0
  146.5858  143.6331  160.5184 H   0  0  0  0  0  0  0  0  0  0  0  0
  145.1641  142.6798  160.0960 H   0  0  0  0  0  0  0  0  0  0  0  0
  145.1112  144.4375  159.9907 H   0  0  0  0  0  0  0  0  0  0  0  0
  148.0122  143.0599  156.4857 H   0  0  0  0  0  0  0  0  0  0  0  0
  1  2  1  0  0  0  0
  1 24  1  0  0  0  0
  1 25  1  0  0  0  0
  1 26  1  0  0  0  0
  2 23  1  0  0  0  0
  2  3  1  0  0  0  0
  2 27  1  0  0  0  0
  3  4  1  0  0  0  0
  3 28  1  0  0  0  0
  3 29  1  0  0  0  0
  4  5  1  0  0  0  0
  4 20  1  0  0  0  0
  4 49  1  0  0  0  0
  5  6  1  0  0  0  0
  5 30  1  0  0  0  0
  5 31  1  0  0  0  0
  6  7  1  0  0  0  0
  6  8  1  0  0  0  0
  6 32  1  0  0  0  0
  7 33  1  0  0  0  0
  8  9  1  0  0  0  0
  8 34  1  0  0  0  0
  8 35  1  0  0  0  0
  9 19  1  0  0  0  0
  9 10  1  0  0  0  0
 10 11  1  0  0  0  0
 10 13  2  0  0  0  0
 11 12  1  0  0  0  0
 11 36  1  0  0  0  0
 11 37  1  0  0  0  0
 12 38  1  0  0  0  0
 13 14  1  0  0  0  0
 14 19  2  0  0  0  0
 14 15  1  0  0  0  0
 15 16  2  0  0  0  0
 15 39  1  0  0  0  0
 16 17  1  0  0  0  0
 16 40  1  0  0  0  0
 17 18  2  0  0  0  0
 17 41  1  0  0  0  0
 18 19  1  0  0  0  0
 18 42  1  0  0  0  0
 20 21  1  0  0  0  0
 20 43  1  0  0  0  0
 20 44  1  0  0  0  0
 21 22  1  0  0  0  0
 21 23  1  0  0  0  0
 21 45  1  0  0  0  0
 22 46  1  0  0  0  0
 22 47  1  0  0  0  0
 22 48  1  0  0  0  0
M  CHG  1   4   1
M  END
> <s_m_source_file>
AV-unprocessed.smi

> <i_m_source_file_index>
1703

> <i_lp_mmshare_version>
43012

> <i_f3d_flags>
0

> <s_epik_input>
W0NIM11bQ0BASF0xW0NIMl1OKFtDSDJdW0NASF0oTzEpW0NIM10pW0NIMl1bQ0BIXShbT0hdKVtDSDJdbihjKG4yKVtDSDJdW09IXSljKGMyMylbY0hdW2NIXVtjSF1bY0hdMw==

> <s_epik_cmdline>
J2VwaWtfcHl0aG9uJywgJy1waCcsICc3LjAnLCAnLXRuJywgJzgnLCAnLW1hJywgJzIwMCcsICctbWV0YWxfYmluZGluZycsICctaW1hZScsICc8aW5maWxlLm1hZT4nLCAnLW9tYWUnLCAnPG91dGZpbGUubWFlPic=

> <r_epik_Ionization_Penalty>
0.655661

> <r_epik_Ionization_Penalty_Charging>
0.608065

> <r_epik_Ionization_Penalty_Neutral>
0.0475963

> <r_epik_State_Penalty>
0.695267

> <r_epik_Charging_Adjusted_Penalty>
1.30333

> <i_epik_Tot_Q>
1

> <i_epik_Tot_abs_Q>
1

> <r_epik_Metal_State_Penalty>
0.653591

> <b_epik_Metal_Only>
0

> <s_lp_Force_Field>
OPLS_2005

> <r_lp_Energy>
21.6457

> <b_lp_Chiralities_Consistent>
1

> <s_lp_Variant>
AV-unprocessed.smi:1703-13

> <Gold.Version>
5.8.1

> <Gold.Id.Protein>
6NUR|6NUR_protein|mol2

> <Gold.PLP.Fitness>
51.6461

> <Gold.PLP.PLP>
-39.3796

> <Gold.PLP.part.hbond>
-6.0000

> <Gold.PLP.part.metal>
0.0000

> <Gold.PLP.part.buried>
-2.6767

> <Gold.PLP.part.nonpolar>
-27.9023

> <Gold.PLP.part.repulsive>
0.1157

> <Gold.PLP.ligand.clash>
0.0000

> <Gold.PLP.ligand.torsion>
0.7793

> <Gold.PLP.Chemscore.Hbond>
4.5886

> <Gold.PLP.Chemscore.CHOScore>
0.0000

> <Gold.PLP.Chemscore.Metal>
0.0000

> <Gold.Chemscore.Hbonds>
donor molecule, donor type, donor heavy atom, donor atom, acceptor molecule, acceptor atom, score
      L1  H     4    49       P1  8028  2.00
      L1  H     7    33       P1  8028  1.00
      P1  H  7997  8008       L1    13  0.34
      P1  H  7997  8009       L1    12  0.80
      P1  H  8011  8017       L1     7  0.13

> <Gold.PLP.Chemscore.Internal.Correction>
0.0593

> <Gold.Rescore>
     Score         DG    S(hbond)    S(metal)    S(lipo)     H(rot)  DE(clash)    DE(int)     intcor
     14.41     -17.39       2.26        0.00     101.97       2.96       1.44       1.54       ----

> <Gold.Chemscore.Fitness>
14.4142

> <Gold.Chemscore.DG>
-17.3930

> <Gold.Chemscore.ZeroCoef>
-5.4800

> <Gold.Chemscore.Hbond>
2.2643

> <Gold.Chemscore.Metal>
0.0000

> <Gold.Chemscore.Lipo>
101.9697

> <Gold.Chemscore.Internal_Hbond>
0.0000

> <Gold.Chemscore.DEClash>
1.4400

> <Gold.Chemscore.DEInternal>
1.5387

> <Gold.Chemscore.Rot>
2.9611

> <Gold.Chemscore.Internal.Correction>
   9.000000E+99

> <Gold.Chemscore.Hbonds>
donor molecule, donor type, donor heavy atom, donor atom, acceptor molecule, acceptor atom, score
      L1  H     4    49       P1  8028  0.28
      L1  H     7    33       P1  8028  0.98
      P1  H  7997  8008       L1    13  0.08
      P1  H  7997  8009       L1    12  0.22
      P1  H  8011  8017       L1     7  0.01

> <Gold.Chemscore.Hbond.Weighted>
-7.5629

> <Gold.Chemscore.Metal.Weighted>
-0.0000

> <Gold.Chemscore.Lipo.Weighted>
-11.9305

> <Gold.Chemscore.Internal_Hbond.Weighted>
0.0000

> <Gold.Chemscore.DEClash.Weighted>
1.4400

> <Gold.Chemscore.DEInternal.Weighted>
1.5387

> <Gold.Chemscore.Rot.Weighted>
7.5803

> <Gold.Chemscore.Internal.Correction.Weighted>
   9.000000E+99

> <Gold.Protein.RotatedTorsions>
[ 6907 6896 6895 6894 ] final  -38.90 input  -60.11 | X-H torsion
[ 7974 7965 7964 7962 ] final   73.12 input  175.53 | X-H torsion
[ 8008 7997 7996 7995 ] final -104.19 input   59.86 | X-H torsion
[ 10167 10162 10161 10158 ] final   28.84 input  -65.29 | X-H torsion
[ 10718 10713 10712 10709 ] final  -87.85 input   66.30 | X-H torsion
[ 10763 10752 10751 10750 ] final  137.93 input  -60.55 | X-H torsion
[ 11005 11000 10999 10996 ] final -106.78 input  -57.11 | X-H torsion

> <Gold.Protein.ActiveResidues>
 VAL166  LYS551  ARG553  GLY616  TRP617  ASP618  TYR619  PRO620  LYS621  CYS622 
 ASP623  PHE694  ASN695  SER759  ASP760  ASP761  ALA762  ILE779  LEU786  VAL792 
 PHE793  MET794  SER795  GLU796  ALA797  LYS798  CYS799  TRP800  GLU811  SER814 

> <Gold.Protein.RotatedAtoms>
  150.9969  134.9290  159.7931 H   0  0  0  0  0  0  0  0  0  0  0  0  # atno 6907 bound_to 6896
  152.5267  134.3207  159.9157 H   0  0  0  0  0  0  0  0  0  0  0  0  # atno 6908 bound_to 6896
  151.3212  133.3997  159.2689 H   0  0  0  0  0  0  0  0  0  0  0  0  # atno 6909 bound_to 6896
  145.7448  139.2735  143.1465 H   0  0  0  0  0  0  0  0  0  0  0  0  # atno 7974 bound_to 7965
  154.8817  140.0419  157.1786 H   0  0  0  0  0  0  0  0  0  0  0  0  # atno 8008 bound_to 7997
  154.8632  140.2947  155.5505 H   0  0  0  0  0  0  0  0  0  0  0  0  # atno 8009 bound_to 7997
  156.2998  140.2443  156.3609 H   0  0  0  0  0  0  0  0  0  0  0  0  # atno 8010 bound_to 7997
  140.4818  144.0604  150.6268 H   0  0  0  0  0  0  0  0  0  0  0  0  # atno 10167 bound_to 10162
  155.9984  130.4814  150.4930 H   0  0  0  0  0  0  0  0  0  0  0  0  # atno 10718 bound_to 10713
  153.8812  135.3044  155.3445 H   0  0  0  0  0  0  0  0  0  0  0  0  # atno 10763 bound_to 10752
  154.7761  135.4860  153.9749 H   0  0  0  0  0  0  0  0  0  0  0  0  # atno 10764 bound_to 10752
  153.1351  135.6812  153.9214 H   0  0  0  0  0  0  0  0  0  0  0  0  # atno 10765 bound_to 10752
  141.0987  133.8923  157.1897 H   0  0  0  0  0  0  0  0  0  0  0  0  # atno 11005 bound_to 11000
  146.0413  140.8162  142.9827 LP  0  0  0  0  0  0  0  0  0  0  0  0  # atno 17320 bound_to 7965
  144.6862  140.2915  143.7277 LP  0  0  0  0  0  0  0  0  0  0  0  0  # atno 17321 bound_to 7965
  140.3848  143.2783  152.0128 LP  0  0  0  0  0  0  0  0  0  0  0  0  # atno 17342 bound_to 10162
  139.4835  144.6125  151.7407 LP  0  0  0  0  0  0  0  0  0  0  0  0  # atno 17343 bound_to 10162
  157.2923  131.0628  151.2125 LP  0  0  0  0  0  0  0  0  0  0  0  0  # atno 17370 bound_to 10713
  157.3134  130.6901  149.6228 LP  0  0  0  0  0  0  0  0  0  0  0  0  # atno 17371 bound_to 10713
  139.9832  135.0091  156.9800 LP  0  0  0  0  0  0  0  0  0  0  0  0  # atno 17394 bound_to 11000
  140.5075  134.1035  155.7263 LP  0  0  0  0  0  0  0  0  0  0  0  0  # atno 17395 bound_to 11000

$$$$
