#       Name:                AV-unprocessed.smi:2063
#       Creating user name   scv26
#       Creation time:       Fri Mar 27 11:09:57 2020


#       File generated by GOLD software.
#

@<TRIPOS>MOLECULE
AV-unprocessed.smi:2063
    45    46     1
SMALL
NO_CHARGES


@<TRIPOS>ATOM
      1 ****        -5.8926   2.7482  -1.2412 C.3            1 S1                 0.0000
      2 ****        -5.5125   1.8431  -0.0604 C.3            1 S1                 0.0000
      3 ****        -5.6594   2.5526   1.2933 C.3            1 S1                 0.0000
      4 ****        -4.1505   1.2435  -0.2308 C.2            1 S1                 0.0000
      5 ****        -3.9539  -0.0765  -0.3427 N.2            1 S1                 0.0000
      6 ****        -2.6125  -0.4016  -0.4867 N.2            1 S1                 0.0000
      7 ****        -1.8305   0.6864  -0.4792 C.2            1 S1                 0.0000
      8 ****        -0.4172   0.6440  -0.6106 N.am           1 S1                 0.0000
      9 ****         0.3769  -0.4337  -0.7375 C.2            1 S1                 0.0000
     10 ****        -0.0078  -1.6032  -0.7503 O.2            1 S1                 0.0000
     11 ****         1.6643  -0.0740  -0.8474 N.am           1 S1                 0.0000
     12 ****         2.7963  -0.9881  -0.9841 C.3            1 S1                 0.0000
     13 ****         3.7736  -0.4028  -2.0152 C.3            1 S1                 0.0000
     14 ****         3.4594  -1.2086   0.3912 C.3            1 S1                 0.0000
     15 ****         4.6240  -2.1989   0.3899 C.3            1 S1                 0.0000
     16 ****         4.6841  -2.6762   1.8315 C.3            1 S1                 0.0000
     17 ****         3.3127  -2.3052   2.4031 C.3            1 S1                 0.0000
     18 ****         2.5591  -1.8300   1.2960 O.3            1 S1                 0.0000
     19 ****        -2.6788   2.2116  -0.2963 S.3            1 S1                 0.0000
     20 ****        -5.8466   2.2022  -2.1839 H              1 S1                 0.0000
     21 ****        -5.2230   3.6052  -1.3192 H              1 S1                 0.0000
     22 ****        -6.9076   3.1304  -1.1313 H              1 S1                 0.0000
     23 ****        -6.2257   1.0172  -0.0584 H              1 S1                 0.0000
     24 ****        -5.4492   1.8706   2.1178 H              1 S1                 0.0000
     25 ****        -6.6727   2.9316   1.4296 H              1 S1                 0.0000
     26 ****        -4.9757   3.3978   1.3774 H              1 S1                 0.0000
     27 ****         0.0444   1.5414  -0.6071 H              1 S1                 0.0000
     28 ****         1.8828   0.9110  -0.8229 H              1 S1                 0.0000
     29 ****         2.4507  -1.9503  -1.3662 H              1 S1                 0.0000
     30 ****         4.6093  -1.0780  -2.1995 H              1 S1                 0.0000
     31 ****         4.1834   0.5500  -1.6784 H              1 S1                 0.0000
     32 ****         3.2783  -0.2333  -2.9719 H              1 S1                 0.0000
     33 ****         3.7836  -0.2563   0.8160 H              1 S1                 0.0000
     34 ****         4.3997  -3.0426  -0.2643 H              1 S1                 0.0000
     35 ****         5.5601  -1.7516   0.0551 H              1 S1                 0.0000
     36 ****         4.8730  -3.7489   1.8842 H              1 S1                 0.0000
     37 ****         5.4755  -2.1677   2.3830 H              1 S1                 0.0000
     38 ****         2.8147  -3.1512   2.8771 H              1 S1                 0.0000
     39 ****         3.4084  -1.5085   3.1421 H              1 S1                 0.0000
     40 ****        -4.6909  -0.7520  -0.3246 LP             1 S1                 0.0000
     41 ****        -2.2703  -1.3362  -0.5844 LP             1 S1                 0.0000
     42 ****        -0.9821  -1.8100  -0.6618 LP             1 S1                 0.0000
     43 ****         0.6542  -2.3462  -0.8493 LP             1 S1                 0.0000
     44 ****         2.0979  -2.5944   0.8454 LP             1 S1                 0.0000
     45 ****         1.8785  -1.1669   1.6075 LP             1 S1                 0.0000
@<TRIPOS>BOND
    1    1    2 1     
    2    1   20 1     
    3    1   21 1     
    4    1   22 1     
    5    2    3 1     
    6    2    4 1     
    7    2   23 1     
    8    3   24 1     
    9    3   25 1     
   10    3   26 1     
   11    4   19 1     
   12    4    5 2     
   13    5    6 1     
   14    6    7 2     
   15    7    8 1     
   16    7   19 1     
   17    8    9 am    
   18    8   27 1     
   19    9   10 2     
   20    9   11 am    
   21   11   12 1     
   22   11   28 1     
   23   12   13 1     
   24   12   14 1     
   25   12   29 1     
   26   13   30 1     
   27   13   31 1     
   28   13   32 1     
   29   14   18 1     
   30   14   15 1     
   31   14   33 1     
   32   15   16 1     
   33   15   34 1     
   34   15   35 1     
   35   16   17 1     
   36   16   36 1     
   37   16   37 1     
   38   17   18 1     
   39   17   38 1     
   40   17   39 1     
   41    5   40 1     
   42    6   41 1     
   43   10   42 1     
   44   10   43 1     
   45   18   44 1     
   46   18   45 1     
@<TRIPOS>SUBSTRUCTURE
      1 S1             1
@<TRIPOS>SET
LONE_PAIRS      STATIC     ATOMS    <user>   **** ""
6 40 41 42 43 44 45
DONOR_HYDROGENS      STATIC     ATOMS    <user>   **** ""
2 27 28
ATOM$BLUE        STATIC     ATOMS    COLORGROUP SYSTEM
6 40 41 42 43 44 45
ATOM$RED        STATIC     ATOMS    COLORGROUP SYSTEM
2 27 28
