AV-unprocessed.smi:1051|AV-procd|sdf|4614|dock9
  -GOLD-   22720 3113D 1   1.00000     0.00000
 Structure written by MMmdl.
 45 47  0  0  0  0  0  0  0  0  1 V2000
  143.4149  144.3366  156.3427 C   0  0  0  0  0  0  0  0  0  0  0  0
  144.4503  143.3610  156.9002 C   0  0  0  0  0  0  0  0  0  0  0  0
  144.4335  143.1074  158.1042 O   0  0  0  0  0  0  0  0  0  0  0  0
  145.4298  142.7658  155.9467 C   0  0  0  0  0  0  0  0  0  0  0  0
  145.2334  142.8221  154.5474 C   0  0  0  0  0  0  0  0  0  0  0  0
  146.1773  142.2508  153.6746 C   0  0  0  0  0  0  0  0  0  0  0  0
  147.3252  141.6175  154.1850 C   0  0  0  0  0  0  0  0  0  0  0  0
  147.5407  141.5494  155.5831 C   0  0  0  0  0  0  0  0  0  0  0  0
  148.6335  140.9483  156.1703 O   0  0  0  0  0  0  0  0  0  0  0  0
  149.6943  140.5072  155.3304 C   0  0  0  0  0  0  0  0  0  0  0  0
  151.0337  140.5846  156.0830 C   0  0  2  0  0  0  0  0  0  0  0  0
  152.0167  139.9587  155.2830 O   0  0  0  0  0  0  0  0  0  0  0  0
  150.9838  139.9340  157.4803 C   0  0  0  0  0  0  0  0  0  0  0  0
  151.6713  140.7503  158.4786 N   0  0  0  0  0  0  0  0  0  0  0  0
  152.5094  140.3055  159.4445 C   0  0  0  0  0  0  0  0  0  0  0  0
  152.8302  139.1331  159.6381 O   0  0  0  0  0  0  0  0  0  0  0  0
  152.9448  141.3771  160.1477 N   0  0  0  0  0  0  0  0  0  0  0  0
  153.8673  141.3703  161.2764 C   0  0  0  0  0  0  0  0  0  0  0  0
  152.3890  142.5412  159.6024 C   0  0  0  0  0  0  0  0  0  0  0  0
  152.5429  143.8917  159.9592 C   0  0  0  0  0  0  0  0  0  0  0  0
  151.8386  144.8471  159.1894 C   0  0  0  0  0  0  0  0  0  0  0  0
  151.0170  144.4438  158.1045 C   0  0  0  0  0  0  0  0  0  0  0  0
  150.8807  143.0767  157.7670 C   0  0  0  0  0  0  0  0  0  0  0  0
  151.5887  142.1485  158.5504 C   0  0  0  0  0  0  0  0  0  0  0  0
  146.5880  142.1272  156.4474 C   0  0  0  0  0  0  0  0  0  0  0  0
  143.9061  145.2010  155.8958 H   0  0  0  0  0  0  0  0  0  0  0  0
  142.7582  144.6915  157.1375 H   0  0  0  0  0  0  0  0  0  0  0  0
  142.8002  143.8501  155.5852 H   0  0  0  0  0  0  0  0  0  0  0  0
  144.3645  143.2992  154.1193 H   0  0  0  0  0  0  0  0  0  0  0  0
  146.0196  142.2984  152.6071 H   0  0  0  0  0  0  0  0  0  0  0  0
  148.0248  141.1920  153.4820 H   0  0  0  0  0  0  0  0  0  0  0  0
  149.5181  139.4914  154.9718 H   0  0  0  0  0  0  0  0  0  0  0  0
  149.7476  141.1607  154.4579 H   0  0  0  0  0  0  0  0  0  0  0  0
  151.3056  141.6376  156.1710 H   0  0  0  0  0  0  0  0  0  0  0  0
  151.9786  139.0262  155.4328 H   0  0  0  0  0  0  0  0  0  0  0  0
  149.9466  139.8262  157.7995 H   0  0  0  0  0  0  0  0  0  0  0  0
  151.3889  138.9207  157.4571 H   0  0  0  0  0  0  0  0  0  0  0  0
  153.4544  141.9448  162.1060 H   0  0  0  0  0  0  0  0  0  0  0  0
  154.8179  141.8200  160.9876 H   0  0  0  0  0  0  0  0  0  0  0  0
  154.0653  140.3599  161.6368 H   0  0  0  0  0  0  0  0  0  0  0  0
  153.1728  144.1905  160.7840 H   0  0  0  0  0  0  0  0  0  0  0  0
  151.9286  145.8963  159.4294 H   0  0  0  0  0  0  0  0  0  0  0  0
  150.4899  145.1904  157.5285 H   0  0  0  0  0  0  0  0  0  0  0  0
  150.2595  142.7646  156.9406 H   0  0  0  0  0  0  0  0  0  0  0  0
  146.7598  142.0711  157.5129 H   0  0  0  0  0  0  0  0  0  0  0  0
  1  2  1  0  0  0  0
  1 26  1  0  0  0  0
  1 27  1  0  0  0  0
  1 28  1  0  0  0  0
  2  3  2  0  0  0  0
  2  4  1  0  0  0  0
  4 25  1  0  0  0  0
  4  5  2  0  0  0  0
  5  6  1  0  0  0  0
  5 29  1  0  0  0  0
  6  7  2  0  0  0  0
  6 30  1  0  0  0  0
  7  8  1  0  0  0  0
  7 31  1  0  0  0  0
  8  9  1  0  0  0  0
  8 25  2  0  0  0  0
  9 10  1  0  0  0  0
 10 11  1  0  0  0  0
 10 32  1  0  0  0  0
 10 33  1  0  0  0  0
 11 12  1  0  0  0  0
 11 13  1  0  0  0  0
 11 34  1  0  0  0  0
 12 35  1  0  0  0  0
 13 14  1  0  0  0  0
 13 36  1  0  0  0  0
 13 37  1  0  0  0  0
 14 24  1  0  0  0  0
 14 15  1  0  0  0  0
 15 16  2  0  0  0  0
 15 17  1  0  0  0  0
 17 18  1  0  0  0  0
 17 19  1  0  0  0  0
 18 38  1  0  0  0  0
 18 39  1  0  0  0  0
 18 40  1  0  0  0  0
 19 24  2  0  0  0  0
 19 20  1  0  0  0  0
 20 21  2  0  0  0  0
 20 41  1  0  0  0  0
 21 22  1  0  0  0  0
 21 42  1  0  0  0  0
 22 23  2  0  0  0  0
 22 43  1  0  0  0  0
 23 24  1  0  0  0  0
 23 44  1  0  0  0  0
 25 45  1  0  0  0  0
M  END
> <s_m_source_file>
AV-unprocessed.smi

> <i_m_source_file_index>
1051

> <i_lp_mmshare_version>
43012

> <i_f3d_flags>
0

> <s_epik_input>
W0NIM11DKD1PKWMxW2NIXVtjSF1bY0hdYyhbY0hdMSlPW0NIMl1bQ0BIXShbT0hdKVtDSDJdbihjKD1PKW4yW0NIM10pYyhjMjMpW2NIXVtjSF1bY0hdW2NIXTM=

> <s_epik_cmdline>
J2VwaWtfcHl0aG9uJywgJy1waCcsICc3LjAnLCAnLXRuJywgJzgnLCAnLW1hJywgJzIwMCcsICctbWV0YWxfYmluZGluZycsICctaW1hZScsICc8aW5maWxlLm1hZT4nLCAnLW9tYWUnLCAnPG91dGZpbGUubWFlPic=

> <r_lp_tautomer_probability>
1

> <r_epik_Ionization_Penalty>
2.40143e-06

> <r_epik_Ionization_Penalty_Charging>
2.1343e-09

> <r_epik_Ionization_Penalty_Neutral>
2.3993e-06

> <r_epik_State_Penalty>
-0

> <r_epik_Charging_Adjusted_Penalty>
2.1343e-09

> <i_epik_Tot_Q>
0

> <i_epik_Tot_abs_Q>
0

> <r_epik_Metal_State_Penalty>
-0

> <b_epik_Metal_Only>
0

> <s_lp_Force_Field>
OPLS_2005

> <r_lp_Energy>
56.3875

> <b_lp_Chiralities_Consistent>
1

> <s_lp_Variant>
AV-unprocessed.smi:1051-1

> <Gold.Version>
5.8.1

> <Gold.Id.Protein>
6NUR|6NUR_protein|mol2

> <Gold.PLP.Fitness>
56.0773

> <Gold.PLP.PLP>
-55.4226

> <Gold.PLP.part.hbond>
-1.8898

> <Gold.PLP.part.metal>
0.0000

> <Gold.PLP.part.buried>
-6.5958

> <Gold.PLP.part.nonpolar>
-48.0406

> <Gold.PLP.part.repulsive>
0.1187

> <Gold.PLP.ligand.clash>
0.0000

> <Gold.PLP.ligand.torsion>
1.2471

> <Gold.PLP.Chemscore.Hbond>
1.0385

> <Gold.PLP.Chemscore.CHOScore>
0.0000

> <Gold.PLP.Chemscore.Metal>
0.0000

> <Gold.Chemscore.Hbonds>
donor molecule, donor type, donor heavy atom, donor atom, acceptor molecule, acceptor atom, score
      P1  H  7989  7998       L1    12  0.83

> <Gold.PLP.Chemscore.Internal.Correction>
0.0333

> <Gold.Rescore>
     Score         DG    S(hbond)    S(metal)    S(lipo)     H(rot)  DE(clash)    DE(int)     intcor
     16.71     -18.54       0.91        0.00     136.09       2.30       0.76       1.08       ----

> <Gold.Chemscore.Fitness>
16.7082

> <Gold.Chemscore.DG>
-18.5432

> <Gold.Chemscore.ZeroCoef>
-5.4800

> <Gold.Chemscore.Hbond>
0.9056

> <Gold.Chemscore.Metal>
0.0000

> <Gold.Chemscore.Lipo>
136.0876

> <Gold.Chemscore.Internal_Hbond>
0.0000

> <Gold.Chemscore.DEClash>
0.7595

> <Gold.Chemscore.DEInternal>
1.0755

> <Gold.Chemscore.Rot>
2.2984

> <Gold.Chemscore.Internal.Correction>
   9.000000E+99

> <Gold.Chemscore.Hbonds>
donor molecule, donor type, donor heavy atom, donor atom, acceptor molecule, acceptor atom, score
      P1  H  7989  7998       L1    12  0.20

> <Gold.Chemscore.Hbond.Weighted>
-3.0248

> <Gold.Chemscore.Metal.Weighted>
-0.0000

> <Gold.Chemscore.Lipo.Weighted>
-15.9223

> <Gold.Chemscore.Internal_Hbond.Weighted>
0.0000

> <Gold.Chemscore.DEClash.Weighted>
0.7595

> <Gold.Chemscore.DEInternal.Weighted>
1.0755

> <Gold.Chemscore.Rot.Weighted>
5.8839

> <Gold.Chemscore.Internal.Correction.Weighted>
   9.000000E+99

> <Gold.Protein.RotatedTorsions>
[ 6907 6896 6895 6894 ] final  -11.88 input  -60.11 | X-H torsion
[ 7974 7965 7964 7962 ] final  162.25 input  175.53 | X-H torsion
[ 8008 7997 7996 7995 ] final  -28.89 input   59.86 | X-H torsion
[ 10167 10162 10161 10158 ] final -108.53 input  -65.29 | X-H torsion
[ 10718 10713 10712 10709 ] final  125.30 input   66.30 | X-H torsion
[ 10763 10752 10751 10750 ] final  133.24 input  -60.55 | X-H torsion
[ 11005 11000 10999 10996 ] final -126.59 input  -57.11 | X-H torsion

> <Gold.Protein.ActiveResidues>
 VAL166  LYS551  ARG553  GLY616  TRP617  ASP618  TYR619  PRO620  LYS621  CYS622 
 ASP623  PHE694  ASN695  SER759  ASP760  ASP761  ALA762  ILE779  LEU786  VAL792 
 PHE793  MET794  SER795  GLU796  ALA797  LYS798  CYS799  TRP800  GLU811  SER814 

> <Gold.Protein.RotatedAtoms>
  151.3793  135.0937  159.9490 H   0  0  0  0  0  0  0  0  0  0  0  0  # atno 6907 bound_to 6896
  152.5113  133.9088  159.7488 H   0  0  0  0  0  0  0  0  0  0  0  0  # atno 6908 bound_to 6896
  150.9518  133.6486  159.2799 H   0  0  0  0  0  0  0  0  0  0  0  0  # atno 6909 bound_to 6896
  144.7646  139.8012  143.6320 H   0  0  0  0  0  0  0  0  0  0  0  0  # atno 7974 bound_to 7965
  154.4313  140.1833  156.1162 H   0  0  0  0  0  0  0  0  0  0  0  0  # atno 8008 bound_to 7997
  156.0179  140.3344  155.6983 H   0  0  0  0  0  0  0  0  0  0  0  0  # atno 8009 bound_to 7997
  155.6018  140.0641  157.2721 H   0  0  0  0  0  0  0  0  0  0  0  0  # atno 8010 bound_to 7997
  140.1651  143.4088  152.1396 H   0  0  0  0  0  0  0  0  0  0  0  0  # atno 10167 bound_to 10162
  157.5514  131.1094  150.8695 H   0  0  0  0  0  0  0  0  0  0  0  0  # atno 10718 bound_to 10713
  153.8038  135.3138  155.3393 H   0  0  0  0  0  0  0  0  0  0  0  0  # atno 10763 bound_to 10752
  154.8078  135.4686  154.0441 H   0  0  0  0  0  0  0  0  0  0  0  0  # atno 10764 bound_to 10752
  153.1797  135.6891  153.8582 H   0  0  0  0  0  0  0  0  0  0  0  0  # atno 10765 bound_to 10752
  140.9669  134.0859  157.3910 H   0  0  0  0  0  0  0  0  0  0  0  0  # atno 11005 bound_to 11000
  146.1741  139.4904  142.9908 LP  0  0  0  0  0  0  0  0  0  0  0  0  # atno 17320 bound_to 7965
  145.6511  141.0263  143.1760 LP  0  0  0  0  0  0  0  0  0  0  0  0  # atno 17321 bound_to 7965
  139.5363  144.7213  151.4882 LP  0  0  0  0  0  0  0  0  0  0  0  0  # atno 17342 bound_to 10162
  140.6618  143.8483  150.6896 LP  0  0  0  0  0  0  0  0  0  0  0  0  # atno 17343 bound_to 10162
  156.9219  130.5318  149.5279 LP  0  0  0  0  0  0  0  0  0  0  0  0  # atno 17370 bound_to 10713
  156.0580  130.5638  150.9132 LP  0  0  0  0  0  0  0  0  0  0  0  0  # atno 17371 bound_to 10713
  139.8898  135.0107  156.6698 LP  0  0  0  0  0  0  0  0  0  0  0  0  # atno 17394 bound_to 11000
  140.7386  133.8997  155.8262 LP  0  0  0  0  0  0  0  0  0  0  0  0  # atno 17395 bound_to 11000

$$$$
