AV-unprocessed.smi:3141|AV-procd|sdf|11964|dock5
  -GOLD-   2272017363D 1   1.00000     0.00000
 Structure written by MMmdl.
 36 38  0  0  0  0  0  0  0  0  2 V2000
  150.5933  136.8939  156.0806 O   0  0  0  0  0  0  0  0  0  0  0  0
  150.1518  136.6861  154.9504 C   0  0  0  0  0  0  0  0  0  0  0  0
  149.6465  135.5157  154.5408 N   0  0  0  0  0  0  0  0  0  0  0  0
  149.5461  134.3353  155.3360 C   0  0  0  0  0  0  0  0  0  0  0  0
  150.8283  133.7535  155.8909 C   0  0  0  0  0  0  0  0  0  0  0  0
  150.1154  133.0539  154.7669 C   0  0  0  0  0  0  0  0  0  0  0  0
  150.1355  137.6026  153.9718 N   0  0  0  0  0  0  0  0  0  0  0  0
  150.5878  138.9902  154.0957 C   0  0  2  0  0  0  0  0  0  0  0  0
  151.9134  139.0307  154.8827 C   0  0  0  0  0  0  0  0  0  0  0  0
  151.6012  139.6233  156.2679 C   0  0  0  0  0  0  0  0  0  0  0  0
  150.0761  139.6727  156.3738 C   0  0  0  0  0  0  0  0  0  0  0  0
  149.6300  139.8744  154.9221 C   0  0  2  0  0  0  0  0  0  0  0  0
  148.1913  139.6951  154.6478 N   0  0  0  0  0  0  0  0  0  0  0  0
  147.2506  139.2635  155.5485 C   0  0  0  0  0  0  0  0  0  0  0  0
  146.0426  139.2844  154.9015 C   0  0  0  0  0  0  0  0  0  0  0  0
  146.2914  139.7367  153.6346 N   0  3  0  0  0  0  0  0  0  0  0  0
  147.5947  139.9917  153.4827 C   0  0  0  0  0  0  0  0  0  0  0  0
  149.3064  135.4512  153.5924 H   0  0  0  0  0  0  0  0  0  0  0  0
  148.6623  134.2283  155.9637 H   0  0  0  0  0  0  0  0  0  0  0  0
  151.7623  134.2598  155.6543 H   0  0  0  0  0  0  0  0  0  0  0  0
  150.7853  133.2935  156.8760 H   0  0  0  0  0  0  0  0  0  0  0  0
  149.5962  132.1267  155.0018 H   0  0  0  0  0  0  0  0  0  0  0  0
  150.5726  133.0930  153.7799 H   0  0  0  0  0  0  0  0  0  0  0  0
  149.7536  137.3312  153.0774 H   0  0  0  0  0  0  0  0  0  0  0  0
  150.7336  139.4150  153.1006 H   0  0  0  0  0  0  0  0  0  0  0  0
  152.3628  138.0406  154.9742 H   0  0  0  0  0  0  0  0  0  0  0  0
  152.6436  139.6576  154.3693 H   0  0  0  0  0  0  0  0  0  0  0  0
  152.0484  139.0441  157.0762 H   0  0  0  0  0  0  0  0  0  0  0  0
  152.0047  140.6348  156.3300 H   0  0  0  0  0  0  0  0  0  0  0  0
  149.7218  138.7212  156.7698 H   0  0  0  0  0  0  0  0  0  0  0  0
  149.7285  140.4653  157.0371 H   0  0  0  0  0  0  0  0  0  0  0  0
  149.8494  140.9134  154.6684 H   0  0  0  0  0  0  0  0  0  0  0  0
  147.5037  138.9856  156.5616 H   0  0  0  0  0  0  0  0  0  0  0  0
  145.0505  139.0249  155.2413 H   0  0  0  0  0  0  0  0  0  0  0  0
  148.0606  140.3726  152.5923 H   0  0  0  0  0  0  0  0  0  0  0  0
  145.5899  139.8689  152.9169 H   0  0  0  0  0  0  0  0  0  0  0  0
  1  2  2  0  0  0  0
  2  3  1  0  0  0  0
  2  7  1  0  0  0  0
  3  4  1  0  0  0  0
  3 18  1  0  0  0  0
  4  6  1  0  0  0  0
  4  5  1  0  0  0  0
  4 19  1  0  0  0  0
  5  6  1  0  0  0  0
  5 20  1  0  0  0  0
  5 21  1  0  0  0  0
  6 22  1  0  0  0  0
  6 23  1  0  0  0  0
  7  8  1  0  0  0  0
  7 24  1  0  0  0  0
  8 12  1  0  0  0  0
  8  9  1  0  0  0  0
  8 25  1  0  0  0  0
  9 10  1  0  0  0  0
  9 26  1  0  0  0  0
  9 27  1  0  0  0  0
 10 11  1  0  0  0  0
 10 28  1  0  0  0  0
 10 29  1  0  0  0  0
 11 12  1  0  0  0  0
 11 30  1  0  0  0  0
 11 31  1  0  0  0  0
 12 13  1  0  0  0  0
 12 32  1  0  0  0  0
 13 17  1  0  0  0  0
 13 14  1  0  0  0  0
 14 15  2  0  0  0  0
 14 33  1  0  0  0  0
 15 16  1  0  0  0  0
 15 34  1  0  0  0  0
 16 17  2  0  0  0  0
 16 36  1  0  0  0  0
 17 35  1  0  0  0  0
M  CHG  1  16   1
M  END
> <s_m_source_file>
AV-unprocessed.smi

> <i_m_source_file_index>
3141

> <i_lp_mmshare_version>
43012

> <i_f3d_flags>
0

> <s_epik_input>
W0NIMl0xW0NIMl1bQ0hdMVtOSF1DKD1PKVtOSF1bQ0BASF0yW0NIMl1bQ0gyXVtDSDJdW0NASF0ybjNbY0hdW2NIXW5bY0hdMw==

> <s_epik_cmdline>
J2VwaWtfcHl0aG9uJywgJy1waCcsICc3LjAnLCAnLXRuJywgJzgnLCAnLW1hJywgJzIwMCcsICctbWV0YWxfYmluZGluZycsICctaW1hZScsICc8aW5maWxlLm1hZT4nLCAnLW9tYWUnLCAnPG91dGZpbGUubWFlPic=

> <r_lp_tautomer_probability>
1

> <r_epik_Ionization_Penalty>
0.205063

> <r_epik_Ionization_Penalty_Charging>
0

> <r_epik_Ionization_Penalty_Neutral>
0.205063

> <r_epik_State_Penalty>
0.194948

> <r_epik_Charging_Adjusted_Penalty>
0.194948

> <i_epik_Tot_Q>
1

> <i_epik_Tot_abs_Q>
1

> <r_epik_Metal_State_Penalty>
0.500882

> <b_epik_Metal_Only>
0

> <s_lp_Force_Field>
OPLS_2005

> <r_lp_Energy>
37.736

> <b_lp_Chiralities_Consistent>
1

> <s_lp_Variant>
AV-unprocessed.smi:3141-3

> <Gold.Version>
5.8.1

> <Gold.Id.Protein>
6NUR|6NUR_protein|mol2

> <Gold.PLP.Fitness>
39.0698

> <Gold.PLP.PLP>
-24.5644

> <Gold.PLP.part.hbond>
-3.5138

> <Gold.PLP.part.metal>
0.0000

> <Gold.PLP.part.buried>
-1.7984

> <Gold.PLP.part.nonpolar>
-19.1676

> <Gold.PLP.part.repulsive>
0.1149

> <Gold.PLP.ligand.clash>
0.0000

> <Gold.PLP.ligand.torsion>
0.2812

> <Gold.PLP.Chemscore.Hbond>
4.0000

> <Gold.PLP.Chemscore.CHOScore>
1.0000

> <Gold.PLP.Chemscore.Metal>
0.0000

> <Gold.Chemscore.Hbonds>
donor molecule, donor type, donor heavy atom, donor atom, acceptor molecule, acceptor atom, score
      L1  H     3    18       P1  7948  1.00
      L1  H     7    24       P1  7948  1.00
      L1  H    16    36       P1 10175  1.81
      L1  C    17    35       P1  7957  1.00

> <Gold.PLP.Chemscore.Internal.Correction>
0.0678

> <Gold.Rescore>
     Score         DG    S(hbond)    S(metal)    S(lipo)     H(rot)  DE(clash)    DE(int)     intcor
     11.98     -16.23       2.71        0.00      49.82       1.61       0.01       4.25       ----

> <Gold.Chemscore.Fitness>
11.9750

> <Gold.Chemscore.DG>
-16.2285

> <Gold.Chemscore.ZeroCoef>
-5.4800

> <Gold.Chemscore.Hbond>
2.7059

> <Gold.Chemscore.Metal>
0.0000

> <Gold.Chemscore.Lipo>
49.8249

> <Gold.Chemscore.Internal_Hbond>
0.0000

> <Gold.Chemscore.DEClash>
0.0073

> <Gold.Chemscore.DEInternal>
4.2462

> <Gold.Chemscore.Rot>
1.6088

> <Gold.Chemscore.Internal.Correction>
   9.000000E+99

> <Gold.Chemscore.Hbonds>
donor molecule, donor type, donor heavy atom, donor atom, acceptor molecule, acceptor atom, score
      L1  H     3    18       P1  7948  0.33
      L1  H     7    24       P1  7948  0.49
      L1  H    16    36       P1 10175  0.82

> <Gold.Chemscore.Hbond.Weighted>
-9.0376

> <Gold.Chemscore.Metal.Weighted>
-0.0000

> <Gold.Chemscore.Lipo.Weighted>
-5.8295

> <Gold.Chemscore.Internal_Hbond.Weighted>
0.0000

> <Gold.Chemscore.DEClash.Weighted>
0.0073

> <Gold.Chemscore.DEInternal.Weighted>
4.2462

> <Gold.Chemscore.Rot.Weighted>
4.1186

> <Gold.Chemscore.Internal.Correction.Weighted>
   9.000000E+99

> <Gold.Protein.RotatedTorsions>
[ 6907 6896 6895 6894 ] final  -43.53 input  -60.11 | X-H torsion
[ 7974 7965 7964 7962 ] final    3.60 input  175.53 | X-H torsion
[ 8008 7997 7996 7995 ] final  -80.32 input   59.86 | X-H torsion
[ 10167 10162 10161 10158 ] final  -29.96 input  -65.29 | X-H torsion
[ 10718 10713 10712 10709 ] final  104.70 input   66.30 | X-H torsion
[ 10763 10752 10751 10750 ] final  -11.52 input  -60.55 | X-H torsion
[ 11005 11000 10999 10996 ] final -101.98 input  -57.11 | X-H torsion

> <Gold.Protein.ActiveResidues>
 VAL166  LYS551  ARG553  GLY616  TRP617  ASP618  TYR619  PRO620  LYS621  CYS622 
 ASP623  PHE694  ASN695  SER759  ASP760  ASP761  ALA762  ILE779  LEU786  VAL792 
 PHE793  MET794  SER795  GLU796  ALA797  LYS798  CYS799  TRP800  GLU811  SER814 

> <Gold.Protein.RotatedAtoms>
  150.9429  134.8837  159.7623 H   0  0  0  0  0  0  0  0  0  0  0  0  # atno 6907 bound_to 6896
  152.5088  134.3915  159.9395 H   0  0  0  0  0  0  0  0  0  0  0  0  # atno 6908 bound_to 6896
  151.3935  133.3741  159.2758 H   0  0  0  0  0  0  0  0  0  0  0  0  # atno 6909 bound_to 6896
  146.2445  140.0661  142.8365 H   0  0  0  0  0  0  0  0  0  0  0  0  # atno 7974 bound_to 7965
  154.5872  140.0664  156.9187 H   0  0  0  0  0  0  0  0  0  0  0  0  # atno 8008 bound_to 7997
  155.2359  140.3341  155.4279 H   0  0  0  0  0  0  0  0  0  0  0  0  # atno 8009 bound_to 7997
  156.2231  140.1807  156.7414 H   0  0  0  0  0  0  0  0  0  0  0  0  # atno 8010 bound_to 7997
  140.7255  143.3886  151.1470 H   0  0  0  0  0  0  0  0  0  0  0  0  # atno 10167 bound_to 10162
  157.6731  131.0810  150.5746 H   0  0  0  0  0  0  0  0  0  0  0  0  # atno 10718 bound_to 10713
  153.4850  135.7017  153.5916 H   0  0  0  0  0  0  0  0  0  0  0  0  # atno 10763 bound_to 10752
  153.4114  135.3848  155.2052 H   0  0  0  0  0  0  0  0  0  0  0  0  # atno 10764 bound_to 10752
  154.8720  135.3905  154.4303 H   0  0  0  0  0  0  0  0  0  0  0  0  # atno 10765 bound_to 10752
  141.1208  133.8521  157.1301 H   0  0  0  0  0  0  0  0  0  0  0  0  # atno 11005 bound_to 11000
  145.0857  140.9251  143.4799 LP  0  0  0  0  0  0  0  0  0  0  0  0  # atno 17320 bound_to 7965
  145.0823  139.2950  143.5777 LP  0  0  0  0  0  0  0  0  0  0  0  0  # atno 17321 bound_to 7965
  139.7488  143.8811  152.3071 LP  0  0  0  0  0  0  0  0  0  0  0  0  # atno 17342 bound_to 10162
  139.8657  144.7094  150.9046 LP  0  0  0  0  0  0  0  0  0  0  0  0  # atno 17343 bound_to 10162
  156.6047  130.4364  149.5883 LP  0  0  0  0  0  0  0  0  0  0  0  0  # atno 17370 bound_to 10713
  156.2478  130.6889  151.1616 LP  0  0  0  0  0  0  0  0  0  0  0  0  # atno 17371 bound_to 10713
  140.0165  134.9965  157.0503 LP  0  0  0  0  0  0  0  0  0  0  0  0  # atno 17394 bound_to 11000
  140.4512  134.1580  155.7182 LP  0  0  0  0  0  0  0  0  0  0  0  0  # atno 17395 bound_to 11000

$$$$
