AV-unprocessed.smi:657|AV-procd|sdf|3229|dock6
  -GOLD-   22720 0173D 1   1.00000     0.00000
 Structure written by MMmdl.
 46 47  0  0  0  0  0  0  0  0  3 V2000
  149.4584  134.7417  154.8352 C   0  0  0  0  0  0  0  0  0  0  0  0
  149.5490  136.2018  155.3105 C   0  0  0  0  0  0  0  0  0  0  0  0
  149.3050  136.3221  156.8277 C   0  0  0  0  0  0  0  0  0  0  0  0
  148.6846  137.1143  154.4880 N   0  3  1  0  0  0  0  0  0  0  0  0
  147.2340  136.7662  154.5522 C   0  0  0  0  0  0  0  0  0  0  0  0
  146.4034  137.5747  153.5472 C   0  0  0  0  0  0  0  0  0  0  0  0
  146.5712  139.0722  153.8049 C   0  0  0  0  0  0  0  0  0  0  0  0
  148.0566  139.4320  153.7272 C   0  0  0  0  0  0  0  0  0  0  0  0
  148.9165  138.5842  154.6972 C   0  0  2  0  0  0  0  0  0  0  0  0
  150.3904  138.9930  154.4980 C   0  0  0  0  0  0  0  0  0  0  0  0
  151.1897  138.1311  154.1149 O   0  0  0  0  0  0  0  0  0  0  0  0
  150.5886  140.3028  154.8125 N   0  5  0  0  0  0  0  0  0  0  0  0
  151.3826  140.7558  155.9554 C   0  0  0  0  0  0  0  0  0  0  0  0
  150.6878  141.9347  156.6747 C   0  0  0  0  0  0  0  0  0  0  0  0
  151.4634  142.5093  157.8421 C   0  0  0  0  0  0  0  0  0  0  0  0
  151.9100  143.8536  157.9936 C   0  0  0  0  0  0  0  0  0  0  0  0
  152.5552  144.0624  159.1298 N   0  0  0  0  0  0  0  0  0  0  0  0
  152.5543  142.8603  159.7398 N   0  0  0  0  0  0  0  0  0  0  0  0
  153.1820  142.7167  161.0353 C   0  0  0  0  0  0  0  0  0  0  0  0
  151.9184  141.9014  158.9819 C   0  0  0  0  0  0  0  0  0  0  0  0
  150.2230  134.1342  155.3207 H   0  0  0  0  0  0  0  0  0  0  0  0
  149.6205  134.6678  153.7596 H   0  0  0  0  0  0  0  0  0  0  0  0
  148.4960  134.2866  155.0660 H   0  0  0  0  0  0  0  0  0  0  0  0
  150.5909  136.4624  155.1401 H   0  0  0  0  0  0  0  0  0  0  0  0
  150.0080  135.6969  157.3785 H   0  0  0  0  0  0  0  0  0  0  0  0
  148.3040  135.9994  157.1124 H   0  0  0  0  0  0  0  0  0  0  0  0
  149.4463  137.3441  157.1783 H   0  0  0  0  0  0  0  0  0  0  0  0
  147.0810  135.7084  154.3456 H   0  0  0  0  0  0  0  0  0  0  0  0
  146.8520  136.9505  155.5567 H   0  0  0  0  0  0  0  0  0  0  0  0
  146.7121  137.3332  152.5291 H   0  0  0  0  0  0  0  0  0  0  0  0
  145.3512  137.3002  153.6277 H   0  0  0  0  0  0  0  0  0  0  0  0
  146.0039  139.6484  153.0735 H   0  0  0  0  0  0  0  0  0  0  0  0
  146.1747  139.3313  154.7875 H   0  0  0  0  0  0  0  0  0  0  0  0
  148.3973  139.2915  152.6998 H   0  0  0  0  0  0  0  0  0  0  0  0
  148.1813  140.4934  153.9473 H   0  0  0  0  0  0  0  0  0  0  0  0
  148.5944  138.8207  155.7136 H   0  0  0  0  0  0  0  0  0  0  0  0
  151.5712  139.9630  156.6809 H   0  0  0  0  0  0  0  0  0  0  0  0
  152.3701  141.0838  155.6306 H   0  0  0  0  0  0  0  0  0  0  0  0
  150.4971  142.7169  155.9396 H   0  0  0  0  0  0  0  0  0  0  0  0
  149.6998  141.6090  157.0027 H   0  0  0  0  0  0  0  0  0  0  0  0
  151.7725  144.6842  157.3172 H   0  0  0  0  0  0  0  0  0  0  0  0
  152.9173  141.7538  161.4728 H   0  0  0  0  0  0  0  0  0  0  0  0
  152.8449  143.5116  161.7014 H   0  0  0  0  0  0  0  0  0  0  0  0
  154.2653  142.7733  160.9270 H   0  0  0  0  0  0  0  0  0  0  0  0
  151.8268  140.8789  159.3174 H   0  0  0  0  0  0  0  0  0  0  0  0
  148.9683  136.9487  153.5332 H   0  0  0  0  0  0  0  0  0  0  0  0
  1  2  1  0  0  0  0
  1 21  1  0  0  0  0
  1 22  1  0  0  0  0
  1 23  1  0  0  0  0
  2  3  1  0  0  0  0
  2  4  1  0  0  0  0
  2 24  1  0  0  0  0
  3 25  1  0  0  0  0
  3 26  1  0  0  0  0
  3 27  1  0  0  0  0
  4  9  1  0  0  0  0
  4  5  1  0  0  0  0
  4 46  1  0  0  0  0
  5  6  1  0  0  0  0
  5 28  1  0  0  0  0
  5 29  1  0  0  0  0
  6  7  1  0  0  0  0
  6 30  1  0  0  0  0
  6 31  1  0  0  0  0
  7  8  1  0  0  0  0
  7 32  1  0  0  0  0
  7 33  1  0  0  0  0
  8  9  1  0  0  0  0
  8 34  1  0  0  0  0
  8 35  1  0  0  0  0
  9 10  1  0  0  0  0
  9 36  1  0  0  0  0
 10 11  2  0  0  0  0
 10 12  1  0  0  0  0
 12 13  1  0  0  0  0
 13 14  1  0  0  0  0
 13 37  1  0  0  0  0
 13 38  1  0  0  0  0
 14 15  1  0  0  0  0
 14 39  1  0  0  0  0
 14 40  1  0  0  0  0
 15 20  2  0  0  0  0
 15 16  1  0  0  0  0
 16 17  2  0  0  0  0
 16 41  1  0  0  0  0
 17 18  1  0  0  0  0
 18 19  1  0  0  0  0
 18 20  1  0  0  0  0
 19 42  1  0  0  0  0
 19 43  1  0  0  0  0
 19 44  1  0  0  0  0
 20 45  1  0  0  0  0
M  CHG  1   4   1
M  CHG  1  12  -1
M  END
> <s_m_source_file>
AV-unprocessed.smi

> <i_m_source_file_index>
657

> <i_lp_mmshare_version>
43012

> <i_f3d_flags>
0

> <s_epik_input>
W0NIM11bQ0hdKFtDSDNdKU4xW0NIMl1bQ0gyXVtDSDJdW0NIMl1bQ0BIXTFDKD1PKVtOSF1bQ0gyXVtDSDJdYzJbY0hdbm4oW0NIM10pW2NIXTI=

> <s_epik_cmdline>
J2VwaWtfcHl0aG9uJywgJy1waCcsICc3LjAnLCAnLXRuJywgJzgnLCAnLW1hJywgJzIwMCcsICctbWV0YWxfYmluZGluZycsICctaW1hZScsICc8aW5maWxlLm1hZT4nLCAnLW9tYWUnLCAnPG91dGZpbGUubWFlPic=

> <r_lp_tautomer_probability>
1

> <r_epik_Ionization_Penalty>
6.1622

> <r_epik_Ionization_Penalty_Charging>
6.16146

> <r_epik_Ionization_Penalty_Neutral>
0.00073675

> <r_epik_State_Penalty>
6.18018

> <r_epik_Charging_Adjusted_Penalty>
12.3416

> <i_epik_Tot_Q>
0

> <i_epik_Tot_abs_Q>
2

> <r_epik_Metal_State_Penalty>
2.12232

> <b_epik_Metal_Only>
1

> <s_lp_Force_Field>
OPLS_2005

> <r_lp_Energy>
9.74682

> <b_lp_Chiralities_Consistent>
1

> <s_lp_Variant>
AV-unprocessed.smi:657-10

> <Gold.Version>
5.8.1

> <Gold.Id.Protein>
6NUR|6NUR_protein|mol2

> <Gold.PLP.Fitness>
43.2937

> <Gold.PLP.PLP>
-35.7889

> <Gold.PLP.part.hbond>
-2.0000

> <Gold.PLP.part.metal>
0.0000

> <Gold.PLP.part.buried>
-4.2407

> <Gold.PLP.part.nonpolar>
-29.8306

> <Gold.PLP.part.repulsive>
0.2894

> <Gold.PLP.ligand.clash>
0.0000

> <Gold.PLP.ligand.torsion>
0.8421

> <Gold.PLP.Chemscore.Hbond>
3.0000

> <Gold.PLP.Chemscore.CHOScore>
0.0000

> <Gold.PLP.Chemscore.Metal>
0.0000

> <Gold.Chemscore.Hbonds>
donor molecule, donor type, donor heavy atom, donor atom, acceptor molecule, acceptor atom, score
      L1  H     4    46       P1  7948  2.00
      P1  H  7989  7998       L1    12  0.95

> <Gold.PLP.Chemscore.Internal.Correction>
0.1890

> <Gold.Rescore>
     Score         DG    S(hbond)    S(metal)    S(lipo)     H(rot)  DE(clash)    DE(int)     intcor
     13.00     -15.40       1.21        0.00      84.65       1.57       0.10       2.29       ----

> <Gold.Chemscore.Fitness>
13.0044

> <Gold.Chemscore.DG>
-15.3953

> <Gold.Chemscore.ZeroCoef>
-5.4800

> <Gold.Chemscore.Hbond>
1.2098

> <Gold.Chemscore.Metal>
0.0000

> <Gold.Chemscore.Lipo>
84.6516

> <Gold.Chemscore.Internal_Hbond>
0.0000

> <Gold.Chemscore.DEClash>
0.0998

> <Gold.Chemscore.DEInternal>
2.2911

> <Gold.Chemscore.Rot>
1.5741

> <Gold.Chemscore.Internal.Correction>
   9.000000E+99

> <Gold.Chemscore.Hbonds>
donor molecule, donor type, donor heavy atom, donor atom, acceptor molecule, acceptor atom, score
      L1  H     4    46       P1  7948  1.00
      P1  H  7989  7998       L1    12  0.08

> <Gold.Chemscore.Hbond.Weighted>
-4.0407

> <Gold.Chemscore.Metal.Weighted>
-0.0000

> <Gold.Chemscore.Lipo.Weighted>
-9.9042

> <Gold.Chemscore.Internal_Hbond.Weighted>
0.0000

> <Gold.Chemscore.DEClash.Weighted>
0.0998

> <Gold.Chemscore.DEInternal.Weighted>
2.2911

> <Gold.Chemscore.Rot.Weighted>
4.0297

> <Gold.Chemscore.Internal.Correction.Weighted>
   9.000000E+99

> <Gold.Protein.RotatedTorsions>
[ 6907 6896 6895 6894 ] final -147.62 input  -60.11 | X-H torsion
[ 7974 7965 7964 7962 ] final  172.45 input  175.53 | X-H torsion
[ 8008 7997 7996 7995 ] final   29.42 input   59.86 | X-H torsion
[ 10167 10162 10161 10158 ] final  111.37 input  -65.29 | X-H torsion
[ 10718 10713 10712 10709 ] final  -50.99 input   66.30 | X-H torsion
[ 10763 10752 10751 10750 ] final -151.55 input  -60.55 | X-H torsion
[ 11005 11000 10999 10996 ] final  131.14 input  -57.11 | X-H torsion

> <Gold.Protein.ActiveResidues>
 VAL166  LYS551  ARG553  GLY616  TRP617  ASP618  TYR619  PRO620  LYS621  CYS622 
 ASP623  PHE694  ASN695  SER759  ASP760  ASP761  ALA762  ILE779  LEU786  VAL792 
 PHE793  MET794  SER795  GLU796  ALA797  LYS798  CYS799  TRP800  GLU811  SER814 

> <Gold.Protein.RotatedAtoms>
  151.1583  133.4862  159.2594 H   0  0  0  0  0  0  0  0  0  0  0  0  # atno 6907 bound_to 6896
  151.1481  135.0213  159.8666 H   0  0  0  0  0  0  0  0  0  0  0  0  # atno 6908 bound_to 6896
  152.5463  134.1470  159.8556 H   0  0  0  0  0  0  0  0  0  0  0  0  # atno 6909 bound_to 6896
  144.7268  139.9500  143.6431 H   0  0  0  0  0  0  0  0  0  0  0  0  # atno 7974 bound_to 7965
  155.0742  140.3203  155.4621 H   0  0  0  0  0  0  0  0  0  0  0  0  # atno 8008 bound_to 7997
  156.2783  140.2106  156.5814 H   0  0  0  0  0  0  0  0  0  0  0  0  # atno 8009 bound_to 7997
  154.7031  140.0505  157.0464 H   0  0  0  0  0  0  0  0  0  0  0  0  # atno 8010 bound_to 7997
  139.6616  144.7128  151.1854 H   0  0  0  0  0  0  0  0  0  0  0  0  # atno 10167 bound_to 10162
  156.1750  130.4150  149.9590 H   0  0  0  0  0  0  0  0  0  0  0  0  # atno 10718 bound_to 10713
  154.8050  135.3257  154.7453 H   0  0  0  0  0  0  0  0  0  0  0  0  # atno 10763 bound_to 10752
  153.8114  135.6895  153.4845 H   0  0  0  0  0  0  0  0  0  0  0  0  # atno 10764 bound_to 10752
  153.1790  135.4594  154.9948 H   0  0  0  0  0  0  0  0  0  0  0  0  # atno 10765 bound_to 10752
  139.9713  134.9576  156.9396 H   0  0  0  0  0  0  0  0  0  0  0  0  # atno 11005 bound_to 11000
  146.0719  139.3707  143.0518 LP  0  0  0  0  0  0  0  0  0  0  0  0  # atno 17320 bound_to 7965
  145.7957  140.9794  143.1025 LP  0  0  0  0  0  0  0  0  0  0  0  0  # atno 17321 bound_to 7965
  140.7582  143.5985  150.8724 LP  0  0  0  0  0  0  0  0  0  0  0  0  # atno 17342 bound_to 10162
  139.9643  143.6128  152.2993 LP  0  0  0  0  0  0  0  0  0  0  0  0  # atno 17343 bound_to 10162
  156.7378  130.9068  151.3630 LP  0  0  0  0  0  0  0  0  0  0  0  0  # atno 17370 bound_to 10713
  157.6829  130.9158  150.0313 LP  0  0  0  0  0  0  0  0  0  0  0  0  # atno 17371 bound_to 10713
  140.5288  134.0834  155.7310 LP  0  0  0  0  0  0  0  0  0  0  0  0  # atno 17394 bound_to 11000
  141.1392  133.9168  157.2364 LP  0  0  0  0  0  0  0  0  0  0  0  0  # atno 17395 bound_to 11000

$$$$
