AV-unprocessed.smi:2928|AV-procd|sdf|11231|dock9
  -GOLD-   2272016123D 1   1.00000     0.00000
 Structure written by MMmdl.
 55 58  0  0  0  0  0  0  0  0  2 V2000
  143.4728  132.6337  151.3784 C   0  0  0  0  0  0  0  0  0  0  0  0
  144.1251  133.2762  152.5441 N   0  3  2  0  0  0  0  0  0  0  0  0
  143.6396  134.6420  152.8548 C   0  0  2  0  0  0  0  0  0  0  0  0
  144.0884  135.6614  151.7765 C   0  0  0  0  0  0  0  0  0  0  0  0
  145.5942  135.6258  151.4541 C   0  0  0  0  0  0  0  0  0  0  0  0
  146.1640  134.1962  151.4153 C   0  0  0  0  0  0  0  0  0  0  0  0
  145.6070  133.2581  152.5154 C   0  0  1  0  0  0  0  0  0  0  0  0
  146.1434  133.5220  153.9416 C   0  0  0  0  0  0  0  0  0  0  0  0
  145.5113  134.7295  154.6879 C   0  0  1  0  0  0  0  0  0  0  0  0
  146.3133  135.9451  154.5911 N   0  0  0  0  0  0  0  0  0  0  0  0
  147.6103  136.0632  154.9066 C   0  0  0  0  0  0  0  0  0  0  0  0
  148.2889  135.1436  155.3634 O   0  0  0  0  0  0  0  0  0  0  0  0
  148.0563  137.2983  154.6295 N   0  0  0  0  0  0  0  0  0  0  0  0
  149.3885  137.7904  154.7020 C   0  0  0  0  0  0  0  0  0  0  0  0
  150.5060  136.9508  154.9260 C   0  0  0  0  0  0  0  0  0  0  0  0
  151.7873  137.5261  155.0065 C   0  0  0  0  0  0  0  0  0  0  0  0
  151.9049  138.9208  154.8674 C   0  0  0  0  0  0  0  0  0  0  0  0
  150.8484  139.7353  154.6687 N   0  0  0  0  0  0  0  0  0  0  0  0
  149.6116  139.1865  154.5923 C   0  0  0  0  0  0  0  0  0  0  0  0
  148.5226  140.0515  154.3825 N   0  0  0  0  0  0  0  0  0  0  0  0
  147.5741  140.1478  155.4788 C   0  0  0  0  0  0  0  0  0  0  0  0
  146.7225  141.3818  155.1693 C   0  0  0  0  0  0  0  0  0  0  0  0
  147.5781  142.2221  154.2126 C   0  0  0  0  0  0  0  0  0  0  0  0
  148.8677  141.4180  154.0285 C   0  0  0  0  0  0  0  0  0  0  0  0
  144.0329  134.9978  154.3082 C   0  0  0  0  0  0  0  0  0  0  0  0
  143.6759  133.1608  150.4469 H   0  0  0  0  0  0  0  0  0  0  0  0
  142.3922  132.6004  151.5184 H   0  0  0  0  0  0  0  0  0  0  0  0
  143.8210  131.6065  151.2671 H   0  0  0  0  0  0  0  0  0  0  0  0
  142.5489  134.6188  152.8337 H   0  0  0  0  0  0  0  0  0  0  0  0
  143.5387  135.4590  150.8568 H   0  0  0  0  0  0  0  0  0  0  0  0
  143.7974  136.6710  152.0682 H   0  0  0  0  0  0  0  0  0  0  0  0
  145.7696  136.1104  150.4932 H   0  0  0  0  0  0  0  0  0  0  0  0
  146.1490  136.2337  152.1606 H   0  0  0  0  0  0  0  0  0  0  0  0
  145.9362  133.7639  150.4406 H   0  0  0  0  0  0  0  0  0  0  0  0
  147.2527  134.2314  151.4670 H   0  0  0  0  0  0  0  0  0  0  0  0
  145.9205  132.2455  152.2565 H   0  0  0  0  0  0  0  0  0  0  0  0
  145.9210  132.6324  154.5328 H   0  0  0  0  0  0  0  0  0  0  0  0
  147.2322  133.5836  153.9304 H   0  0  0  0  0  0  0  0  0  0  0  0
  145.5116  134.4830  155.7516 H   0  0  0  0  0  0  0  0  0  0  0  0
  145.8477  136.7632  154.2259 H   0  0  0  0  0  0  0  0  0  0  0  0
  147.3948  137.9200  154.1876 H   0  0  0  0  0  0  0  0  0  0  0  0
  150.4009  135.8840  155.0513 H   0  0  0  0  0  0  0  0  0  0  0  0
  152.6594  136.9120  155.1757 H   0  0  0  0  0  0  0  0  0  0  0  0
  152.8729  139.3963  154.9237 H   0  0  0  0  0  0  0  0  0  0  0  0
  146.9644  139.2467  155.5512 H   0  0  0  0  0  0  0  0  0  0  0  0
  148.0963  140.2798  156.4275 H   0  0  0  0  0  0  0  0  0  0  0  0
  145.7951  141.0883  154.6761 H   0  0  0  0  0  0  0  0  0  0  0  0
  146.4586  141.9248  156.0772 H   0  0  0  0  0  0  0  0  0  0  0  0
  147.0634  142.3371  153.2580 H   0  0  0  0  0  0  0  0  0  0  0  0
  147.7805  143.2196  154.6034 H   0  0  0  0  0  0  0  0  0  0  0  0
  149.6456  141.8007  154.6907 H   0  0  0  0  0  0  0  0  0  0  0  0
  149.2366  141.4780  153.0041 H   0  0  0  0  0  0  0  0  0  0  0  0
  143.7504  136.0255  154.5416 H   0  0  0  0  0  0  0  0  0  0  0  0
  143.4168  134.3805  154.9640 H   0  0  0  0  0  0  0  0  0  0  0  0
  143.8592  132.7045  153.3332 H   0  0  0  0  0  0  0  0  0  0  0  0
  1  2  1  0  0  0  0
  1 26  1  0  0  0  0
  1 27  1  0  0  0  0
  1 28  1  0  0  0  0
  2  7  1  0  0  0  0
  2  3  1  0  0  0  0
  2 55  1  0  0  0  0
  3 25  1  0  0  0  0
  3  4  1  0  0  0  0
  3 29  1  0  0  0  0
  4  5  1  0  0  0  0
  4 30  1  0  0  0  0
  4 31  1  0  0  0  0
  5  6  1  0  0  0  0
  5 32  1  0  0  0  0
  5 33  1  0  0  0  0
  6  7  1  0  0  0  0
  6 34  1  0  0  0  0
  6 35  1  0  0  0  0
  7  8  1  0  0  0  0
  7 36  1  0  0  0  0
  8  9  1  0  0  0  0
  8 37  1  0  0  0  0
  8 38  1  0  0  0  0
  9 10  1  0  0  0  0
  9 25  1  0  0  0  0
  9 39  1  0  0  0  0
 10 11  1  0  0  0  0
 10 40  1  0  0  0  0
 11 12  2  0  0  0  0
 11 13  1  0  0  0  0
 13 14  1  0  0  0  0
 13 41  1  0  0  0  0
 14 19  1  0  0  0  0
 14 15  2  0  0  0  0
 15 16  1  0  0  0  0
 15 42  1  0  0  0  0
 16 17  2  0  0  0  0
 16 43  1  0  0  0  0
 17 18  1  0  0  0  0
 17 44  1  0  0  0  0
 18 19  2  0  0  0  0
 19 20  1  0  0  0  0
 20 24  1  0  0  0  0
 20 21  1  0  0  0  0
 21 22  1  0  0  0  0
 21 45  1  0  0  0  0
 21 46  1  0  0  0  0
 22 23  1  0  0  0  0
 22 47  1  0  0  0  0
 22 48  1  0  0  0  0
 23 24  1  0  0  0  0
 23 49  1  0  0  0  0
 23 50  1  0  0  0  0
 24 51  1  0  0  0  0
 24 52  1  0  0  0  0
 25 53  1  0  0  0  0
 25 54  1  0  0  0  0
M  CHG  1   2   1
M  END
> <s_m_source_file>
AV-unprocessed.smi

> <i_m_source_file_index>
2928

> <i_lp_mmshare_version>
43012

> <i_f3d_flags>
0

> <s_epik_input>
W0NIMl0xW0NIMl1bQ0gyXVtDQEhdKE4oW0NIM10pW0NIXTEyKVtDSDJdW0NASF0oW0NIMl0yKVtOSF1DKD1PKVtOSF1jM1tjSF1bY0hdW2NIXW5jM040W0NIMl1bQ0gyXVtDSDJdW0NIMl00

> <s_epik_cmdline>
J2VwaWtfcHl0aG9uJywgJy1waCcsICc3LjAnLCAnLXRuJywgJzgnLCAnLW1hJywgJzIwMCcsICctbWV0YWxfYmluZGluZycsICctaW1hZScsICc8aW5maWxlLm1hZT4nLCAnLW9tYWUnLCAnPG91dGZpbGUubWFlPic=

> <r_lp_tautomer_probability>
1

> <r_epik_Ionization_Penalty>
0.07954

> <r_epik_Ionization_Penalty_Charging>
0.00089841

> <r_epik_Ionization_Penalty_Neutral>
0.0786416

> <r_epik_State_Penalty>
0.0689917

> <r_epik_Charging_Adjusted_Penalty>
0.0698901

> <i_epik_Tot_Q>
1

> <i_epik_Tot_abs_Q>
1

> <r_epik_Metal_State_Penalty>
0.0608947

> <b_epik_Metal_Only>
0

> <s_lp_Force_Field>
OPLS_2005

> <r_lp_Energy>
66.344

> <b_lp_Chiralities_Consistent>
1

> <s_lp_Variant>
AV-unprocessed.smi:2928-1

> <Gold.Version>
5.8.1

> <Gold.Id.Protein>
6NUR|6NUR_protein|mol2

> <Gold.PLP.Fitness>
42.3266

> <Gold.PLP.PLP>
-34.1977

> <Gold.PLP.part.hbond>
-2.7182

> <Gold.PLP.part.metal>
0.0000

> <Gold.PLP.part.buried>
-3.1709

> <Gold.PLP.part.nonpolar>
-30.3931

> <Gold.PLP.part.repulsive>
0.2585

> <Gold.PLP.ligand.clash>
0.0000

> <Gold.PLP.ligand.torsion>
0.1982

> <Gold.PLP.Chemscore.Hbond>
2.8175

> <Gold.PLP.Chemscore.CHOScore>
0.0000

> <Gold.PLP.Chemscore.Metal>
0.0000

> <Gold.Chemscore.Hbonds>
donor molecule, donor type, donor heavy atom, donor atom, acceptor molecule, acceptor atom, score
      L1  H     2    55       P1 10957  1.72
      P1  H  7989  7998       L1    18  0.90

> <Gold.PLP.Chemscore.Internal.Correction>
0.0729

> <Gold.Rescore>
     Score         DG    S(hbond)    S(metal)    S(lipo)     H(rot)  DE(clash)    DE(int)     intcor
     13.58     -15.81       1.16        0.00      80.94       1.18       0.47       1.76       ----

> <Gold.Chemscore.Fitness>
13.5788

> <Gold.Chemscore.DG>
-15.8062

> <Gold.Chemscore.ZeroCoef>
-5.4800

> <Gold.Chemscore.Hbond>
1.1590

> <Gold.Chemscore.Metal>
0.0000

> <Gold.Chemscore.Lipo>
80.9393

> <Gold.Chemscore.Internal_Hbond>
0.0000

> <Gold.Chemscore.DEClash>
0.4671

> <Gold.Chemscore.DEInternal>
1.7604

> <Gold.Chemscore.Rot>
1.1776

> <Gold.Chemscore.Internal.Correction>
   9.000000E+99

> <Gold.Chemscore.Hbonds>
donor molecule, donor type, donor heavy atom, donor atom, acceptor molecule, acceptor atom, score
      L1  H     2    55       P1 10957  0.33
      P1  H  7989  7998       L1    18  0.18

> <Gold.Chemscore.Hbond.Weighted>
-3.8710

> <Gold.Chemscore.Metal.Weighted>
-0.0000

> <Gold.Chemscore.Lipo.Weighted>
-9.4699

> <Gold.Chemscore.Internal_Hbond.Weighted>
0.0000

> <Gold.Chemscore.DEClash.Weighted>
0.4671

> <Gold.Chemscore.DEInternal.Weighted>
1.7604

> <Gold.Chemscore.Rot.Weighted>
3.0147

> <Gold.Chemscore.Internal.Correction.Weighted>
   9.000000E+99

> <Gold.Protein.RotatedTorsions>
[ 6907 6896 6895 6894 ] final -155.13 input  -60.11 | X-H torsion
[ 7974 7965 7964 7962 ] final   23.49 input  175.53 | X-H torsion
[ 8008 7997 7996 7995 ] final  178.21 input   59.86 | X-H torsion
[ 10167 10162 10161 10158 ] final   59.13 input  -65.29 | X-H torsion
[ 10718 10713 10712 10709 ] final   91.63 input   66.30 | X-H torsion
[ 10763 10752 10751 10750 ] final   14.08 input  -60.55 | X-H torsion
[ 11005 11000 10999 10996 ] final  -61.37 input  -57.11 | X-H torsion

> <Gold.Protein.ActiveResidues>
 VAL166  LYS551  ARG553  GLY616  TRP617  ASP618  TYR619  PRO620  LYS621  CYS622 
 ASP623  PHE694  ASN695  SER759  ASP760  ASP761  ALA762  ILE779  LEU786  VAL792 
 PHE793  MET794  SER795  GLU796  ALA797  LYS798  CYS799  TRP800  GLU811  SER814 

> <Gold.Protein.RotatedAtoms>
  151.2678  133.4270  159.2619 H   0  0  0  0  0  0  0  0  0  0  0  0  # atno 6907 bound_to 6896
  151.0472  134.9648  159.8203 H   0  0  0  0  0  0  0  0  0  0  0  0  # atno 6908 bound_to 6896
  152.5376  134.2634  159.8996 H   0  0  0  0  0  0  0  0  0  0  0  0  # atno 6909 bound_to 6896
  146.1982  139.7738  142.8781 H   0  0  0  0  0  0  0  0  0  0  0  0  # atno 7974 bound_to 7965
  156.0571  140.1339  156.9983 H   0  0  0  0  0  0  0  0  0  0  0  0  # atno 8008 bound_to 7997
  154.4463  140.0999  156.6533 H   0  0  0  0  0  0  0  0  0  0  0  0  # atno 8009 bound_to 7997
  155.5434  140.3461  155.4454 H   0  0  0  0  0  0  0  0  0  0  0  0  # atno 8010 bound_to 7997
  140.1797  144.4194  150.6621 H   0  0  0  0  0  0  0  0  0  0  0  0  # atno 10167 bound_to 10162
  157.6960  131.0414  150.3759 H   0  0  0  0  0  0  0  0  0  0  0  0  # atno 10718 bound_to 10713
  153.1657  135.6804  153.8678 H   0  0  0  0  0  0  0  0  0  0  0  0  # atno 10763 bound_to 10752
  153.8059  135.3149  155.3396 H   0  0  0  0  0  0  0  0  0  0  0  0  # atno 10764 bound_to 10752
  154.7964  135.4804  154.0261 H   0  0  0  0  0  0  0  0  0  0  0  0  # atno 10765 bound_to 10752
  141.1322  133.6629  156.5365 H   0  0  0  0  0  0  0  0  0  0  0  0  # atno 11005 bound_to 11000
  145.3573  141.0319  143.3304 LP  0  0  0  0  0  0  0  0  0  0  0  0  # atno 17320 bound_to 7965
  144.8625  139.5156  143.6805 LP  0  0  0  0  0  0  0  0  0  0  0  0  # atno 17321 bound_to 7965
  140.6528  143.2229  151.6039 LP  0  0  0  0  0  0  0  0  0  0  0  0  # atno 17342 bound_to 10162
  139.5301  144.2940  152.1128 LP  0  0  0  0  0  0  0  0  0  0  0  0  # atno 17343 bound_to 10162
  156.4178  130.3947  149.6846 LP  0  0  0  0  0  0  0  0  0  0  0  0  # atno 17370 bound_to 10713
  156.4107  130.7720  151.2733 LP  0  0  0  0  0  0  0  0  0  0  0  0  # atno 17371 bound_to 10713
  140.4173  134.7218  157.4870 LP  0  0  0  0  0  0  0  0  0  0  0  0  # atno 17394 bound_to 11000
  140.0384  134.6303  155.9012 LP  0  0  0  0  0  0  0  0  0  0  0  0  # atno 17395 bound_to 11000

$$$$
