#       Name:                AV-unprocessed.smi:767
#       Creating user name   scv26
#       Creation time:       Fri Mar 27 01:06:56 2020


#       File generated by GOLD software.
#

@<TRIPOS>MOLECULE
AV-unprocessed.smi:767
    52    54     1
SMALL
NO_CHARGES


@<TRIPOS>ATOM
      1 ****        -1.1467   2.8169   4.2339 C.3            1 S1                 0.0000
      2 ****        -1.7860   2.2232   2.9961 C.ar           1 S1                 0.0000
      3 ****        -1.2956   2.5349   1.7107 C.ar           1 S1                 0.0000
      4 ****        -1.9300   1.9586   0.5939 C.ar           1 S1                 0.0000
      5 ****        -3.0230   1.0928   0.8032 C.ar           1 S1                 0.0000
      6 ****        -3.7286   0.4310  -0.3679 C.3            1 S1                 0.0000
      7 ****        -3.3900  -1.0652  -0.5241 C.3            1 S1                 0.0000
      8 ****        -1.9553  -1.3294  -0.4786 N.am           1 S1                 0.0000
      9 ****        -1.0869  -1.0444  -1.4580 C.2            1 S1                 0.0000
     10 ****        -1.4015  -0.5475  -2.5395 O.2            1 S1                 0.0000
     11 ****         0.1684  -1.3481  -1.1058 N.am           1 S1                 0.0000
     12 ****         1.3513  -1.1194  -1.9366 C.3            1 S1                 0.0000
     13 ****         2.5590  -1.9827  -1.5059 C.3            1 S1                 0.0000
     14 ****         2.4443  -3.1180  -0.5178 C.3            1 S1                 0.0000
     15 ****         2.8596  -2.4632   0.8031 C.3            1 S1                 0.0000
     16 ****         2.6850  -1.0638   0.5907 O.3            1 S1                 0.0000
     17 ****         3.0771  -0.7710  -0.7487 C.3            1 S1                 0.0000
     18 ****         2.1414   0.1602  -1.5473 C.3            1 S1                 0.0000
     19 ****         2.8169   0.8616  -2.7292 C.3            1 S1                 0.0000
     20 ****         1.4334   1.2594  -0.7441 C.3            1 S1                 0.0000
     21 ****        -3.4372   0.8496   2.1294 C.ar           1 S1                 0.0000
     22 ****        -2.8366   1.3995   3.2068 N.ar           1 S1                 0.0000
     23 ****        -0.1615   3.2261   4.0089 H              1 S1                 0.0000
     24 ****        -1.0284   2.0587   5.0088 H              1 S1                 0.0000
     25 ****        -1.7685   3.6200   4.6299 H              1 S1                 0.0000
     26 ****        -0.4531   3.1981   1.5804 H              1 S1                 0.0000
     27 ****        -1.5778   2.1728  -0.4042 H              1 S1                 0.0000
     28 ****        -4.8052   0.5542  -0.2468 H              1 S1                 0.0000
     29 ****        -3.4672   0.9626  -1.2837 H              1 S1                 0.0000
     30 ****        -3.8453  -1.6257   0.2926 H              1 S1                 0.0000
     31 ****        -3.8197  -1.4604  -1.4458 H              1 S1                 0.0000
     32 ****        -1.5944  -1.7309   0.3743 H              1 S1                 0.0000
     33 ****         0.3266  -1.7426  -0.1901 H              1 S1                 0.0000
     34 ****         1.1558  -1.1950  -3.0080 H              1 S1                 0.0000
     35 ****         3.1963  -2.2103  -2.3619 H              1 S1                 0.0000
     36 ****         1.4313  -3.5159  -0.4632 H              1 S1                 0.0000
     37 ****         3.1051  -3.9488  -0.7670 H              1 S1                 0.0000
     38 ****         2.2699  -2.8148   1.6498 H              1 S1                 0.0000
     39 ****         3.9116  -2.6611   1.0133 H              1 S1                 0.0000
     40 ****         4.1477  -0.5955  -0.8637 H              1 S1                 0.0000
     41 ****         3.5401   1.6059  -2.3945 H              1 S1                 0.0000
     42 ****         2.0881   1.3701  -3.3613 H              1 S1                 0.0000
     43 ****         3.3541   0.1555  -3.3633 H              1 S1                 0.0000
     44 ****         2.1293   2.0388  -0.4324 H              1 S1                 0.0000
     45 ****         0.9700   0.8739   0.1641 H              1 S1                 0.0000
     46 ****         0.6481   1.7363  -1.3309 H              1 S1                 0.0000
     47 ****        -4.2696   0.1919   2.3323 H              1 S1                 0.0000
     48 ****        -2.3589  -0.3307  -2.7306 LP             1 S1                 0.0000
     49 ****        -0.6998  -0.3606  -3.2270 LP             1 S1                 0.0000
     50 ****         3.2546  -0.5492   1.2316 LP             1 S1                 0.0000
     51 ****         1.7253  -0.8169   0.7254 LP             1 S1                 0.0000
     52 ****        -3.1596   1.2031   4.1326 LP             1 S1                 0.0000
@<TRIPOS>BOND
    1    1    2 1     
    2    1   23 1     
    3    1   24 1     
    4    1   25 1     
    5    2   22 ar    
    6    2    3 ar    
    7    3    4 ar    
    8    3   26 1     
    9    4    5 ar    
   10    4   27 1     
   11    5    6 1     
   12    5   21 ar    
   13    6    7 1     
   14    6   28 1     
   15    6   29 1     
   16    7    8 1     
   17    7   30 1     
   18    7   31 1     
   19    8    9 am    
   20    8   32 1     
   21    9   10 2     
   22    9   11 am    
   23   11   12 1     
   24   11   33 1     
   25   12   18 1     
   26   12   13 1     
   27   12   34 1     
   28   13   17 1     
   29   13   14 1     
   30   13   35 1     
   31   14   15 1     
   32   14   36 1     
   33   14   37 1     
   34   15   16 1     
   35   15   38 1     
   36   15   39 1     
   37   16   17 1     
   38   17   18 1     
   39   17   40 1     
   40   18   19 1     
   41   18   20 1     
   42   19   41 1     
   43   19   42 1     
   44   19   43 1     
   45   20   44 1     
   46   20   45 1     
   47   20   46 1     
   48   21   22 ar    
   49   21   47 1     
   50   10   48 1     
   51   10   49 1     
   52   16   50 1     
   53   16   51 1     
   54   22   52 1     
@<TRIPOS>SUBSTRUCTURE
      1 S1             1
@<TRIPOS>SET
LONE_PAIRS      STATIC     ATOMS    <user>   **** ""
5 48 49 50 51 52
DONOR_HYDROGENS      STATIC     ATOMS    <user>   **** ""
2 32 33
ATOM$BLUE        STATIC     ATOMS    COLORGROUP SYSTEM
5 48 49 50 51 52
ATOM$RED        STATIC     ATOMS    COLORGROUP SYSTEM
2 32 33
