AV-unprocessed.smi:213|AV-procd|sdf|1634|dock1
  -GOLD-   2262019593D 1   1.00000     0.00000
 Structure written by MMmdl.
 59 62  0  0  0  0  0  0  0  0  2 V2000
  149.4530  133.0014  154.3408 C   0  0  0  0  0  0  0  0  0  0  0  0
  148.9822  134.4279  154.6804 C   0  0  1  0  0  0  0  0  0  0  0  0
  147.4564  134.6001  154.4938 C   0  0  0  0  0  0  0  0  0  0  0  0
  147.0444  134.5278  153.0696 N   0  3  0  0  0  0  0  0  0  0  0  0
  147.0201  133.1384  152.5542 C   0  0  0  0  0  0  0  0  0  0  0  0
  146.6376  133.1237  151.0643 C   0  0  0  0  0  0  0  0  0  0  0  0
  145.3778  133.7596  150.8889 O   0  0  0  0  0  0  0  0  0  0  0  0
  145.4078  135.1211  151.2983 C   0  0  0  0  0  0  0  0  0  0  0  0
  145.7521  135.2044  152.7950 C   0  0  0  0  0  0  0  0  0  0  0  0
  149.4044  134.8121  156.0344 N   0  0  0  0  0  0  0  0  0  0  0  0
  148.7103  134.2644  157.1981 C   0  0  0  0  0  0  0  0  0  0  0  0
  150.1076  135.9647  156.2251 C   0  0  0  0  0  0  0  0  0  0  0  0
  150.8516  136.4695  155.2033 N   0  0  0  0  0  0  0  0  0  0  0  0
  151.5434  137.6018  155.3559 C   0  0  0  0  0  0  0  0  0  0  0  0
  151.6355  138.3830  156.4318 N   0  0  0  0  0  0  0  0  0  0  0  0
  150.8989  137.8859  157.4658 C   0  0  0  0  0  0  0  0  0  0  0  0
  150.1151  136.6962  157.4511 C   0  0  0  0  0  0  0  0  0  0  0  0
  149.5227  136.5150  158.6968 N   0  0  0  0  0  0  0  0  0  0  0  0
  149.9133  137.5453  159.3952 C   0  0  0  0  0  0  0  0  0  0  0  0
  150.7363  138.4242  158.7304 N   0  0  0  0  0  0  0  0  0  0  0  0
  151.3089  139.6519  159.2577 C   0  0  0  0  0  0  0  0  0  0  0  0
  152.2974  140.3506  158.2966 C   0  0  2  0  0  0  0  0  0  0  0  0
  153.5723  139.7397  158.3513 O   0  0  0  0  0  0  0  0  0  0  0  0
  152.4225  141.8814  158.4753 C   0  0  2  0  0  0  0  0  0  0  0  0
  153.1602  142.3499  159.7301 C   0  0  0  0  0  0  0  0  0  0  0  0
  152.6900  143.7842  159.8274 C   0  0  0  0  0  0  0  0  0  0  0  0
  151.2329  143.6760  159.3816 C   0  0  0  0  0  0  0  0  0  0  0  0
  151.1641  142.5484  158.5135 O   0  0  0  0  0  0  0  0  0  0  0  0
  149.2514  132.7584  153.2975 H   0  0  0  0  0  0  0  0  0  0  0  0
  148.9564  132.2485  154.9528 H   0  0  0  0  0  0  0  0  0  0  0  0
  150.5278  132.8992  154.4943 H   0  0  0  0  0  0  0  0  0  0  0  0
  149.5027  135.0762  153.9768 H   0  0  0  0  0  0  0  0  0  0  0  0
  146.9443  133.8193  155.0577 H   0  0  0  0  0  0  0  0  0  0  0  0
  147.1142  135.5466  154.9148 H   0  0  0  0  0  0  0  0  0  0  0  0
  147.9999  132.6773  152.6832 H   0  0  0  0  0  0  0  0  0  0  0  0
  146.3072  132.5464  153.1304 H   0  0  0  0  0  0  0  0  0  0  0  0
  147.3980  133.6227  150.4612 H   0  0  0  0  0  0  0  0  0  0  0  0
  146.5687  132.0973  150.7040 H   0  0  0  0  0  0  0  0  0  0  0  0
  146.1304  135.6784  150.6998 H   0  0  0  0  0  0  0  0  0  0  0  0
  144.4302  135.5662  151.1124 H   0  0  0  0  0  0  0  0  0  0  0  0
  144.9611  134.7360  153.3832 H   0  0  0  0  0  0  0  0  0  0  0  0
  145.7951  136.2502  153.0969 H   0  0  0  0  0  0  0  0  0  0  0  0
  148.3947  135.0541  157.8815 H   0  0  0  0  0  0  0  0  0  0  0  0
  149.3651  133.5806  157.7385 H   0  0  0  0  0  0  0  0  0  0  0  0
  147.8169  133.7108  156.9121 H   0  0  0  0  0  0  0  0  0  0  0  0
  152.1022  137.9299  154.4918 H   0  0  0  0  0  0  0  0  0  0  0  0
  149.6053  137.6963  160.4196 H   0  0  0  0  0  0  0  0  0  0  0  0
  150.4910  140.3277  159.5100 H   0  0  0  0  0  0  0  0  0  0  0  0
  151.8116  139.4223  160.1977 H   0  0  0  0  0  0  0  0  0  0  0  0
  151.9309  140.1761  157.2845 H   0  0  0  0  0  0  0  0  0  0  0  0
  153.5783  139.1204  159.0648 H   0  0  0  0  0  0  0  0  0  0  0  0
  152.9523  142.2826  157.6096 H   0  0  0  0  0  0  0  0  0  0  0  0
  152.8375  141.7955  160.6119 H   0  0  0  0  0  0  0  0  0  0  0  0
  154.2434  142.2600  159.6457 H   0  0  0  0  0  0  0  0  0  0  0  0
  152.8002  144.2071  160.8261 H   0  0  0  0  0  0  0  0  0  0  0  0
  153.2500  144.4075  159.1289 H   0  0  0  0  0  0  0  0  0  0  0  0
  150.5832  143.4912  160.2375 H   0  0  0  0  0  0  0  0  0  0  0  0
  150.8858  144.5802  158.8817 H   0  0  0  0  0  0  0  0  0  0  0  0
  147.7540  135.0129  152.5392 H   0  0  0  0  0  0  0  0  0  0  0  0
  1  2  1  0  0  0  0
  1 29  1  0  0  0  0
  1 30  1  0  0  0  0
  1 31  1  0  0  0  0
  2  3  1  0  0  0  0
  2 10  1  0  0  0  0
  2 32  1  0  0  0  0
  3  4  1  0  0  0  0
  3 33  1  0  0  0  0
  3 34  1  0  0  0  0
  4  9  1  0  0  0  0
  4  5  1  0  0  0  0
  4 59  1  0  0  0  0
  5  6  1  0  0  0  0
  5 35  1  0  0  0  0
  5 36  1  0  0  0  0
  6  7  1  0  0  0  0
  6 37  1  0  0  0  0
  6 38  1  0  0  0  0
  7  8  1  0  0  0  0
  8  9  1  0  0  0  0
  8 39  1  0  0  0  0
  8 40  1  0  0  0  0
  9 41  1  0  0  0  0
  9 42  1  0  0  0  0
 10 11  1  0  0  0  0
 10 12  1  0  0  0  0
 11 43  1  0  0  0  0
 11 44  1  0  0  0  0
 11 45  1  0  0  0  0
 12 17  1  0  0  0  0
 12 13  2  0  0  0  0
 13 14  1  0  0  0  0
 14 15  2  0  0  0  0
 14 46  1  0  0  0  0
 15 16  1  0  0  0  0
 16 20  1  0  0  0  0
 16 17  2  0  0  0  0
 17 18  1  0  0  0  0
 18 19  2  0  0  0  0
 19 20  1  0  0  0  0
 19 47  1  0  0  0  0
 20 21  1  0  0  0  0
 21 22  1  0  0  0  0
 21 48  1  0  0  0  0
 21 49  1  0  0  0  0
 22 23  1  0  0  0  0
 22 24  1  0  0  0  0
 22 50  1  0  0  0  0
 23 51  1  0  0  0  0
 24 28  1  0  0  0  0
 24 25  1  0  0  0  0
 24 52  1  0  0  0  0
 25 26  1  0  0  0  0
 25 53  1  0  0  0  0
 25 54  1  0  0  0  0
 26 27  1  0  0  0  0
 26 55  1  0  0  0  0
 26 56  1  0  0  0  0
 27 28  1  0  0  0  0
 27 57  1  0  0  0  0
 27 58  1  0  0  0  0
M  CHG  1   4   1
M  END
> <s_m_source_file>
AV-unprocessed.smi

> <i_m_source_file_index>
213

> <i_lp_mmshare_version>
43012

> <i_f3d_flags>
0

> <s_epik_input>
W0NIMl0xW0NIMl1PW0NIMl1bQ0gyXU4xW0NIMl1bQ0BASF0oW0NIM10pTihbQ0gzXSljKG5bY0hdbjIpYyhjMjMpbltjSF1uM1tDSDJdW0NASF0oW09IXSlbQ0BASF00W0NIMl1bQ0gyXVtDSDJdTzQ=

> <s_epik_cmdline>
J2VwaWtfcHl0aG9uJywgJy1waCcsICc3LjAnLCAnLXRuJywgJzgnLCAnLW1hJywgJzIwMCcsICctbWV0YWxfYmluZGluZycsICctaW1hZScsICc8aW5maWxlLm1hZT4nLCAnLW9tYWUnLCAnPG91dGZpbGUubWFlPic=

> <r_lp_tautomer_probability>
1

> <r_epik_Ionization_Penalty>
0.399679

> <r_epik_Ionization_Penalty_Charging>
0.399433

> <r_epik_Ionization_Penalty_Neutral>
0.000246213

> <r_epik_State_Penalty>
0.286032

> <r_epik_Charging_Adjusted_Penalty>
0.685465

> <i_epik_Tot_Q>
1

> <i_epik_Tot_abs_Q>
1

> <r_epik_Metal_State_Penalty>
0.286072

> <b_epik_Metal_Only>
0

> <s_lp_Force_Field>
OPLS_2005

> <r_lp_Energy>
46.153

> <b_lp_Chiralities_Consistent>
1

> <s_lp_Variant>
AV-unprocessed.smi:213-2

> <Gold.Version>
5.8.1

> <Gold.Id.Protein>
6NUR|6NUR_protein|mol2

> <Gold.PLP.Fitness>
51.2497

> <Gold.PLP.PLP>
-39.2947

> <Gold.PLP.part.hbond>
-3.8948

> <Gold.PLP.part.metal>
0.0000

> <Gold.PLP.part.buried>
-4.6137

> <Gold.PLP.part.nonpolar>
-30.4289

> <Gold.PLP.part.repulsive>
0.2959

> <Gold.PLP.ligand.clash>
0.0000

> <Gold.PLP.ligand.torsion>
0.9759

> <Gold.PLP.Chemscore.Hbond>
4.2588

> <Gold.PLP.Chemscore.CHOScore>
0.0000

> <Gold.PLP.Chemscore.Metal>
0.0000

> <Gold.Chemscore.Hbonds>
donor molecule, donor type, donor heavy atom, donor atom, acceptor molecule, acceptor atom, score
      L1  H     4    59       P1  7948  2.00
      P1  H  6896  6908       L1    18  0.08
      P1  H  7997  8008       L1    23  0.98
      P1  H 10752 10763       L1    13  0.05

> <Gold.PLP.Chemscore.Internal.Correction>
1.1305

> <Gold.Rescore>
     Score         DG    S(hbond)    S(metal)    S(lipo)     H(rot)  DE(clash)    DE(int)     intcor
     12.97     -17.54       2.50        0.00      93.40       2.83       0.11       4.46       ----

> <Gold.Chemscore.Fitness>
12.9726

> <Gold.Chemscore.DG>
-17.5406

> <Gold.Chemscore.ZeroCoef>
-5.4800

> <Gold.Chemscore.Hbond>
2.5046

> <Gold.Chemscore.Metal>
0.0000

> <Gold.Chemscore.Lipo>
93.4038

> <Gold.Chemscore.Internal_Hbond>
0.0000

> <Gold.Chemscore.DEClash>
0.1119

> <Gold.Chemscore.DEInternal>
4.4561

> <Gold.Chemscore.Rot>
2.8254

> <Gold.Chemscore.Internal.Correction>
   9.000000E+99

> <Gold.Chemscore.Hbonds>
donor molecule, donor type, donor heavy atom, donor atom, acceptor molecule, acceptor atom, score
      L1  H     4    59       P1  7948  0.97
      P1  H  6896  6908       L1    18  0.03
      P1  H  7997  8008       L1    23  0.93

> <Gold.Chemscore.Hbond.Weighted>
-8.3654

> <Gold.Chemscore.Metal.Weighted>
-0.0000

> <Gold.Chemscore.Lipo.Weighted>
-10.9282

> <Gold.Chemscore.Internal_Hbond.Weighted>
0.0000

> <Gold.Chemscore.DEClash.Weighted>
0.1119

> <Gold.Chemscore.DEInternal.Weighted>
4.4561

> <Gold.Chemscore.Rot.Weighted>
7.2330

> <Gold.Chemscore.Internal.Correction.Weighted>
   9.000000E+99

> <Gold.Protein.RotatedTorsions>
[ 6907 6896 6895 6894 ] final  170.14 input  -60.11 | X-H torsion
[ 7974 7965 7964 7962 ] final   65.60 input  175.53 | X-H torsion
[ 8008 7997 7996 7995 ] final -109.75 input   59.86 | X-H torsion
[ 10167 10162 10161 10158 ] final  -75.47 input  -65.29 | X-H torsion
[ 10718 10713 10712 10709 ] final   33.89 input   66.30 | X-H torsion
[ 10763 10752 10751 10750 ] final   63.34 input  -60.55 | X-H torsion
[ 11005 11000 10999 10996 ] final  141.91 input  -57.11 | X-H torsion

> <Gold.Protein.ActiveResidues>
 VAL166  LYS551  ARG553  GLY616  TRP617  ASP618  TYR619  PRO620  LYS621  CYS622 
 ASP623  PHE694  ASN695  SER759  ASP760  ASP761  ALA762  ILE779  LEU786  VAL792 
 PHE793  MET794  SER795  GLU796  ALA797  LYS798  CYS799  TRP800  GLU811  SER814 

> <Gold.Protein.RotatedAtoms>
  151.8208  133.3394  159.3583 H   0  0  0  0  0  0  0  0  0  0  0  0  # atno 6907 bound_to 6896
  150.7295  134.5575  159.5835 H   0  0  0  0  0  0  0  0  0  0  0  0  # atno 6908 bound_to 6896
  152.3007  134.7615  160.0409 H   0  0  0  0  0  0  0  0  0  0  0  0  # atno 6909 bound_to 6896
  145.8365  139.3170  143.0956 H   0  0  0  0  0  0  0  0  0  0  0  0  # atno 7974 bound_to 7965
  154.9641  140.0398  157.2204 H   0  0  0  0  0  0  0  0  0  0  0  0  # atno 8008 bound_to 7997
  154.7862  140.2827  155.6004 H   0  0  0  0  0  0  0  0  0  0  0  0  # atno 8009 bound_to 7997
  156.2943  140.2582  156.2699 H   0  0  0  0  0  0  0  0  0  0  0  0  # atno 8010 bound_to 7997
  140.4940  143.2374  151.7861 H   0  0  0  0  0  0  0  0  0  0  0  0  # atno 10167 bound_to 10162
  157.3035  130.7363  149.6681 H   0  0  0  0  0  0  0  0  0  0  0  0  # atno 10718 bound_to 10713
  153.0014  135.5432  154.6337 H   0  0  0  0  0  0  0  0  0  0  0  0  # atno 10763 bound_to 10752
  154.5608  135.2834  155.0923 H   0  0  0  0  0  0  0  0  0  0  0  0  # atno 10764 bound_to 10752
  154.2126  135.6464  153.5172 H   0  0  0  0  0  0  0  0  0  0  0  0  # atno 10765 bound_to 10752
  140.0437  134.9292  157.0890 H   0  0  0  0  0  0  0  0  0  0  0  0  # atno 11005 bound_to 11000
  145.9513  140.8906  143.0258 LP  0  0  0  0  0  0  0  0  0  0  0  0  # atno 17320 bound_to 7965
  144.6736  140.1684  143.7416 LP  0  0  0  0  0  0  0  0  0  0  0  0  # atno 17321 bound_to 7965
  139.4857  144.4611  151.9539 LP  0  0  0  0  0  0  0  0  0  0  0  0  # atno 17342 bound_to 10162
  140.3699  144.2868  150.5921 LP  0  0  0  0  0  0  0  0  0  0  0  0  # atno 17343 bound_to 10162
  155.9673  130.4273  150.4736 LP  0  0  0  0  0  0  0  0  0  0  0  0  # atno 17370 bound_to 10713
  157.2721  131.0589  151.2253 LP  0  0  0  0  0  0  0  0  0  0  0  0  # atno 17371 bound_to 10713
  140.4028  134.2064  155.7163 LP  0  0  0  0  0  0  0  0  0  0  0  0  # atno 17394 bound_to 11000
  141.1896  133.8235  157.0950 LP  0  0  0  0  0  0  0  0  0  0  0  0  # atno 17395 bound_to 11000

$$$$
