AV-unprocessed.smi:91|AV-procd|sdf|835|dock6
  -GOLD-   2262017263D 1   1.00000     0.00000
 Structure written by MMmdl.
 60 63  0  0  0  0  0  0  0  0  1 V2000
  151.9626  145.6266  159.6714 C   0  0  0  0  0  0  0  0  0  0  0  0
  152.2317  144.3223  159.1887 O   0  0  0  0  0  0  0  0  0  0  0  0
  152.2455  143.3512  160.2234 C   0  0  0  0  0  0  0  0  0  0  0  0
  153.0547  142.1231  159.7835 C   0  0  2  0  0  0  0  0  0  0  0  0
  152.1953  141.0630  159.0726 C   0  0  0  0  0  0  0  0  0  0  0  0
  152.9987  139.8824  158.7818 N   0  0  0  0  0  0  0  0  0  0  0  0
  152.4387  139.0169  157.8988 C   0  0  0  0  0  0  0  0  0  0  0  0
  152.8657  138.9898  156.6074 N   0  0  0  0  0  0  0  0  0  0  0  0
  152.3294  138.1313  155.7350 C   0  0  0  0  0  0  0  0  0  0  0  0
  151.3689  137.2277  155.9369 N   0  0  0  0  0  0  0  0  0  0  0  0
  150.9288  137.2567  157.2270 C   0  0  0  0  0  0  0  0  0  0  0  0
  151.4018  138.1113  158.2625 C   0  0  0  0  0  0  0  0  0  0  0  0
  150.7029  137.8593  159.4380 N   0  0  0  0  0  0  0  0  0  0  0  0
  149.8721  136.9048  159.1179 C   0  0  0  0  0  0  0  0  0  0  0  0
  149.9467  136.4782  157.8117 N   0  0  0  0  0  0  0  0  0  0  0  0
  149.1528  135.4355  157.1870 C   0  0  0  0  0  0  0  0  0  0  0  0
  149.8227  134.8349  155.9263 C   0  0  1  0  0  0  0  0  0  0  0  0
  151.1248  134.0639  156.2529 C   0  0  0  0  0  0  0  0  0  0  0  0
  150.9288  133.1387  157.3027 O   0  0  0  0  0  0  0  0  0  0  0  0
  148.8217  133.9858  155.1029 C   0  0  2  0  0  0  0  0  0  0  0  0
  149.3973  133.3501  153.8496 C   0  0  0  0  0  0  0  0  0  0  0  0
  148.1425  133.0183  153.0497 C   0  0  0  0  0  0  0  0  0  0  0  0
  147.1951  134.0263  153.3836 O   0  0  0  0  0  0  0  0  0  0  0  0
  147.6598  134.7812  154.4981 C   0  0  0  0  0  0  0  0  0  0  0  0
  153.6410  139.3300  159.9718 C   0  0  0  0  0  0  0  0  0  0  0  0
  154.4895  140.3990  160.6969 C   0  0  0  0  0  0  0  0  0  0  0  0
  154.8861  139.8855  162.0898 C   0  0  0  0  0  0  0  0  0  0  0  0
  155.7665  140.7557  159.9063 C   0  0  0  0  0  0  0  0  0  0  0  0
  153.6893  141.5627  160.9335 O   0  0  0  0  0  0  0  0  0  0  0  0
  151.9613  146.3318  158.8404 H   0  0  0  0  0  0  0  0  0  0  0  0
  152.7231  145.9481  160.3842 H   0  0  0  0  0  0  0  0  0  0  0  0
  150.9861  145.6746  160.1553 H   0  0  0  0  0  0  0  0  0  0  0  0
  152.6926  143.7813  161.1212 H   0  0  0  0  0  0  0  0  0  0  0  0
  151.2270  143.0542  160.4782 H   0  0  0  0  0  0  0  0  0  0  0  0
  153.8223  142.4760  159.0950 H   0  0  0  0  0  0  0  0  0  0  0  0
  151.3593  140.7637  159.7061 H   0  0  0  0  0  0  0  0  0  0  0  0
  151.7669  141.4914  158.1671 H   0  0  0  0  0  0  0  0  0  0  0  0
  152.7281  138.1737  154.7320 H   0  0  0  0  0  0  0  0  0  0  0  0
  149.1829  136.4771  159.8319 H   0  0  0  0  0  0  0  0  0  0  0  0
  148.9644  134.6548  157.9250 H   0  0  0  0  0  0  0  0  0  0  0  0
  148.1816  135.8647  156.9399 H   0  0  0  0  0  0  0  0  0  0  0  0
  150.1194  135.6754  155.2969 H   0  0  0  0  0  0  0  0  0  0  0  0
  151.4898  133.5274  155.3775 H   0  0  0  0  0  0  0  0  0  0  0  0
  151.9243  134.7491  156.5346 H   0  0  0  0  0  0  0  0  0  0  0  0
  150.9828  132.2649  156.9466 H   0  0  0  0  0  0  0  0  0  0  0  0
  148.4082  133.1956  155.7317 H   0  0  0  0  0  0  0  0  0  0  0  0
  150.0097  134.0689  153.3034 H   0  0  0  0  0  0  0  0  0  0  0  0
  150.0042  132.4673  154.0522 H   0  0  0  0  0  0  0  0  0  0  0  0
  148.3295  132.9840  151.9763 H   0  0  0  0  0  0  0  0  0  0  0  0
  147.7419  132.0509  153.3551 H   0  0  0  0  0  0  0  0  0  0  0  0
  146.8560  134.9563  155.2136 H   0  0  0  0  0  0  0  0  0  0  0  0
  148.0025  135.7509  154.1332 H   0  0  0  0  0  0  0  0  0  0  0  0
  152.8650  138.9561  160.6418 H   0  0  0  0  0  0  0  0  0  0  0  0
  154.2695  138.4795  159.7030 H   0  0  0  0  0  0  0  0  0  0  0  0
  155.4855  138.9771  162.0224 H   0  0  0  0  0  0  0  0  0  0  0  0
  154.0056  139.6564  162.6911 H   0  0  0  0  0  0  0  0  0  0  0  0
  155.4695  140.6289  162.6338 H   0  0  0  0  0  0  0  0  0  0  0  0
  156.4323  139.8954  159.8331 H   0  0  0  0  0  0  0  0  0  0  0  0
  156.3193  141.5584  160.3951 H   0  0  0  0  0  0  0  0  0  0  0  0
  155.5514  141.0750  158.8871 H   0  0  0  0  0  0  0  0  0  0  0  0
  1  2  1  0  0  0  0
  1 30  1  0  0  0  0
  1 31  1  0  0  0  0
  1 32  1  0  0  0  0
  2  3  1  0  0  0  0
  3  4  1  0  0  0  0
  3 33  1  0  0  0  0
  3 34  1  0  0  0  0
  4 29  1  0  0  0  0
  4  5  1  0  0  0  0
  4 35  1  0  0  0  0
  5  6  1  0  0  0  0
  5 36  1  0  0  0  0
  5 37  1  0  0  0  0
  6  7  1  0  0  0  0
  6 25  1  0  0  0  0
  7 12  1  0  0  0  0
  7  8  2  0  0  0  0
  8  9  1  0  0  0  0
  9 10  2  0  0  0  0
  9 38  1  0  0  0  0
 10 11  1  0  0  0  0
 11 15  1  0  0  0  0
 11 12  2  0  0  0  0
 12 13  1  0  0  0  0
 13 14  2  0  0  0  0
 14 15  1  0  0  0  0
 14 39  1  0  0  0  0
 15 16  1  0  0  0  0
 16 17  1  0  0  0  0
 16 40  1  0  0  0  0
 16 41  1  0  0  0  0
 17 18  1  0  0  0  0
 17 20  1  0  0  0  0
 17 42  1  0  0  0  0
 18 19  1  0  0  0  0
 18 43  1  0  0  0  0
 18 44  1  0  0  0  0
 19 45  1  0  0  0  0
 20 24  1  0  0  0  0
 20 21  1  0  0  0  0
 20 46  1  0  0  0  0
 21 22  1  0  0  0  0
 21 47  1  0  0  0  0
 21 48  1  0  0  0  0
 22 23  1  0  0  0  0
 22 49  1  0  0  0  0
 22 50  1  0  0  0  0
 23 24  1  0  0  0  0
 24 51  1  0  0  0  0
 24 52  1  0  0  0  0
 25 26  1  0  0  0  0
 25 53  1  0  0  0  0
 25 54  1  0  0  0  0
 26 27  1  0  0  0  0
 26 28  1  0  0  0  0
 26 29  1  0  0  0  0
 27 55  1  0  0  0  0
 27 56  1  0  0  0  0
 27 57  1  0  0  0  0
 28 58  1  0  0  0  0
 28 59  1  0  0  0  0
 28 60  1  0  0  0  0
M  END
> <s_m_source_file>
AV-unprocessed.smi

> <i_m_source_file_index>
91

> <i_lp_mmshare_version>
43012

> <i_f3d_flags>
0

> <s_epik_input>
W0NIM11PW0NIMl1bQ0BASF0oTzEpW0NIMl1OKFtDSDJdQzEoW0NIM10pW0NIM10pYyhuW2NIXW4yKWMoYzIzKW5bY0hdbjNbQ0gyXVtDQEhdKFtDSDJdW09IXSlbQ0BASF00W0NIMl1bQ0gyXU9bQ0gyXTQ=

> <s_epik_cmdline>
J2VwaWtfcHl0aG9uJywgJy1waCcsICc3LjAnLCAnLXRuJywgJzgnLCAnLW1hJywgJzIwMCcsICctbWV0YWxfYmluZGluZycsICctaW1hZScsICc8aW5maWxlLm1hZT4nLCAnLW9tYWUnLCAnPG91dGZpbGUubWFlPic=

> <r_lp_tautomer_probability>
1

> <r_epik_Ionization_Penalty>
8.63591e-05

> <r_epik_Ionization_Penalty_Charging>
0

> <r_epik_Ionization_Penalty_Neutral>
8.63591e-05

> <r_epik_State_Penalty>
-0

> <r_epik_Charging_Adjusted_Penalty>
0

> <i_epik_Tot_Q>
0

> <i_epik_Tot_abs_Q>
0

> <r_epik_Metal_State_Penalty>
-0

> <b_epik_Metal_Only>
0

> <s_lp_Force_Field>
OPLS_2005

> <r_lp_Energy>
46.4326

> <b_lp_Chiralities_Consistent>
1

> <s_lp_Variant>
AV-unprocessed.smi:91-3

> <Gold.Version>
5.8.1

> <Gold.Id.Protein>
6NUR|6NUR_protein|mol2

> <Gold.PLP.Fitness>
50.1726

> <Gold.PLP.PLP>
-46.4837

> <Gold.PLP.part.hbond>
-2.6623

> <Gold.PLP.part.metal>
0.0000

> <Gold.PLP.part.buried>
-7.4108

> <Gold.PLP.part.nonpolar>
-36.6743

> <Gold.PLP.part.repulsive>
0.1848

> <Gold.PLP.ligand.clash>
0.0000

> <Gold.PLP.ligand.torsion>
1.2733

> <Gold.PLP.Chemscore.Hbond>
1.8960

> <Gold.PLP.Chemscore.CHOScore>
0.0000

> <Gold.PLP.Chemscore.Metal>
0.0000

> <Gold.Chemscore.Hbonds>
donor molecule, donor type, donor heavy atom, donor atom, acceptor molecule, acceptor atom, score
      P1  H  6896  6909       L1    19  0.90
      P1  H  7997  8010       L1     8  1.00

> <Gold.PLP.Chemscore.Internal.Correction>
0.5474

> <Gold.Rescore>
     Score         DG    S(hbond)    S(metal)    S(lipo)     H(rot)  DE(clash)    DE(int)     intcor
     13.62     -16.30       1.74        0.00     109.08       3.03       0.01       2.67       ----

> <Gold.Chemscore.Fitness>
13.6216

> <Gold.Chemscore.DG>
-16.3050

> <Gold.Chemscore.ZeroCoef>
-5.4800

> <Gold.Chemscore.Hbond>
1.7411

> <Gold.Chemscore.Metal>
0.0000

> <Gold.Chemscore.Lipo>
109.0826

> <Gold.Chemscore.Internal_Hbond>
0.0000

> <Gold.Chemscore.DEClash>
0.0111

> <Gold.Chemscore.DEInternal>
2.6722

> <Gold.Chemscore.Rot>
3.0284

> <Gold.Chemscore.Internal.Correction>
   9.000000E+99

> <Gold.Chemscore.Hbonds>
donor molecule, donor type, donor heavy atom, donor atom, acceptor molecule, acceptor atom, score
      P1  H  6896  6909       L1    19  0.85
      P1  H  7997  8010       L1     8  0.40

> <Gold.Chemscore.Hbond.Weighted>
-5.8151

> <Gold.Chemscore.Metal.Weighted>
-0.0000

> <Gold.Chemscore.Lipo.Weighted>
-12.7627

> <Gold.Chemscore.Internal_Hbond.Weighted>
0.0000

> <Gold.Chemscore.DEClash.Weighted>
0.0111

> <Gold.Chemscore.DEInternal.Weighted>
2.6722

> <Gold.Chemscore.Rot.Weighted>
7.7528

> <Gold.Chemscore.Internal.Correction.Weighted>
   9.000000E+99

> <Gold.Protein.RotatedTorsions>
[ 6907 6896 6895 6894 ] final  -35.93 input  -60.11 | X-H torsion
[ 7974 7965 7964 7962 ] final   73.04 input  175.53 | X-H torsion
[ 8008 7997 7996 7995 ] final   57.99 input   59.86 | X-H torsion
[ 10167 10162 10161 10158 ] final    1.67 input  -65.29 | X-H torsion
[ 10718 10713 10712 10709 ] final  -92.65 input   66.30 | X-H torsion
[ 10763 10752 10751 10750 ] final  -83.46 input  -60.55 | X-H torsion
[ 11005 11000 10999 10996 ] final -176.83 input  -57.11 | X-H torsion

> <Gold.Protein.ActiveResidues>
 VAL166  LYS551  ARG553  GLY616  TRP617  ASP618  TYR619  PRO620  LYS621  CYS622 
 ASP623  PHE694  ASN695  SER759  ASP760  ASP761  ALA762  ILE779  LEU786  VAL792 
 PHE793  MET794  SER795  GLU796  ALA797  LYS798  CYS799  TRP800  GLU811  SER814 

> <Gold.Protein.RotatedAtoms>
  151.0335  134.9556  159.8123 H   0  0  0  0  0  0  0  0  0  0  0  0  # atno 6907 bound_to 6896
  152.5350  134.2749  159.8995 H   0  0  0  0  0  0  0  0  0  0  0  0  # atno 6908 bound_to 6896
  151.2759  133.4190  159.2658 H   0  0  0  0  0  0  0  0  0  0  0  0  # atno 6909 bound_to 6896
  145.7458  139.2739  143.1460 H   0  0  0  0  0  0  0  0  0  0  0  0  # atno 7974 bound_to 7965
  155.5427  140.3484  155.4450 H   0  0  0  0  0  0  0  0  0  0  0  0  # atno 8008 bound_to 7997
  156.0639  140.1347  156.9935 H   0  0  0  0  0  0  0  0  0  0  0  0  # atno 8009 bound_to 7997
  154.4493  140.0979  156.6543 H   0  0  0  0  0  0  0  0  0  0  0  0  # atno 8010 bound_to 7997
  140.6672  143.7148  150.7850 H   0  0  0  0  0  0  0  0  0  0  0  0  # atno 10167 bound_to 10162
  156.0004  130.4996  150.5658 H   0  0  0  0  0  0  0  0  0  0  0  0  # atno 10718 bound_to 10713
  154.5880  135.5555  153.7250 H   0  0  0  0  0  0  0  0  0  0  0  0  # atno 10763 bound_to 10752
  153.0106  135.6336  154.1889 H   0  0  0  0  0  0  0  0  0  0  0  0  # atno 10764 bound_to 10752
  154.1830  135.2886  155.3026 H   0  0  0  0  0  0  0  0  0  0  0  0  # atno 10765 bound_to 10752
  140.4477  134.6372  157.4787 H   0  0  0  0  0  0  0  0  0  0  0  0  # atno 11005 bound_to 11000
  146.0404  140.8170  142.9831 LP  0  0  0  0  0  0  0  0  0  0  0  0  # atno 17320 bound_to 7965
  144.6860  140.2902  143.7279 LP  0  0  0  0  0  0  0  0  0  0  0  0  # atno 17321 bound_to 7965
  140.0827  143.4953  152.2521 LP  0  0  0  0  0  0  0  0  0  0  0  0  # atno 17342 bound_to 10162
  139.5925  144.7555  151.3366 LP  0  0  0  0  0  0  0  0  0  0  0  0  # atno 17343 bound_to 10162
  157.3561  131.0742  151.1674 LP  0  0  0  0  0  0  0  0  0  0  0  0  # atno 17370 bound_to 10713
  157.2475  130.6598  149.5916 LP  0  0  0  0  0  0  0  0  0  0  0  0  # atno 17371 bound_to 10713
  140.0027  134.6811  155.9504 LP  0  0  0  0  0  0  0  0  0  0  0  0  # atno 17394 bound_to 11000
  141.1678  133.6537  156.4541 LP  0  0  0  0  0  0  0  0  0  0  0  0  # atno 17395 bound_to 11000

$$$$
