AV-unprocessed.smi:2528|AV-procd|sdf|9954|dock1
  -GOLD-   2272013593D 1   1.00000     0.00000
 Structure written by MMmdl.
 44 46  0  0  0  0  0  0  0  0  2 V2000
  144.7267  136.6759  152.0865 O   0  0  0  0  0  0  0  0  0  0  0  0
  145.9227  136.5635  151.8159 C   0  0  0  0  0  0  0  0  0  0  0  0
  146.7964  137.5759  151.9156 N   0  0  0  0  0  0  0  0  0  0  0  0
  146.4581  138.9251  152.3555 C   0  0  0  0  0  0  0  0  0  0  0  0
  147.1466  139.2797  153.6934 C   0  0  2  0  0  0  0  0  0  0  0  0
  146.1689  139.3632  154.8806 C   0  0  0  0  0  0  0  0  0  0  0  0
  145.3318  140.5834  154.8082 N   0  3  1  0  0  0  0  0  0  0  0  0
  144.3568  140.6595  155.9259 C   0  0  0  0  0  0  0  0  0  0  0  0
  143.4447  141.8877  155.7852 C   0  0  0  0  0  0  0  0  0  0  0  0
  144.2769  143.1729  155.7000 C   0  0  0  0  0  0  0  0  0  0  0  0
  145.2893  143.0643  154.5522 C   0  0  0  0  0  0  0  0  0  0  0  0
  146.1714  141.8070  154.6949 C   0  0  2  0  0  0  0  0  0  0  0  0
  147.1381  141.6721  153.5030 C   0  0  0  0  0  0  0  0  0  0  0  0
  147.9120  140.4828  153.6190 O   0  0  0  0  0  0  0  0  0  0  0  0
  146.5238  135.4367  151.3950 N   0  0  0  0  0  0  0  0  0  0  0  0
  145.9352  134.1665  151.1530 C   0  0  0  0  0  0  0  0  0  0  0  0
  144.5391  134.1853  150.9346 C   0  0  0  0  0  0  0  0  0  0  0  0
  143.8598  132.9764  150.6883 C   0  0  0  0  0  0  0  0  0  0  0  0
  144.5950  131.7778  150.6669 C   0  0  0  0  0  0  0  0  0  0  0  0
  145.9818  131.8467  150.8932 C   0  0  0  0  0  0  0  0  0  0  0  0
  146.6350  133.0043  151.1295 N   0  0  0  0  0  0  0  0  0  0  0  0
  147.7615  137.4002  151.6763 H   0  0  0  0  0  0  0  0  0  0  0  0
  146.7341  139.6247  151.5673 H   0  0  0  0  0  0  0  0  0  0  0  0
  145.3753  139.0125  152.4598 H   0  0  0  0  0  0  0  0  0  0  0  0
  147.8551  138.4818  153.9187 H   0  0  0  0  0  0  0  0  0  0  0  0
  145.5349  138.4759  154.9081 H   0  0  0  0  0  0  0  0  0  0  0  0
  146.7327  139.3750  155.8150 H   0  0  0  0  0  0  0  0  0  0  0  0
  143.7483  139.7544  155.9407 H   0  0  0  0  0  0  0  0  0  0  0  0
  144.8916  140.6982  156.8765 H   0  0  0  0  0  0  0  0  0  0  0  0
  142.8280  141.7880  154.8909 H   0  0  0  0  0  0  0  0  0  0  0  0
  142.7585  141.9426  156.6308 H   0  0  0  0  0  0  0  0  0  0  0  0
  143.6258  144.0347  155.5498 H   0  0  0  0  0  0  0  0  0  0  0  0
  144.8017  143.3368  156.6421 H   0  0  0  0  0  0  0  0  0  0  0  0
  144.7552  143.0364  153.6013 H   0  0  0  0  0  0  0  0  0  0  0  0
  145.9136  143.9581  154.5285 H   0  0  0  0  0  0  0  0  0  0  0  0
  146.7616  141.8973  155.6087 H   0  0  0  0  0  0  0  0  0  0  0  0
  146.6004  141.6877  152.5549 H   0  0  0  0  0  0  0  0  0  0  0  0
  147.8208  142.5217  153.4800 H   0  0  0  0  0  0  0  0  0  0  0  0
  147.5163  135.4937  151.2221 H   0  0  0  0  0  0  0  0  0  0  0  0
  143.9892  135.1150  150.9550 H   0  0  0  0  0  0  0  0  0  0  0  0
  142.7931  132.9699  150.5198 H   0  0  0  0  0  0  0  0  0  0  0  0
  144.1092  130.8311  150.4821 H   0  0  0  0  0  0  0  0  0  0  0  0
  146.5829  130.9497  150.8852 H   0  0  0  0  0  0  0  0  0  0  0  0
  144.7933  140.5190  153.9562 H   0  0  0  0  0  0  0  0  0  0  0  0
  1  2  2  0  0  0  0
  2  3  1  0  0  0  0
  2 15  1  0  0  0  0
  3  4  1  0  0  0  0
  3 22  1  0  0  0  0
  4  5  1  0  0  0  0
  4 23  1  0  0  0  0
  4 24  1  0  0  0  0
  5 14  1  0  0  0  0
  5  6  1  0  0  0  0
  5 25  1  0  0  0  0
  6  7  1  0  0  0  0
  6 26  1  0  0  0  0
  6 27  1  0  0  0  0
  7 12  1  0  0  0  0
  7  8  1  0  0  0  0
  7 44  1  0  0  0  0
  8  9  1  0  0  0  0
  8 28  1  0  0  0  0
  8 29  1  0  0  0  0
  9 10  1  0  0  0  0
  9 30  1  0  0  0  0
  9 31  1  0  0  0  0
 10 11  1  0  0  0  0
 10 32  1  0  0  0  0
 10 33  1  0  0  0  0
 11 12  1  0  0  0  0
 11 34  1  0  0  0  0
 11 35  1  0  0  0  0
 12 13  1  0  0  0  0
 12 36  1  0  0  0  0
 13 14  1  0  0  0  0
 13 37  1  0  0  0  0
 13 38  1  0  0  0  0
 15 16  1  0  0  0  0
 15 39  1  0  0  0  0
 16 21  1  0  0  0  0
 16 17  2  0  0  0  0
 17 18  1  0  0  0  0
 17 40  1  0  0  0  0
 18 19  2  0  0  0  0
 18 41  1  0  0  0  0
 19 20  1  0  0  0  0
 19 42  1  0  0  0  0
 20 21  2  0  0  0  0
 20 43  1  0  0  0  0
M  CHG  1   7   1
M  END
> <s_m_source_file>
AV-unprocessed.smi

> <i_m_source_file_index>
2528

> <i_lp_mmshare_version>
43012

> <i_f3d_flags>
0

> <s_epik_input>
bjFbY0hdW2NIXVtjSF1bY0hdYzFbTkhdQyg9TylbTkhdW0NIMl1bQ0BIXShbQ0gyXTIpT1tDSDJdW0NAQEhdKE4yMylbQ0gyXVtDSDJdW0NIMl1bQ0gyXTM=

> <s_epik_cmdline>
J2VwaWtfcHl0aG9uJywgJy1waCcsICc3LjAnLCAnLXRuJywgJzgnLCAnLW1hJywgJzIwMCcsICctbWV0YWxfYmluZGluZycsICctaW1hZScsICc8aW5maWxlLm1hZT4nLCAnLW9tYWUnLCAnPG91dGZpbGUubWFlPic=

> <r_epik_Ionization_Penalty>
0.0932337

> <r_epik_Ionization_Penalty_Charging>
0.0931942

> <r_epik_Ionization_Penalty_Neutral>
3.9565e-05

> <r_epik_State_Penalty>
0.0834605

> <r_epik_Charging_Adjusted_Penalty>
0.176655

> <i_epik_Tot_Q>
1

> <i_epik_Tot_abs_Q>
1

> <r_epik_Metal_State_Penalty>
0.0834607

> <b_epik_Metal_Only>
0

> <s_lp_Force_Field>
OPLS_2005

> <r_lp_Energy>
28.0782

> <b_lp_Chiralities_Consistent>
1

> <s_lp_Variant>
AV-unprocessed.smi:2528-7

> <Gold.Version>
5.8.1

> <Gold.Id.Protein>
6NUR|6NUR_protein|mol2

> <Gold.PLP.Fitness>
45.2991

> <Gold.PLP.PLP>
-33.0487

> <Gold.PLP.part.hbond>
-3.0000

> <Gold.PLP.part.metal>
0.0000

> <Gold.PLP.part.buried>
-5.3140

> <Gold.PLP.part.nonpolar>
-26.1664

> <Gold.PLP.part.repulsive>
1.7854

> <Gold.PLP.ligand.clash>
0.0000

> <Gold.PLP.ligand.torsion>
0.8232

> <Gold.PLP.Chemscore.Hbond>
3.7280

> <Gold.PLP.Chemscore.CHOScore>
0.8975

> <Gold.PLP.Chemscore.Metal>
0.0000

> <Gold.Chemscore.Hbonds>
donor molecule, donor type, donor heavy atom, donor atom, acceptor molecule, acceptor atom, score
      L1  H     3    22       P1  7948  0.85
      L1  H     7    44       P1 10175  2.00
      L1  H    15    39       P1  7948  0.86
      L1  C    20    43       P1 10747  0.91

> <Gold.PLP.Chemscore.Internal.Correction>
0.0203

> <Gold.Rescore>
     Score         DG    S(hbond)    S(metal)    S(lipo)     H(rot)  DE(clash)    DE(int)     intcor
     17.24     -19.58       2.89        0.00      66.07       1.29       0.06       2.28       ----

> <Gold.Chemscore.Fitness>
17.2380

> <Gold.Chemscore.DG>
-19.5752

> <Gold.Chemscore.ZeroCoef>
-5.4800

> <Gold.Chemscore.Hbond>
2.8922

> <Gold.Chemscore.Metal>
0.0000

> <Gold.Chemscore.Lipo>
66.0705

> <Gold.Chemscore.Internal_Hbond>
0.0000

> <Gold.Chemscore.DEClash>
0.0611

> <Gold.Chemscore.DEInternal>
2.2761

> <Gold.Chemscore.Rot>
1.2870

> <Gold.Chemscore.Internal.Correction>
   9.000000E+99

> <Gold.Chemscore.Hbonds>
donor molecule, donor type, donor heavy atom, donor atom, acceptor molecule, acceptor atom, score
      L1  H     3    22       P1  7948  0.83
      L1  H     7    44       P1 10175  1.00
      L1  H    15    39       P1  7948  0.59

> <Gold.Chemscore.Hbond.Weighted>
-9.6598

> <Gold.Chemscore.Metal.Weighted>
-0.0000

> <Gold.Chemscore.Lipo.Weighted>
-7.7302

> <Gold.Chemscore.Internal_Hbond.Weighted>
0.0000

> <Gold.Chemscore.DEClash.Weighted>
0.0611

> <Gold.Chemscore.DEInternal.Weighted>
2.2761

> <Gold.Chemscore.Rot.Weighted>
3.2948

> <Gold.Chemscore.Internal.Correction.Weighted>
   9.000000E+99

> <Gold.Protein.RotatedTorsions>
[ 6907 6896 6895 6894 ] final   32.71 input  -60.11 | X-H torsion
[ 7974 7965 7964 7962 ] final   44.62 input  175.53 | X-H torsion
[ 8008 7997 7996 7995 ] final  -92.47 input   59.86 | X-H torsion
[ 10167 10162 10161 10158 ] final   56.60 input  -65.29 | X-H torsion
[ 10718 10713 10712 10709 ] final  -95.47 input   66.30 | X-H torsion
[ 10763 10752 10751 10750 ] final -173.50 input  -60.55 | X-H torsion
[ 11005 11000 10999 10996 ] final  -40.51 input  -57.11 | X-H torsion

> <Gold.Protein.ActiveResidues>
 VAL166  LYS551  ARG553  GLY616  TRP617  ASP618  TYR619  PRO620  LYS621  CYS622 
 ASP623  PHE694  ASN695  SER759  ASP760  ASP761  ALA762  ILE779  LEU786  VAL792 
 PHE793  MET794  SER795  GLU796  ALA797  LYS798  CYS799  TRP800  GLU811  SER814 

> <Gold.Protein.RotatedAtoms>
  152.0783  134.9488  160.0573 H   0  0  0  0  0  0  0  0  0  0  0  0  # atno 6907 bound_to 6896
  152.0786  133.4137  159.4499 H   0  0  0  0  0  0  0  0  0  0  0  0  # atno 6908 bound_to 6896
  150.6836  134.2928  159.4717 H   0  0  0  0  0  0  0  0  0  0  0  0  # atno 6909 bound_to 6896
  146.0552  139.5054  142.9693 H   0  0  0  0  0  0  0  0  0  0  0  0  # atno 7974 bound_to 7965
  154.7235  140.0508  157.0662 H   0  0  0  0  0  0  0  0  0  0  0  0  # atno 8008 bound_to 7997
  155.0395  140.3167  155.4710 H   0  0  0  0  0  0  0  0  0  0  0  0  # atno 8009 bound_to 7997
  156.2823  140.2135  156.5519 H   0  0  0  0  0  0  0  0  0  0  0  0  # atno 8010 bound_to 7997
  140.2070  144.3929  150.6505 H   0  0  0  0  0  0  0  0  0  0  0  0  # atno 10167 bound_to 10162
  156.0044  130.5111  150.6082 H   0  0  0  0  0  0  0  0  0  0  0  0  # atno 10718 bound_to 10713
  154.6071  135.2860  155.0473 H   0  0  0  0  0  0  0  0  0  0  0  0  # atno 10763 bound_to 10752
  154.1716  135.6471  153.5015 H   0  0  0  0  0  0  0  0  0  0  0  0  # atno 10764 bound_to 10752
  153.0180  135.5402  154.6811 H   0  0  0  0  0  0  0  0  0  0  0  0  # atno 10765 bound_to 10752
  141.0180  133.6876  156.2331 H   0  0  0  0  0  0  0  0  0  0  0  0  # atno 11005 bound_to 11000
  145.6655  141.0230  143.1685 LP  0  0  0  0  0  0  0  0  0  0  0  0  # atno 17320 bound_to 7965
  144.7144  139.8250  143.7403 LP  0  0  0  0  0  0  0  0  0  0  0  0  # atno 17321 bound_to 7965
  140.6350  143.2193  151.6413 LP  0  0  0  0  0  0  0  0  0  0  0  0  # atno 17342 bound_to 10162
  139.5195  144.3252  152.0875 LP  0  0  0  0  0  0  0  0  0  0  0  0  # atno 17343 bound_to 10162
  157.3919  131.0797  151.1386 LP  0  0  0  0  0  0  0  0  0  0  0  0  # atno 17370 bound_to 10713
  157.2075  130.6423  149.5761 LP  0  0  0  0  0  0  0  0  0  0  0  0  # atno 17371 bound_to 10713
  140.6622  134.4955  157.5584 LP  0  0  0  0  0  0  0  0  0  0  0  0  # atno 17394 bound_to 11000
  139.9128  134.8308  156.1468 LP  0  0  0  0  0  0  0  0  0  0  0  0  # atno 17395 bound_to 11000

$$$$
