AV-unprocessed.smi:657|AV-procd|sdf|3221|dock5
  -GOLD-   22720 0163D 1   1.00000     0.00000
 Structure written by MMmdl.
 47 48  0  0  0  0  0  0  0  0  2 V2000
  146.6274  142.6553  153.8534 C   0  0  0  0  0  0  0  0  0  0  0  0
  147.8534  141.7398  154.0604 C   0  0  0  0  0  0  0  0  0  0  0  0
  147.3969  140.2767  153.8824 C   0  0  0  0  0  0  0  0  0  0  0  0
  148.5351  141.9644  155.3819 N   0  3  1  0  0  0  0  0  0  0  0  0
  147.7191  141.5463  156.5655 C   0  0  0  0  0  0  0  0  0  0  0  0
  148.3679  141.9556  157.8983 C   0  0  0  0  0  0  0  0  0  0  0  0
  149.7963  141.4224  158.0121 C   0  0  0  0  0  0  0  0  0  0  0  0
  150.6081  141.9156  156.8105 C   0  0  0  0  0  0  0  0  0  0  0  0
  149.9676  141.5066  155.4634 C   0  0  1  0  0  0  0  0  0  0  0  0
  150.2090  140.0097  155.1664 C   0  0  0  0  0  0  0  0  0  0  0  0
  151.0633  139.6429  154.3602 O   0  0  0  0  0  0  0  0  0  0  0  0
  149.4095  139.1516  155.8182 N   0  0  0  0  0  0  0  0  0  0  0  0
  149.3847  137.7033  155.6307 C   0  0  0  0  0  0  0  0  0  0  0  0
  150.7751  137.0479  155.7763 C   0  0  0  0  0  0  0  0  0  0  0  0
  150.7275  135.5429  155.7150 C   0  0  0  0  0  0  0  0  0  0  0  0
  151.3135  134.6051  156.6125 C   0  0  0  0  0  0  0  0  0  0  0  0
  151.0424  133.3501  156.2935 N   0  0  0  0  0  0  0  0  0  0  0  0
  150.2885  133.4419  155.1788 N   0  0  0  0  0  0  0  0  0  0  0  0
  149.7966  132.2367  154.5471 C   0  0  0  0  0  0  0  0  0  0  0  0
  150.0899  134.7518  154.8018 C   0  0  0  0  0  0  0  0  0  0  0  0
  146.1002  142.4020  152.9329 H   0  0  0  0  0  0  0  0  0  0  0  0
  146.9044  143.7052  153.7608 H   0  0  0  0  0  0  0  0  0  0  0  0
  145.9159  142.5606  154.6744 H   0  0  0  0  0  0  0  0  0  0  0  0
  148.5641  141.9563  153.2623 H   0  0  0  0  0  0  0  0  0  0  0  0
  146.7877  140.1622  152.9850 H   0  0  0  0  0  0  0  0  0  0  0  0
  146.7978  139.9401  154.7293 H   0  0  0  0  0  0  0  0  0  0  0  0
  148.2347  139.5908  153.7616 H   0  0  0  0  0  0  0  0  0  0  0  0
  146.7389  142.0172  156.5417 H   0  0  0  0  0  0  0  0  0  0  0  0
  147.5389  140.4719  156.5481 H   0  0  0  0  0  0  0  0  0  0  0  0
  148.3762  143.0433  157.9812 H   0  0  0  0  0  0  0  0  0  0  0  0
  147.7674  141.5885  158.7313 H   0  0  0  0  0  0  0  0  0  0  0  0
  150.2544  141.7623  158.9413 H   0  0  0  0  0  0  0  0  0  0  0  0
  149.7877  140.3327  158.0481 H   0  0  0  0  0  0  0  0  0  0  0  0
  150.6862  143.0029  156.8543 H   0  0  0  0  0  0  0  0  0  0  0  0
  151.6319  141.5440  156.8819 H   0  0  0  0  0  0  0  0  0  0  0  0
  150.5264  142.0631  154.7112 H   0  0  0  0  0  0  0  0  0  0  0  0
  148.7309  139.5331  156.4615 H   0  0  0  0  0  0  0  0  0  0  0  0
  148.6667  137.2409  156.3095 H   0  0  0  0  0  0  0  0  0  0  0  0
  149.0120  137.5255  154.6215 H   0  0  0  0  0  0  0  0  0  0  0  0
  151.4252  137.4319  154.9895 H   0  0  0  0  0  0  0  0  0  0  0  0
  151.2288  137.3809  156.7097 H   0  0  0  0  0  0  0  0  0  0  0  0
  151.9097  134.7998  157.4919 H   0  0  0  0  0  0  0  0  0  0  0  0
  149.3276  132.4798  153.5933 H   0  0  0  0  0  0  0  0  0  0  0  0
  149.0600  131.7580  155.1929 H   0  0  0  0  0  0  0  0  0  0  0  0
  150.6223  131.5468  154.3697 H   0  0  0  0  0  0  0  0  0  0  0  0
  149.5035  135.0120  153.9329 H   0  0  0  0  0  0  0  0  0  0  0  0
  148.5963  142.9690  155.4639 H   0  0  0  0  0  0  0  0  0  0  0  0
  1  2  1  0  0  0  0
  1 21  1  0  0  0  0
  1 22  1  0  0  0  0
  1 23  1  0  0  0  0
  2  3  1  0  0  0  0
  2  4  1  0  0  0  0
  2 24  1  0  0  0  0
  3 25  1  0  0  0  0
  3 26  1  0  0  0  0
  3 27  1  0  0  0  0
  4  9  1  0  0  0  0
  4  5  1  0  0  0  0
  4 47  1  0  0  0  0
  5  6  1  0  0  0  0
  5 28  1  0  0  0  0
  5 29  1  0  0  0  0
  6  7  1  0  0  0  0
  6 30  1  0  0  0  0
  6 31  1  0  0  0  0
  7  8  1  0  0  0  0
  7 32  1  0  0  0  0
  7 33  1  0  0  0  0
  8  9  1  0  0  0  0
  8 34  1  0  0  0  0
  8 35  1  0  0  0  0
  9 10  1  0  0  0  0
  9 36  1  0  0  0  0
 10 11  2  0  0  0  0
 10 12  1  0  0  0  0
 12 13  1  0  0  0  0
 12 37  1  0  0  0  0
 13 14  1  0  0  0  0
 13 38  1  0  0  0  0
 13 39  1  0  0  0  0
 14 15  1  0  0  0  0
 14 40  1  0  0  0  0
 14 41  1  0  0  0  0
 15 20  2  0  0  0  0
 15 16  1  0  0  0  0
 16 17  2  0  0  0  0
 16 42  1  0  0  0  0
 17 18  1  0  0  0  0
 18 19  1  0  0  0  0
 18 20  1  0  0  0  0
 19 43  1  0  0  0  0
 19 44  1  0  0  0  0
 19 45  1  0  0  0  0
 20 46  1  0  0  0  0
M  CHG  1   4   1
M  END
> <s_m_source_file>
AV-unprocessed.smi

> <i_m_source_file_index>
657

> <i_lp_mmshare_version>
43012

> <i_f3d_flags>
0

> <s_epik_input>
W0NIM11bQ0hdKFtDSDNdKU4xW0NIMl1bQ0gyXVtDSDJdW0NIMl1bQ0BIXTFDKD1PKVtOSF1bQ0gyXVtDSDJdYzJbY0hdbm4oW0NIM10pW2NIXTI=

> <s_epik_cmdline>
J2VwaWtfcHl0aG9uJywgJy1waCcsICc3LjAnLCAnLXRuJywgJzgnLCAnLW1hJywgJzIwMCcsICctbWV0YWxfYmluZGluZycsICctaW1hZScsICc8aW5maWxlLm1hZT4nLCAnLW9tYWUnLCAnPG91dGZpbGUubWFlPic=

> <r_lp_tautomer_probability>
1

> <r_epik_Ionization_Penalty>
0.0244317

> <r_epik_Ionization_Penalty_Charging>
0.0240236

> <r_epik_Ionization_Penalty_Neutral>
0.00040815

> <r_epik_State_Penalty>
0.0194773

> <r_epik_Charging_Adjusted_Penalty>
0.0435009

> <i_epik_Tot_Q>
1

> <i_epik_Tot_abs_Q>
1

> <r_epik_Metal_State_Penalty>
0.0361957

> <b_epik_Metal_Only>
0

> <s_lp_Force_Field>
OPLS_2005

> <r_lp_Energy>
18.2294

> <b_lp_Chiralities_Consistent>
1

> <s_lp_Variant>
AV-unprocessed.smi:657-2

> <Gold.Version>
5.8.1

> <Gold.Id.Protein>
6NUR|6NUR_protein|mol2

> <Gold.PLP.Fitness>
45.3847

> <Gold.PLP.PLP>
-34.5851

> <Gold.PLP.part.hbond>
-2.0000

> <Gold.PLP.part.metal>
0.0000

> <Gold.PLP.part.buried>
-5.8910

> <Gold.PLP.part.nonpolar>
-27.6438

> <Gold.PLP.part.repulsive>
0.2851

> <Gold.PLP.ligand.clash>
0.0000

> <Gold.PLP.ligand.torsion>
0.6978

> <Gold.PLP.Chemscore.Hbond>
3.0000

> <Gold.PLP.Chemscore.CHOScore>
1.0000

> <Gold.PLP.Chemscore.Metal>
0.0000

> <Gold.Chemscore.Hbonds>
donor molecule, donor type, donor heavy atom, donor atom, acceptor molecule, acceptor atom, score
      L1  H     4    47       P1  8028  2.00
      P1  H  7989  7998       L1    11  1.00
      L1  C    20    46       P1  7948  0.81

> <Gold.PLP.Chemscore.Internal.Correction>
0.1953

> <Gold.Rescore>
     Score         DG    S(hbond)    S(metal)    S(lipo)     H(rot)  DE(clash)    DE(int)     intcor
     12.64     -15.55       1.93        0.00      66.54       1.63       0.00       2.91       ----

> <Gold.Chemscore.Fitness>
12.6402

> <Gold.Chemscore.DG>
-15.5488

> <Gold.Chemscore.ZeroCoef>
-5.4800

> <Gold.Chemscore.Hbond>
1.9314

> <Gold.Chemscore.Metal>
0.0000

> <Gold.Chemscore.Lipo>
66.5419

> <Gold.Chemscore.Internal_Hbond>
0.0000

> <Gold.Chemscore.DEClash>
0.0029

> <Gold.Chemscore.DEInternal>
2.9057

> <Gold.Chemscore.Rot>
1.6279

> <Gold.Chemscore.Internal.Correction>
   9.000000E+99

> <Gold.Chemscore.Hbonds>
donor molecule, donor type, donor heavy atom, donor atom, acceptor molecule, acceptor atom, score
      L1  H     4    47       P1  8028  1.00
      P1  H  7989  7998       L1    11  0.84

> <Gold.Chemscore.Hbond.Weighted>
-6.4508

> <Gold.Chemscore.Metal.Weighted>
-0.0000

> <Gold.Chemscore.Lipo.Weighted>
-7.7854

> <Gold.Chemscore.Internal_Hbond.Weighted>
0.0000

> <Gold.Chemscore.DEClash.Weighted>
0.0029

> <Gold.Chemscore.DEInternal.Weighted>
2.9057

> <Gold.Chemscore.Rot.Weighted>
4.1673

> <Gold.Chemscore.Internal.Correction.Weighted>
   9.000000E+99

> <Gold.Protein.RotatedTorsions>
[ 6907 6896 6895 6894 ] final -158.47 input  -60.11 | X-H torsion
[ 7974 7965 7964 7962 ] final   33.44 input  175.53 | X-H torsion
[ 8008 7997 7996 7995 ] final  176.44 input   59.86 | X-H torsion
[ 10167 10162 10161 10158 ] final   35.18 input  -65.29 | X-H torsion
[ 10718 10713 10712 10709 ] final   85.21 input   66.30 | X-H torsion
[ 10763 10752 10751 10750 ] final   21.00 input  -60.55 | X-H torsion
[ 11005 11000 10999 10996 ] final -125.93 input  -57.11 | X-H torsion

> <Gold.Protein.ActiveResidues>
 VAL166  LYS551  ARG553  GLY616  TRP617  ASP618  TYR619  PRO620  LYS621  CYS622 
 ASP623  PHE694  ASN695  SER759  ASP760  ASP761  ALA762  ILE779  LEU786  VAL792 
 PHE793  MET794  SER795  GLU796  ALA797  LYS798  CYS799  TRP800  GLU811  SER814 

> <Gold.Protein.RotatedAtoms>
  151.3187  133.4049  159.2652 H   0  0  0  0  0  0  0  0  0  0  0  0  # atno 6907 bound_to 6896
  151.0053  134.9355  159.7987 H   0  0  0  0  0  0  0  0  0  0  0  0  # atno 6908 bound_to 6896
  152.5286  134.3152  159.9180 H   0  0  0  0  0  0  0  0  0  0  0  0  # atno 6909 bound_to 6896
  146.1420  139.6396  142.9156 H   0  0  0  0  0  0  0  0  0  0  0  0  # atno 7974 bound_to 7965
  156.0764  140.1383  156.9766 H   0  0  0  0  0  0  0  0  0  0  0  0  # atno 8008 bound_to 7997
  154.4560  140.0961  156.6809 H   0  0  0  0  0  0  0  0  0  0  0  0  # atno 8009 bound_to 7997
  155.5146  140.3454  155.4397 H   0  0  0  0  0  0  0  0  0  0  0  0  # atno 8010 bound_to 7997
  140.4246  144.1411  150.6152 H   0  0  0  0  0  0  0  0  0  0  0  0  # atno 10167 bound_to 10162
  157.6911  131.0165  150.2788 H   0  0  0  0  0  0  0  0  0  0  0  0  # atno 10718 bound_to 10713
  153.1031  135.6677  153.9636 H   0  0  0  0  0  0  0  0  0  0  0  0  # atno 10763 bound_to 10752
  153.9201  135.3015  155.3449 H   0  0  0  0  0  0  0  0  0  0  0  0  # atno 10764 bound_to 10752
  154.7452  135.5061  153.9267 H   0  0  0  0  0  0  0  0  0  0  0  0  # atno 10765 bound_to 10752
  140.9723  134.0789  157.3856 H   0  0  0  0  0  0  0  0  0  0  0  0  # atno 11005 bound_to 11000
  145.5024  141.0437  143.2533 LP  0  0  0  0  0  0  0  0  0  0  0  0  # atno 17320 bound_to 7965
  144.7803  139.6540  143.7157 LP  0  0  0  0  0  0  0  0  0  0  0  0  # atno 17321 bound_to 7965
  140.4496  143.2492  151.9366 LP  0  0  0  0  0  0  0  0  0  0  0  0  # atno 17342 bound_to 10162
  139.4783  144.5575  151.8290 LP  0  0  0  0  0  0  0  0  0  0  0  0  # atno 17343 bound_to 10162
  156.3338  130.3804  149.7468 LP  0  0  0  0  0  0  0  0  0  0  0  0  # atno 17370 bound_to 10713
  156.4999  130.8124  151.3128 LP  0  0  0  0  0  0  0  0  0  0  0  0  # atno 17371 bound_to 10713
  139.8917  135.0120  156.6804 LP  0  0  0  0  0  0  0  0  0  0  0  0  # atno 17394 bound_to 11000
  140.7311  133.9058  155.8212 LP  0  0  0  0  0  0  0  0  0  0  0  0  # atno 17395 bound_to 11000

$$$$
