AV-unprocessed.smi:1381|AV-procd|sdf|5602|dock10
  -GOLD-   22720 5213D 1   1.00000     0.00000
 Structure written by MMmdl.
 42 43  0  0  0  0  0  0  0  0  1 V2000
  151.8914  141.0286  156.2143 C   0  0  0  0  0  0  0  0  0  0  0  0
  151.7167  139.6638  155.6411 C   0  0  0  0  0  0  0  0  0  0  0  0
  150.6121  138.9275  155.3165 C   0  0  0  0  0  0  0  0  0  0  0  0
  151.1681  137.7179  154.8216 C   0  0  0  0  0  0  0  0  0  0  0  0
  150.3329  136.6650  154.3683 N   0  0  0  0  0  0  0  0  0  0  0  0
  149.9416  135.5768  155.0532 C   0  0  0  0  0  0  0  0  0  0  0  0
  150.2591  135.3167  156.2143 O   0  0  0  0  0  0  0  0  0  0  0  0
  149.1494  134.7911  154.3094 N   0  0  0  0  0  0  0  0  0  0  0  0
  148.5587  133.5362  154.7589 C   0  0  0  0  0  0  0  0  0  0  0  0
  148.8169  132.4022  153.7491 C   0  0  0  0  0  0  0  0  0  0  0  0
  147.6287  131.6519  153.3468 N   0  0  0  0  0  0  0  0  0  0  0  0
  146.8378  132.3536  152.3382 C   0  0  0  0  0  0  0  0  0  0  0  0
  145.6034  131.5397  151.9033 C   0  0  1  0  0  0  0  0  0  0  0  0
  144.8182  132.2309  150.7838 C   0  0  0  0  0  0  0  0  0  0  0  0
  146.0265  130.2635  151.4314 O   0  0  0  0  0  0  0  0  0  0  0  0
  146.7621  129.5211  152.3996 C   0  0  1  0  0  0  0  0  0  0  0  0
  147.1466  128.1725  151.7820 C   0  0  0  0  0  0  0  0  0  0  0  0
  147.9951  130.3392  152.8276 C   0  0  0  0  0  0  0  0  0  0  0  0
  152.4923  137.7154  154.8432 N   0  0  0  0  0  0  0  0  0  0  0  0
  152.8506  138.9622  155.3690 O   0  0  0  0  0  0  0  0  0  0  0  0
  151.8193  141.0016  157.3016 H   0  0  0  0  0  0  0  0  0  0  0  0
  151.1242  141.7070  155.8407 H   0  0  0  0  0  0  0  0  0  0  0  0
  152.8645  141.4430  155.9498 H   0  0  0  0  0  0  0  0  0  0  0  0
  149.5753  139.2114  155.4181 H   0  0  0  0  0  0  0  0  0  0  0  0
  149.9981  136.7493  153.4200 H   0  0  0  0  0  0  0  0  0  0  0  0
  148.9421  135.0782  153.3641 H   0  0  0  0  0  0  0  0  0  0  0  0
  148.9998  133.2815  155.7229 H   0  0  0  0  0  0  0  0  0  0  0  0
  147.4920  133.6830  154.9319 H   0  0  0  0  0  0  0  0  0  0  0  0
  149.3132  132.8025  152.8636 H   0  0  0  0  0  0  0  0  0  0  0  0
  149.5289  131.7120  154.2037 H   0  0  0  0  0  0  0  0  0  0  0  0
  146.5006  133.3147  152.7246 H   0  0  0  0  0  0  0  0  0  0  0  0
  147.4584  132.5673  151.4664 H   0  0  0  0  0  0  0  0  0  0  0  0
  144.9408  131.3974  152.7589 H   0  0  0  0  0  0  0  0  0  0  0  0
  144.4611  133.2108  151.1020 H   0  0  0  0  0  0  0  0  0  0  0  0
  143.9497  131.6387  150.4947 H   0  0  0  0  0  0  0  0  0  0  0  0
  145.4364  132.3713  149.8967 H   0  0  0  0  0  0  0  0  0  0  0  0
  146.1242  129.3408  153.2667 H   0  0  0  0  0  0  0  0  0  0  0  0
  147.7043  127.5608  152.4913 H   0  0  0  0  0  0  0  0  0  0  0  0
  147.7668  128.3074  150.8954 H   0  0  0  0  0  0  0  0  0  0  0  0
  146.2591  127.6130  151.4856 H   0  0  0  0  0  0  0  0  0  0  0  0
  148.6676  130.4549  151.9757 H   0  0  0  0  0  0  0  0  0  0  0  0
  148.5479  129.7848  153.5871 H   0  0  0  0  0  0  0  0  0  0  0  0
  1  2  1  0  0  0  0
  1 21  1  0  0  0  0
  1 22  1  0  0  0  0
  1 23  1  0  0  0  0
  2 20  1  0  0  0  0
  2  3  2  0  0  0  0
  3  4  1  0  0  0  0
  3 24  1  0  0  0  0
  4  5  1  0  0  0  0
  4 19  2  0  0  0  0
  5  6  1  0  0  0  0
  5 25  1  0  0  0  0
  6  7  2  0  0  0  0
  6  8  1  0  0  0  0
  8  9  1  0  0  0  0
  8 26  1  0  0  0  0
  9 10  1  0  0  0  0
  9 27  1  0  0  0  0
  9 28  1  0  0  0  0
 10 11  1  0  0  0  0
 10 29  1  0  0  0  0
 10 30  1  0  0  0  0
 11 18  1  0  0  0  0
 11 12  1  0  0  0  0
 12 13  1  0  0  0  0
 12 31  1  0  0  0  0
 12 32  1  0  0  0  0
 13 14  1  0  0  0  0
 13 15  1  0  0  0  0
 13 33  1  0  0  0  0
 14 34  1  0  0  0  0
 14 35  1  0  0  0  0
 14 36  1  0  0  0  0
 15 16  1  0  0  0  0
 16 17  1  0  0  0  0
 16 18  1  0  0  0  0
 16 37  1  0  0  0  0
 17 38  1  0  0  0  0
 17 39  1  0  0  0  0
 17 40  1  0  0  0  0
 18 41  1  0  0  0  0
 18 42  1  0  0  0  0
 19 20  1  0  0  0  0
M  END
> <s_m_source_file>
AV-unprocessed.smi

> <i_m_source_file_index>
1381

> <i_lp_mmshare_version>
43012

> <i_f3d_flags>
0

> <s_epik_input>
W0NIM11jMVtjSF1jKG5vMSlbTkhdQyg9TylbTkhdW0NIMl1bQ0gyXU4yW0NIMl1bQ0BASF0oW0NIM10pT1tDQEBIXShbQ0gzXSlbQ0gyXTI=

> <s_epik_cmdline>
J2VwaWtfcHl0aG9uJywgJy1waCcsICc3LjAnLCAnLXRuJywgJzgnLCAnLW1hJywgJzIwMCcsICctbWV0YWxfYmluZGluZycsICctaW1hZScsICc8aW5maWxlLm1hZT4nLCAnLW9tYWUnLCAnPG91dGZpbGUubWFlPic=

> <r_epik_Ionization_Penalty>
0.214073

> <r_epik_Ionization_Penalty_Charging>
0

> <r_epik_Ionization_Penalty_Neutral>
0.214073

> <r_epik_State_Penalty>
0.204211

> <r_epik_Charging_Adjusted_Penalty>
0.204211

> <i_epik_Tot_Q>
0

> <i_epik_Tot_abs_Q>
0

> <r_epik_Metal_State_Penalty>
0.217067

> <b_epik_Metal_Only>
0

> <s_lp_Force_Field>
OPLS_2005

> <r_lp_Energy>
17.1752

> <b_lp_Chiralities_Consistent>
1

> <s_lp_Variant>
AV-unprocessed.smi:1381-1

> <Gold.Version>
5.8.1

> <Gold.Id.Protein>
6NUR|6NUR_protein|mol2

> <Gold.PLP.Fitness>
39.4142

> <Gold.PLP.PLP>
-32.3920

> <Gold.PLP.part.hbond>
-4.8532

> <Gold.PLP.part.metal>
0.0000

> <Gold.PLP.part.buried>
-4.1019

> <Gold.PLP.part.nonpolar>
-24.1969

> <Gold.PLP.part.repulsive>
0.3705

> <Gold.PLP.ligand.clash>
0.0000

> <Gold.PLP.ligand.torsion>
1.3310

> <Gold.PLP.Chemscore.Hbond>
3.2247

> <Gold.PLP.Chemscore.CHOScore>
0.0000

> <Gold.PLP.Chemscore.Metal>
0.0000

> <Gold.Chemscore.Hbonds>
donor molecule, donor type, donor heavy atom, donor atom, acceptor molecule, acceptor atom, score
      L1  H     5    25       P1  7948  0.85
      L1  H     8    26       P1  7948  1.00
      P1  H  7997  8010       L1    20  0.93
      P1  H 10752 10765       L1    19  0.39

> <Gold.PLP.Chemscore.Internal.Correction>
0.0101

> <Gold.Rescore>
     Score         DG    S(hbond)    S(metal)    S(lipo)     H(rot)  DE(clash)    DE(int)     intcor
     15.10     -17.54       2.26        0.00      72.81       1.57       0.93       1.51       ----

> <Gold.Chemscore.Fitness>
15.1011

> <Gold.Chemscore.DG>
-17.5362

> <Gold.Chemscore.ZeroCoef>
-5.4800

> <Gold.Chemscore.Hbond>
2.2622

> <Gold.Chemscore.Metal>
0.0000

> <Gold.Chemscore.Lipo>
72.8099

> <Gold.Chemscore.Internal_Hbond>
0.0000

> <Gold.Chemscore.DEClash>
0.9292

> <Gold.Chemscore.DEInternal>
1.5059

> <Gold.Chemscore.Rot>
1.5697

> <Gold.Chemscore.Internal.Correction>
   9.000000E+99

> <Gold.Chemscore.Hbonds>
donor molecule, donor type, donor heavy atom, donor atom, acceptor molecule, acceptor atom, score
      L1  H     5    25       P1  7948  0.14
      L1  H     8    26       P1  7948  0.39
      P1  H  7997  8010       L1    20  0.44
      P1  H 10752 10765       L1    19  0.15

> <Gold.Chemscore.Hbond.Weighted>
-7.5559

> <Gold.Chemscore.Metal.Weighted>
-0.0000

> <Gold.Chemscore.Lipo.Weighted>
-8.5188

> <Gold.Chemscore.Internal_Hbond.Weighted>
0.0000

> <Gold.Chemscore.DEClash.Weighted>
0.9292

> <Gold.Chemscore.DEInternal.Weighted>
1.5059

> <Gold.Chemscore.Rot.Weighted>
4.0185

> <Gold.Chemscore.Internal.Correction.Weighted>
   9.000000E+99

> <Gold.Protein.RotatedTorsions>
[ 6907 6896 6895 6894 ] final   66.20 input  -60.11 | X-H torsion
[ 7974 7965 7964 7962 ] final -138.38 input  175.53 | X-H torsion
[ 8008 7997 7996 7995 ] final   93.82 input   59.86 | X-H torsion
[ 10167 10162 10161 10158 ] final   59.13 input  -65.29 | X-H torsion
[ 10718 10713 10712 10709 ] final -143.21 input   66.30 | X-H torsion
[ 10763 10752 10751 10750 ] final  163.38 input  -60.55 | X-H torsion
[ 11005 11000 10999 10996 ] final  -94.57 input  -57.11 | X-H torsion

> <Gold.Protein.ActiveResidues>
 VAL166  LYS551  ARG553  GLY616  TRP617  ASP618  TYR619  PRO620  LYS621  CYS622 
 ASP623  PHE694  ASN695  SER759  ASP760  ASP761  ALA762  ILE779  LEU786  VAL792 
 PHE793  MET794  SER795  GLU796  ALA797  LYS798  CYS799  TRP800  GLU811  SER814 

> <Gold.Protein.RotatedAtoms>
  152.4464  134.5486  159.9859 H   0  0  0  0  0  0  0  0  0  0  0  0  # atno 6907 bound_to 6896
  151.5570  133.3403  159.2972 H   0  0  0  0  0  0  0  0  0  0  0  0  # atno 6908 bound_to 6896
  150.8381  134.7695  159.6973 H   0  0  0  0  0  0  0  0  0  0  0  0  # atno 6909 bound_to 6896
  144.8763  140.6442  143.5234 H   0  0  0  0  0  0  0  0  0  0  0  0  # atno 7974 bound_to 7965
  156.0510  140.3308  155.7351 H   0  0  0  0  0  0  0  0  0  0  0  0  # atno 8008 bound_to 7997
  155.5600  140.0618  157.2848 H   0  0  0  0  0  0  0  0  0  0  0  0  # atno 8009 bound_to 7997
  154.4436  140.1879  156.0761 H   0  0  0  0  0  0  0  0  0  0  0  0  # atno 8010 bound_to 7997
  140.1797  144.4194  150.6621 H   0  0  0  0  0  0  0  0  0  0  0  0  # atno 10167 bound_to 10162
  156.3552  130.7709  151.1868 H   0  0  0  0  0  0  0  0  0  0  0  0  # atno 10718 bound_to 10713
  154.2928  135.2760  155.2647 H   0  0  0  0  0  0  0  0  0  0  0  0  # atno 10763 bound_to 10752
  154.5118  135.5780  153.6614 H   0  0  0  0  0  0  0  0  0  0  0  0  # atno 10764 bound_to 10752
  152.9912  135.6183  154.3094 H   0  0  0  0  0  0  0  0  0  0  0  0  # atno 10765 bound_to 10752
  141.1467  133.7965  157.0316 H   0  0  0  0  0  0  0  0  0  0  0  0  # atno 11005 bound_to 11000
  145.4036  139.1593  143.4164 LP  0  0  0  0  0  0  0  0  0  0  0  0  # atno 17320 bound_to 7965
  146.2965  140.4134  142.8720 LP  0  0  0  0  0  0  0  0  0  0  0  0  # atno 17321 bound_to 7965
  140.6527  143.2229  151.6039 LP  0  0  0  0  0  0  0  0  0  0  0  0  # atno 17342 bound_to 10162
  139.5301  144.2941  152.1128 LP  0  0  0  0  0  0  0  0  0  0  0  0  # atno 17343 bound_to 10162
  157.7466  131.0416  150.4653 LP  0  0  0  0  0  0  0  0  0  0  0  0  # atno 17370 bound_to 10713
  156.4855  130.4083  149.6437 LP  0  0  0  0  0  0  0  0  0  0  0  0  # atno 17371 bound_to 10713
  140.0750  134.9680  157.1531 LP  0  0  0  0  0  0  0  0  0  0  0  0  # atno 17394 bound_to 11000
  140.3656  134.2446  155.7182 LP  0  0  0  0  0  0  0  0  0  0  0  0  # atno 17395 bound_to 11000

$$$$
