AV-unprocessed.smi:2775|AV-procd|sdf|10697|dock1
  -GOLD-   2272015133D 1   1.00000     0.00000
 Structure written by MMmdl.
 43 46  0  0  0  0  0  0  0  0  2 V2000
  152.4099  144.2178  161.4834 C   0  0  0  0  0  0  0  0  0  0  0  0
  152.2889  143.2269  160.3416 C   0  0  0  0  0  0  0  0  0  0  0  0
  153.1408  142.1783  160.3259 N   0  3  0  0  0  0  0  0  0  0  0  0
  153.1224  141.2307  159.3660 C   0  0  0  0  0  0  0  0  0  0  0  0
  152.1882  141.3120  158.3150 C   0  0  0  0  0  0  0  0  0  0  0  0
  151.2796  142.4002  158.2733 C   0  0  0  0  0  0  0  0  0  0  0  0
  150.2916  142.5621  157.2627 N   0  0  0  0  0  0  0  0  0  0  0  0
  149.8372  141.6779  156.3540 C   0  0  0  0  0  0  0  0  0  0  0  0
  150.2421  140.5245  156.2303 O   0  0  0  0  0  0  0  0  0  0  0  0
  148.8822  142.1728  155.5478 N   0  0  0  0  0  0  0  0  0  0  0  0
  148.1866  141.4768  154.4651 C   0  0  1  0  0  0  0  0  0  0  0  0
  147.8374  140.0319  154.8264 C   0  0  2  0  0  0  0  0  0  0  0  0
  148.3333  138.7052  154.3764 C   0  0  0  0  0  0  0  0  0  0  0  0
  146.9567  138.0099  154.2213 C   0  0  0  0  0  0  0  0  0  0  0  0
  145.9670  139.0573  154.3681 O   0  0  0  0  0  0  0  0  0  0  0  0
  146.6272  140.2277  153.9262 C   0  0  1  0  0  0  0  0  0  0  0  0
  146.6308  141.6624  154.4700 C   0  0  0  0  0  0  0  0  0  0  0  0
  145.9543  142.8074  153.7071 C   0  0  0  0  0  0  0  0  0  0  0  0
  145.5878  143.4356  155.0563 C   0  0  0  0  0  0  0  0  0  0  0  0
  145.8171  142.0700  155.7124 C   0  0  0  0  0  0  0  0  0  0  0  0
  151.3278  143.3629  159.3122 C   0  0  0  0  0  0  0  0  0  0  0  0
  150.2247  144.6985  159.3253 Cl  0  0  0  0  0  0  0  0  0  0  0  0
  152.6180  145.2166  161.0989 H   0  0  0  0  0  0  0  0  0  0  0  0
  153.2148  143.9437  162.1663 H   0  0  0  0  0  0  0  0  0  0  0  0
  151.4812  144.2546  162.0531 H   0  0  0  0  0  0  0  0  0  0  0  0
  153.8480  140.4372  159.4692 H   0  0  0  0  0  0  0  0  0  0  0  0
  152.1833  140.5302  157.5719 H   0  0  0  0  0  0  0  0  0  0  0  0
  149.9061  143.4925  157.1897 H   0  0  0  0  0  0  0  0  0  0  0  0
  148.6133  143.1347  155.6983 H   0  0  0  0  0  0  0  0  0  0  0  0
  148.6515  141.5717  153.4798 H   0  0  0  0  0  0  0  0  0  0  0  0
  147.5554  139.9751  155.8844 H   0  0  0  0  0  0  0  0  0  0  0  0
  148.8679  138.7697  153.4277 H   0  0  0  0  0  0  0  0  0  0  0  0
  148.9699  138.2170  155.1147 H   0  0  0  0  0  0  0  0  0  0  0  0
  146.8689  137.5383  153.2419 H   0  0  0  0  0  0  0  0  0  0  0  0
  146.7964  137.2452  154.9817 H   0  0  0  0  0  0  0  0  0  0  0  0
  146.8569  140.1847  152.8562 H   0  0  0  0  0  0  0  0  0  0  0  0
  146.6232  143.4089  153.0918 H   0  0  0  0  0  0  0  0  0  0  0  0
  145.0787  142.4777  153.1460 H   0  0  0  0  0  0  0  0  0  0  0  0
  146.3079  144.1869  155.3829 H   0  0  0  0  0  0  0  0  0  0  0  0
  144.5637  143.8043  155.1217 H   0  0  0  0  0  0  0  0  0  0  0  0
  144.8959  141.4946  155.8146 H   0  0  0  0  0  0  0  0  0  0  0  0
  146.3724  142.1045  156.6500 H   0  0  0  0  0  0  0  0  0  0  0  0
  153.8263  142.0966  161.0773 H   0  0  0  0  0  0  0  0  0  0  0  0
  1  2  1  0  0  0  0
  1 23  1  0  0  0  0
  1 24  1  0  0  0  0
  1 25  1  0  0  0  0
  2 21  1  0  0  0  0
  2  3  2  0  0  0  0
  3  4  1  0  0  0  0
  3 43  1  0  0  0  0
  4  5  2  0  0  0  0
  4 26  1  0  0  0  0
  5  6  1  0  0  0  0
  5 27  1  0  0  0  0
  6  7  1  0  0  0  0
  6 21  2  0  0  0  0
  7  8  1  0  0  0  0
  7 28  1  0  0  0  0
  8  9  2  0  0  0  0
  8 10  1  0  0  0  0
 10 11  1  0  0  0  0
 10 29  1  0  0  0  0
 11 17  1  0  0  0  0
 11 12  1  0  0  0  0
 11 30  1  0  0  0  0
 12 16  1  0  0  0  0
 12 13  1  0  0  0  0
 12 31  1  0  0  0  0
 13 14  1  0  0  0  0
 13 32  1  0  0  0  0
 13 33  1  0  0  0  0
 14 15  1  0  0  0  0
 14 34  1  0  0  0  0
 14 35  1  0  0  0  0
 15 16  1  0  0  0  0
 16 17  1  0  0  0  0
 16 36  1  0  0  0  0
 17 20  1  0  0  0  0
 17 18  1  0  0  0  0
 18 19  1  0  0  0  0
 18 37  1  0  0  0  0
 18 38  1  0  0  0  0
 19 20  1  0  0  0  0
 19 39  1  0  0  0  0
 19 40  1  0  0  0  0
 20 41  1  0  0  0  0
 20 42  1  0  0  0  0
 21 22  1  0  0  0  0
M  CHG  1   3   1
M  END
> <s_m_source_file>
AV-unprocessed.smi

> <i_m_source_file_index>
2775

> <i_lp_mmshare_version>
43012

> <i_f3d_flags>
0

> <s_epik_input>
W0NIM11jMW5bY0hdW2NIXWMoYzFDbClbTkhdQyg9TylbTkhdW0NAQEhdMltDQEhdKFtDSDJdW0NIMl1PMylbQ0BASF0zQzI0W0NIMl1bQ0gyXVtDSDJdNA==

> <s_epik_cmdline>
J2VwaWtfcHl0aG9uJywgJy1waCcsICc3LjAnLCAnLXRuJywgJzgnLCAnLW1hJywgJzIwMCcsICctbWV0YWxfYmluZGluZycsICctaW1hZScsICc8aW5maWxlLm1hZT4nLCAnLW9tYWUnLCAnPG91dGZpbGUubWFlPic=

> <r_epik_Ionization_Penalty>
2.4104

> <r_epik_Ionization_Penalty_Charging>
2.41038

> <r_epik_Ionization_Penalty_Neutral>
1.9872e-05

> <r_epik_State_Penalty>
2.56896

> <r_epik_Charging_Adjusted_Penalty>
4.97934

> <i_epik_Tot_Q>
1

> <i_epik_Tot_abs_Q>
1

> <r_epik_Metal_State_Penalty>
2.57906

> <b_epik_Metal_Only>
0

> <s_lp_Force_Field>
OPLS_2005

> <r_lp_Energy>
84.4101

> <b_lp_Chiralities_Consistent>
1

> <s_lp_Variant>
AV-unprocessed.smi:2775-10

> <Gold.Version>
5.8.1

> <Gold.Id.Protein>
6NUR|6NUR_protein|mol2

> <Gold.PLP.Fitness>
45.2277

> <Gold.PLP.PLP>
-41.0487

> <Gold.PLP.part.hbond>
-1.8620

> <Gold.PLP.part.metal>
0.0000

> <Gold.PLP.part.buried>
-7.4664

> <Gold.PLP.part.nonpolar>
-32.3808

> <Gold.PLP.part.repulsive>
0.4206

> <Gold.PLP.ligand.clash>
0.0000

> <Gold.PLP.ligand.torsion>
0.2665

> <Gold.PLP.Chemscore.Hbond>
1.4644

> <Gold.PLP.Chemscore.CHOScore>
0.0000

> <Gold.PLP.Chemscore.Metal>
0.0000

> <Gold.Chemscore.Hbonds>
donor molecule, donor type, donor heavy atom, donor atom, acceptor molecule, acceptor atom, score
      L1  H     7    28       P1  8028  0.45
      L1  H    10    29       P1  8028  1.00

> <Gold.PLP.Chemscore.Internal.Correction>
0.3190

> <Gold.Rescore>
     Score         DG    S(hbond)    S(metal)    S(lipo)     H(rot)  DE(clash)    DE(int)     intcor
     18.98     -22.75       1.75        0.00     119.66       1.00       0.99       2.78       ----

> <Gold.Chemscore.Fitness>
18.9781

> <Gold.Chemscore.DG>
-22.7546

> <Gold.Chemscore.ZeroCoef>
-5.4800

> <Gold.Chemscore.Hbond>
1.7468

> <Gold.Chemscore.Metal>
0.0000

> <Gold.Chemscore.Lipo>
119.6600

> <Gold.Chemscore.Internal_Hbond>
0.0000

> <Gold.Chemscore.DEClash>
0.9935

> <Gold.Chemscore.DEInternal>
2.7830

> <Gold.Chemscore.Rot>
1.0000

> <Gold.Chemscore.Internal.Correction>
   9.000000E+99

> <Gold.Chemscore.Hbonds>
donor molecule, donor type, donor heavy atom, donor atom, acceptor molecule, acceptor atom, score
      L1  H     7    28       P1  8028  0.44
      L1  H    10    29       P1  8028  0.96

> <Gold.Chemscore.Hbond.Weighted>
-5.8344

> <Gold.Chemscore.Metal.Weighted>
-0.0000

> <Gold.Chemscore.Lipo.Weighted>
-14.0002

> <Gold.Chemscore.Internal_Hbond.Weighted>
0.0000

> <Gold.Chemscore.DEClash.Weighted>
0.9935

> <Gold.Chemscore.DEInternal.Weighted>
2.7830

> <Gold.Chemscore.Rot.Weighted>
2.5600

> <Gold.Chemscore.Internal.Correction.Weighted>
   9.000000E+99

> <Gold.Protein.RotatedTorsions>
[ 6907 6896 6895 6894 ] final -128.20 input  -60.11 | X-H torsion
[ 7974 7965 7964 7962 ] final   85.96 input  175.53 | X-H torsion
[ 8008 7997 7996 7995 ] final -132.35 input   59.86 | X-H torsion
[ 10167 10162 10161 10158 ] final -160.17 input  -65.29 | X-H torsion
[ 10718 10713 10712 10709 ] final   52.37 input   66.30 | X-H torsion
[ 10763 10752 10751 10750 ] final  -46.78 input  -60.55 | X-H torsion
[ 11005 11000 10999 10996 ] final -164.47 input  -57.11 | X-H torsion

> <Gold.Protein.ActiveResidues>
 VAL166  LYS551  ARG553  GLY616  TRP617  ASP618  TYR619  PRO620  LYS621  CYS622 
 ASP623  PHE694  ASN695  SER759  ASP760  ASP761  ALA762  ILE779  LEU786  VAL792 
 PHE793  MET794  SER795  GLU796  ALA797  LYS798  CYS799  TRP800  GLU811  SER814 

> <Gold.Protein.RotatedAtoms>
  150.9154  133.6946  159.2844 H   0  0  0  0  0  0  0  0  0  0  0  0  # atno 6907 bound_to 6896
  151.4418  135.1020  159.9682 H   0  0  0  0  0  0  0  0  0  0  0  0  # atno 6908 bound_to 6896
  152.4952  133.8560  159.7281 H   0  0  0  0  0  0  0  0  0  0  0  0  # atno 6909 bound_to 6896
  145.5786  139.2322  143.2365 H   0  0  0  0  0  0  0  0  0  0  0  0  # atno 7974 bound_to 7965
  155.3275  140.0465  157.3041 H   0  0  0  0  0  0  0  0  0  0  0  0  # atno 8008 bound_to 7997
  154.5346  140.2268  155.8710 H   0  0  0  0  0  0  0  0  0  0  0  0  # atno 8009 bound_to 7997
  156.1822  140.3071  155.9177 H   0  0  0  0  0  0  0  0  0  0  0  0  # atno 8010 bound_to 7997
  139.6560  143.9999  152.2194 H   0  0  0  0  0  0  0  0  0  0  0  0  # atno 10167 bound_to 10162
  157.5068  130.8474  149.8385 H   0  0  0  0  0  0  0  0  0  0  0  0  # atno 10718 bound_to 10713
  154.0506  135.6631  153.4800 H   0  0  0  0  0  0  0  0  0  0  0  0  # atno 10763 bound_to 10752
  153.0465  135.5111  154.7754 H   0  0  0  0  0  0  0  0  0  0  0  0  # atno 10764 bound_to 10752
  154.6759  135.3037  154.9645 H   0  0  0  0  0  0  0  0  0  0  0  0  # atno 10765 bound_to 10752
  140.5865  134.5088  157.5186 H   0  0  0  0  0  0  0  0  0  0  0  0  # atno 11005 bound_to 11000
  146.1732  140.6613  142.9223 LP  0  0  0  0  0  0  0  0  0  0  0  0  # atno 17320 bound_to 7965
  144.7404  140.4926  143.6873 LP  0  0  0  0  0  0  0  0  0  0  0  0  # atno 17321 bound_to 7965
  139.9725  144.6484  150.7976 LP  0  0  0  0  0  0  0  0  0  0  0  0  # atno 17342 bound_to 10162
  140.7559  143.3055  151.2972 LP  0  0  0  0  0  0  0  0  0  0  0  0  # atno 17343 bound_to 10162
  156.0263  130.3778  150.1813 LP  0  0  0  0  0  0  0  0  0  0  0  0  # atno 17370 bound_to 10713
  157.0003  130.9920  151.3392 LP  0  0  0  0  0  0  0  0  0  0  0  0  # atno 17371 bound_to 10713
  139.9293  134.7994  156.0977 LP  0  0  0  0  0  0  0  0  0  0  0  0  # atno 17394 bound_to 11000
  141.0962  133.6694  156.2651 LP  0  0  0  0  0  0  0  0  0  0  0  0  # atno 17395 bound_to 11000

$$$$
