AV-unprocessed.smi:527|AV-procd|sdf|2818|dock3
  -GOLD-   2262023303D 1   1.00000     0.00000
 Structure written by MMmdl.
 42 43  0  0  0  0  0  0  0  0  1 V2000
  149.2762  141.4415  157.0260 C   0  0  0  0  0  0  0  0  0  0  0  0
  149.9464  141.4367  155.6366 C   0  0  1  0  0  0  0  0  0  0  0  0
  151.3015  140.7008  155.6637 C   0  0  0  0  0  0  0  0  0  0  0  0
  151.1338  139.1778  155.7814 C   0  0  0  0  0  0  0  0  0  0  0  0
  150.2438  138.6292  154.6578 C   0  0  0  0  0  0  0  0  0  0  0  0
  148.8758  139.3409  154.6068 C   0  0  2  0  0  0  0  0  0  0  0  0
  148.1032  138.8327  153.4746 N   0  0  0  0  0  0  0  0  0  0  0  0
  146.9065  138.2322  153.5580 C   0  0  0  0  0  0  0  0  0  0  0  0
  146.1599  138.3429  154.5330 O   0  0  0  0  0  0  0  0  0  0  0  0
  146.6495  137.5114  152.4492 N   0  0  0  0  0  0  0  0  0  0  0  0
  145.4759  136.9566  152.0827 C   0  0  0  0  0  0  0  0  0  0  0  0
  144.4286  137.0302  152.7310 O   0  0  0  0  0  0  0  0  0  0  0  0
  145.5150  136.1964  150.7502 C   0  0  0  0  0  0  0  0  0  0  0  0
  145.4144  134.7556  150.9124 N   0  0  0  0  0  0  0  0  0  0  0  0
  144.3122  133.9555  150.6391 C   0  0  0  0  0  0  0  0  0  0  0  0
  144.6803  132.6633  150.9384 C   0  0  0  0  0  0  0  0  0  0  0  0
  145.9958  132.6444  151.3960 N   0  0  0  0  0  0  0  0  0  0  0  0
  146.3647  133.9181  151.3517 C   0  0  0  0  0  0  0  0  0  0  0  0
  149.0495  140.8781  154.4993 C   0  0  1  0  0  0  0  0  0  0  0  0
  147.7078  141.6292  154.3869 C   0  0  0  0  0  0  0  0  0  0  0  0
  148.9688  140.4445  157.3395 H   0  0  0  0  0  0  0  0  0  0  0  0
  148.3933  142.0802  157.0429 H   0  0  0  0  0  0  0  0  0  0  0  0
  149.9586  141.8262  157.7842 H   0  0  0  0  0  0  0  0  0  0  0  0
  150.1611  142.4796  155.3993 H   0  0  0  0  0  0  0  0  0  0  0  0
  151.8508  140.9270  154.7488 H   0  0  0  0  0  0  0  0  0  0  0  0
  151.9176  141.0724  156.4835 H   0  0  0  0  0  0  0  0  0  0  0  0
  152.1107  138.6948  155.7463 H   0  0  0  0  0  0  0  0  0  0  0  0
  150.7030  138.9222  156.7497 H   0  0  0  0  0  0  0  0  0  0  0  0
  150.7577  138.7514  153.7031 H   0  0  0  0  0  0  0  0  0  0  0  0
  150.1049  137.5563  154.7963 H   0  0  0  0  0  0  0  0  0  0  0  0
  148.3324  139.1223  155.5276 H   0  0  0  0  0  0  0  0  0  0  0  0
  148.5114  138.9561  152.5596 H   0  0  0  0  0  0  0  0  0  0  0  0
  147.4244  137.3705  151.8183 H   0  0  0  0  0  0  0  0  0  0  0  0
  144.6954  136.5353  150.1151 H   0  0  0  0  0  0  0  0  0  0  0  0
  146.4449  136.4238  150.2274 H   0  0  0  0  0  0  0  0  0  0  0  0
  143.3838  134.3596  150.2628 H   0  0  0  0  0  0  0  0  0  0  0  0
  144.1046  131.7529  150.8594 H   0  0  0  0  0  0  0  0  0  0  0  0
  147.3505  134.2496  151.6437 H   0  0  0  0  0  0  0  0  0  0  0  0
  149.5826  141.0727  153.5670 H   0  0  0  0  0  0  0  0  0  0  0  0
  147.0452  141.3951  155.2201 H   0  0  0  0  0  0  0  0  0  0  0  0
  147.1803  141.3705  153.4688 H   0  0  0  0  0  0  0  0  0  0  0  0
  147.8618  142.7085  154.3740 H   0  0  0  0  0  0  0  0  0  0  0  0
  1  2  1  0  0  0  0
  1 21  1  0  0  0  0
  1 22  1  0  0  0  0
  1 23  1  0  0  0  0
  2 19  1  0  0  0  0
  2  3  1  0  0  0  0
  2 24  1  0  0  0  0
  3  4  1  0  0  0  0
  3 25  1  0  0  0  0
  3 26  1  0  0  0  0
  4  5  1  0  0  0  0
  4 27  1  0  0  0  0
  4 28  1  0  0  0  0
  5  6  1  0  0  0  0
  5 29  1  0  0  0  0
  5 30  1  0  0  0  0
  6  7  1  0  0  0  0
  6 19  1  0  0  0  0
  6 31  1  0  0  0  0
  7  8  1  0  0  0  0
  7 32  1  0  0  0  0
  8  9  2  0  0  0  0
  8 10  1  0  0  0  0
 10 11  1  0  0  0  0
 10 33  1  0  0  0  0
 11 12  2  0  0  0  0
 11 13  1  0  0  0  0
 13 14  1  0  0  0  0
 13 34  1  0  0  0  0
 13 35  1  0  0  0  0
 14 18  1  0  0  0  0
 14 15  1  0  0  0  0
 15 16  2  0  0  0  0
 15 36  1  0  0  0  0
 16 17  1  0  0  0  0
 16 37  1  0  0  0  0
 17 18  2  0  0  0  0
 18 38  1  0  0  0  0
 19 20  1  0  0  0  0
 19 39  1  0  0  0  0
 20 40  1  0  0  0  0
 20 41  1  0  0  0  0
 20 42  1  0  0  0  0
M  END
> <s_m_source_file>
AV-unprocessed.smi

> <i_m_source_file_index>
527

> <i_lp_mmshare_version>
43012

> <i_f3d_flags>
0

> <s_epik_input>
W0NIM11bQ0BASF0xW0NIMl1bQ0gyXVtDSDJdW0NASF0oW0NASF0xW0NIM10pW05IXUMoPU8pW05IXUMoPU8pW0NIMl1uMltjSF1bY0hdbltjSF0y

> <s_epik_cmdline>
J2VwaWtfcHl0aG9uJywgJy1waCcsICc3LjAnLCAnLXRuJywgJzgnLCAnLW1hJywgJzIwMCcsICctbWV0YWxfYmluZGluZycsICctaW1hZScsICc8aW5maWxlLm1hZT4nLCAnLW9tYWUnLCAnPG91dGZpbGUubWFlPic=

> <r_lp_tautomer_probability>
1

> <r_epik_Ionization_Penalty>
0.172132

> <r_epik_Ionization_Penalty_Charging>
0.172105

> <r_epik_Ionization_Penalty_Neutral>
2.71747e-05

> <r_epik_State_Penalty>
0.161503

> <r_epik_Charging_Adjusted_Penalty>
0.333607

> <i_epik_Tot_Q>
0

> <i_epik_Tot_abs_Q>
0

> <r_epik_Metal_State_Penalty>
0.124763

> <b_epik_Metal_Only>
0

> <s_lp_Force_Field>
OPLS_2005

> <r_lp_Energy>
17.6389

> <b_lp_Chiralities_Consistent>
1

> <s_lp_Variant>
AV-unprocessed.smi:527-4

> <Gold.Version>
5.8.1

> <Gold.Id.Protein>
6NUR|6NUR_protein|mol2

> <Gold.PLP.Fitness>
47.2901

> <Gold.PLP.PLP>
-36.8267

> <Gold.PLP.part.hbond>
-2.7980

> <Gold.PLP.part.metal>
0.0000

> <Gold.PLP.part.buried>
-3.5560

> <Gold.PLP.part.nonpolar>
-31.9764

> <Gold.PLP.part.repulsive>
0.5142

> <Gold.PLP.ligand.clash>
0.0000

> <Gold.PLP.ligand.torsion>
0.4094

> <Gold.PLP.Chemscore.Hbond>
1.7600

> <Gold.PLP.Chemscore.CHOScore>
1.9918

> <Gold.PLP.Chemscore.Metal>
0.0000

> <Gold.Chemscore.Hbonds>
donor molecule, donor type, donor heavy atom, donor atom, acceptor molecule, acceptor atom, score
      L1  H     7    32       P1  7957  0.91
      L1  H    10    33       P1  7948  0.69
      L1  C    15    36       P1 10186  1.00
      L1  C    18    38       P1  7948  1.00

> <Gold.PLP.Chemscore.Internal.Correction>
0.0269

> <Gold.Rescore>
     Score         DG    S(hbond)    S(metal)    S(lipo)     H(rot)  DE(clash)    DE(int)     intcor
     14.46     -16.04       1.77        0.00      76.03       1.66       0.07       1.51       ----

> <Gold.Chemscore.Fitness>
14.4588

> <Gold.Chemscore.DG>
-16.0421

> <Gold.Chemscore.ZeroCoef>
-5.4800

> <Gold.Chemscore.Hbond>
1.7735

> <Gold.Chemscore.Metal>
0.0000

> <Gold.Chemscore.Lipo>
76.0312

> <Gold.Chemscore.Internal_Hbond>
0.0000

> <Gold.Chemscore.DEClash>
0.0699

> <Gold.Chemscore.DEInternal>
1.5133

> <Gold.Chemscore.Rot>
1.6629

> <Gold.Chemscore.Internal.Correction>
   9.000000E+99

> <Gold.Chemscore.Hbonds>
donor molecule, donor type, donor heavy atom, donor atom, acceptor molecule, acceptor atom, score
      L1  H     7    32       P1  7957  0.84
      L1  H    10    33       P1  7948  0.70

> <Gold.Chemscore.Hbond.Weighted>
-5.9233

> <Gold.Chemscore.Metal.Weighted>
-0.0000

> <Gold.Chemscore.Lipo.Weighted>
-8.8957

> <Gold.Chemscore.Internal_Hbond.Weighted>
0.0000

> <Gold.Chemscore.DEClash.Weighted>
0.0699

> <Gold.Chemscore.DEInternal.Weighted>
1.5133

> <Gold.Chemscore.Rot.Weighted>
4.2569

> <Gold.Chemscore.Internal.Correction.Weighted>
   9.000000E+99

> <Gold.Protein.RotatedTorsions>
[ 6907 6896 6895 6894 ] final -151.67 input  -60.11 | X-H torsion
[ 7974 7965 7964 7962 ] final -154.34 input  175.53 | X-H torsion
[ 8008 7997 7996 7995 ] final -122.27 input   59.86 | X-H torsion
[ 10167 10162 10161 10158 ] final   63.07 input  -65.29 | X-H torsion
[ 10718 10713 10712 10709 ] final   24.53 input   66.30 | X-H torsion
[ 10763 10752 10751 10750 ] final -147.70 input  -60.55 | X-H torsion
[ 11005 11000 10999 10996 ] final   62.20 input  -57.11 | X-H torsion

> <Gold.Protein.ActiveResidues>
 VAL166  LYS551  ARG553  GLY616  TRP617  ASP618  TYR619  PRO620  LYS621  CYS622 
 ASP623  PHE694  ASN695  SER759  ASP760  ASP761  ALA762  ILE779  LEU786  VAL792 
 PHE793  MET794  SER795  GLU796  ALA797  LYS798  CYS799  TRP800  GLU811  SER814 

> <Gold.Protein.RotatedAtoms>
  151.2165  133.4526  159.2599 H   0  0  0  0  0  0  0  0  0  0  0  0  # atno 6907 bound_to 6896
  151.0926  134.9925  159.8420 H   0  0  0  0  0  0  0  0  0  0  0  0  # atno 6908 bound_to 6896
  152.5436  134.2097  159.8798 H   0  0  0  0  0  0  0  0  0  0  0  0  # atno 6909 bound_to 6896
  144.7694  140.4402  143.5918 H   0  0  0  0  0  0  0  0  0  0  0  0  # atno 7974 bound_to 7965
  155.1616  140.0406  157.2843 H   0  0  0  0  0  0  0  0  0  0  0  0  # atno 8008 bound_to 7997
  154.6332  140.2529  155.7382 H   0  0  0  0  0  0  0  0  0  0  0  0  # atno 8009 bound_to 7997
  156.2495  140.2871  156.0693 H   0  0  0  0  0  0  0  0  0  0  0  0  # atno 8010 bound_to 7997
  140.1370  144.4589  150.6832 H   0  0  0  0  0  0  0  0  0  0  0  0  # atno 10167 bound_to 10162
  157.1810  130.6803  149.6113 H   0  0  0  0  0  0  0  0  0  0  0  0  # atno 10718 bound_to 10713
  154.8272  135.3353  154.6859 H   0  0  0  0  0  0  0  0  0  0  0  0  # atno 10763 bound_to 10752
  153.7484  135.6941  153.4955 H   0  0  0  0  0  0  0  0  0  0  0  0  # atno 10764 bound_to 10752
  153.2194  135.4454  155.0422 H   0  0  0  0  0  0  0  0  0  0  0  0  # atno 10765 bound_to 10752
  140.0108  134.6299  155.9784 H   0  0  0  0  0  0  0  0  0  0  0  0  # atno 11005 bound_to 11000
  145.6369  139.1544  143.2937 LP  0  0  0  0  0  0  0  0  0  0  0  0  # atno 17320 bound_to 7965
  146.1829  140.6468  142.9181 LP  0  0  0  0  0  0  0  0  0  0  0  0  # atno 17321 bound_to 7965
  140.6783  143.2315  151.5450 LP  0  0  0  0  0  0  0  0  0  0  0  0  # atno 17342 bound_to 10162
  139.5491  144.2443  152.1497 LP  0  0  0  0  0  0  0  0  0  0  0  0  # atno 17343 bound_to 10162
  155.9724  130.4646  150.6226 LP  0  0  0  0  0  0  0  0  0  0  0  0  # atno 17370 bound_to 10713
  157.3952  131.0802  151.1358 LP  0  0  0  0  0  0  0  0  0  0  0  0  # atno 17371 bound_to 10713
  141.1709  133.6537  156.4650 LP  0  0  0  0  0  0  0  0  0  0  0  0  # atno 17394 bound_to 11000
  140.4558  134.6887  157.5062 LP  0  0  0  0  0  0  0  0  0  0  0  0  # atno 17395 bound_to 11000

$$$$
