#       Name:                AV-unprocessed.smi:1870
#       Creating user name   scv26
#       Creation time:       Fri Mar 27 09:30:41 2020


#       File generated by GOLD software.
#

@<TRIPOS>MOLECULE
AV-unprocessed.smi:1870
    54    56     1
SMALL
NO_CHARGES


@<TRIPOS>ATOM
      1 ****        -4.2166   1.0968   1.8629 C.3            1 S1                 0.0000
      2 ****        -3.8343  -0.2075   1.2166 C.2            1 S1                 0.0000
      3 ****        -2.5745  -0.4965   1.1956 N.2            1 S1                 0.0000
      4 ****        -2.1146  -1.6710   0.6322 N.am           1 S1                 0.0000
      5 ****        -0.6557  -1.8281   0.6828 C.3            1 S1                 0.0000
      6 ****         0.0308  -1.2189  -0.5598 C.3            1 S1                 0.0000
      7 ****         0.0798  -2.2021  -1.5758 O.3            1 S1                 0.0000
      8 ****         1.4871  -0.8080  -0.2587 C.3            1 S1                 0.0000
      9 ****         2.1773  -0.1956  -1.4281 N.4            1 S1                 1.0000
     10 ****         1.6662   1.1349  -1.8479 C.3            1 S1                 0.0000
     11 ****         1.9344   2.2110  -0.7817 C.3            1 S1                 0.0000
     12 ****         3.3523   2.1531  -0.2366 C.ar           1 S1                 0.0000
     13 ****         3.8531   3.2336   0.5185 C.ar           1 S1                 0.0000
     14 ****         5.1493   3.1757   1.0649 C.ar           1 S1                 0.0000
     15 ****         5.9481   2.0345   0.8625 C.ar           1 S1                 0.0000
     16 ****         5.4526   0.9522   0.1105 C.ar           1 S1                 0.0000
     17 ****         4.1563   1.0045  -0.4429 C.ar           1 S1                 0.0000
     18 ****         3.6551  -0.1651  -1.2836 C.3            1 S1                 0.0000
     19 ****        -2.9078  -2.6163   0.0525 C.2            1 S1                 0.0000
     20 ****        -2.4529  -3.6443  -0.4508 O.2            1 S1                 0.0000
     21 ****        -4.3337  -2.2835   0.0800 C.2            1 S1                 0.0000
     22 ****        -5.2013  -3.2511  -0.5104 C.1            1 S1                 0.0000
     23 ****        -5.9194  -4.0233  -0.9876 N.1            1 S1                 0.0000
     24 ****        -4.7976  -1.1325   0.6279 C.2            1 S1                 0.0000
     25 ****        -6.2684  -0.7416   0.6775 C.3            1 S1                 0.0000
     26 ****        -4.5595   1.8113   1.1146 H              1 S1                 0.0000
     27 ****        -3.3770   1.5489   2.3927 H              1 S1                 0.0000
     28 ****        -5.0188   0.9535   2.5867 H              1 S1                 0.0000
     29 ****        -0.2987  -1.3149   1.5780 H              1 S1                 0.0000
     30 ****        -0.3615  -2.8695   0.8289 H              1 S1                 0.0000
     31 ****        -0.5432  -0.3606  -0.9076 H              1 S1                 0.0000
     32 ****        -0.7968  -2.5242  -1.7270 H              1 S1                 0.0000
     33 ****         1.5231  -0.1283   0.5926 H              1 S1                 0.0000
     34 ****         2.0354  -1.6989   0.0522 H              1 S1                 0.0000
     35 ****         2.1773   1.4112  -2.7713 H              1 S1                 0.0000
     36 ****         0.6072   1.0969  -2.0998 H              1 S1                 0.0000
     37 ****         1.7496   3.1992  -1.2043 H              1 S1                 0.0000
     38 ****         1.2407   2.1005   0.0521 H              1 S1                 0.0000
     39 ****         3.2416   4.1085   0.6862 H              1 S1                 0.0000
     40 ****         5.5296   4.0054   1.6425 H              1 S1                 0.0000
     41 ****         6.9425   1.9904   1.2820 H              1 S1                 0.0000
     42 ****         6.0751   0.0833  -0.0466 H              1 S1                 0.0000
     43 ****         4.0214  -1.1087  -0.8767 H              1 S1                 0.0000
     44 ****         4.0952  -0.0711  -2.2771 H              1 S1                 0.0000
     45 ****        -6.8900  -1.4042   0.0761 H              1 S1                 0.0000
     46 ****        -6.4156   0.2698   0.2978 H              1 S1                 0.0000
     47 ****        -6.6362  -0.7815   1.7031 H              1 S1                 0.0000
     48 ****         1.9935  -0.8272  -2.1950 H              1 S1                 0.0000
     49 ****        -1.9189   0.1438   1.5957 LP             1 S1                 0.0000
     50 ****         0.6704  -2.9557  -1.2871 LP             1 S1                 0.0000
     51 ****         0.4405  -1.7994  -2.4171 LP             1 S1                 0.0000
     52 ****        -1.4668  -3.8103  -0.4440 LP             1 S1                 0.0000
     53 ****        -3.0697  -4.3129  -0.8662 LP             1 S1                 0.0000
     54 ****        -6.5398  -4.6905  -1.3999 LP             1 S1                 0.0000
@<TRIPOS>BOND
    1    1    2 1     
    2    1   26 1     
    3    1   27 1     
    4    1   28 1     
    5    2   24 1     
    6    2    3 2     
    7    3    4 1     
    8    4    5 1     
    9    4   19 am    
   10    5    6 1     
   11    5   29 1     
   12    5   30 1     
   13    6    7 1     
   14    6    8 1     
   15    6   31 1     
   16    7   32 1     
   17    8    9 1     
   18    8   33 1     
   19    8   34 1     
   20    9   18 1     
   21    9   10 1     
   22    9   48 1     
   23   10   11 1     
   24   10   35 1     
   25   10   36 1     
   26   11   12 1     
   27   11   37 1     
   28   11   38 1     
   29   12   17 ar    
   30   12   13 ar    
   31   13   14 ar    
   32   13   39 1     
   33   14   15 ar    
   34   14   40 1     
   35   15   16 ar    
   36   15   41 1     
   37   16   17 ar    
   38   16   42 1     
   39   17   18 1     
   40   18   43 1     
   41   18   44 1     
   42   19   20 2     
   43   19   21 1     
   44   21   22 1     
   45   21   24 2     
   46   22   23 3     
   47   24   25 1     
   48   25   45 1     
   49   25   46 1     
   50   25   47 1     
   51    3   49 1     
   52    7   50 1     
   53    7   51 1     
   54   20   52 1     
   55   20   53 1     
   56   23   54 1     
@<TRIPOS>SUBSTRUCTURE
      1 S1             1
@<TRIPOS>SET
LONE_PAIRS      STATIC     ATOMS    <user>   **** ""
6 49 50 51 52 53 54
DONOR_HYDROGENS      STATIC     ATOMS    <user>   **** ""
2 32 48
ATOM$BLUE        STATIC     ATOMS    COLORGROUP SYSTEM
6 49 50 51 52 53 54
ATOM$RED        STATIC     ATOMS    COLORGROUP SYSTEM
2 32 48
