AV-unprocessed.smi:1362|AV-procd|sdf|5559|dock6
  -GOLD-   22720 5153D 1   1.00000     0.00000
 Structure written by MMmdl.
 39 39  0  0  0  0  0  0  0  0  1 V2000
  146.3727  137.9453  152.2430 C   0  0  0  0  0  0  0  0  0  0  0  0
  147.0602  139.0940  152.9505 C   0  0  0  0  0  0  0  0  0  0  0  0
  146.4793  140.2103  153.2447 N   0  0  0  0  0  0  0  0  0  0  0  0
  147.2209  141.2038  153.8988 C   0  0  0  0  0  0  0  0  0  0  0  0
  146.4699  142.4889  154.2033 C   0  0  0  0  0  0  0  0  0  0  0  0
  148.5318  141.0165  154.2315 C   0  0  0  0  0  0  0  0  0  0  0  0
  149.3658  142.0826  154.9401 C   0  0  0  0  0  0  0  0  0  0  0  0
  149.9417  141.6731  156.2974 C   0  0  0  0  0  0  0  0  0  0  0  0
  150.1508  140.4860  156.5480 O   0  0  0  0  0  0  0  0  0  0  0  0
  150.2056  142.6687  157.1578 N   0  0  0  0  0  0  0  0  0  0  0  0
  150.7858  142.5115  158.4907 C   0  0  1  0  0  0  0  0  0  0  0  0
  151.9309  141.4837  158.4121 C   0  0  0  0  0  0  0  0  0  0  0  0
  151.2347  143.8897  159.0454 C   0  0  0  0  0  0  0  0  0  0  0  0
  152.2167  144.6103  158.1037 C   0  0  0  0  0  0  0  0  0  0  0  0
  151.8594  143.7777  160.4501 C   0  0  0  0  0  0  0  0  0  0  0  0
  149.1847  139.7370  153.8921 C   0  0  0  0  0  0  0  0  0  0  0  0
  150.3579  139.4640  154.1407 O   0  0  0  0  0  0  0  0  0  0  0  0
  148.3949  138.8394  153.2612 N   0  0  0  0  0  0  0  0  0  0  0  0
  148.7963  137.9491  153.0061 H   0  0  0  0  0  0  0  0  0  0  0  0
  146.0068  138.2700  151.2686 H   0  0  0  0  0  0  0  0  0  0  0  0
  145.5221  137.5982  152.8301 H   0  0  0  0  0  0  0  0  0  0  0  0
  147.0492  137.1030  152.0901 H   0  0  0  0  0  0  0  0  0  0  0  0
  146.4271  142.6635  155.2785 H   0  0  0  0  0  0  0  0  0  0  0  0
  145.4455  142.4464  153.8315 H   0  0  0  0  0  0  0  0  0  0  0  0
  146.9586  143.3413  153.7313 H   0  0  0  0  0  0  0  0  0  0  0  0
  150.1825  142.3742  154.2786 H   0  0  0  0  0  0  0  0  0  0  0  0
  148.7862  142.9954  155.0807 H   0  0  0  0  0  0  0  0  0  0  0  0
  149.9993  143.6123  156.8631 H   0  0  0  0  0  0  0  0  0  0  0  0
  150.0209  142.1164  159.1620 H   0  0  0  0  0  0  0  0  0  0  0  0
  152.3156  141.2302  159.3994 H   0  0  0  0  0  0  0  0  0  0  0  0
  152.7612  141.8597  157.8133 H   0  0  0  0  0  0  0  0  0  0  0  0
  151.5932  140.5509  157.9590 H   0  0  0  0  0  0  0  0  0  0  0  0
  150.3500  144.5216  159.1364 H   0  0  0  0  0  0  0  0  0  0  0  0
  153.1004  144.0011  157.9107 H   0  0  0  0  0  0  0  0  0  0  0  0
  152.5534  145.5534  158.5352 H   0  0  0  0  0  0  0  0  0  0  0  0
  151.7580  144.8507  157.1451 H   0  0  0  0  0  0  0  0  0  0  0  0
  152.7312  143.1227  160.4433 H   0  0  0  0  0  0  0  0  0  0  0  0
  151.1533  143.3841  161.1813 H   0  0  0  0  0  0  0  0  0  0  0  0
  152.1817  144.7533  160.8154 H   0  0  0  0  0  0  0  0  0  0  0  0
  1  2  1  0  0  0  0
  1 20  1  0  0  0  0
  1 21  1  0  0  0  0
  1 22  1  0  0  0  0
  2 18  1  0  0  0  0
  2  3  2  0  0  0  0
  3  4  1  0  0  0  0
  4  5  1  0  0  0  0
  4  6  2  0  0  0  0
  5 23  1  0  0  0  0
  5 24  1  0  0  0  0
  5 25  1  0  0  0  0
  6  7  1  0  0  0  0
  6 16  1  0  0  0  0
  7  8  1  0  0  0  0
  7 26  1  0  0  0  0
  7 27  1  0  0  0  0
  8  9  2  0  0  0  0
  8 10  1  0  0  0  0
 10 11  1  0  0  0  0
 10 28  1  0  0  0  0
 11 12  1  0  0  0  0
 11 13  1  0  0  0  0
 11 29  1  0  0  0  0
 12 30  1  0  0  0  0
 12 31  1  0  0  0  0
 12 32  1  0  0  0  0
 13 14  1  0  0  0  0
 13 15  1  0  0  0  0
 13 33  1  0  0  0  0
 14 34  1  0  0  0  0
 14 35  1  0  0  0  0
 14 36  1  0  0  0  0
 15 37  1  0  0  0  0
 15 38  1  0  0  0  0
 15 39  1  0  0  0  0
 16 17  2  0  0  0  0
 16 18  1  0  0  0  0
 18 19  1  0  0  0  0
M  END
> <s_m_source_file>
AV-unprocessed.smi

> <i_m_source_file_index>
1362

> <i_lp_mmshare_version>
43012

> <i_f3d_flags>
0

> <s_epik_input>
W0NIM11jMW5jKFtDSDNdKWMoYyg9TylbbkhdMSlbQ0gyXUMoPU8pW05IXVtDQEhdKFtDSDNdKVtDSF0oW0NIM10pW0NIM10=

> <s_epik_cmdline>
J2VwaWtfcHl0aG9uJywgJy1waCcsICc3LjAnLCAnLXRuJywgJzgnLCAnLW1hJywgJzIwMCcsICctbWV0YWxfYmluZGluZycsICctaW1hZScsICc8aW5maWxlLm1hZT4nLCAnLW9tYWUnLCAnPG91dGZpbGUubWFlPic=

> <r_lp_tautomer_probability>
0.839158

> <r_epik_Ionization_Penalty>
0.000388977

> <r_epik_Ionization_Penalty_Charging>
0.000356458

> <r_epik_Ionization_Penalty_Neutral>
3.25191e-05

> <r_epik_State_Penalty>
0.0469868

> <r_epik_Charging_Adjusted_Penalty>
0.0473433

> <i_epik_Tot_Q>
0

> <i_epik_Tot_abs_Q>
0

> <r_epik_Metal_State_Penalty>
0.223288

> <b_epik_Metal_Only>
0

> <s_lp_Force_Field>
OPLS_2005

> <r_lp_Energy>
7.84192

> <b_lp_Chiralities_Consistent>
1

> <s_lp_Variant>
AV-unprocessed.smi:1362-2

> <Gold.Version>
5.8.1

> <Gold.Id.Protein>
6NUR|6NUR_protein|mol2

> <Gold.PLP.Fitness>
44.3507

> <Gold.PLP.PLP>
-36.9757

> <Gold.PLP.part.hbond>
-4.0000

> <Gold.PLP.part.metal>
0.0000

> <Gold.PLP.part.buried>
3.1448

> <Gold.PLP.part.nonpolar>
-36.5367

> <Gold.PLP.part.repulsive>
1.7252

> <Gold.PLP.ligand.clash>
0.0000

> <Gold.PLP.ligand.torsion>
0.5612

> <Gold.PLP.Chemscore.Hbond>
2.8230

> <Gold.PLP.Chemscore.CHOScore>
0.0000

> <Gold.PLP.Chemscore.Metal>
0.0000

> <Gold.Chemscore.Hbonds>
donor molecule, donor type, donor heavy atom, donor atom, acceptor molecule, acceptor atom, score
      L1  H    10    28       P1  8028  0.91
      L1  H    18    19       P1  7948  0.96
      P1  H  7989  7998       L1    17  1.00

> <Gold.PLP.Chemscore.Internal.Correction>
0.0285

> <Gold.Rescore>
     Score         DG    S(hbond)    S(metal)    S(lipo)     H(rot)  DE(clash)    DE(int)     intcor
     12.99     -20.24       2.56        0.00      90.13       1.69       2.69       4.56       ----

> <Gold.Chemscore.Fitness>
12.9851

> <Gold.Chemscore.DG>
-20.2367

> <Gold.Chemscore.ZeroCoef>
-5.4800

> <Gold.Chemscore.Hbond>
2.5573

> <Gold.Chemscore.Metal>
0.0000

> <Gold.Chemscore.Lipo>
90.1343

> <Gold.Chemscore.Internal_Hbond>
0.0000

> <Gold.Chemscore.DEClash>
2.6935

> <Gold.Chemscore.DEInternal>
4.5580

> <Gold.Chemscore.Rot>
1.6916

> <Gold.Chemscore.Internal.Correction>
   9.000000E+99

> <Gold.Chemscore.Hbonds>
donor molecule, donor type, donor heavy atom, donor atom, acceptor molecule, acceptor atom, score
      L1  H    10    28       P1  8028  0.88
      L1  H    18    19       P1  7948  0.89
      P1  H  7989  7998       L1    17  0.79

> <Gold.Chemscore.Hbond.Weighted>
-8.5415

> <Gold.Chemscore.Metal.Weighted>
-0.0000

> <Gold.Chemscore.Lipo.Weighted>
-10.5457

> <Gold.Chemscore.Internal_Hbond.Weighted>
0.0000

> <Gold.Chemscore.DEClash.Weighted>
2.6935

> <Gold.Chemscore.DEInternal.Weighted>
4.5580

> <Gold.Chemscore.Rot.Weighted>
4.3305

> <Gold.Chemscore.Internal.Correction.Weighted>
   9.000000E+99

> <Gold.Protein.RotatedTorsions>
[ 6907 6896 6895 6894 ] final -110.83 input  -60.11 | X-H torsion
[ 7974 7965 7964 7962 ] final   37.79 input  175.53 | X-H torsion
[ 8008 7997 7996 7995 ] final  -79.54 input   59.86 | X-H torsion
[ 10167 10162 10161 10158 ] final -175.81 input  -65.29 | X-H torsion
[ 10718 10713 10712 10709 ] final    9.76 input   66.30 | X-H torsion
[ 10763 10752 10751 10750 ] final  157.06 input  -60.55 | X-H torsion
[ 11005 11000 10999 10996 ] final   27.84 input  -57.11 | X-H torsion

> <Gold.Protein.ActiveResidues>
 VAL166  LYS551  ARG553  GLY616  TRP617  ASP618  TYR619  PRO620  LYS621  CYS622 
 ASP623  PHE694  ASN695  SER759  ASP760  ASP761  ALA762  ILE779  LEU786  VAL792 
 PHE793  MET794  SER795  GLU796  ALA797  LYS798  CYS799  TRP800  GLU811  SER814 

> <Gold.Protein.RotatedAtoms>
  150.7650  133.9325  159.3430 H   0  0  0  0  0  0  0  0  0  0  0  0  # atno 6907 bound_to 6896
  151.7225  135.0889  160.0296 H   0  0  0  0  0  0  0  0  0  0  0  0  # atno 6908 bound_to 6896
  152.3641  133.6296  159.6073 H   0  0  0  0  0  0  0  0  0  0  0  0  # atno 6909 bound_to 6896
  146.1111  139.5851  142.9351 H   0  0  0  0  0  0  0  0  0  0  0  0  # atno 7974 bound_to 7965
  154.5795  140.0677  156.9083 H   0  0  0  0  0  0  0  0  0  0  0  0  # atno 8008 bound_to 7997
  155.2489  140.3350  155.4266 H   0  0  0  0  0  0  0  0  0  0  0  0  # atno 8009 bound_to 7997
  156.2178  140.1786  156.7532 H   0  0  0  0  0  0  0  0  0  0  0  0  # atno 8010 bound_to 7997
  139.5562  144.1984  152.1162 H   0  0  0  0  0  0  0  0  0  0  0  0  # atno 10167 bound_to 10162
  156.9711  130.5969  149.5669 H   0  0  0  0  0  0  0  0  0  0  0  0  # atno 10718 bound_to 10713
  154.1943  135.2793  155.3012 H   0  0  0  0  0  0  0  0  0  0  0  0  # atno 10763 bound_to 10752
  154.5905  135.5561  153.7276 H   0  0  0  0  0  0  0  0  0  0  0  0  # atno 10764 bound_to 10752
  153.0104  135.6367  154.2081 H   0  0  0  0  0  0  0  0  0  0  0  0  # atno 10765 bound_to 10752
  140.3220  134.2533  155.7715 H   0  0  0  0  0  0  0  0  0  0  0  0  # atno 11005 bound_to 11000
  145.5662  141.0399  143.2199 LP  0  0  0  0  0  0  0  0  0  0  0  0  # atno 17320 bound_to 7965
  144.7512  139.7189  143.7272 LP  0  0  0  0  0  0  0  0  0  0  0  0  # atno 17321 bound_to 7965
  140.1489  144.5133  150.6699 LP  0  0  0  0  0  0  0  0  0  0  0  0  # atno 17342 bound_to 10162
  140.6835  143.2338  151.5323 LP  0  0  0  0  0  0  0  0  0  0  0  0  # atno 17343 bound_to 10162
  156.0282  130.5375  150.8465 LP  0  0  0  0  0  0  0  0  0  0  0  0  # atno 17370 bound_to 10713
  157.5592  131.0945  150.9584 LP  0  0  0  0  0  0  0  0  0  0  0  0  # atno 17371 bound_to 10713
  141.2084  133.7778  157.0060 LP  0  0  0  0  0  0  0  0  0  0  0  0  # atno 17394 bound_to 11000
  140.0934  134.9579  157.1811 LP  0  0  0  0  0  0  0  0  0  0  0  0  # atno 17395 bound_to 11000

$$$$
