AV-unprocessed.smi:2819|AV-procd|sdf|10851|dock9
  -GOLD-   2272015293D 1   1.00000     0.00000
 Structure written by MMmdl.
 51 52  0  0  0  0  0  0  0  0  3 V2000
  152.7955  142.7240  162.1808 C   0  0  0  0  0  0  0  0  0  0  0  0
  152.8128  142.2532  160.7994 N   0  0  0  0  0  0  0  0  0  0  0  0
  153.5050  141.0168  160.4577 C   0  0  0  0  0  0  0  0  0  0  0  0
  152.2058  143.0262  159.7849 C   0  0  0  0  0  0  0  0  0  0  0  0
  152.1859  144.4366  159.8238 C   0  0  0  0  0  0  0  0  0  0  0  0
  151.5539  145.1021  158.7589 C   0  0  0  0  0  0  0  0  0  0  0  0
  150.9905  144.3999  157.7468 N   0  3  0  0  0  0  0  0  0  0  0  0
  151.0362  143.0586  157.7556 C   0  0  0  0  0  0  0  0  0  0  0  0
  150.4362  142.4130  156.6956 N   0  0  0  0  0  0  0  0  0  0  0  0
  150.6387  141.1766  156.2000 C   0  0  0  0  0  0  0  0  0  0  0  0
  151.4665  140.3674  156.6201 O   0  0  0  0  0  0  0  0  0  0  0  0
  149.8153  140.9201  155.1716 N   0  0  0  0  0  0  0  0  0  0  0  0
  149.7936  139.6843  154.3881 C   0  0  0  0  0  0  0  0  0  0  0  0
  148.5981  138.7441  154.7324 C   0  0  0  0  0  0  0  0  0  0  0  0
  148.0661  139.0413  156.1570 C   0  0  0  0  0  0  0  0  0  0  0  0
  147.4189  139.0257  153.7677 C   0  0  0  0  0  0  0  0  0  0  0  0
  148.9971  137.2927  154.6383 N   0  3  0  0  0  0  0  0  0  0  0  0
  150.2612  136.9203  155.3355 C   0  0  0  0  0  0  0  0  0  0  0  0
  150.6517  135.4681  155.0134 C   0  0  0  0  0  0  0  0  0  0  0  0
  149.5962  134.5952  155.3885 O   0  0  0  0  0  0  0  0  0  0  0  0
  148.4059  134.8721  154.6653 C   0  0  0  0  0  0  0  0  0  0  0  0
  147.9334  136.3029  154.9735 C   0  0  0  0  0  0  0  0  0  0  0  0
  151.6286  142.3766  158.7486 N   0  0  0  0  0  0  0  0  0  0  0  0
  153.3307  143.6697  162.2701 H   0  0  0  0  0  0  0  0  0  0  0  0
  153.2688  142.0067  162.8514 H   0  0  0  0  0  0  0  0  0  0  0  0
  151.7707  142.8723  162.5231 H   0  0  0  0  0  0  0  0  0  0  0  0
  154.2990  141.2090  159.7356 H   0  0  0  0  0  0  0  0  0  0  0  0
  152.8104  140.2935  160.0298 H   0  0  0  0  0  0  0  0  0  0  0  0
  153.9600  140.5607  161.3370 H   0  0  0  0  0  0  0  0  0  0  0  0
  152.6325  145.0047  160.6262 H   0  0  0  0  0  0  0  0  0  0  0  0
  151.4802  146.1772  158.6840 H   0  0  0  0  0  0  0  0  0  0  0  0
  149.7296  142.9547  156.2209 H   0  0  0  0  0  0  0  0  0  0  0  0
  149.1631  141.6393  154.8936 H   0  0  0  0  0  0  0  0  0  0  0  0
  149.7453  139.9914  153.3440 H   0  0  0  0  0  0  0  0  0  0  0  0
  150.7453  139.1643  154.4987 H   0  0  0  0  0  0  0  0  0  0  0  0
  147.5719  140.0117  156.2117 H   0  0  0  0  0  0  0  0  0  0  0  0
  148.8625  139.0655  156.9006 H   0  0  0  0  0  0  0  0  0  0  0  0
  147.3344  138.2962  156.4716 H   0  0  0  0  0  0  0  0  0  0  0  0
  146.9737  140.0045  153.9491 H   0  0  0  0  0  0  0  0  0  0  0  0
  146.6242  138.2878  153.8849 H   0  0  0  0  0  0  0  0  0  0  0  0
  147.7274  139.0238  152.7225 H   0  0  0  0  0  0  0  0  0  0  0  0
  151.0886  137.5601  155.0354 H   0  0  0  0  0  0  0  0  0  0  0  0
  150.1446  137.0278  156.4139 H   0  0  0  0  0  0  0  0  0  0  0  0
  150.8813  135.3504  153.9531 H   0  0  0  0  0  0  0  0  0  0  0  0
  151.5499  135.1906  155.5656 H   0  0  0  0  0  0  0  0  0  0  0  0
  148.5737  134.7380  153.5953 H   0  0  0  0  0  0  0  0  0  0  0  0
  147.6409  134.1531  154.9592 H   0  0  0  0  0  0  0  0  0  0  0  0
  147.6694  136.3734  156.0287 H   0  0  0  0  0  0  0  0  0  0  0  0
  147.0248  136.4799  154.4014 H   0  0  0  0  0  0  0  0  0  0  0  0
  150.5363  144.9044  156.9850 H   0  0  0  0  0  0  0  0  0  0  0  0
  149.1874  137.1474  153.6568 H   0  0  0  0  0  0  0  0  0  0  0  0
  1  2  1  0  0  0  0
  1 24  1  0  0  0  0
  1 25  1  0  0  0  0
  1 26  1  0  0  0  0
  2  3  1  0  0  0  0
  2  4  1  0  0  0  0
  3 27  1  0  0  0  0
  3 28  1  0  0  0  0
  3 29  1  0  0  0  0
  4 23  1  0  0  0  0
  4  5  2  0  0  0  0
  5  6  1  0  0  0  0
  5 30  1  0  0  0  0
  6  7  2  0  0  0  0
  6 31  1  0  0  0  0
  7  8  1  0  0  0  0
  7 50  1  0  0  0  0
  8  9  1  0  0  0  0
  8 23  2  0  0  0  0
  9 10  1  0  0  0  0
  9 32  1  0  0  0  0
 10 11  2  0  0  0  0
 10 12  1  0  0  0  0
 12 13  1  0  0  0  0
 12 33  1  0  0  0  0
 13 14  1  0  0  0  0
 13 34  1  0  0  0  0
 13 35  1  0  0  0  0
 14 15  1  0  0  0  0
 14 16  1  0  0  0  0
 14 17  1  0  0  0  0
 15 36  1  0  0  0  0
 15 37  1  0  0  0  0
 15 38  1  0  0  0  0
 16 39  1  0  0  0  0
 16 40  1  0  0  0  0
 16 41  1  0  0  0  0
 17 22  1  0  0  0  0
 17 18  1  0  0  0  0
 17 51  1  0  0  0  0
 18 19  1  0  0  0  0
 18 42  1  0  0  0  0
 18 43  1  0  0  0  0
 19 20  1  0  0  0  0
 19 44  1  0  0  0  0
 19 45  1  0  0  0  0
 20 21  1  0  0  0  0
 21 22  1  0  0  0  0
 21 46  1  0  0  0  0
 21 47  1  0  0  0  0
 22 48  1  0  0  0  0
 22 49  1  0  0  0  0
M  CHG  1   7   1
M  CHG  1  17   1
M  END
> <s_m_source_file>
AV-unprocessed.smi

> <i_m_source_file_index>
2819

> <i_lp_mmshare_version>
43012

> <i_f3d_flags>
0

> <s_epik_input>
W0NIM11OKFtDSDNdKWMxW2NIXVtjSF1uYyhuMSlbTkhdQyg9TylbTkhdW0NIMl1DKFtDSDNdKShbQ0gzXSlOMltDSDJdW0NIMl1PW0NIMl1bQ0gyXTI=

> <s_epik_cmdline>
J2VwaWtfcHl0aG9uJywgJy1waCcsICc3LjAnLCAnLXRuJywgJzgnLCAnLW1hJywgJzIwMCcsICctbWV0YWxfYmluZGluZycsICctaW1hZScsICc8aW5maWxlLm1hZT4nLCAnLW9tYWUnLCAnPG91dGZpbGUubWFlPic=

> <r_lp_tautomer_probability>
0.999336

> <r_epik_Ionization_Penalty>
0.713728

> <r_epik_Ionization_Penalty_Charging>
0.713701

> <r_epik_Ionization_Penalty_Neutral>
2.70516e-05

> <r_epik_State_Penalty>
0.725459

> <r_epik_Charging_Adjusted_Penalty>
1.43916

> <i_epik_Tot_Q>
2

> <i_epik_Tot_abs_Q>
2

> <r_epik_Metal_State_Penalty>
1.06371

> <b_epik_Metal_Only>
0

> <s_lp_Force_Field>
OPLS_2005

> <r_lp_Energy>
33.0145

> <b_lp_Chiralities_Consistent>
1

> <s_lp_Variant>
AV-unprocessed.smi:2819-2

> <Gold.Version>
5.8.1

> <Gold.Id.Protein>
6NUR|6NUR_protein|mol2

> <Gold.PLP.Fitness>
55.3813

> <Gold.PLP.PLP>
-44.0617

> <Gold.PLP.part.hbond>
-3.0000

> <Gold.PLP.part.metal>
0.0000

> <Gold.PLP.part.buried>
-6.1952

> <Gold.PLP.part.nonpolar>
-35.1946

> <Gold.PLP.part.repulsive>
0.3536

> <Gold.PLP.ligand.clash>
0.0130

> <Gold.PLP.ligand.torsion>
1.5203

> <Gold.PLP.Chemscore.Hbond>
4.7513

> <Gold.PLP.Chemscore.CHOScore>
0.0000

> <Gold.PLP.Chemscore.Metal>
0.0000

> <Gold.Chemscore.Hbonds>
donor molecule, donor type, donor heavy atom, donor atom, acceptor molecule, acceptor atom, score
      L1  H     7    50       P1  8028  1.46
      L1  H     9    32       P1  8028  0.99
      L1  H    17    51       P1  7948  2.00

> <Gold.PLP.Chemscore.Internal.Correction>
0.1196

> <Gold.Rescore>
     Score         DG    S(hbond)    S(metal)    S(lipo)     H(rot)  DE(clash)    DE(int)     intcor
     16.44     -18.92       2.48        0.00      78.40       1.57       0.20       2.28       ----

> <Gold.Chemscore.Fitness>
16.4380

> <Gold.Chemscore.DG>
-18.9161

> <Gold.Chemscore.ZeroCoef>
-5.4800

> <Gold.Chemscore.Hbond>
2.4806

> <Gold.Chemscore.Metal>
0.0000

> <Gold.Chemscore.Lipo>
78.4047

> <Gold.Chemscore.Internal_Hbond>
0.0000

> <Gold.Chemscore.DEClash>
0.2021

> <Gold.Chemscore.DEInternal>
2.2760

> <Gold.Chemscore.Rot>
1.5713

> <Gold.Chemscore.Internal.Correction>
   9.000000E+99

> <Gold.Chemscore.Hbonds>
donor molecule, donor type, donor heavy atom, donor atom, acceptor molecule, acceptor atom, score
      L1  H     7    50       P1  8028  0.39
      L1  H     9    32       P1  8028  0.89
      L1  H    17    51       P1  7948  0.93

> <Gold.Chemscore.Hbond.Weighted>
-8.2853

> <Gold.Chemscore.Metal.Weighted>
-0.0000

> <Gold.Chemscore.Lipo.Weighted>
-9.1733

> <Gold.Chemscore.Internal_Hbond.Weighted>
0.0000

> <Gold.Chemscore.DEClash.Weighted>
0.2021

> <Gold.Chemscore.DEInternal.Weighted>
2.2760

> <Gold.Chemscore.Rot.Weighted>
4.0225

> <Gold.Chemscore.Internal.Correction.Weighted>
   9.000000E+99

> <Gold.Protein.RotatedTorsions>
[ 6907 6896 6895 6894 ] final -100.08 input  -60.11 | X-H torsion
[ 7974 7965 7964 7962 ] final   42.88 input  175.53 | X-H torsion
[ 8008 7997 7996 7995 ] final  112.32 input   59.86 | X-H torsion
[ 10167 10162 10161 10158 ] final -150.91 input  -65.29 | X-H torsion
[ 10718 10713 10712 10709 ] final  137.09 input   66.30 | X-H torsion
[ 10763 10752 10751 10750 ] final   93.37 input  -60.55 | X-H torsion
[ 11005 11000 10999 10996 ] final -121.23 input  -57.11 | X-H torsion

> <Gold.Protein.ActiveResidues>
 VAL166  LYS551  ARG553  GLY616  TRP617  ASP618  TYR619  PRO620  LYS621  CYS622 
 ASP623  PHE694  ASN695  SER759  ASP760  ASP761  ALA762  ILE779  LEU786  VAL792 
 PHE793  MET794  SER795  GLU796  ALA797  LYS798  CYS799  TRP800  GLU811  SER814 

> <Gold.Protein.RotatedAtoms>
  150.7103  134.0943  159.3942 H   0  0  0  0  0  0  0  0  0  0  0  0  # atno 6907 bound_to 6896
  151.8928  135.0407  160.0508 H   0  0  0  0  0  0  0  0  0  0  0  0  # atno 6908 bound_to 6896
  152.2477  133.5153  159.5344 H   0  0  0  0  0  0  0  0  0  0  0  0  # atno 6909 bound_to 6896
  146.0703  139.5250  142.9602 H   0  0  0  0  0  0  0  0  0  0  0  0  # atno 7974 bound_to 7965
  156.2184  140.3002  155.9895 H   0  0  0  0  0  0  0  0  0  0  0  0  # atno 8008 bound_to 7997
  155.2544  140.0427  157.3007 H   0  0  0  0  0  0  0  0  0  0  0  0  # atno 8009 bound_to 7997
  154.5803  140.2373  155.8071 H   0  0  0  0  0  0  0  0  0  0  0  0  # atno 8010 bound_to 7997
  139.7313  143.8803  152.2535 H   0  0  0  0  0  0  0  0  0  0  0  0  # atno 10167 bound_to 10162
  157.4398  131.1056  151.0156 H   0  0  0  0  0  0  0  0  0  0  0  0  # atno 10718 bound_to 10713
  153.2295  135.4328  155.0580 H   0  0  0  0  0  0  0  0  0  0  0  0  # atno 10763 bound_to 10752
  154.8290  135.3376  154.6808 H   0  0  0  0  0  0  0  0  0  0  0  0  # atno 10764 bound_to 10752
  153.7236  135.7015  153.5063 H   0  0  0  0  0  0  0  0  0  0  0  0  # atno 10765 bound_to 10752
  141.0086  134.0298  157.3444 H   0  0  0  0  0  0  0  0  0  0  0  0  # atno 11005 bound_to 11000
  145.6404  141.0285  143.1815 LP  0  0  0  0  0  0  0  0  0  0  0  0  # atno 17320 bound_to 7965
  144.7227  139.7976  143.7376 LP  0  0  0  0  0  0  0  0  0  0  0  0  # atno 17321 bound_to 7965
  139.8727  144.7059  150.8968 LP  0  0  0  0  0  0  0  0  0  0  0  0  # atno 17342 bound_to 10162
  140.7771  143.3725  151.1624 LP  0  0  0  0  0  0  0  0  0  0  0  0  # atno 17343 bound_to 10162
  157.1023  130.5987  149.5463 LP  0  0  0  0  0  0  0  0  0  0  0  0  # atno 17370 bound_to 10713
  155.9944  130.5008  150.7419 LP  0  0  0  0  0  0  0  0  0  0  0  0  # atno 17371 bound_to 10713
  139.9077  135.0183  156.7557 LP  0  0  0  0  0  0  0  0  0  0  0  0  # atno 17394 bound_to 11000
  140.6772  133.9507  155.7889 LP  0  0  0  0  0  0  0  0  0  0  0  0  # atno 17395 bound_to 11000

$$$$
