AV-unprocessed.smi:3232|AV-procd|sdf|12344|dock7
  -GOLD-   2272018203D 1   1.00000     0.00000
 Structure written by MMmdl.
 40 41  0  0  0  0  0  0  0  0  2 V2000
  145.0521  130.9465  150.8528 C   0  0  0  0  0  0  0  0  0  0  0  0
  145.6189  131.7636  149.6847 C   0  0  0  0  0  0  0  0  0  0  0  0
  145.4905  133.2234  149.9168 N   0  3  1  0  0  0  0  0  0  0  0  0
  144.1636  133.6812  150.3923 C   0  0  0  0  0  0  0  0  0  0  0  0
  144.4106  134.9388  151.2373 C   0  0  0  0  0  0  0  0  0  0  0  0
  145.9000  135.2353  151.0716 C   0  0  0  0  0  0  0  0  0  0  0  0
  146.5171  133.8624  150.7768 C   0  0  1  0  0  0  0  0  0  0  0  0
  146.8391  133.0398  152.0522 C   0  0  0  0  0  0  0  0  0  0  0  0
  147.9519  133.6029  152.8111 N   0  0  0  0  0  0  0  0  0  0  0  0
  148.6144  132.9797  153.8000 C   0  0  0  0  0  0  0  0  0  0  0  0
  148.3144  131.8542  154.2002 O   0  0  0  0  0  0  0  0  0  0  0  0
  149.7797  133.7575  154.4360 C   0  0  1  0  0  0  0  0  0  0  0  0
  149.3714  135.1607  154.9292 C   0  0  0  0  0  0  0  0  0  0  0  0
  150.4056  132.9731  155.4941 N   0  0  0  0  0  0  0  0  0  0  0  0
  150.6695  133.2971  156.7617 C   0  0  0  0  0  0  0  0  0  0  0  0
  151.2909  132.3453  157.4430 N   0  0  0  0  0  0  0  0  0  0  0  0
  151.3916  131.3949  156.4670 C   0  0  0  0  0  0  0  0  0  0  0  0
  150.8859  131.7231  155.2782 N   0  0  0  0  0  0  0  0  0  0  0  0
  145.1119  129.8787  150.6411 H   0  0  0  0  0  0  0  0  0  0  0  0
  144.0047  131.1899  151.0333 H   0  0  0  0  0  0  0  0  0  0  0  0
  145.6038  131.1281  151.7756 H   0  0  0  0  0  0  0  0  0  0  0  0
  146.6623  131.4950  149.5142 H   0  0  0  0  0  0  0  0  0  0  0  0
  145.0695  131.5020  148.7794 H   0  0  0  0  0  0  0  0  0  0  0  0
  143.5176  133.8893  149.5388 H   0  0  0  0  0  0  0  0  0  0  0  0
  143.6787  132.9152  150.9995 H   0  0  0  0  0  0  0  0  0  0  0  0
  143.7875  135.7787  150.9283 H   0  0  0  0  0  0  0  0  0  0  0  0
  144.1888  134.7305  152.2849 H   0  0  0  0  0  0  0  0  0  0  0  0
  146.0416  135.8860  150.2074 H   0  0  0  0  0  0  0  0  0  0  0  0
  146.3283  135.7507  151.9304 H   0  0  0  0  0  0  0  0  0  0  0  0
  147.4355  133.9829  150.2005 H   0  0  0  0  0  0  0  0  0  0  0  0
  145.9513  132.9312  152.6775 H   0  0  0  0  0  0  0  0  0  0  0  0
  147.1411  132.0281  151.7822 H   0  0  0  0  0  0  0  0  0  0  0  0
  148.2608  134.5275  152.5474 H   0  0  0  0  0  0  0  0  0  0  0  0
  150.5283  133.8960  153.6542 H   0  0  0  0  0  0  0  0  0  0  0  0
  148.9562  135.7595  154.1178 H   0  0  0  0  0  0  0  0  0  0  0  0
  150.2337  135.6998  155.3223 H   0  0  0  0  0  0  0  0  0  0  0  0
  148.6233  135.1139  155.7219 H   0  0  0  0  0  0  0  0  0  0  0  0
  150.4059  134.2511  157.1942 H   0  0  0  0  0  0  0  0  0  0  0  0
  151.8569  130.4349  156.6359 H   0  0  0  0  0  0  0  0  0  0  0  0
  145.6129  133.6610  149.0146 H   0  0  0  0  0  0  0  0  0  0  0  0
  1  2  1  0  0  0  0
  1 19  1  0  0  0  0
  1 20  1  0  0  0  0
  1 21  1  0  0  0  0
  2  3  1  0  0  0  0
  2 22  1  0  0  0  0
  2 23  1  0  0  0  0
  3  7  1  0  0  0  0
  3  4  1  0  0  0  0
  3 40  1  0  0  0  0
  4  5  1  0  0  0  0
  4 24  1  0  0  0  0
  4 25  1  0  0  0  0
  5  6  1  0  0  0  0
  5 26  1  0  0  0  0
  5 27  1  0  0  0  0
  6  7  1  0  0  0  0
  6 28  1  0  0  0  0
  6 29  1  0  0  0  0
  7  8  1  0  0  0  0
  7 30  1  0  0  0  0
  8  9  1  0  0  0  0
  8 31  1  0  0  0  0
  8 32  1  0  0  0  0
  9 10  1  0  0  0  0
  9 33  1  0  0  0  0
 10 11  2  0  0  0  0
 10 12  1  0  0  0  0
 12 13  1  0  0  0  0
 12 14  1  0  0  0  0
 12 34  1  0  0  0  0
 13 35  1  0  0  0  0
 13 36  1  0  0  0  0
 13 37  1  0  0  0  0
 14 18  1  0  0  0  0
 14 15  1  0  0  0  0
 15 16  2  0  0  0  0
 15 38  1  0  0  0  0
 16 17  1  0  0  0  0
 17 18  2  0  0  0  0
 17 39  1  0  0  0  0
M  CHG  1   3   1
M  END
> <s_m_source_file>
AV-unprocessed.smi

> <i_m_source_file_index>
3232

> <i_lp_mmshare_version>
43012

> <i_f3d_flags>
0

> <s_epik_input>
W0NIM11bQ0gyXU4xW0NIMl1bQ0gyXVtDSDJdW0NASF0xW0NIMl1bTkhdQyg9TylbQ0BIXShbQ0gzXSluMltjSF1uW2NIXW4y

> <s_epik_cmdline>
J2VwaWtfcHl0aG9uJywgJy1waCcsICc3LjAnLCAnLXRuJywgJzgnLCAnLW1hJywgJzIwMCcsICctbWV0YWxfYmluZGluZycsICctaW1hZScsICc8aW5maWxlLm1hZT4nLCAnLW9tYWUnLCAnPG91dGZpbGUubWFlPic=

> <r_lp_tautomer_probability>
1

> <r_epik_Ionization_Penalty>
0.00177695

> <r_epik_Ionization_Penalty_Charging>
0.00176881

> <r_epik_Ionization_Penalty_Neutral>
8.13528e-06

> <r_epik_State_Penalty>
0.00119827

> <r_epik_Charging_Adjusted_Penalty>
0.00296709

> <i_epik_Tot_Q>
1

> <i_epik_Tot_abs_Q>
1

> <r_epik_Metal_State_Penalty>
-0

> <b_epik_Metal_Only>
0

> <s_lp_Force_Field>
OPLS_2005

> <r_lp_Energy>
36.9304

> <b_lp_Chiralities_Consistent>
1

> <s_lp_Variant>
AV-unprocessed.smi:3232-6

> <Gold.Version>
5.8.1

> <Gold.Id.Protein>
6NUR|6NUR_protein|mol2

> <Gold.PLP.Fitness>
41.1159

> <Gold.PLP.PLP>
-32.6545

> <Gold.PLP.part.hbond>
-3.0000

> <Gold.PLP.part.metal>
0.0000

> <Gold.PLP.part.buried>
-4.6683

> <Gold.PLP.part.nonpolar>
-24.4645

> <Gold.PLP.part.repulsive>
0.1671

> <Gold.PLP.ligand.clash>
0.0000

> <Gold.PLP.ligand.torsion>
0.3426

> <Gold.PLP.Chemscore.Hbond>
3.0000

> <Gold.PLP.Chemscore.CHOScore>
0.0000

> <Gold.PLP.Chemscore.Metal>
0.0000

> <Gold.Chemscore.Hbonds>
donor molecule, donor type, donor heavy atom, donor atom, acceptor molecule, acceptor atom, score
      L1  H     3    40       P1  7921  1.00
      L1  H     9    33       P1  7948  1.00
      P1  H  6896  6907       L1    16  0.96

> <Gold.PLP.Chemscore.Internal.Correction>
0.1465

> <Gold.Rescore>
     Score         DG    S(hbond)    S(metal)    S(lipo)     H(rot)  DE(clash)    DE(int)     intcor
     12.15     -14.33       2.44        0.00      60.39       2.49       0.03       2.15       ----

> <Gold.Chemscore.Fitness>
12.1537

> <Gold.Chemscore.DG>
-14.3335

> <Gold.Chemscore.ZeroCoef>
-5.4800

> <Gold.Chemscore.Hbond>
2.4426

> <Gold.Chemscore.Metal>
0.0000

> <Gold.Chemscore.Lipo>
60.3852

> <Gold.Chemscore.Internal_Hbond>
0.0000

> <Gold.Chemscore.DEClash>
0.0285

> <Gold.Chemscore.DEInternal>
2.1513

> <Gold.Chemscore.Rot>
2.4882

> <Gold.Chemscore.Internal.Correction>
   9.000000E+99

> <Gold.Chemscore.Hbonds>
donor molecule, donor type, donor heavy atom, donor atom, acceptor molecule, acceptor atom, score
      L1  H     3    40       P1  7921  0.30
      L1  H     9    33       P1  7948  0.25
      P1  H  6896  6907       L1    16  0.23

> <Gold.Chemscore.Hbond.Weighted>
-8.1581

> <Gold.Chemscore.Metal.Weighted>
-0.0000

> <Gold.Chemscore.Lipo.Weighted>
-7.0651

> <Gold.Chemscore.Internal_Hbond.Weighted>
0.0000

> <Gold.Chemscore.DEClash.Weighted>
0.0285

> <Gold.Chemscore.DEInternal.Weighted>
2.1513

> <Gold.Chemscore.Rot.Weighted>
6.3697

> <Gold.Chemscore.Internal.Correction.Weighted>
   9.000000E+99

> <Gold.Protein.RotatedTorsions>
[ 6907 6896 6895 6894 ] final -172.69 input  -60.11 | X-H torsion
[ 7974 7965 7964 7962 ] final -177.19 input  175.53 | X-H torsion
[ 8008 7997 7996 7995 ] final    7.28 input   59.86 | X-H torsion
[ 10167 10162 10161 10158 ] final -170.01 input  -65.29 | X-H torsion
[ 10718 10713 10712 10709 ] final -109.78 input   66.30 | X-H torsion
[ 10763 10752 10751 10750 ] final  151.75 input  -60.55 | X-H torsion
[ 11005 11000 10999 10996 ] final  -51.12 input  -57.11 | X-H torsion

> <Gold.Protein.ActiveResidues>
 VAL166  LYS551  ARG553  GLY616  TRP617  ASP618  TYR619  PRO620  LYS621  CYS622 
 ASP623  PHE694  ASN695  SER759  ASP760  ASP761  ALA762  ILE779  LEU786  VAL792 
 PHE793  MET794  SER795  GLU796  ALA797  LYS798  CYS799  TRP800  GLU811  SER814 

> <Gold.Protein.RotatedAtoms>
  151.5441  133.3428  159.2940 H   0  0  0  0  0  0  0  0  0  0  0  0  # atno 6907 bound_to 6896
  150.8518  134.7847  159.7026 H   0  0  0  0  0  0  0  0  0  0  0  0  # atno 6908 bound_to 6896
  152.4562  134.5294  159.9858 H   0  0  0  0  0  0  0  0  0  0  0  0  # atno 6909 bound_to 6896
  144.7127  140.1057  143.6414 H   0  0  0  0  0  0  0  0  0  0  0  0  # atno 7974 bound_to 7965
  154.7519  140.2768  155.6286 H   0  0  0  0  0  0  0  0  0  0  0  0  # atno 8008 bound_to 7997
  156.2897  140.2677  156.2201 H   0  0  0  0  0  0  0  0  0  0  0  0  # atno 8009 bound_to 7997
  155.0127  140.0372  157.2395 H   0  0  0  0  0  0  0  0  0  0  0  0  # atno 8010 bound_to 7997
  139.5887  144.1260  152.1608 H   0  0  0  0  0  0  0  0  0  0  0  0  # atno 10167 bound_to 10162
  156.0555  130.5781  150.8147 H   0  0  0  0  0  0  0  0  0  0  0  0  # atno 10718 bound_to 10713
  154.1088  135.2840  155.3235 H   0  0  0  0  0  0  0  0  0  0  0  0  # atno 10763 bound_to 10752
  154.6504  135.5371  153.7898 H   0  0  0  0  0  0  0  0  0  0  0  0  # atno 10764 bound_to 10752
  153.0353  135.6508  154.1248 H   0  0  0  0  0  0  0  0  0  0  0  0  # atno 10765 bound_to 10752
  141.0854  133.6644  156.3831 H   0  0  0  0  0  0  0  0  0  0  0  0  # atno 11005 bound_to 11000
  145.9499  139.2726  143.1219 LP  0  0  0  0  0  0  0  0  0  0  0  0  # atno 17320 bound_to 7965
  145.9334  140.9032  143.0344 LP  0  0  0  0  0  0  0  0  0  0  0  0  # atno 17321 bound_to 7965
  140.0830  144.5685  150.7109 LP  0  0  0  0  0  0  0  0  0  0  0  0  # atno 17342 bound_to 10162
  140.7154  143.2540  151.4450 LP  0  0  0  0  0  0  0  0  0  0  0  0  # atno 17343 bound_to 10162
  157.5521  131.0944  150.9680 LP  0  0  0  0  0  0  0  0  0  0  0  0  # atno 17370 bound_to 10713
  156.9937  130.5573  149.5305 LP  0  0  0  0  0  0  0  0  0  0  0  0  # atno 17371 bound_to 10713
  140.5375  134.6152  157.5369 LP  0  0  0  0  0  0  0  0  0  0  0  0  # atno 17394 bound_to 11000
  139.9671  134.7354  156.0115 LP  0  0  0  0  0  0  0  0  0  0  0  0  # atno 17395 bound_to 11000

$$$$
