#       Name:                AV-unprocessed.smi:559
#       Creating user name   scv26
#       Creation time:       Thu Mar 26 23:41:42 2020


#       File generated by GOLD software.
#

@<TRIPOS>MOLECULE
AV-unprocessed.smi:559
    44    45     1
SMALL
NO_CHARGES


@<TRIPOS>ATOM
      1 ****        -0.2589   0.9676  -3.7106 C.3            1 S1                 0.0000
      2 ****        -0.9207   0.0404  -2.7319 C.2            1 S1                 0.0000
      3 ****        -2.1861   0.2399  -2.4032 N.2            1 S1                 0.0000
      4 ****        -2.4690  -0.7339  -1.5151 N.pl3          1 S1                 0.0000
      5 ****        -3.7945  -0.8029  -0.9318 C.3            1 S1                 0.0000
      6 ****        -1.3810  -1.5525  -1.2849 C.2            1 S1                 0.0000
      7 ****        -1.4381  -2.7017  -0.3310 C.3            1 S1                 0.0000
      8 ****        -0.3513  -1.0767  -2.0529 C.2            1 S1                 0.0000
      9 ****         1.0667  -1.5855  -2.1505 C.3            1 S1                 0.0000
     10 ****         1.8374  -1.1852  -0.8921 C.2            1 S1                 0.0000
     11 ****         2.2417  -2.0511  -0.1168 O.2            1 S1                 0.0000
     12 ****         1.9984   0.1316  -0.6851 N.am           1 S1                 0.0000
     13 ****         2.5257   0.7397   0.5314 C.3            1 S1                 0.0000
     14 ****         1.3878   1.2851   1.4162 C.3            1 S1                 0.0000
     15 ****         1.9090   1.9777   2.6900 C.3            1 S1                 0.0000
     16 ****         0.7208   2.2551   3.6168 C.3            1 S1                 0.0000
     17 ****        -0.4407   0.8622   3.3618 S.o2           1 S1                 0.0000
     18 ****        -0.2773  -0.1188   4.4453 O.2            1 S1                 0.0000
     19 ****        -1.7663   1.3992   3.0196 O.2            1 S1                 0.0000
     20 ****         0.3672   0.2173   1.8499 C.3            1 S1                 0.0000
     21 ****         0.4913   1.5837  -3.2150 H              1 S1                 0.0000
     22 ****        -0.9780   1.6363  -4.1852 H              1 S1                 0.0000
     23 ****         0.2403   0.4078  -4.5015 H              1 S1                 0.0000
     24 ****        -4.2285  -1.7849  -1.1199 H              1 S1                 0.0000
     25 ****        -4.4461  -0.0418  -1.3630 H              1 S1                 0.0000
     26 ****        -3.7280  -0.6417   0.1441 H              1 S1                 0.0000
     27 ****        -0.4957  -3.2487  -0.3133 H              1 S1                 0.0000
     28 ****        -2.2246  -3.4019  -0.6124 H              1 S1                 0.0000
     29 ****        -1.6404  -2.3529   0.6819 H              1 S1                 0.0000
     30 ****         1.0900  -2.6706  -2.2583 H              1 S1                 0.0000
     31 ****         1.5832  -1.1827  -3.0219 H              1 S1                 0.0000
     32 ****         1.6377   0.7626  -1.3862 H              1 S1                 0.0000
     33 ****         3.1417   0.0338   1.0909 H              1 S1                 0.0000
     34 ****         3.1870   1.5555   0.2388 H              1 S1                 0.0000
     35 ****         0.8428   2.0377   0.8442 H              1 S1                 0.0000
     36 ****         2.6061   1.3120   3.2007 H              1 S1                 0.0000
     37 ****         2.4540   2.8932   2.4586 H              1 S1                 0.0000
     38 ****         1.0037   2.3253   4.6673 H              1 S1                 0.0000
     39 ****         0.2121   3.1751   3.3288 H              1 S1                 0.0000
     40 ****        -0.3826   0.0111   1.0862 H              1 S1                 0.0000
     41 ****         0.8631  -0.7180   2.1109 H              1 S1                 0.0000
     42 ****        -2.7982   0.9556  -2.7395 LP             1 S1                 0.0000
     43 ****         2.0662  -3.0164  -0.3098 LP             1 S1                 0.0000
     44 ****         2.7458  -1.7893   0.7062 LP             1 S1                 0.0000
@<TRIPOS>BOND
    1    1    2 1     
    2    1   21 1     
    3    1   22 1     
    4    1   23 1     
    5    2    8 1     
    6    2    3 2     
    7    3    4 1     
    8    4    5 1     
    9    4    6 1     
   10    5   24 1     
   11    5   25 1     
   12    5   26 1     
   13    6    7 1     
   14    6    8 2     
   15    7   27 1     
   16    7   28 1     
   17    7   29 1     
   18    8    9 1     
   19    9   10 1     
   20    9   30 1     
   21    9   31 1     
   22   10   11 2     
   23   10   12 am    
   24   12   13 1     
   25   12   32 1     
   26   13   14 1     
   27   13   33 1     
   28   13   34 1     
   29   14   20 1     
   30   14   15 1     
   31   14   35 1     
   32   15   16 1     
   33   15   36 1     
   34   15   37 1     
   35   16   17 1     
   36   16   38 1     
   37   16   39 1     
   38   17   18 2     
   39   17   19 2     
   40   17   20 1     
   41   20   40 1     
   42   20   41 1     
   43    3   42 1     
   44   11   43 1     
   45   11   44 1     
@<TRIPOS>SUBSTRUCTURE
      1 S1             1
@<TRIPOS>SET
LONE_PAIRS      STATIC     ATOMS    <user>   **** ""
5 42 43 44 18 19
DONOR_HYDROGENS      STATIC     ATOMS    <user>   **** ""
1 32
ATOM$BLUE        STATIC     ATOMS    COLORGROUP SYSTEM
5 42 43 44 18 19
ATOM$RED        STATIC     ATOMS    COLORGROUP SYSTEM
1 32
