#       Name:                AV-unprocessed.smi:753
#       Creating user name   scv26
#       Creation time:       Fri Mar 27 00:59:58 2020


#       File generated by GOLD software.
#

@<TRIPOS>MOLECULE
AV-unprocessed.smi:753
    46    48     1
SMALL
NO_CHARGES


@<TRIPOS>ATOM
      1 ****        -2.9870   6.8562   0.2033 C.3            1 S1                 0.0000
      2 ****        -2.4431   5.4467   0.3013 C.ar           1 S1                 0.0000
      3 ****        -2.1414   4.8382   1.5388 C.ar           1 S1                 0.0000
      4 ****        -1.6356   3.5217   1.5535 C.ar           1 S1                 0.0000
      5 ****        -1.4436   2.8397   0.3320 C.ar           1 S1                 0.0000
      6 ****        -0.8970   1.4259   0.3166 C.3            1 S1                 0.0000
      7 ****         0.6261   1.3973   0.1119 C.3            1 S1                 0.0000
      8 ****         1.1386   0.0332   0.1214 N.am           1 S1                 0.0000
      9 ****         1.3966  -0.6841   1.2280 C.2            1 S1                 0.0000
     10 ****         1.2333  -0.2522   2.3676 O.2            1 S1                 0.0000
     11 ****         1.8487  -1.9289   0.9974 N.am           1 S1                 0.0000
     12 ****         2.2165  -2.9482   1.9837 C.3            1 S1                 0.0000
     13 ****         2.4395  -4.3210   1.3114 C.3            1 S1                 0.0000
     14 ****         3.8841  -4.6752   1.7098 C.3            1 S1                 0.0000
     15 ****         4.8679  -3.7717   0.9423 C.3            1 S1                 0.0000
     16 ****         4.6914  -2.4083   1.6368 C.3            1 S1                 0.0000
     17 ****         3.5837  -2.6985   2.6727 C.3            1 S1                 0.0000
     18 ****         3.9651  -4.1057   3.1196 C.3            1 S1                 0.0000
     19 ****        -1.7627   3.4983  -0.8747 C.ar           1 S1                 0.0000
     20 ****        -2.2436   4.7606  -0.8466 N.pl3          1 S1                 1.0000
     21 ****        -3.1491   7.2850   1.1926 H              1 S1                 0.0000
     22 ****        -3.9383   6.8613  -0.3293 H              1 S1                 0.0000
     23 ****        -2.2871   7.4960  -0.3348 H              1 S1                 0.0000
     24 ****        -2.2929   5.3704   2.4669 H              1 S1                 0.0000
     25 ****        -1.3976   3.0433   2.4925 H              1 S1                 0.0000
     26 ****        -1.1627   0.9347   1.2538 H              1 S1                 0.0000
     27 ****        -1.3913   0.8623  -0.4760 H              1 S1                 0.0000
     28 ****         0.8827   1.8499  -0.8462 H              1 S1                 0.0000
     29 ****         1.1277   1.9889   0.8799 H              1 S1                 0.0000
     30 ****         1.3025  -0.4023  -0.7746 H              1 S1                 0.0000
     31 ****         1.9573  -2.1964   0.0297 H              1 S1                 0.0000
     32 ****         1.4278  -3.0444   2.7325 H              1 S1                 0.0000
     33 ****         1.7391  -5.0563   1.7096 H              1 S1                 0.0000
     34 ****         2.3103  -4.2992   0.2281 H              1 S1                 0.0000
     35 ****         4.1113  -5.7385   1.6274 H              1 S1                 0.0000
     36 ****         5.8930  -4.1278   1.0522 H              1 S1                 0.0000
     37 ****         4.6409  -3.7280  -0.1235 H              1 S1                 0.0000
     38 ****         5.6149  -2.1192   2.1400 H              1 S1                 0.0000
     39 ****         4.4409  -1.6093   0.9392 H              1 S1                 0.0000
     40 ****         3.5405  -1.9640   3.4774 H              1 S1                 0.0000
     41 ****         3.2455  -4.5514   3.8088 H              1 S1                 0.0000
     42 ****         4.9638  -4.1678   3.5557 H              1 S1                 0.0000
     43 ****        -1.6467   3.0584  -1.8546 H              1 S1                 0.0000
     44 ****        -2.4658   5.2169  -1.7318 H              1 S1                 0.0000
     45 ****         0.8920   0.6776   2.5058 LP             1 S1                 0.0000
     46 ****         1.4418  -0.8306   3.1562 LP             1 S1                 0.0000
@<TRIPOS>BOND
    1    1    2 1     
    2    1   21 1     
    3    1   22 1     
    4    1   23 1     
    5    2   20 ar    
    6    2    3 ar    
    7    3    4 ar    
    8    3   24 1     
    9    4    5 ar    
   10    4   25 1     
   11    5    6 1     
   12    5   19 ar    
   13    6    7 1     
   14    6   26 1     
   15    6   27 1     
   16    7    8 1     
   17    7   28 1     
   18    7   29 1     
   19    8    9 am    
   20    8   30 1     
   21    9   10 2     
   22    9   11 am    
   23   11   12 1     
   24   11   31 1     
   25   12   17 1     
   26   12   13 1     
   27   12   32 1     
   28   13   14 1     
   29   13   33 1     
   30   13   34 1     
   31   14   18 1     
   32   14   15 1     
   33   14   35 1     
   34   15   16 1     
   35   15   36 1     
   36   15   37 1     
   37   16   17 1     
   38   16   38 1     
   39   16   39 1     
   40   17   18 1     
   41   17   40 1     
   42   18   41 1     
   43   18   42 1     
   44   19   20 ar    
   45   19   43 1     
   46   20   44 1     
   47   10   45 1     
   48   10   46 1     
@<TRIPOS>SUBSTRUCTURE
      1 S1             1
@<TRIPOS>SET
LONE_PAIRS      STATIC     ATOMS    <user>   **** ""
2 45 46
DONOR_HYDROGENS      STATIC     ATOMS    <user>   **** ""
3 30 31 44
ATOM$BLUE        STATIC     ATOMS    COLORGROUP SYSTEM
2 45 46
ATOM$RED        STATIC     ATOMS    COLORGROUP SYSTEM
3 30 31 44
