AV-unprocessed.smi:2121|AV-procd|sdf|8645|dock4
  -GOLD-   2272011393D 1   1.00000     0.00000
 Structure written by MMmdl.
 49 50  0  0  0  0  0  0  0  0  1 V2000
  151.0112  145.2599  159.2101 C   0  0  0  0  0  0  0  0  0  0  0  0
  151.5039  143.8186  159.3780 C   0  0  1  0  0  0  0  0  0  0  0  0
  151.5038  143.0524  158.0434 C   0  0  0  0  0  0  0  0  0  0  0  0
  152.0923  141.7285  158.2202 N   0  0  0  0  0  0  0  0  0  0  0  0
  151.9101  140.7770  157.1949 C   0  0  0  0  0  0  0  0  0  0  0  0
  150.8526  140.9309  156.2686 C   0  0  0  0  0  0  0  0  0  0  0  0
  150.6849  139.9721  155.2518 C   0  0  0  0  0  0  0  0  0  0  0  0
  151.5745  138.8776  155.1872 C   0  0  0  0  0  0  0  0  0  0  0  0
  151.4704  137.7966  154.1182 C   0  0  0  0  0  0  0  0  0  0  0  0
  150.3775  136.8489  154.3115 N   0  0  0  0  0  0  0  0  0  0  0  0
  150.0452  136.2863  155.4831 C   0  0  0  0  0  0  0  0  0  0  0  0
  150.6688  136.4823  156.5277 O   0  0  0  0  0  0  0  0  0  0  0  0
  148.8175  135.3624  155.4663 C   0  0  1  0  0  0  0  0  0  0  0  0
  147.6378  136.1075  156.1122 C   0  0  0  0  0  0  0  0  0  0  0  0
  148.4493  135.0257  154.0917 N   0  0  0  0  0  0  0  0  0  0  0  0
  148.0527  133.8136  153.6756 C   0  0  0  0  0  0  0  0  0  0  0  0
  147.7990  133.7842  152.3671 N   0  0  0  0  0  0  0  0  0  0  0  0
  147.9336  132.8304  154.4043 O   0  0  0  0  0  0  0  0  0  0  0  0
  152.6028  138.8138  156.1486 C   0  0  0  0  0  0  0  0  0  0  0  0
  152.7712  139.7323  157.1230 N   0  0  0  0  0  0  0  0  0  0  0  0
  153.4280  141.7666  158.8076 C   0  0  0  0  0  0  0  0  0  0  0  0
  153.4340  142.5838  160.1145 C   0  0  2  0  0  0  0  0  0  0  0  0
  152.8110  141.8354  161.3064 C   0  0  0  0  0  0  0  0  0  0  0  0
  152.8302  143.8625  159.9036 O   0  0  0  0  0  0  0  0  0  0  0  0
  149.9937  145.2839  158.8190 H   0  0  0  0  0  0  0  0  0  0  0  0
  151.6478  145.8171  158.5221 H   0  0  0  0  0  0  0  0  0  0  0  0
  151.0122  145.7853  160.1653 H   0  0  0  0  0  0  0  0  0  0  0  0
  150.8443  143.3181  160.0870 H   0  0  0  0  0  0  0  0  0  0  0  0
  150.4804  142.9634  157.6767 H   0  0  0  0  0  0  0  0  0  0  0  0
  152.0737  143.6010  157.2922 H   0  0  0  0  0  0  0  0  0  0  0  0
  150.1824  141.7762  156.3177 H   0  0  0  0  0  0  0  0  0  0  0  0
  149.8840  140.0891  154.5369 H   0  0  0  0  0  0  0  0  0  0  0  0
  151.3268  138.2846  153.1541 H   0  0  0  0  0  0  0  0  0  0  0  0
  152.4174  137.2580  154.0520 H   0  0  0  0  0  0  0  0  0  0  0  0
  149.8145  136.6293  153.5024 H   0  0  0  0  0  0  0  0  0  0  0  0
  149.0225  134.4484  156.0273 H   0  0  0  0  0  0  0  0  0  0  0  0
  147.8606  136.3812  157.1443 H   0  0  0  0  0  0  0  0  0  0  0  0
  146.7452  135.4813  156.1295 H   0  0  0  0  0  0  0  0  0  0  0  0
  147.3880  137.0220  155.5718 H   0  0  0  0  0  0  0  0  0  0  0  0
  148.5217  135.7655  153.4089 H   0  0  0  0  0  0  0  0  0  0  0  0
  147.4884  132.9300  151.9284 H   0  0  0  0  0  0  0  0  0  0  0  0
  147.9166  134.6238  151.8187 H   0  0  0  0  0  0  0  0  0  0  0  0
  153.3145  138.0012  156.1367 H   0  0  0  0  0  0  0  0  0  0  0  0
  153.8178  140.7681  159.0015 H   0  0  0  0  0  0  0  0  0  0  0  0
  154.1023  142.2287  158.0854 H   0  0  0  0  0  0  0  0  0  0  0  0
  154.4741  142.7799  160.3763 H   0  0  0  0  0  0  0  0  0  0  0  0
  153.3739  140.9285  161.5281 H   0  0  0  0  0  0  0  0  0  0  0  0
  151.7806  141.5363  161.1155 H   0  0  0  0  0  0  0  0  0  0  0  0
  152.8195  142.4558  162.2027 H   0  0  0  0  0  0  0  0  0  0  0  0
  1  2  1  0  0  0  0
  1 25  1  0  0  0  0
  1 26  1  0  0  0  0
  1 27  1  0  0  0  0
  2 24  1  0  0  0  0
  2  3  1  0  0  0  0
  2 28  1  0  0  0  0
  3  4  1  0  0  0  0
  3 29  1  0  0  0  0
  3 30  1  0  0  0  0
  4  5  1  0  0  0  0
  4 21  1  0  0  0  0
  5 20  1  0  0  0  0
  5  6  2  0  0  0  0
  6  7  1  0  0  0  0
  6 31  1  0  0  0  0
  7  8  2  0  0  0  0
  7 32  1  0  0  0  0
  8  9  1  0  0  0  0
  8 19  1  0  0  0  0
  9 10  1  0  0  0  0
  9 33  1  0  0  0  0
  9 34  1  0  0  0  0
 10 11  1  0  0  0  0
 10 35  1  0  0  0  0
 11 12  2  0  0  0  0
 11 13  1  0  0  0  0
 13 14  1  0  0  0  0
 13 15  1  0  0  0  0
 13 36  1  0  0  0  0
 14 37  1  0  0  0  0
 14 38  1  0  0  0  0
 14 39  1  0  0  0  0
 15 16  1  0  0  0  0
 15 40  1  0  0  0  0
 16 17  1  0  0  0  0
 16 18  2  0  0  0  0
 17 41  1  0  0  0  0
 17 42  1  0  0  0  0
 19 20  2  0  0  0  0
 19 43  1  0  0  0  0
 21 22  1  0  0  0  0
 21 44  1  0  0  0  0
 21 45  1  0  0  0  0
 22 23  1  0  0  0  0
 22 24  1  0  0  0  0
 22 46  1  0  0  0  0
 23 47  1  0  0  0  0
 23 48  1  0  0  0  0
 23 49  1  0  0  0  0
M  END
> <s_m_source_file>
AV-unprocessed.smi

> <i_m_source_file_index>
2121

> <i_lp_mmshare_version>
43012

> <i_f3d_flags>
0

> <s_epik_input>
W0NIM11bQ0BASF0xW0NIMl1OKFtDSDJdW0NASF0oTzEpW0NIM10pYzJbY0hdW2NIXWMoW2NIXW4yKVtDSDJdW05IXUMoPU8pW0NASF0oW0NIM10pW05IXUMoPU8pW05IMl0=

> <s_epik_cmdline>
J2VwaWtfcHl0aG9uJywgJy1waCcsICc3LjAnLCAnLXRuJywgJzgnLCAnLW1hJywgJzIwMCcsICctbWV0YWxfYmluZGluZycsICctaW1hZScsICc8aW5maWxlLm1hZT4nLCAnLW9tYWUnLCAnPG91dGZpbGUubWFlPic=

> <r_lp_tautomer_probability>
1

> <r_epik_Ionization_Penalty>
0.0063713

> <r_epik_Ionization_Penalty_Charging>
0

> <r_epik_Ionization_Penalty_Neutral>
0.0063713

> <r_epik_State_Penalty>
0.00467069

> <r_epik_Charging_Adjusted_Penalty>
0.00467069

> <i_epik_Tot_Q>
0

> <i_epik_Tot_abs_Q>
0

> <r_epik_Metal_State_Penalty>
-0

> <b_epik_Metal_Only>
0

> <s_lp_Force_Field>
OPLS_2005

> <r_lp_Energy>
11.1976

> <b_lp_Chiralities_Consistent>
1

> <s_lp_Variant>
AV-unprocessed.smi:2121-6

> <Gold.Version>
5.8.1

> <Gold.Id.Protein>
6NUR|6NUR_protein|mol2

> <Gold.PLP.Fitness>
47.8220

> <Gold.PLP.PLP>
-39.0832

> <Gold.PLP.part.hbond>
-4.5652

> <Gold.PLP.part.metal>
0.0000

> <Gold.PLP.part.buried>
-4.0427

> <Gold.PLP.part.nonpolar>
-30.8024

> <Gold.PLP.part.repulsive>
0.1103

> <Gold.PLP.ligand.clash>
0.0000

> <Gold.PLP.ligand.torsion>
1.4854

> <Gold.PLP.Chemscore.Hbond>
3.7824

> <Gold.PLP.Chemscore.CHOScore>
0.0000

> <Gold.PLP.Chemscore.Metal>
0.0000

> <Gold.Chemscore.Hbonds>
donor molecule, donor type, donor heavy atom, donor atom, acceptor molecule, acceptor atom, score
      L1  H    10    35       P1  7948  1.00
      L1  H    15    40       P1  7948  0.94
      L1  H    17    42       P1  7948  0.71
      P1  H  7997  8009       L1    20  0.91

> <Gold.PLP.Chemscore.Internal.Correction>
0.3624

> <Gold.Rescore>
     Score         DG    S(hbond)    S(metal)    S(lipo)     H(rot)  DE(clash)    DE(int)     intcor
     16.70     -19.51       2.60        0.00     102.15       2.58       0.10       2.71       ----

> <Gold.Chemscore.Fitness>
16.7007

> <Gold.Chemscore.DG>
-19.5119

> <Gold.Chemscore.ZeroCoef>
-5.4800

> <Gold.Chemscore.Hbond>
2.6031

> <Gold.Chemscore.Metal>
0.0000

> <Gold.Chemscore.Lipo>
102.1541

> <Gold.Chemscore.Internal_Hbond>
0.0000

> <Gold.Chemscore.DEClash>
0.0993

> <Gold.Chemscore.DEInternal>
2.7119

> <Gold.Chemscore.Rot>
2.5838

> <Gold.Chemscore.Internal.Correction>
   9.000000E+99

> <Gold.Chemscore.Hbonds>
donor molecule, donor type, donor heavy atom, donor atom, acceptor molecule, acceptor atom, score
      L1  H    10    35       P1  7948  0.35
      L1  H    15    40       P1  7948  0.91
      L1  H    17    42       P1  7948  0.14
      P1  H  7997  8009       L1    20  0.22

> <Gold.Chemscore.Hbond.Weighted>
-8.6944

> <Gold.Chemscore.Metal.Weighted>
-0.0000

> <Gold.Chemscore.Lipo.Weighted>
-11.9520

> <Gold.Chemscore.Internal_Hbond.Weighted>
0.0000

> <Gold.Chemscore.DEClash.Weighted>
0.0993

> <Gold.Chemscore.DEInternal.Weighted>
2.7119

> <Gold.Chemscore.Rot.Weighted>
6.6145

> <Gold.Chemscore.Internal.Correction.Weighted>
   9.000000E+99

> <Gold.Protein.RotatedTorsions>
[ 6907 6896 6895 6894 ] final   17.19 input  -60.11 | X-H torsion
[ 7974 7965 7964 7962 ] final  164.67 input  175.53 | X-H torsion
[ 8008 7997 7996 7995 ] final  157.15 input   59.86 | X-H torsion
[ 10167 10162 10161 10158 ] final -176.48 input  -65.29 | X-H torsion
[ 10718 10713 10712 10709 ] final -122.00 input   66.30 | X-H torsion
[ 10763 10752 10751 10750 ] final  -76.33 input  -60.55 | X-H torsion
[ 11005 11000 10999 10996 ] final  104.23 input  -57.11 | X-H torsion

> <Gold.Protein.ActiveResidues>
 VAL166  LYS551  ARG553  GLY616  TRP617  ASP618  TYR619  PRO620  LYS621  CYS622 
 ASP623  PHE694  ASN695  SER759  ASP760  ASP761  ALA762  ILE779  LEU786  VAL792 
 PHE793  MET794  SER795  GLU796  ALA797  LYS798  CYS799  TRP800  GLU811  SER814 

> <Gold.Protein.RotatedAtoms>
  151.8457  135.0575  160.0452 H   0  0  0  0  0  0  0  0  0  0  0  0  # atno 6907 bound_to 6896
  152.2775  133.5435  159.5485 H   0  0  0  0  0  0  0  0  0  0  0  0  # atno 6908 bound_to 6896
  150.7176  134.0527  159.3846 H   0  0  0  0  0  0  0  0  0  0  0  0  # atno 6909 bound_to 6896
  144.7535  139.8359  143.6358 H   0  0  0  0  0  0  0  0  0  0  0  0  # atno 7974 bound_to 7965
  156.2381  140.1893  156.7064 H   0  0  0  0  0  0  0  0  0  0  0  0  # atno 8008 bound_to 7997
  154.6144  140.0617  156.9562 H   0  0  0  0  0  0  0  0  0  0  0  0  # atno 8009 bound_to 7997
  155.1963  140.3288  155.4353 H   0  0  0  0  0  0  0  0  0  0  0  0  # atno 8010 bound_to 7997
  139.5528  144.2067  152.1106 H   0  0  0  0  0  0  0  0  0  0  0  0  # atno 10167 bound_to 10162
  156.1383  130.6447  150.9731 H   0  0  0  0  0  0  0  0  0  0  0  0  # atno 10718 bound_to 10713
  154.4983  135.5801  153.6512 H   0  0  0  0  0  0  0  0  0  0  0  0  # atno 10763 bound_to 10752
  152.9874  135.6129  154.3035 H   0  0  0  0  0  0  0  0  0  0  0  0  # atno 10764 bound_to 10752
  154.2940  135.2848  155.2621 H   0  0  0  0  0  0  0  0  0  0  0  0  # atno 10765 bound_to 10752
  139.8790  134.9292  156.5329 H   0  0  0  0  0  0  0  0  0  0  0  0  # atno 11005 bound_to 11000
  146.1516  139.4601  143.0045 LP  0  0  0  0  0  0  0  0  0  0  0  0  # atno 17320 bound_to 7965
  145.6860  141.0178  143.1581 LP  0  0  0  0  0  0  0  0  0  0  0  0  # atno 17321 bound_to 7965
  140.1565  144.5066  150.6657 LP  0  0  0  0  0  0  0  0  0  0  0  0  # atno 17342 bound_to 10162
  140.6794  143.2319  151.5423 LP  0  0  0  0  0  0  0  0  0  0  0  0  # atno 17343 bound_to 10162
  157.6552  131.0890  150.7962 LP  0  0  0  0  0  0  0  0  0  0  0  0  # atno 17370 bound_to 10713
  156.8040  130.4930  149.5365 LP  0  0  0  0  0  0  0  0  0  0  0  0  # atno 17371 bound_to 10713
  140.8367  133.8237  155.9035 LP  0  0  0  0  0  0  0  0  0  0  0  0  # atno 17394 bound_to 11000
  140.9277  134.2062  157.4885 LP  0  0  0  0  0  0  0  0  0  0  0  0  # atno 17395 bound_to 11000

$$$$
