AV-unprocessed.smi:1679|AV-procd|sdf|6736|dock5
  -GOLD-   22720 7483D 1   1.00000     0.00000
 Structure written by MMmdl.
 44 45  0  0  0  0  0  0  0  0  2 V2000
  153.4349  141.2489  160.1061 C   0  0  0  0  0  0  0  0  0  0  0  0
  152.4344  142.4003  159.9110 C   0  0  1  0  0  0  0  0  0  0  0  0
  152.8482  143.6280  160.7478 C   0  0  0  0  0  0  0  0  0  0  0  0
  151.8686  144.7973  160.5671 C   0  0  0  0  0  0  0  0  0  0  0  0
  151.7303  145.1758  159.0860 C   0  0  0  0  0  0  0  0  0  0  0  0
  151.3061  143.9632  158.2445 C   0  0  0  0  0  0  0  0  0  0  0  0
  152.2826  142.7807  158.4204 C   0  0  2  0  0  0  0  0  0  0  0  0
  151.7869  141.6387  157.7327 O   0  0  0  0  0  0  0  0  0  0  0  0
  150.4695  141.2506  158.0956 C   0  0  0  0  0  0  0  0  0  0  0  0
  150.0303  140.0925  157.1938 C   0  0  0  0  0  0  0  0  0  0  0  0
  149.0862  140.5595  156.1881 N   0  0  0  0  0  0  0  0  0  0  0  0
  149.2868  140.4900  154.8654 C   0  0  0  0  0  0  0  0  0  0  0  0
  150.2952  139.9918  154.3629 O   0  0  0  0  0  0  0  0  0  0  0  0
  148.1588  141.0446  153.9840 C   0  0  0  0  0  0  0  0  0  0  0  0
  146.8804  141.1822  154.7003 N   0  0  0  0  0  0  0  0  0  0  0  0
  146.3409  142.4738  154.8328 C   0  0  0  0  0  0  0  0  0  0  0  0
  145.1782  142.6958  155.4749 C   0  0  0  0  0  0  0  0  0  0  0  0
  144.4734  141.5524  156.0417 C   0  0  0  0  0  0  0  0  0  0  0  0
  143.4075  141.7358  156.6267 O   0  0  0  0  0  0  0  0  0  0  0  0
  145.0400  140.3195  155.8915 N   0  5  0  0  0  0  0  0  0  0  0  0
  146.2251  140.1093  155.2381 C   0  0  0  0  0  0  0  0  0  0  0  0
  146.7204  138.9882  155.1163 O   0  0  0  0  0  0  0  0  0  0  0  0
  154.4277  141.5207  159.7463 H   0  0  0  0  0  0  0  0  0  0  0  0
  153.1210  140.3530  159.5696 H   0  0  0  0  0  0  0  0  0  0  0  0
  153.5244  140.9815  161.1594 H   0  0  0  0  0  0  0  0  0  0  0  0
  151.4633  142.0598  160.2744 H   0  0  0  0  0  0  0  0  0  0  0  0
  152.9017  143.3586  161.8033 H   0  0  0  0  0  0  0  0  0  0  0  0
  153.8508  143.9484  160.4610 H   0  0  0  0  0  0  0  0  0  0  0  0
  150.8921  144.5233  160.9687 H   0  0  0  0  0  0  0  0  0  0  0  0
  152.2088  145.6597  161.1412 H   0  0  0  0  0  0  0  0  0  0  0  0
  151.0022  145.9796  158.9739 H   0  0  0  0  0  0  0  0  0  0  0  0
  152.6803  145.5640  158.7164 H   0  0  0  0  0  0  0  0  0  0  0  0
  150.3016  143.6536  158.5360 H   0  0  0  0  0  0  0  0  0  0  0  0
  151.2453  144.2593  157.1975 H   0  0  0  0  0  0  0  0  0  0  0  0
  153.2658  143.0564  158.0337 H   0  0  0  0  0  0  0  0  0  0  0  0
  150.4412  140.9331  159.1378 H   0  0  0  0  0  0  0  0  0  0  0  0
  149.7780  142.0880  157.9889 H   0  0  0  0  0  0  0  0  0  0  0  0
  150.8960  139.6430  156.7052 H   0  0  0  0  0  0  0  0  0  0  0  0
  149.5605  139.3154  157.7985 H   0  0  0  0  0  0  0  0  0  0  0  0
  148.2334  140.9850  156.5212 H   0  0  0  0  0  0  0  0  0  0  0  0
  148.4803  142.0100  153.5909 H   0  0  0  0  0  0  0  0  0  0  0  0
  148.0296  140.4071  153.1070 H   0  0  0  0  0  0  0  0  0  0  0  0
  146.9278  143.2652  154.3899 H   0  0  0  0  0  0  0  0  0  0  0  0
  144.7787  143.6947  155.5705 H   0  0  0  0  0  0  0  0  0  0  0  0
  1  2  1  0  0  0  0
  1 23  1  0  0  0  0
  1 24  1  0  0  0  0
  1 25  1  0  0  0  0
  2  7  1  0  0  0  0
  2  3  1  0  0  0  0
  2 26  1  0  0  0  0
  3  4  1  0  0  0  0
  3 27  1  0  0  0  0
  3 28  1  0  0  0  0
  4  5  1  0  0  0  0
  4 29  1  0  0  0  0
  4 30  1  0  0  0  0
  5  6  1  0  0  0  0
  5 31  1  0  0  0  0
  5 32  1  0  0  0  0
  6  7  1  0  0  0  0
  6 33  1  0  0  0  0
  6 34  1  0  0  0  0
  7  8  1  0  0  0  0
  7 35  1  0  0  0  0
  8  9  1  0  0  0  0
  9 10  1  0  0  0  0
  9 36  1  0  0  0  0
  9 37  1  0  0  0  0
 10 11  1  0  0  0  0
 10 38  1  0  0  0  0
 10 39  1  0  0  0  0
 11 12  1  0  0  0  0
 11 40  1  0  0  0  0
 12 13  2  0  0  0  0
 12 14  1  0  0  0  0
 14 15  1  0  0  0  0
 14 41  1  0  0  0  0
 14 42  1  0  0  0  0
 15 21  1  0  0  0  0
 15 16  1  0  0  0  0
 16 17  2  0  0  0  0
 16 43  1  0  0  0  0
 17 18  1  0  0  0  0
 17 44  1  0  0  0  0
 18 19  2  0  0  0  0
 18 20  1  0  0  0  0
 20 21  1  0  0  0  0
 21 22  2  0  0  0  0
M  CHG  1  20  -1
M  END
> <s_m_source_file>
AV-unprocessed.smi

> <i_m_source_file_index>
1679

> <i_lp_mmshare_version>
43012

> <i_f3d_flags>
0

> <s_epik_input>
W0NIM11bQ0BASF0xW0NIMl1bQ0gyXVtDSDJdW0NIMl1bQ0BIXTFPW0NIMl1bQ0gyXVtOSF1DKD1PKVtDSDJdbjJbY0hdW2NIXWMoPU8pW25IXWMyPU8=

> <s_epik_cmdline>
J2VwaWtfcHl0aG9uJywgJy1waCcsICc3LjAnLCAnLXRuJywgJzgnLCAnLW1hJywgJzIwMCcsICctbWV0YWxfYmluZGluZycsICctaW1hZScsICc8aW5maWxlLm1hZT4nLCAnLW9tYWUnLCAnPG91dGZpbGUubWFlPic=

> <r_lp_tautomer_probability>
0.999537

> <r_epik_Ionization_Penalty>
3.07454

> <r_epik_Ionization_Penalty_Charging>
2.80088e-08

> <r_epik_Ionization_Penalty_Neutral>
3.07454

> <r_epik_State_Penalty>
3.07357

> <r_epik_Charging_Adjusted_Penalty>
3.07357

> <i_epik_Tot_Q>
-1

> <i_epik_Tot_abs_Q>
1

> <r_epik_Metal_State_Penalty>
0.45948

> <b_epik_Metal_Only>
1

> <s_lp_Force_Field>
OPLS_2005

> <r_lp_Energy>
20.702

> <b_lp_Chiralities_Consistent>
1

> <s_lp_Variant>
AV-unprocessed.smi:1679-8

> <Gold.Version>
5.8.1

> <Gold.Id.Protein>
6NUR|6NUR_protein|mol2

> <Gold.PLP.Fitness>
46.9501

> <Gold.PLP.PLP>
-42.6853

> <Gold.PLP.part.hbond>
-1.0000

> <Gold.PLP.part.metal>
0.0000

> <Gold.PLP.part.buried>
-3.9504

> <Gold.PLP.part.nonpolar>
-38.4473

> <Gold.PLP.part.repulsive>
0.4481

> <Gold.PLP.ligand.clash>
0.0000

> <Gold.PLP.ligand.torsion>
0.5994

> <Gold.PLP.Chemscore.Hbond>
1.0000

> <Gold.PLP.Chemscore.CHOScore>
0.7901

> <Gold.PLP.Chemscore.Metal>
0.0000

> <Gold.Chemscore.Hbonds>
donor molecule, donor type, donor heavy atom, donor atom, acceptor molecule, acceptor atom, score
      P1  H  7989  7998       L1    13  1.00
      L1  C    16    43       P1  8028  0.40

> <Gold.PLP.Chemscore.Internal.Correction>
0.0932

> <Gold.Rescore>
     Score         DG    S(hbond)    S(metal)    S(lipo)     H(rot)  DE(clash)    DE(int)     intcor
     14.02     -14.78       0.97        0.00     105.26       2.45       0.07       0.70       ----

> <Gold.Chemscore.Fitness>
14.0174

> <Gold.Chemscore.DG>
-14.7786

> <Gold.Chemscore.ZeroCoef>
-5.4800

> <Gold.Chemscore.Hbond>
0.9739

> <Gold.Chemscore.Metal>
0.0000

> <Gold.Chemscore.Lipo>
105.2567

> <Gold.Chemscore.Internal_Hbond>
0.0000

> <Gold.Chemscore.DEClash>
0.0653

> <Gold.Chemscore.DEInternal>
0.6959

> <Gold.Chemscore.Rot>
2.4490

> <Gold.Chemscore.Internal.Correction>
   9.000000E+99

> <Gold.Chemscore.Hbonds>
donor molecule, donor type, donor heavy atom, donor atom, acceptor molecule, acceptor atom, score
      P1  H  7989  7998       L1    13  0.99

> <Gold.Chemscore.Hbond.Weighted>
-3.2529

> <Gold.Chemscore.Metal.Weighted>
-0.0000

> <Gold.Chemscore.Lipo.Weighted>
-12.3150

> <Gold.Chemscore.Internal_Hbond.Weighted>
0.0000

> <Gold.Chemscore.DEClash.Weighted>
0.0653

> <Gold.Chemscore.DEInternal.Weighted>
0.6959

> <Gold.Chemscore.Rot.Weighted>
6.2694

> <Gold.Chemscore.Internal.Correction.Weighted>
   9.000000E+99

> <Gold.Protein.RotatedTorsions>
[ 6907 6896 6895 6894 ] final   91.27 input  -60.11 | X-H torsion
[ 7974 7965 7964 7962 ] final  -82.55 input  175.53 | X-H torsion
[ 8008 7997 7996 7995 ] final  -70.54 input   59.86 | X-H torsion
[ 10167 10162 10161 10158 ] final  144.18 input  -65.29 | X-H torsion
[ 10718 10713 10712 10709 ] final  119.69 input   66.30 | X-H torsion
[ 10763 10752 10751 10750 ] final  164.56 input  -60.55 | X-H torsion
[ 11005 11000 10999 10996 ] final   12.84 input  -57.11 | X-H torsion

> <Gold.Protein.ActiveResidues>
 VAL166  LYS551  ARG553  GLY616  TRP617  ASP618  TYR619  PRO620  LYS621  CYS622 
 ASP623  PHE694  ASN695  SER759  ASP760  ASP761  ALA762  ILE779  LEU786  VAL792 
 PHE793  MET794  SER795  GLU796  ALA797  LYS798  CYS799  TRP800  GLU811  SER814 

> <Gold.Protein.RotatedAtoms>
  152.5449  134.1683  159.8585 H   0  0  0  0  0  0  0  0  0  0  0  0  # atno 6907 bound_to 6896
  151.1695  133.4786  159.2601 H   0  0  0  0  0  0  0  0  0  0  0  0  # atno 6908 bound_to 6896
  151.1289  135.0131  159.8628 H   0  0  0  0  0  0  0  0  0  0  0  0  # atno 6909 bound_to 6896
  145.5318  140.9520  143.1599 H   0  0  0  0  0  0  0  0  0  0  0  0  # atno 7974 bound_to 7965
  154.5020  140.0832  156.7816 H   0  0  0  0  0  0  0  0  0  0  0  0  # atno 8008 bound_to 7997
  155.3982  140.3436  155.4237 H   0  0  0  0  0  0  0  0  0  0  0  0  # atno 8009 bound_to 7997
  156.1468  140.1546  156.8822 H   0  0  0  0  0  0  0  0  0  0  0  0  # atno 8010 bound_to 7997
  139.4953  144.5990  151.6522 H   0  0  0  0  0  0  0  0  0  0  0  0  # atno 10167 bound_to 10162
  157.5944  131.1060  150.7931 H   0  0  0  0  0  0  0  0  0  0  0  0  # atno 10718 bound_to 10713
  154.3108  135.2757  155.2567 H   0  0  0  0  0  0  0  0  0  0  0  0  # atno 10763 bound_to 10752
  154.4963  135.5820  153.6500 H   0  0  0  0  0  0  0  0  0  0  0  0  # atno 10764 bound_to 10752
  152.9888  135.6147  154.3285 H   0  0  0  0  0  0  0  0  0  0  0  0  # atno 10765 bound_to 10752
  140.4874  134.0874  155.7764 H   0  0  0  0  0  0  0  0  0  0  0  0  # atno 11005 bound_to 11000
  144.7622  139.6929  143.7229 LP  0  0  0  0  0  0  0  0  0  0  0  0  # atno 17320 bound_to 7965
  146.2039  139.5351  142.9725 LP  0  0  0  0  0  0  0  0  0  0  0  0  # atno 17321 bound_to 7965
  140.5634  144.0230  150.6181 LP  0  0  0  0  0  0  0  0  0  0  0  0  # atno 17342 bound_to 10162
  140.3323  143.3070  152.0674 LP  0  0  0  0  0  0  0  0  0  0  0  0  # atno 17343 bound_to 10162
  156.8345  130.5027  149.5328 LP  0  0  0  0  0  0  0  0  0  0  0  0  # atno 17370 bound_to 10713
  156.1004  130.5964  150.9884 LP  0  0  0  0  0  0  0  0  0  0  0  0  # atno 17371 bound_to 10713
  141.1501  133.8984  157.2119 LP  0  0  0  0  0  0  0  0  0  0  0  0  # atno 17394 bound_to 11000
  139.9789  135.0105  156.9701 LP  0  0  0  0  0  0  0  0  0  0  0  0  # atno 17395 bound_to 11000

$$$$
