AV-unprocessed.smi:3133|AV-procd|sdf|11937|dock7
  -GOLD-   2272017323D 1   1.00000     0.00000
 Structure written by MMmdl.
 32 33  0  0  0  0  0  0  0  0  1 V2000
  150.7156  138.1445  154.4768 C   0  0  0  0  0  0  0  0  0  0  0  0
  150.9330  139.6464  154.7536 C   0  0  2  0  0  0  0  0  0  0  0  0
  151.7210  139.9124  156.0479 C   0  0  0  0  0  0  0  0  0  0  0  0
  152.7445  139.2772  156.3042 O   0  0  0  0  0  0  0  0  0  0  0  0
  151.2328  140.8696  156.8537 N   0  0  0  0  0  0  0  0  0  0  0  0
  151.8107  141.2838  158.1281 C   0  0  0  0  0  0  0  0  0  0  0  0
  151.2525  142.6387  158.5941 C   0  0  2  0  0  0  0  0  0  0  0  0
  151.7777  143.8552  157.8287 C   0  0  0  0  0  0  0  0  0  0  0  0
  151.6142  144.9539  158.8531 C   0  0  0  0  0  0  0  0  0  0  0  0
  152.0004  144.2307  160.1390 C   0  0  0  0  0  0  0  0  0  0  0  0
  151.6065  142.8732  159.9553 O   0  0  0  0  0  0  0  0  0  0  0  0
  149.6761  140.3860  154.7570 N   0  0  0  0  0  0  0  0  0  0  0  0
  148.5935  140.2345  155.5230 C   0  0  0  0  0  0  0  0  0  0  0  0
  147.6015  141.0614  155.2239 N   0  0  0  0  0  0  0  0  0  0  0  0
  148.1747  141.7384  154.1851 C   0  0  0  0  0  0  0  0  0  0  0  0
  149.4128  141.3682  153.8590 N   0  0  0  0  0  0  0  0  0  0  0  0
  151.6661  137.6132  154.4156 H   0  0  0  0  0  0  0  0  0  0  0  0
  150.1983  137.9959  153.5286 H   0  0  0  0  0  0  0  0  0  0  0  0
  150.1195  137.6670  155.2556 H   0  0  0  0  0  0  0  0  0  0  0  0
  151.5339  140.0407  153.9325 H   0  0  0  0  0  0  0  0  0  0  0  0
  150.3895  141.3440  156.5656 H   0  0  0  0  0  0  0  0  0  0  0  0
  151.5654  140.5189  158.8651 H   0  0  0  0  0  0  0  0  0  0  0  0
  152.9004  141.3158  158.0769 H   0  0  0  0  0  0  0  0  0  0  0  0
  150.1626  142.6280  158.5424 H   0  0  0  0  0  0  0  0  0  0  0  0
  152.8335  143.7312  157.5840 H   0  0  0  0  0  0  0  0  0  0  0  0
  151.2324  144.0460  156.9041 H   0  0  0  0  0  0  0  0  0  0  0  0
  152.2346  145.8275  158.6510 H   0  0  0  0  0  0  0  0  0  0  0  0
  150.5723  145.2737  158.8979 H   0  0  0  0  0  0  0  0  0  0  0  0
  153.0814  144.2603  160.2805 H   0  0  0  0  0  0  0  0  0  0  0  0
  151.5309  144.6678  161.0205 H   0  0  0  0  0  0  0  0  0  0  0  0
  148.5279  139.5009  156.3130 H   0  0  0  0  0  0  0  0  0  0  0  0
  147.6616  142.5240  153.6500 H   0  0  0  0  0  0  0  0  0  0  0  0
  1  2  1  0  0  0  0
  1 17  1  0  0  0  0
  1 18  1  0  0  0  0
  1 19  1  0  0  0  0
  2  3  1  0  0  0  0
  2 12  1  0  0  0  0
  2 20  1  0  0  0  0
  3  4  2  0  0  0  0
  3  5  1  0  0  0  0
  5  6  1  0  0  0  0
  5 21  1  0  0  0  0
  6  7  1  0  0  0  0
  6 22  1  0  0  0  0
  6 23  1  0  0  0  0
  7 11  1  0  0  0  0
  7  8  1  0  0  0  0
  7 24  1  0  0  0  0
  8  9  1  0  0  0  0
  8 25  1  0  0  0  0
  8 26  1  0  0  0  0
  9 10  1  0  0  0  0
  9 27  1  0  0  0  0
  9 28  1  0  0  0  0
 10 11  1  0  0  0  0
 10 29  1  0  0  0  0
 10 30  1  0  0  0  0
 12 16  1  0  0  0  0
 12 13  1  0  0  0  0
 13 14  2  0  0  0  0
 13 31  1  0  0  0  0
 14 15  1  0  0  0  0
 15 16  2  0  0  0  0
 15 32  1  0  0  0  0
M  END
> <s_m_source_file>
AV-unprocessed.smi

> <i_m_source_file_index>
3133

> <i_lp_mmshare_version>
43012

> <i_f3d_flags>
0

> <s_epik_input>
bjFbY0hdbltjSF1uMVtDQEhdKFtDSDNdKUMoPU8pW05IXVtDSDJdW0NAQEhdMltDSDJdW0NIMl1bQ0gyXU8y

> <s_epik_cmdline>
J2VwaWtfcHl0aG9uJywgJy1waCcsICc3LjAnLCAnLXRuJywgJzgnLCAnLW1hJywgJzIwMCcsICctbWV0YWxfYmluZGluZycsICctaW1hZScsICc8aW5maWxlLm1hZT4nLCAnLW9tYWUnLCAnPG91dGZpbGUubWFlPic=

> <r_lp_tautomer_probability>
1

> <r_epik_Ionization_Penalty>
1.2027e-05

> <r_epik_Ionization_Penalty_Charging>
0

> <r_epik_Ionization_Penalty_Neutral>
1.2027e-05

> <r_epik_State_Penalty>
-0

> <r_epik_Charging_Adjusted_Penalty>
0

> <i_epik_Tot_Q>
0

> <i_epik_Tot_abs_Q>
0

> <r_epik_Metal_State_Penalty>
-0

> <b_epik_Metal_Only>
0

> <s_lp_Force_Field>
OPLS_2005

> <r_lp_Energy>
23.5717

> <b_lp_Chiralities_Consistent>
1

> <s_lp_Variant>
AV-unprocessed.smi:3133-1

> <Gold.Version>
5.8.1

> <Gold.Id.Protein>
6NUR|6NUR_protein|mol2

> <Gold.PLP.Fitness>
39.0446

> <Gold.PLP.PLP>
-34.3982

> <Gold.PLP.part.hbond>
-3.0000

> <Gold.PLP.part.metal>
0.0000

> <Gold.PLP.part.buried>
-2.7798

> <Gold.PLP.part.nonpolar>
-29.5244

> <Gold.PLP.part.repulsive>
1.2956

> <Gold.PLP.ligand.clash>
0.0000

> <Gold.PLP.ligand.torsion>
0.4595

> <Gold.PLP.Chemscore.Hbond>
1.8160

> <Gold.PLP.Chemscore.CHOScore>
0.0000

> <Gold.PLP.Chemscore.Metal>
0.0000

> <Gold.Chemscore.Hbonds>
donor molecule, donor type, donor heavy atom, donor atom, acceptor molecule, acceptor atom, score
      P1  H  7997  8008       L1     4  1.00
      P1  H  8011  8017       L1    16  0.78

> <Gold.PLP.Chemscore.Internal.Correction>
0.1174

> <Gold.Rescore>
     Score         DG    S(hbond)    S(metal)    S(lipo)     H(rot)  DE(clash)    DE(int)     intcor
     11.85     -13.46       1.64        0.00      70.72       2.26       0.20       1.41       ----

> <Gold.Chemscore.Fitness>
11.8535

> <Gold.Chemscore.DG>
-13.4604

> <Gold.Chemscore.ZeroCoef>
-5.4800

> <Gold.Chemscore.Hbond>
1.6409

> <Gold.Chemscore.Metal>
0.0000

> <Gold.Chemscore.Lipo>
70.7238

> <Gold.Chemscore.Internal_Hbond>
0.0000

> <Gold.Chemscore.DEClash>
0.1966

> <Gold.Chemscore.DEInternal>
1.4104

> <Gold.Chemscore.Rot>
2.2558

> <Gold.Chemscore.Internal.Correction>
   9.000000E+99

> <Gold.Chemscore.Hbonds>
donor molecule, donor type, donor heavy atom, donor atom, acceptor molecule, acceptor atom, score
      P1  H  7997  8008       L1     4  0.98
      P1  H  8011  8017       L1    16  0.35

> <Gold.Chemscore.Hbond.Weighted>
-5.4805

> <Gold.Chemscore.Metal.Weighted>
-0.0000

> <Gold.Chemscore.Lipo.Weighted>
-8.2747

> <Gold.Chemscore.Internal_Hbond.Weighted>
0.0000

> <Gold.Chemscore.DEClash.Weighted>
0.1966

> <Gold.Chemscore.DEInternal.Weighted>
1.4104

> <Gold.Chemscore.Rot.Weighted>
5.7747

> <Gold.Chemscore.Internal.Correction.Weighted>
   9.000000E+99

> <Gold.Protein.RotatedTorsions>
[ 6907 6896 6895 6894 ] final  122.41 input  -60.11 | X-H torsion
[ 7974 7965 7964 7962 ] final   33.74 input  175.53 | X-H torsion
[ 8008 7997 7996 7995 ] final  -41.74 input   59.86 | X-H torsion
[ 10167 10162 10161 10158 ] final -145.80 input  -65.29 | X-H torsion
[ 10718 10713 10712 10709 ] final   32.19 input   66.30 | X-H torsion
[ 10763 10752 10751 10750 ] final  170.54 input  -60.55 | X-H torsion
[ 11005 11000 10999 10996 ] final   62.88 input  -57.11 | X-H torsion

> <Gold.Protein.ActiveResidues>
 VAL166  LYS551  ARG553  GLY616  TRP617  ASP618  TYR619  PRO620  LYS621  CYS622 
 ASP623  PHE694  ASN695  SER759  ASP760  ASP761  ALA762  ILE779  LEU786  VAL792 
 PHE793  MET794  SER795  GLU796  ALA797  LYS798  CYS799  TRP800  GLU811  SER814 

> <Gold.Protein.RotatedAtoms>
  152.4245  133.7172  159.6512 H   0  0  0  0  0  0  0  0  0  0  0  0  # atno 6907 bound_to 6896
  150.8121  133.8392  159.3183 H   0  0  0  0  0  0  0  0  0  0  0  0  # atno 6908 bound_to 6896
  151.6099  135.1043  160.0130 H   0  0  0  0  0  0  0  0  0  0  0  0  # atno 6909 bound_to 6896
  146.1400  139.6358  142.9169 H   0  0  0  0  0  0  0  0  0  0  0  0  # atno 7974 bound_to 7965
  154.4002  140.1491  156.3241 H   0  0  0  0  0  0  0  0  0  0  0  0  # atno 8008 bound_to 7997
  155.8503  140.3458  155.5668 H   0  0  0  0  0  0  0  0  0  0  0  0  # atno 8009 bound_to 7997
  155.7991  140.0867  157.1957 H   0  0  0  0  0  0  0  0  0  0  0  0  # atno 8010 bound_to 7997
  139.7772  143.8152  152.2633 H   0  0  0  0  0  0  0  0  0  0  0  0  # atno 10167 bound_to 10162
  157.2821  130.7260  149.6562 H   0  0  0  0  0  0  0  0  0  0  0  0  # atno 10718 bound_to 10713
  154.3991  135.2755  155.2107 H   0  0  0  0  0  0  0  0  0  0  0  0  # atno 10763 bound_to 10752
  154.4141  135.6015  153.5974 H   0  0  0  0  0  0  0  0  0  0  0  0  # atno 10764 bound_to 10752
  152.9831  135.5956  154.4257 H   0  0  0  0  0  0  0  0  0  0  0  0  # atno 10765 bound_to 10752
  140.0062  134.6366  155.9852 H   0  0  0  0  0  0  0  0  0  0  0  0  # atno 11005 bound_to 11000
  145.5068  141.0436  143.2510 LP  0  0  0  0  0  0  0  0  0  0  0  0  # atno 17320 bound_to 7965
  144.7782  139.6583  143.7166 LP  0  0  0  0  0  0  0  0  0  0  0  0  # atno 17321 bound_to 7965
  139.8204  144.7298  150.9580 LP  0  0  0  0  0  0  0  0  0  0  0  0  # atno 17342 bound_to 10162
  140.7817  143.4164  151.0910 LP  0  0  0  0  0  0  0  0  0  0  0  0  # atno 17343 bound_to 10162
  155.9664  130.4335  150.5009 LP  0  0  0  0  0  0  0  0  0  0  0  0  # atno 17370 bound_to 10713
  157.2954  131.0634  151.2105 LP  0  0  0  0  0  0  0  0  0  0  0  0  # atno 17371 bound_to 10713
  141.1678  133.6537  156.4543 LP  0  0  0  0  0  0  0  0  0  0  0  0  # atno 17394 bound_to 11000
  140.4637  134.6817  157.5097 LP  0  0  0  0  0  0  0  0  0  0  0  0  # atno 17395 bound_to 11000

$$$$
