AV-unprocessed.smi:1013|AV-procd|sdf|4429|dock4
  -GOLD-   22720 2383D 1   1.00000     0.00000
 Structure written by MMmdl.
 29 30  0  0  0  0  0  0  0  0  2 V2000
  152.0975  137.3888  154.6495 O   0  0  0  0  0  0  0  0  0  0  0  0
  152.2821  138.5590  155.0540 C   0  0  0  0  0  0  0  0  0  0  0  0
  153.2190  139.3052  154.6951 O   0  5  0  0  0  0  0  0  0  0  0  0
  151.2826  139.1435  156.0615 C   0  0  1  0  0  0  0  0  0  0  0  0
  151.6666  140.6121  156.3635 C   0  0  0  0  0  0  0  0  0  0  0  0
  152.0482  140.8411  157.7448 N   0  0  0  0  0  0  0  0  0  0  0  0
  151.4464  141.6614  158.6739 C   0  0  0  0  0  0  0  0  0  0  0  0
  152.1627  141.5562  159.8314 C   0  0  0  0  0  0  0  0  0  0  0  0
  153.2072  140.6408  159.5107 C   0  0  0  0  0  0  0  0  0  0  0  0
  154.3137  140.1368  160.3989 C   0  0  0  0  0  0  0  0  0  0  0  0
  155.4980  140.4671  159.8841 F   0  0  0  0  0  0  0  0  0  0  0  0
  154.2110  140.6734  161.6150 F   0  0  0  0  0  0  0  0  0  0  0  0
  154.2418  138.8104  160.5091 F   0  0  0  0  0  0  0  0  0  0  0  0
  153.1340  140.2216  158.2548 N   0  0  0  0  0  0  0  0  0  0  0  0
  149.9058  139.0252  155.5501 N   0  0  0  0  0  0  0  0  0  0  0  0
  149.6860  139.8880  154.4028 C   0  0  0  0  0  0  0  0  0  0  0  0
  149.1705  141.2829  154.6653 C   0  0  0  0  0  0  0  0  0  0  0  0
  148.2554  140.2371  154.0714 C   0  0  0  0  0  0  0  0  0  0  0  0
  151.3813  138.5433  156.9679 H   0  0  0  0  0  0  0  0  0  0  0  0
  152.5066  140.9226  155.7395 H   0  0  0  0  0  0  0  0  0  0  0  0
  150.8397  141.2795  156.1155 H   0  0  0  0  0  0  0  0  0  0  0  0
  150.5656  142.2401  158.4378 H   0  0  0  0  0  0  0  0  0  0  0  0
  151.9701  142.0583  160.7677 H   0  0  0  0  0  0  0  0  0  0  0  0
  149.2424  139.2607  156.2748 H   0  0  0  0  0  0  0  0  0  0  0  0
  150.3371  139.7895  153.5378 H   0  0  0  0  0  0  0  0  0  0  0  0
  148.9970  141.5750  155.6994 H   0  0  0  0  0  0  0  0  0  0  0  0
  149.5224  142.0770  154.0100 H   0  0  0  0  0  0  0  0  0  0  0  0
  147.9944  140.3372  153.0199 H   0  0  0  0  0  0  0  0  0  0  0  0
  147.4705  139.8363  154.7101 H   0  0  0  0  0  0  0  0  0  0  0  0
  1  2  2  0  0  0  0
  2  3  1  0  0  0  0
  2  4  1  0  0  0  0
  4  5  1  0  0  0  0
  4 15  1  0  0  0  0
  4 19  1  0  0  0  0
  5  6  1  0  0  0  0
  5 20  1  0  0  0  0
  5 21  1  0  0  0  0
  6 14  1  0  0  0  0
  6  7  1  0  0  0  0
  7  8  2  0  0  0  0
  7 22  1  0  0  0  0
  8  9  1  0  0  0  0
  8 23  1  0  0  0  0
  9 10  1  0  0  0  0
  9 14  2  0  0  0  0
 10 11  1  0  0  0  0
 10 12  1  0  0  0  0
 10 13  1  0  0  0  0
 15 16  1  0  0  0  0
 15 24  1  0  0  0  0
 16 18  1  0  0  0  0
 16 17  1  0  0  0  0
 16 25  1  0  0  0  0
 17 18  1  0  0  0  0
 17 26  1  0  0  0  0
 17 27  1  0  0  0  0
 18 28  1  0  0  0  0
 18 29  1  0  0  0  0
M  CHG  1   3  -1
M  END
> <s_m_source_file>
AV-unprocessed.smi

> <i_m_source_file_index>
1013

> <i_lp_mmshare_version>
43012

> <i_f3d_flags>
0

> <s_epik_input>
W0NIMl0xW0NIMl1bQ0hdMVtOSF1bQ0BIXShDKD1PKVtPSF0pW0NIMl1uMltjSF1bY0hdYyhuMilDKEYpKEYpRg==

> <s_epik_cmdline>
J2VwaWtfcHl0aG9uJywgJy1waCcsICc3LjAnLCAnLXRuJywgJzgnLCAnLW1hJywgJzIwMCcsICctbWV0YWxfYmluZGluZycsICctaW1hZScsICc8aW5maWxlLm1hZT4nLCAnLW9tYWUnLCAnPG91dGZpbGUubWFlPic=

> <r_lp_tautomer_probability>
1

> <r_epik_Ionization_Penalty>
0.786284

> <r_epik_Ionization_Penalty_Charging>
0.00153368

> <r_epik_Ionization_Penalty_Neutral>
0.78475

> <r_epik_State_Penalty>
0.814638

> <r_epik_Charging_Adjusted_Penalty>
0.816172

> <i_epik_Tot_Q>
-1

> <i_epik_Tot_abs_Q>
1

> <r_epik_Metal_State_Penalty>
0.814638

> <b_epik_Metal_Only>
0

> <s_lp_Force_Field>
OPLS_2005

> <r_lp_Energy>
17.111

> <b_lp_Chiralities_Consistent>
1

> <s_lp_Variant>
AV-unprocessed.smi:1013-4

> <Gold.Version>
5.8.1

> <Gold.Id.Protein>
6NUR|6NUR_protein|mol2

> <Gold.PLP.Fitness>
47.4608

> <Gold.PLP.PLP>
-35.8469

> <Gold.PLP.part.hbond>
-3.7535

> <Gold.PLP.part.metal>
0.0000

> <Gold.PLP.part.buried>
-3.1480

> <Gold.PLP.part.nonpolar>
-28.4687

> <Gold.PLP.part.repulsive>
0.1279

> <Gold.PLP.ligand.clash>
0.0000

> <Gold.PLP.ligand.torsion>
1.1185

> <Gold.PLP.Chemscore.Hbond>
4.3944

> <Gold.PLP.Chemscore.CHOScore>
0.0000

> <Gold.PLP.Chemscore.Metal>
0.0000

> <Gold.Chemscore.Hbonds>
donor molecule, donor type, donor heavy atom, donor atom, acceptor molecule, acceptor atom, score
      P1  H  7997  8009       L1    14  0.61
      P1  H  7997  8010       L1     3  2.00
      P1  H 10752 10765       L1     1  1.66

> <Gold.PLP.Chemscore.Internal.Correction>
0.6677

> <Gold.Rescore>
     Score         DG    S(hbond)    S(metal)    S(lipo)     H(rot)  DE(clash)    DE(int)     intcor
     13.50     -15.01       2.37        0.00      68.80       2.52       0.33       1.17       ----

> <Gold.Chemscore.Fitness>
13.5000

> <Gold.Chemscore.DG>
-15.0056

> <Gold.Chemscore.ZeroCoef>
-5.4800

> <Gold.Chemscore.Hbond>
2.3703

> <Gold.Chemscore.Metal>
0.0000

> <Gold.Chemscore.Lipo>
68.7961

> <Gold.Chemscore.Internal_Hbond>
0.0000

> <Gold.Chemscore.DEClash>
0.3338

> <Gold.Chemscore.DEInternal>
1.1718

> <Gold.Chemscore.Rot>
2.5157

> <Gold.Chemscore.Internal.Correction>
   9.000000E+99

> <Gold.Chemscore.Hbonds>
donor molecule, donor type, donor heavy atom, donor atom, acceptor molecule, acceptor atom, score
      P1  H  7997  8009       L1    14  0.54
      P1  H  7997  8010       L1     3  0.93
      P1  H 10752 10765       L1     1  0.82

> <Gold.Chemscore.Hbond.Weighted>
-7.9166

> <Gold.Chemscore.Metal.Weighted>
-0.0000

> <Gold.Chemscore.Lipo.Weighted>
-8.0491

> <Gold.Chemscore.Internal_Hbond.Weighted>
0.0000

> <Gold.Chemscore.DEClash.Weighted>
0.3338

> <Gold.Chemscore.DEInternal.Weighted>
1.1718

> <Gold.Chemscore.Rot.Weighted>
6.4402

> <Gold.Chemscore.Internal.Correction.Weighted>
   9.000000E+99

> <Gold.Protein.RotatedTorsions>
[ 6907 6896 6895 6894 ] final    2.23 input  -60.11 | X-H torsion
[ 7974 7965 7964 7962 ] final  101.47 input  175.53 | X-H torsion
[ 8008 7997 7996 7995 ] final  130.38 input   59.86 | X-H torsion
[ 10167 10162 10161 10158 ] final  -59.28 input  -65.29 | X-H torsion
[ 10718 10713 10712 10709 ] final -147.49 input   66.30 | X-H torsion
[ 10763 10752 10751 10750 ] final  169.46 input  -60.55 | X-H torsion
[ 11005 11000 10999 10996 ] final   99.75 input  -57.11 | X-H torsion

> <Gold.Protein.ActiveResidues>
 VAL166  LYS551  ARG553  GLY616  TRP617  ASP618  TYR619  PRO620  LYS621  CYS622 
 ASP623  PHE694  ASN695  SER759  ASP760  ASP761  ALA762  ILE779  LEU786  VAL792 
 PHE793  MET794  SER795  GLU796  ALA797  LYS798  CYS799  TRP800  GLU811  SER814 

> <Gold.Protein.RotatedAtoms>
  151.6055  135.1044  160.0069 H   0  0  0  0  0  0  0  0  0  0  0  0  # atno 6907 bound_to 6896
  152.4235  133.7152  159.6512 H   0  0  0  0  0  0  0  0  0  0  0  0  # atno 6908 bound_to 6896
  150.8123  133.8326  159.3198 H   0  0  0  0  0  0  0  0  0  0  0  0  # atno 6909 bound_to 6896
  145.3718  139.2396  143.3451 H   0  0  0  0  0  0  0  0  0  0  0  0  # atno 7974 bound_to 7965
  156.2953  140.2597  156.2752 H   0  0  0  0  0  0  0  0  0  0  0  0  # atno 8008 bound_to 7997
  154.9656  140.0392  157.2229 H   0  0  0  0  0  0  0  0  0  0  0  0  # atno 8009 bound_to 7997
  154.7906  140.2811  155.5999 H   0  0  0  0  0  0  0  0  0  0  0  0  # atno 8010 bound_to 7997
  140.6144  143.2397  151.5631 H   0  0  0  0  0  0  0  0  0  0  0  0  # atno 10167 bound_to 10162
  156.4082  130.7968  151.2183 H   0  0  0  0  0  0  0  0  0  0  0  0  # atno 10718 bound_to 10713
  154.3835  135.2753  155.2197 H   0  0  0  0  0  0  0  0  0  0  0  0  # atno 10763 bound_to 10752
  154.4294  135.5981  153.6063 H   0  0  0  0  0  0  0  0  0  0  0  0  # atno 10764 bound_to 10752
  152.9834  135.5992  154.4080 H   0  0  0  0  0  0  0  0  0  0  0  0  # atno 10765 bound_to 10752
  139.8770  134.9110  156.4653 H   0  0  0  0  0  0  0  0  0  0  0  0  # atno 11005 bound_to 11000
  146.2882  140.4371  142.8750 LP  0  0  0  0  0  0  0  0  0  0  0  0  # atno 17320 bound_to 7965
  144.8570  140.7085  143.6131 LP  0  0  0  0  0  0  0  0  0  0  0  0  # atno 17321 bound_to 7965
  139.5387  144.2708  152.1306 LP  0  0  0  0  0  0  0  0  0  0  0  0  # atno 17342 bound_to 10162
  140.1914  144.4748  150.6477 LP  0  0  0  0  0  0  0  0  0  0  0  0  # atno 17343 bound_to 10162
  157.7506  131.0266  150.3968 LP  0  0  0  0  0  0  0  0  0  0  0  0  # atno 17370 bound_to 10713
  156.4261  130.3962  149.6792 LP  0  0  0  0  0  0  0  0  0  0  0  0  # atno 17371 bound_to 10713
  140.8834  133.7901  155.9492 LP  0  0  0  0  0  0  0  0  0  0  0  0  # atno 17394 bound_to 11000
  140.8830  134.2589  157.5134 LP  0  0  0  0  0  0  0  0  0  0  0  0  # atno 17395 bound_to 11000

$$$$
