#       Name:                AV-unprocessed.smi:3141
#       Creating user name   scv26
#       Creation time:       Fri Mar 27 17:36:56 2020


#       File generated by GOLD software.
#

@<TRIPOS>MOLECULE
AV-unprocessed.smi:3141
    38    40     1
SMALL
NO_CHARGES


@<TRIPOS>ATOM
      1 ****        -0.7175   2.4533   0.0270 O.2            1 S1                 0.0000
      2 ****        -1.0776   1.3280   0.3730 C.2            1 S1                 0.0000
      3 ****        -2.3361   1.0042   0.6976 N.am           1 S1                 0.0000
      4 ****        -3.4482   1.8982   0.6919 C.3            1 S1                 0.0000
      5 ****        -4.5300   1.6765   1.7267 C.3            1 S1                 0.0000
      6 ****        -4.7955   1.3416   0.2851 C.3            1 S1                 0.0000
      7 ****        -0.2565   0.2735   0.4691 N.am           1 S1                 0.0000
      8 ****         1.1697   0.2890   0.1563 C.3            1 S1                 0.0000
      9 ****         2.0122   0.7449   1.3659 C.3            1 S1                 0.0000
     10 ****         2.8551  -0.4621   1.7870 C.3            1 S1                 0.0000
     11 ****         3.0214  -1.2776   0.5083 C.3            1 S1                 0.0000
     12 ****         1.6645  -1.1314  -0.1892 C.3            1 S1                 0.0000
     13 ****         1.7077  -1.3924  -1.6196 N.pl3          1 S1                 0.0000
     14 ****         0.9122  -2.2886  -2.3223 C.2            1 S1                 0.0000
     15 ****         1.2803  -2.1926  -3.6450 C.2            1 S1                 0.0000
     16 ****         2.2894  -1.2432  -3.7825 N.2            1 S1                 0.0000
     17 ****         2.4862  -0.8098  -2.5442 C.2            1 S1                 0.0000
     18 ****        -2.5242   0.0505   0.9691 H              1 S1                 0.0000
     19 ****        -3.2561   2.9342   0.4159 H              1 S1                 0.0000
     20 ****        -4.4099   0.8467   2.4206 H              1 S1                 0.0000
     21 ****        -5.0195   2.5577   2.1362 H              1 S1                 0.0000
     22 ****        -5.4627   1.9990  -0.2684 H              1 S1                 0.0000
     23 ****        -4.8513   0.2885   0.0158 H              1 S1                 0.0000
     24 ****        -0.6475  -0.6087   0.7652 H              1 S1                 0.0000
     25 ****         1.3575   0.9693  -0.6770 H              1 S1                 0.0000
     26 ****         2.6716   1.5569   1.0565 H              1 S1                 0.0000
     27 ****         1.4112   1.1229   2.1943 H              1 S1                 0.0000
     28 ****         3.8093  -0.1736   2.2286 H              1 S1                 0.0000
     29 ****         2.3100  -1.0498   2.5270 H              1 S1                 0.0000
     30 ****         3.8213  -0.8438  -0.0928 H              1 S1                 0.0000
     31 ****         3.2805  -2.3181   0.7062 H              1 S1                 0.0000
     32 ****         0.9936  -1.8646   0.2635 H              1 S1                 0.0000
     33 ****         0.1690  -2.9039  -1.8371 H              1 S1                 0.0000
     34 ****         0.8962  -2.7263  -4.5019 H              1 S1                 0.0000
     35 ****         3.2127  -0.0467  -2.3055 H              1 S1                 0.0000
     36 ****        -1.3836   3.1973  -0.0256 LP             1 S1                 0.0000
     37 ****         0.2411   2.6233  -0.2015 LP             1 S1                 0.0000
     38 ****         2.7564  -0.9555  -4.6187 LP             1 S1                 0.0000
@<TRIPOS>BOND
    1    1    2 2     
    2    2    3 am    
    3    2    7 am    
    4    3    4 1     
    5    3   18 1     
    6    4    6 1     
    7    4    5 1     
    8    4   19 1     
    9    5    6 1     
   10    5   20 1     
   11    5   21 1     
   12    6   22 1     
   13    6   23 1     
   14    7    8 1     
   15    7   24 1     
   16    8   12 1     
   17    8    9 1     
   18    8   25 1     
   19    9   10 1     
   20    9   26 1     
   21    9   27 1     
   22   10   11 1     
   23   10   28 1     
   24   10   29 1     
   25   11   12 1     
   26   11   30 1     
   27   11   31 1     
   28   12   13 1     
   29   12   32 1     
   30   13   17 1     
   31   13   14 1     
   32   14   15 2     
   33   14   33 1     
   34   15   16 1     
   35   15   34 1     
   36   16   17 2     
   37   17   35 1     
   38    1   36 1     
   39    1   37 1     
   40   16   38 1     
@<TRIPOS>SUBSTRUCTURE
      1 S1             1
@<TRIPOS>SET
LONE_PAIRS      STATIC     ATOMS    <user>   **** ""
3 36 37 38
DONOR_HYDROGENS      STATIC     ATOMS    <user>   **** ""
2 18 24
ATOM$BLUE        STATIC     ATOMS    COLORGROUP SYSTEM
3 36 37 38
ATOM$RED        STATIC     ATOMS    COLORGROUP SYSTEM
2 18 24
