AV-unprocessed.smi:907|AV-procd|sdf|4106|dock8
  -GOLD-   22720 2 03D 1   1.00000     0.00000
 Structure written by MMmdl.
 53 56  0  0  0  0  0  0  0  0  2 V2000
  152.4947  139.9764  155.7987 O   0  0  0  0  0  0  0  0  0  0  0  0
  151.3026  139.6748  155.7297 C   0  0  0  0  0  0  0  0  0  0  0  0
  150.4058  140.0893  156.6411 N   0  0  0  0  0  0  0  0  0  0  0  0
  150.7080  140.9447  157.7833 C   0  0  0  0  0  0  0  0  0  0  0  0
  150.6908  142.4331  157.3964 C   0  0  0  0  0  0  0  0  0  0  0  0
  151.2221  143.3203  158.5057 C   0  0  0  0  0  0  0  0  0  0  0  0
  151.4404  144.6965  158.2819 C   0  0  0  0  0  0  0  0  0  0  0  0
  151.9284  145.4801  159.3453 C   0  0  0  0  0  0  0  0  0  0  0  0
  152.1763  144.8608  160.5854 C   0  0  0  0  0  0  0  0  0  0  0  0
  151.9241  143.4796  160.7073 C   0  0  0  0  0  0  0  0  0  0  0  0
  151.4563  142.7190  159.6940 N   0  0  0  0  0  0  0  0  0  0  0  0
  150.8020  138.8530  154.7737 N   0  0  0  0  0  0  0  0  0  0  0  0
  151.5124  137.7400  154.1310 C   0  0  0  0  0  0  0  0  0  0  0  0
  150.9920  136.4135  154.7156 C   0  0  0  0  0  0  0  0  0  0  0  0
  149.5125  136.2854  154.5711 N   0  3  0  0  0  0  0  0  0  0  0  0
  148.9914  135.0068  155.1348 C   0  0  2  0  0  0  0  0  0  0  0  0
  149.4870  133.7368  154.4003 C   0  0  0  0  0  0  0  0  0  0  0  0
  148.1875  132.9497  154.1451 C   0  0  2  0  0  0  0  0  0  0  0  0
  147.4246  133.6152  152.9870 C   0  0  0  0  0  0  0  0  0  0  0  0
  146.9277  134.9248  153.6243 C   0  0  0  0  0  0  0  0  0  0  0  0
  147.4534  134.8279  155.0735 C   0  0  1  0  0  0  0  0  0  0  0  0
  147.3264  133.3321  155.3430 C   0  0  0  0  0  0  0  0  0  0  0  0
  148.7922  137.4893  155.0777 C   0  0  0  0  0  0  0  0  0  0  0  0
  149.3683  138.7866  154.4829 C   0  0  0  0  0  0  0  0  0  0  0  0
  149.4488  139.7839  156.5411 H   0  0  0  0  0  0  0  0  0  0  0  0
  149.9996  140.7522  158.5909 H   0  0  0  0  0  0  0  0  0  0  0  0
  151.6923  140.6695  158.1632 H   0  0  0  0  0  0  0  0  0  0  0  0
  151.2881  142.5933  156.4976 H   0  0  0  0  0  0  0  0  0  0  0  0
  149.6764  142.7483  157.1488 H   0  0  0  0  0  0  0  0  0  0  0  0
  151.2376  145.1434  157.3196 H   0  0  0  0  0  0  0  0  0  0  0  0
  152.1083  146.5364  159.2120 H   0  0  0  0  0  0  0  0  0  0  0  0
  152.5499  145.4304  161.4233 H   0  0  0  0  0  0  0  0  0  0  0  0
  152.1030  142.9726  161.6438 H   0  0  0  0  0  0  0  0  0  0  0  0
  151.3273  137.7715  153.0563 H   0  0  0  0  0  0  0  0  0  0  0  0
  152.5960  137.7868  154.2397 H   0  0  0  0  0  0  0  0  0  0  0  0
  151.4984  135.5873  154.2183 H   0  0  0  0  0  0  0  0  0  0  0  0
  151.2565  136.3516  155.7725 H   0  0  0  0  0  0  0  0  0  0  0  0
  149.2986  134.9537  156.1812 H   0  0  0  0  0  0  0  0  0  0  0  0
  150.0021  133.9480  153.4625 H   0  0  0  0  0  0  0  0  0  0  0  0
  150.1712  133.1718  155.0346 H   0  0  0  0  0  0  0  0  0  0  0  0
  148.3416  131.8791  154.0076 H   0  0  0  0  0  0  0  0  0  0  0  0
  148.0554  133.7875  152.1141 H   0  0  0  0  0  0  0  0  0  0  0  0
  146.5818  132.9980  152.6725 H   0  0  0  0  0  0  0  0  0  0  0  0
  147.2908  135.8069  153.0971 H   0  0  0  0  0  0  0  0  0  0  0  0
  145.8376  134.9613  153.6129 H   0  0  0  0  0  0  0  0  0  0  0  0
  146.9074  135.4517  155.7818 H   0  0  0  0  0  0  0  0  0  0  0  0
  146.3011  132.9636  155.2740 H   0  0  0  0  0  0  0  0  0  0  0  0
  147.7530  133.0232  156.2990 H   0  0  0  0  0  0  0  0  0  0  0  0
  147.7336  137.4355  154.8256 H   0  0  0  0  0  0  0  0  0  0  0  0
  148.8587  137.5192  156.1664 H   0  0  0  0  0  0  0  0  0  0  0  0
  148.8215  139.6500  154.8652 H   0  0  0  0  0  0  0  0  0  0  0  0
  149.2193  138.8013  153.4021 H   0  0  0  0  0  0  0  0  0  0  0  0
  149.3286  136.2527  153.5785 H   0  0  0  0  0  0  0  0  0  0  0  0
  1  2  2  0  0  0  0
  2  3  1  0  0  0  0
  2 12  1  0  0  0  0
  3  4  1  0  0  0  0
  3 25  1  0  0  0  0
  4  5  1  0  0  0  0
  4 26  1  0  0  0  0
  4 27  1  0  0  0  0
  5  6  1  0  0  0  0
  5 28  1  0  0  0  0
  5 29  1  0  0  0  0
  6 11  1  0  0  0  0
  6  7  2  0  0  0  0
  7  8  1  0  0  0  0
  7 30  1  0  0  0  0
  8  9  2  0  0  0  0
  8 31  1  0  0  0  0
  9 10  1  0  0  0  0
  9 32  1  0  0  0  0
 10 11  2  0  0  0  0
 10 33  1  0  0  0  0
 12 24  1  0  0  0  0
 12 13  1  0  0  0  0
 13 14  1  0  0  0  0
 13 34  1  0  0  0  0
 13 35  1  0  0  0  0
 14 15  1  0  0  0  0
 14 36  1  0  0  0  0
 14 37  1  0  0  0  0
 15 16  1  0  0  0  0
 15 23  1  0  0  0  0
 15 53  1  0  0  0  0
 16 21  1  0  0  0  0
 16 17  1  0  0  0  0
 16 38  1  0  0  0  0
 17 18  1  0  0  0  0
 17 39  1  0  0  0  0
 17 40  1  0  0  0  0
 18 22  1  0  0  0  0
 18 19  1  0  0  0  0
 18 41  1  0  0  0  0
 19 20  1  0  0  0  0
 19 42  1  0  0  0  0
 19 43  1  0  0  0  0
 20 21  1  0  0  0  0
 20 44  1  0  0  0  0
 20 45  1  0  0  0  0
 21 22  1  0  0  0  0
 21 46  1  0  0  0  0
 22 47  1  0  0  0  0
 22 48  1  0  0  0  0
 23 24  1  0  0  0  0
 23 49  1  0  0  0  0
 23 50  1  0  0  0  0
 24 51  1  0  0  0  0
 24 52  1  0  0  0  0
M  CHG  1  15   1
M  END
> <s_m_source_file>
AV-unprocessed.smi

> <i_m_source_file_index>
907

> <i_lp_mmshare_version>
43012

> <i_f3d_flags>
0

> <s_epik_input>
W0NIMl0xW0NIMl1bQ0BASF0oW0NIMl0yKVtDQEBIXShbQ0gyXVtDQEhdMTIpTihbQ0gyXVtDSDJdMylbQ0gyXVtDSDJdTjNDKD1PKVtOSF1bQ0gyXVtDSDJdYzRbY0hdW2NIXVtjSF1bY0hdbjQ=

> <s_epik_cmdline>
J2VwaWtfcHl0aG9uJywgJy1waCcsICc3LjAnLCAnLXRuJywgJzgnLCAnLW1hJywgJzIwMCcsICctbWV0YWxfYmluZGluZycsICctaW1hZScsICc8aW5maWxlLm1hZT4nLCAnLW9tYWUnLCAnPG91dGZpbGUubWFlPic=

> <r_epik_Ionization_Penalty>
0.0419258

> <r_epik_Ionization_Penalty_Charging>
0.00262064

> <r_epik_Ionization_Penalty_Neutral>
0.0393052

> <r_epik_State_Penalty>
0.0329887

> <r_epik_Charging_Adjusted_Penalty>
0.0356093

> <i_epik_Tot_Q>
1

> <i_epik_Tot_abs_Q>
1

> <r_epik_Metal_State_Penalty>
0.0309172

> <b_epik_Metal_Only>
0

> <s_lp_Force_Field>
OPLS_2005

> <r_lp_Energy>
94.5265

> <b_lp_Chiralities_Consistent>
1

> <s_lp_Variant>
AV-unprocessed.smi:907-1

> <Gold.Version>
5.8.1

> <Gold.Id.Protein>
6NUR|6NUR_protein|mol2

> <Gold.PLP.Fitness>
51.2717

> <Gold.PLP.PLP>
-44.2985

> <Gold.PLP.part.hbond>
-2.1479

> <Gold.PLP.part.metal>
0.0000

> <Gold.PLP.part.buried>
-0.2357

> <Gold.PLP.part.nonpolar>
-40.3680

> <Gold.PLP.part.repulsive>
0.0627

> <Gold.PLP.ligand.clash>
0.8687

> <Gold.PLP.ligand.torsion>
0.6328

> <Gold.PLP.Chemscore.Hbond>
3.0000

> <Gold.PLP.Chemscore.CHOScore>
0.0000

> <Gold.PLP.Chemscore.Metal>
0.0000

> <Gold.Chemscore.Hbonds>
donor molecule, donor type, donor heavy atom, donor atom, acceptor molecule, acceptor atom, score
      L1  H    15    53       P1  7948  2.00
      P1  H  7997  8008       L1     1  1.00

> <Gold.PLP.Chemscore.Internal.Correction>
0.1074

> <Gold.Rescore>
     Score         DG    S(hbond)    S(metal)    S(lipo)     H(rot)  DE(clash)    DE(int)     intcor
     21.24     -22.27       1.90        0.00     119.38       1.37       0.32       0.71       ----

> <Gold.Chemscore.Fitness>
21.2373

> <Gold.Chemscore.DG>
-22.2692

> <Gold.Chemscore.ZeroCoef>
-5.4800

> <Gold.Chemscore.Hbond>
1.8974

> <Gold.Chemscore.Metal>
0.0000

> <Gold.Chemscore.Lipo>
119.3756

> <Gold.Chemscore.Internal_Hbond>
0.0000

> <Gold.Chemscore.DEClash>
0.3247

> <Gold.Chemscore.DEInternal>
0.7072

> <Gold.Chemscore.Rot>
1.3731

> <Gold.Chemscore.Internal.Correction>
   9.000000E+99

> <Gold.Chemscore.Hbonds>
donor molecule, donor type, donor heavy atom, donor atom, acceptor molecule, acceptor atom, score
      L1  H    15    53       P1  7948  0.82
      P1  H  7997  8008       L1     1  1.00

> <Gold.Chemscore.Hbond.Weighted>
-6.3374

> <Gold.Chemscore.Metal.Weighted>
-0.0000

> <Gold.Chemscore.Lipo.Weighted>
-13.9669

> <Gold.Chemscore.Internal_Hbond.Weighted>
0.0000

> <Gold.Chemscore.DEClash.Weighted>
0.3247

> <Gold.Chemscore.DEInternal.Weighted>
0.7072

> <Gold.Chemscore.Rot.Weighted>
3.5152

> <Gold.Chemscore.Internal.Correction.Weighted>
   9.000000E+99

> <Gold.Protein.RotatedTorsions>
[ 6907 6896 6895 6894 ] final   96.90 input  -60.11 | X-H torsion
[ 7974 7965 7964 7962 ] final   75.92 input  175.53 | X-H torsion
[ 8008 7997 7996 7995 ] final  -29.73 input   59.86 | X-H torsion
[ 10167 10162 10161 10158 ] final -144.10 input  -65.29 | X-H torsion
[ 10718 10713 10712 10709 ] final   87.56 input   66.30 | X-H torsion
[ 10763 10752 10751 10750 ] final  -64.92 input  -60.55 | X-H torsion
[ 11005 11000 10999 10996 ] final   66.46 input  -57.11 | X-H torsion

> <Gold.Protein.ActiveResidues>
 VAL166  LYS551  ARG553  GLY616  TRP617  ASP618  TYR619  PRO620  LYS621  CYS622 
 ASP623  PHE694  ASN695  SER759  ASP760  ASP761  ALA762  ILE779  LEU786  VAL792 
 PHE793  MET794  SER795  GLU796  ALA797  LYS798  CYS799  TRP800  GLU811  SER814 

> <Gold.Protein.RotatedAtoms>
  152.5430  134.0815  159.8237 H   0  0  0  0  0  0  0  0  0  0  0  0  # atno 6907 bound_to 6896
  151.0916  133.5304  159.2622 H   0  0  0  0  0  0  0  0  0  0  0  0  # atno 6908 bound_to 6896
  151.2093  135.0483  159.8959 H   0  0  0  0  0  0  0  0  0  0  0  0  # atno 6909 bound_to 6896
  145.7094  139.2609  143.1659 H   0  0  0  0  0  0  0  0  0  0  0  0  # atno 7974 bound_to 7965
  154.4278  140.1810  156.1295 H   0  0  0  0  0  0  0  0  0  0  0  0  # atno 8008 bound_to 7997
  156.0079  140.3353  155.6886 H   0  0  0  0  0  0  0  0  0  0  0  0  # atno 8009 bound_to 7997
  155.6152  140.0654  157.2685 H   0  0  0  0  0  0  0  0  0  0  0  0  # atno 8010 bound_to 7997
  139.7931  143.7938  152.2652 H   0  0  0  0  0  0  0  0  0  0  0  0  # atno 10167 bound_to 10162
  157.6941  131.0260  150.3142 H   0  0  0  0  0  0  0  0  0  0  0  0  # atno 10718 bound_to 10713
  154.3372  135.6164  153.5579 H   0  0  0  0  0  0  0  0  0  0  0  0  # atno 10763 bound_to 10752
  152.9807  135.5761  154.4894 H   0  0  0  0  0  0  0  0  0  0  0  0  # atno 10764 bound_to 10752
  154.4591  135.2855  155.1703 H   0  0  0  0  0  0  0  0  0  0  0  0  # atno 10765 bound_to 10752
  139.9830  134.6712  156.0227 H   0  0  0  0  0  0  0  0  0  0  0  0  # atno 11005 bound_to 11000
  146.0726  140.7852  142.9680 LP  0  0  0  0  0  0  0  0  0  0  0  0  # atno 17320 bound_to 7965
  144.6946  140.3365  143.7206 LP  0  0  0  0  0  0  0  0  0  0  0  0  # atno 17321 bound_to 7965
  139.8035  144.7364  150.9792 LP  0  0  0  0  0  0  0  0  0  0  0  0  # atno 17342 bound_to 10162
  140.7820  143.4321  151.0679 LP  0  0  0  0  0  0  0  0  0  0  0  0  # atno 17343 bound_to 10162
  156.3639  130.3851  149.7229 LP  0  0  0  0  0  0  0  0  0  0  0  0  # atno 17370 bound_to 10713
  156.4666  130.7977  151.2996 LP  0  0  0  0  0  0  0  0  0  0  0  0  # atno 17371 bound_to 10713
  141.1500  133.6550  156.3983 LP  0  0  0  0  0  0  0  0  0  0  0  0  # atno 17394 bound_to 11000
  140.5058  134.6443  157.5266 LP  0  0  0  0  0  0  0  0  0  0  0  0  # atno 17395 bound_to 11000

$$$$
