AV-unprocessed.smi:1620|AV-procd|sdf|6491|dock7
  -GOLD-   22720 7153D 1   1.00000     0.00000
 Structure written by MMmdl.
 40 40  0  0  0  0  0  0  0  0  1 V2000
  160.0228  140.6149  161.4545 C   0  0  0  0  0  0  0  0  0  0  0  0
  158.9281  140.1129  160.4957 C   0  0  0  0  0  0  0  0  0  0  0  0
  158.6405  141.1937  159.4364 C   0  0  0  0  0  0  0  0  0  0  0  0
  157.6474  139.6548  161.2525 C   0  0  2  0  0  0  0  0  0  0  0  0
  157.8946  138.5725  162.3255 C   0  0  0  0  0  0  0  0  0  0  0  0
  156.5685  139.2301  160.3231 N   0  0  0  0  0  0  0  0  0  0  0  0
  156.7294  137.8974  159.7257 C   0  0  0  0  0  0  0  0  0  0  0  0
  155.4149  139.9095  160.0842 C   0  0  0  0  0  0  0  0  0  0  0  0
  154.7427  139.7337  159.0664 O   0  0  0  0  0  0  0  0  0  0  0  0
  155.1183  140.8496  161.0025 N   0  0  0  0  0  0  0  0  0  0  0  0
  153.9973  141.7171  161.0305 C   0  0  0  0  0  0  0  0  0  0  0  0
  153.3488  142.1603  162.2123 C   0  0  0  0  0  0  0  0  0  0  0  0
  152.3317  142.9601  161.9299 N   0  0  0  0  0  0  0  0  0  0  0  0
  152.3110  143.0380  160.5753 N   0  0  0  0  0  0  0  0  0  0  0  0
  151.2999  143.8445  159.9157 C   0  0  0  0  0  0  0  0  0  0  0  0
  151.9340  145.0067  159.1498 C   0  0  0  0  0  0  0  0  0  0  0  0
  152.6500  144.7024  158.0640 N   0  0  0  0  0  0  0  0  0  0  0  0
  151.7786  146.1640  159.5334 O   0  0  0  0  0  0  0  0  0  0  0  0
  153.3149  142.2883  159.9941 C   0  0  0  0  0  0  0  0  0  0  0  0
  159.6686  141.4508  162.0587 H   0  0  0  0  0  0  0  0  0  0  0  0
  160.9004  140.9545  160.9036 H   0  0  0  0  0  0  0  0  0  0  0  0
  160.3606  139.8301  162.1306 H   0  0  0  0  0  0  0  0  0  0  0  0
  159.3420  139.2532  159.9683 H   0  0  0  0  0  0  0  0  0  0  0  0
  158.1975  142.0822  159.8873 H   0  0  0  0  0  0  0  0  0  0  0  0
  157.9604  140.8351  158.6640 H   0  0  0  0  0  0  0  0  0  0  0  0
  159.5569  141.5015  158.9321 H   0  0  0  0  0  0  0  0  0  0  0  0
  157.3202  140.5167  161.8338 H   0  0  0  0  0  0  0  0  0  0  0  0
  158.4945  138.9580  163.1494 H   0  0  0  0  0  0  0  0  0  0  0  0
  158.4153  137.7039  161.9227 H   0  0  0  0  0  0  0  0  0  0  0  0
  156.9541  138.2275  162.7562 H   0  0  0  0  0  0  0  0  0  0  0  0
  156.4428  137.8982  158.6727 H   0  0  0  0  0  0  0  0  0  0  0  0
  156.1052  137.1704  160.2469 H   0  0  0  0  0  0  0  0  0  0  0  0
  157.7581  137.5414  159.7650 H   0  0  0  0  0  0  0  0  0  0  0  0
  155.7672  140.9462  161.7700 H   0  0  0  0  0  0  0  0  0  0  0  0
  153.5774  141.9347  163.2434 H   0  0  0  0  0  0  0  0  0  0  0  0
  150.7139  143.2188  159.2403 H   0  0  0  0  0  0  0  0  0  0  0  0
  150.6132  144.2298  160.6707 H   0  0  0  0  0  0  0  0  0  0  0  0
  153.0798  145.4381  157.5222 H   0  0  0  0  0  0  0  0  0  0  0  0
  152.7515  143.7376  157.7840 H   0  0  0  0  0  0  0  0  0  0  0  0
  153.4412  142.2348  158.9228 H   0  0  0  0  0  0  0  0  0  0  0  0
  1  2  1  0  0  0  0
  1 20  1  0  0  0  0
  1 21  1  0  0  0  0
  1 22  1  0  0  0  0
  2  3  1  0  0  0  0
  2  4  1  0  0  0  0
  2 23  1  0  0  0  0
  3 24  1  0  0  0  0
  3 25  1  0  0  0  0
  3 26  1  0  0  0  0
  4  5  1  0  0  0  0
  4  6  1  0  0  0  0
  4 27  1  0  0  0  0
  5 28  1  0  0  0  0
  5 29  1  0  0  0  0
  5 30  1  0  0  0  0
  6  7  1  0  0  0  0
  6  8  1  0  0  0  0
  7 31  1  0  0  0  0
  7 32  1  0  0  0  0
  7 33  1  0  0  0  0
  8  9  2  0  0  0  0
  8 10  1  0  0  0  0
 10 11  1  0  0  0  0
 10 34  1  0  0  0  0
 11 19  2  0  0  0  0
 11 12  1  0  0  0  0
 12 13  2  0  0  0  0
 12 35  1  0  0  0  0
 13 14  1  0  0  0  0
 14 15  1  0  0  0  0
 14 19  1  0  0  0  0
 15 16  1  0  0  0  0
 15 36  1  0  0  0  0
 15 37  1  0  0  0  0
 16 17  1  0  0  0  0
 16 18  2  0  0  0  0
 17 38  1  0  0  0  0
 17 39  1  0  0  0  0
 19 40  1  0  0  0  0
M  END
> <s_m_source_file>
AV-unprocessed.smi

> <i_m_source_file_index>
1620

> <i_lp_mmshare_version>
43012

> <i_f3d_flags>
0

> <s_epik_input>
W0NIM11bQ0hdKFtDSDNdKVtDQEhdKFtDSDNdKU4oW0NIM10pQyg9TylbTkhdYzFbY0hdbm4oW2NIXTEpW0NIMl1DKD1PKVtOSDJd

> <s_epik_cmdline>
J2VwaWtfcHl0aG9uJywgJy1waCcsICc3LjAnLCAnLXRuJywgJzgnLCAnLW1hJywgJzIwMCcsICctbWV0YWxfYmluZGluZycsICctaW1hZScsICc8aW5maWxlLm1hZT4nLCAnLW9tYWUnLCAnPG91dGZpbGUubWFlPic=

> <r_lp_tautomer_probability>
1

> <r_epik_Ionization_Penalty>
4.85642e-05

> <r_epik_Ionization_Penalty_Charging>
0

> <r_epik_Ionization_Penalty_Neutral>
4.85642e-05

> <r_epik_State_Penalty>
-0

> <r_epik_Charging_Adjusted_Penalty>
0

> <i_epik_Tot_Q>
0

> <i_epik_Tot_abs_Q>
0

> <r_epik_Metal_State_Penalty>
-0

> <b_epik_Metal_Only>
0

> <s_lp_Force_Field>
OPLS_2005

> <r_lp_Energy>
32.3257

> <b_lp_Chiralities_Consistent>
1

> <s_lp_Variant>
AV-unprocessed.smi:1620-1

> <Gold.Version>
5.8.1

> <Gold.Id.Protein>
6NUR|6NUR_protein|mol2

> <Gold.PLP.Fitness>
38.5545

> <Gold.PLP.PLP>
-36.8507

> <Gold.PLP.part.hbond>
-3.4070

> <Gold.PLP.part.metal>
0.0000

> <Gold.PLP.part.buried>
-6.3895

> <Gold.PLP.part.nonpolar>
-27.7974

> <Gold.PLP.part.repulsive>
0.3797

> <Gold.PLP.ligand.clash>
0.0000

> <Gold.PLP.ligand.torsion>
0.7677

> <Gold.PLP.Chemscore.Hbond>
1.0000

> <Gold.PLP.Chemscore.CHOScore>
0.0000

> <Gold.PLP.Chemscore.Metal>
0.0000

> <Gold.Chemscore.Hbonds>
donor molecule, donor type, donor heavy atom, donor atom, acceptor molecule, acceptor atom, score
      P1  H  7997  8009       L1     9  1.00

> <Gold.PLP.Chemscore.Internal.Correction>
0.2392

> <Gold.Rescore>
     Score         DG    S(hbond)    S(metal)    S(lipo)     H(rot)  DE(clash)    DE(int)     intcor
     11.74     -12.60       1.66        0.00      59.62       2.10       0.14       0.73       ----

> <Gold.Chemscore.Fitness>
11.7365

> <Gold.Chemscore.DG>
-12.5995

> <Gold.Chemscore.ZeroCoef>
-5.4800

> <Gold.Chemscore.Hbond>
1.6557

> <Gold.Chemscore.Metal>
0.0000

> <Gold.Chemscore.Lipo>
59.6183

> <Gold.Chemscore.Internal_Hbond>
0.0000

> <Gold.Chemscore.DEClash>
0.1365

> <Gold.Chemscore.DEInternal>
0.7265

> <Gold.Chemscore.Rot>
2.1039

> <Gold.Chemscore.Internal.Correction>
   9.000000E+99

> <Gold.Chemscore.Hbonds>
donor molecule, donor type, donor heavy atom, donor atom, acceptor molecule, acceptor atom, score
      P1  H  7997  8009       L1     9  1.00

> <Gold.Chemscore.Hbond.Weighted>
-5.5301

> <Gold.Chemscore.Metal.Weighted>
-0.0000

> <Gold.Chemscore.Lipo.Weighted>
-6.9753

> <Gold.Chemscore.Internal_Hbond.Weighted>
0.0000

> <Gold.Chemscore.DEClash.Weighted>
0.1365

> <Gold.Chemscore.DEInternal.Weighted>
0.7265

> <Gold.Chemscore.Rot.Weighted>
5.3860

> <Gold.Chemscore.Internal.Correction.Weighted>
   9.000000E+99

> <Gold.Protein.RotatedTorsions>
[ 6907 6896 6895 6894 ] final  -24.38 input  -60.11 | X-H torsion
[ 7974 7965 7964 7962 ] final -178.85 input  175.53 | X-H torsion
[ 8008 7997 7996 7995 ] final  115.31 input   59.86 | X-H torsion
[ 10167 10162 10161 10158 ] final -160.05 input  -65.29 | X-H torsion
[ 10718 10713 10712 10709 ] final  146.27 input   66.30 | X-H torsion
[ 10763 10752 10751 10750 ] final -154.36 input  -60.55 | X-H torsion
[ 11005 11000 10999 10996 ] final -169.60 input  -57.11 | X-H torsion

> <Gold.Protein.ActiveResidues>
 VAL166  LYS551  ARG553  GLY616  TRP617  ASP618  TYR619  PRO620  LYS621  CYS622 
 ASP623  PHE694  ASN695  SER759  ASP760  ASP761  ALA762  ILE779  LEU786  VAL792 
 PHE793  MET794  SER795  GLU796  ALA797  LYS798  CYS799  TRP800  GLU811  SER814 

> <Gold.Protein.RotatedAtoms>
  151.1903  135.0399  159.8829 H   0  0  0  0  0  0  0  0  0  0  0  0  # atno 6907 bound_to 6896
  152.5440  134.0964  159.8309 H   0  0  0  0  0  0  0  0  0  0  0  0  # atno 6908 bound_to 6896
  151.1091  133.5139  159.2638 H   0  0  0  0  0  0  0  0  0  0  0  0  # atno 6909 bound_to 6896
  144.7133  140.0807  143.6425 H   0  0  0  0  0  0  0  0  0  0  0  0  # atno 7974 bound_to 7965
  156.2374  140.2941  156.0349 H   0  0  0  0  0  0  0  0  0  0  0  0  # atno 8008 bound_to 7997
  155.2052  140.0411  157.2941 H   0  0  0  0  0  0  0  0  0  0  0  0  # atno 8009 bound_to 7997
  154.6104  140.2450  155.7684 H   0  0  0  0  0  0  0  0  0  0  0  0  # atno 8010 bound_to 7997
  139.6568  143.9983  152.2199 H   0  0  0  0  0  0  0  0  0  0  0  0  # atno 10167 bound_to 10162
  157.3352  131.0927  151.1129 H   0  0  0  0  0  0  0  0  0  0  0  0  # atno 10718 bound_to 10713
  154.7864  135.3192  154.7877 H   0  0  0  0  0  0  0  0  0  0  0  0  # atno 10763 bound_to 10752
  153.8576  135.6856  153.4790 H   0  0  0  0  0  0  0  0  0  0  0  0  # atno 10764 bound_to 10752
  153.1517  135.4696  154.9585 H   0  0  0  0  0  0  0  0  0  0  0  0  # atno 10765 bound_to 10752
  140.5289  134.5635  157.5069 H   0  0  0  0  0  0  0  0  0  0  0  0  # atno 11005 bound_to 11000
  145.9705  139.2866  143.1102 LP  0  0  0  0  0  0  0  0  0  0  0  0  # atno 17320 bound_to 7965
  145.9122  140.9172  143.0448 LP  0  0  0  0  0  0  0  0  0  0  0  0  # atno 17321 bound_to 7965
  139.9712  144.6492  150.7987 LP  0  0  0  0  0  0  0  0  0  0  0  0  # atno 17342 bound_to 10162
  140.7563  143.3063  151.2955 LP  0  0  0  0  0  0  0  0  0  0  0  0  # atno 17343 bound_to 10162
  157.2362  130.6548  149.5870 LP  0  0  0  0  0  0  0  0  0  0  0  0  # atno 17370 bound_to 10713
  155.9700  130.4583  150.5993 LP  0  0  0  0  0  0  0  0  0  0  0  0  # atno 17371 bound_to 10713
  139.9565  134.7527  156.0331 LP  0  0  0  0  0  0  0  0  0  0  0  0  # atno 17394 bound_to 11000
  141.1292  133.6591  156.3419 LP  0  0  0  0  0  0  0  0  0  0  0  0  # atno 17395 bound_to 11000

$$$$
