AV-unprocessed.smi:338|AV-procd|sdf|2374|dock10
  -GOLD-   2262022293D 1   1.00000     0.00000
 Structure written by MMmdl.
 41 43  0  0  0  0  0  0  0  0  1 V2000
  145.0630  141.0499  157.8148 C   0  0  0  0  0  0  0  0  0  0  0  0
  146.3408  140.3183  157.4069 C   0  0  0  0  0  0  0  0  0  0  0  0
  146.7416  139.3934  158.1131 O   0  0  0  0  0  0  0  0  0  0  0  0
  147.0356  140.7683  156.1663 C   0  0  0  0  0  0  0  0  0  0  0  0
  146.5022  141.7908  155.3475 C   0  0  0  0  0  0  0  0  0  0  0  0
  147.1799  142.1935  154.1825 C   0  0  0  0  0  0  0  0  0  0  0  0
  148.3943  141.5815  153.8243 C   0  0  0  0  0  0  0  0  0  0  0  0
  148.9483  140.5622  154.6232 C   0  0  0  0  0  0  0  0  0  0  0  0
  150.1420  140.0175  154.1997 O   0  0  0  0  0  0  0  0  0  0  0  0
  150.8422  139.1535  155.0857 C   0  0  0  0  0  0  0  0  0  0  0  0
  151.6210  140.0008  156.1025 C   0  0  2  0  0  0  0  0  0  0  0  0
  152.8131  139.3158  156.4333 O   0  0  0  0  0  0  0  0  0  0  0  0
  150.8088  140.2825  157.3814 C   0  0  0  0  0  0  0  0  0  0  0  0
  151.5814  140.9932  158.3847 N   0  0  0  0  0  0  0  0  0  0  0  0
  152.4396  140.4578  159.2741 C   0  0  0  0  0  0  0  0  0  0  0  0
  153.0499  141.2923  160.1106 N   0  0  0  0  0  0  0  0  0  0  0  0
  152.5284  142.5130  159.7178 C   0  0  0  0  0  0  0  0  0  0  0  0
  152.7712  143.8155  160.2097 C   0  0  0  0  0  0  0  0  0  0  0  0
  152.1114  144.9271  159.6450 C   0  0  0  0  0  0  0  0  0  0  0  0
  151.1996  144.7542  158.5834 C   0  0  0  0  0  0  0  0  0  0  0  0
  150.9418  143.4663  158.0760 C   0  0  0  0  0  0  0  0  0  0  0  0
  151.6041  142.3601  158.6403 C   0  0  0  0  0  0  0  0  0  0  0  0
  148.2587  140.1611  155.7957 C   0  0  0  0  0  0  0  0  0  0  0  0
  144.3065  140.9624  157.0348 H   0  0  0  0  0  0  0  0  0  0  0  0
  145.2665  142.1062  157.9909 H   0  0  0  0  0  0  0  0  0  0  0  0
  144.6557  140.6243  158.7323 H   0  0  0  0  0  0  0  0  0  0  0  0
  145.5726  142.2819  155.5935 H   0  0  0  0  0  0  0  0  0  0  0  0
  146.7666  142.9748  153.5617 H   0  0  0  0  0  0  0  0  0  0  0  0
  148.9065  141.8985  152.9277 H   0  0  0  0  0  0  0  0  0  0  0  0
  150.1496  138.4892  155.6056 H   0  0  0  0  0  0  0  0  0  0  0  0
  151.5392  138.5376  154.5143 H   0  0  0  0  0  0  0  0  0  0  0  0
  151.9040  140.9446  155.6348 H   0  0  0  0  0  0  0  0  0  0  0  0
  152.6025  138.4083  156.5926 H   0  0  0  0  0  0  0  0  0  0  0  0
  149.9275  140.8807  157.1457 H   0  0  0  0  0  0  0  0  0  0  0  0
  150.4432  139.3513  157.8159 H   0  0  0  0  0  0  0  0  0  0  0  0
  152.6248  139.3941  159.3097 H   0  0  0  0  0  0  0  0  0  0  0  0
  153.4670  143.9600  161.0230 H   0  0  0  0  0  0  0  0  0  0  0  0
  152.3056  145.9178  160.0291 H   0  0  0  0  0  0  0  0  0  0  0  0
  150.6979  145.6113  158.1587 H   0  0  0  0  0  0  0  0  0  0  0  0
  150.2426  143.3298  157.2643 H   0  0  0  0  0  0  0  0  0  0  0  0
  148.6600  139.3801  156.4240 H   0  0  0  0  0  0  0  0  0  0  0  0
  1  2  1  0  0  0  0
  1 24  1  0  0  0  0
  1 25  1  0  0  0  0
  1 26  1  0  0  0  0
  2  3  2  0  0  0  0
  2  4  1  0  0  0  0
  4 23  1  0  0  0  0
  4  5  2  0  0  0  0
  5  6  1  0  0  0  0
  5 27  1  0  0  0  0
  6  7  2  0  0  0  0
  6 28  1  0  0  0  0
  7  8  1  0  0  0  0
  7 29  1  0  0  0  0
  8  9  1  0  0  0  0
  8 23  2  0  0  0  0
  9 10  1  0  0  0  0
 10 11  1  0  0  0  0
 10 30  1  0  0  0  0
 10 31  1  0  0  0  0
 11 12  1  0  0  0  0
 11 13  1  0  0  0  0
 11 32  1  0  0  0  0
 12 33  1  0  0  0  0
 13 14  1  0  0  0  0
 13 34  1  0  0  0  0
 13 35  1  0  0  0  0
 14 22  1  0  0  0  0
 14 15  1  0  0  0  0
 15 16  2  0  0  0  0
 15 36  1  0  0  0  0
 16 17  1  0  0  0  0
 17 22  2  0  0  0  0
 17 18  1  0  0  0  0
 18 19  2  0  0  0  0
 18 37  1  0  0  0  0
 19 20  1  0  0  0  0
 19 38  1  0  0  0  0
 20 21  2  0  0  0  0
 20 39  1  0  0  0  0
 21 22  1  0  0  0  0
 21 40  1  0  0  0  0
 23 41  1  0  0  0  0
M  END
> <s_m_source_file>
AV-unprocessed.smi

> <i_m_source_file_index>
338

> <i_lp_mmshare_version>
43012

> <i_f3d_flags>
0

> <s_epik_input>
W0NIM11DKD1PKWMxW2NIXVtjSF1bY0hdYyhbY0hdMSlPW0NIMl1bQ0BIXShbT0hdKVtDSDJdbihbY0hdbjIpYyhjMjMpW2NIXVtjSF1bY0hdW2NIXTM=

> <s_epik_cmdline>
J2VwaWtfcHl0aG9uJywgJy1waCcsICc3LjAnLCAnLXRuJywgJzgnLCAnLW1hJywgJzIwMCcsICctbWV0YWxfYmluZGluZycsICctaW1hZScsICc8aW5maWxlLm1hZT4nLCAnLW9tYWUnLCAnPG91dGZpbGUubWFlPic=

> <r_lp_tautomer_probability>
0.99995

> <r_epik_Ionization_Penalty>
0.0640132

> <r_epik_Ionization_Penalty_Charging>
0

> <r_epik_Ionization_Penalty_Neutral>
0.0640132

> <r_epik_State_Penalty>
0.0557325

> <r_epik_Charging_Adjusted_Penalty>
0.0557325

> <i_epik_Tot_Q>
0

> <i_epik_Tot_abs_Q>
0

> <r_epik_Metal_State_Penalty>
5.8435e-05

> <b_epik_Metal_Only>
0

> <s_lp_Force_Field>
OPLS_2005

> <r_lp_Energy>
20.8584

> <b_lp_Chiralities_Consistent>
1

> <s_lp_Variant>
AV-unprocessed.smi:338-1

> <Gold.Version>
5.8.1

> <Gold.Id.Protein>
6NUR|6NUR_protein|mol2

> <Gold.PLP.Fitness>
49.0761

> <Gold.PLP.PLP>
-45.0730

> <Gold.PLP.part.hbond>
-2.8386

> <Gold.PLP.part.metal>
0.0000

> <Gold.PLP.part.buried>
-5.6561

> <Gold.PLP.part.nonpolar>
-36.8838

> <Gold.PLP.part.repulsive>
0.4954

> <Gold.PLP.ligand.clash>
0.0000

> <Gold.PLP.ligand.torsion>
0.9605

> <Gold.PLP.Chemscore.Hbond>
1.9500

> <Gold.PLP.Chemscore.CHOScore>
0.0000

> <Gold.PLP.Chemscore.Metal>
0.0000

> <Gold.Chemscore.Hbonds>
donor molecule, donor type, donor heavy atom, donor atom, acceptor molecule, acceptor atom, score
      P1  H  7989  7998       L1     9  0.90
      P1  H  7997  8009       L1    12  1.00

> <Gold.PLP.Chemscore.Internal.Correction>
0.0742

> <Gold.Rescore>
     Score         DG    S(hbond)    S(metal)    S(lipo)     H(rot)  DE(clash)    DE(int)     intcor
     17.20     -18.64       1.71        0.00     116.22       2.40       0.26       1.17       ----

> <Gold.Chemscore.Fitness>
17.1987

> <Gold.Chemscore.DG>
-18.6367

> <Gold.Chemscore.ZeroCoef>
-5.4800

> <Gold.Chemscore.Hbond>
1.7078

> <Gold.Chemscore.Metal>
0.0000

> <Gold.Chemscore.Lipo>
116.2226

> <Gold.Chemscore.Internal_Hbond>
0.0000

> <Gold.Chemscore.DEClash>
0.2643

> <Gold.Chemscore.DEInternal>
1.1738

> <Gold.Chemscore.Rot>
2.4005

> <Gold.Chemscore.Internal.Correction>
   9.000000E+99

> <Gold.Chemscore.Hbonds>
donor molecule, donor type, donor heavy atom, donor atom, acceptor molecule, acceptor atom, score
      P1  H  7989  7998       L1     9  0.17
      P1  H  7997  8009       L1    12  0.99

> <Gold.Chemscore.Hbond.Weighted>
-5.7040

> <Gold.Chemscore.Metal.Weighted>
-0.0000

> <Gold.Chemscore.Lipo.Weighted>
-13.5980

> <Gold.Chemscore.Internal_Hbond.Weighted>
0.0000

> <Gold.Chemscore.DEClash.Weighted>
0.2643

> <Gold.Chemscore.DEInternal.Weighted>
1.1738

> <Gold.Chemscore.Rot.Weighted>
6.1453

> <Gold.Chemscore.Internal.Correction.Weighted>
   9.000000E+99

> <Gold.Protein.RotatedTorsions>
[ 6907 6896 6895 6894 ] final   44.32 input  -60.11 | X-H torsion
[ 7974 7965 7964 7962 ] final -126.95 input  175.53 | X-H torsion
[ 8008 7997 7996 7995 ] final -177.66 input   59.86 | X-H torsion
[ 10167 10162 10161 10158 ] final -117.73 input  -65.29 | X-H torsion
[ 10718 10713 10712 10709 ] final  154.60 input   66.30 | X-H torsion
[ 10763 10752 10751 10750 ] final    8.75 input  -60.55 | X-H torsion
[ 11005 11000 10999 10996 ] final -117.24 input  -57.11 | X-H torsion

> <Gold.Protein.ActiveResidues>
 VAL166  LYS551  ARG553  GLY616  TRP617  ASP618  TYR619  PRO620  LYS621  CYS622 
 ASP623  PHE694  ASN695  SER759  ASP760  ASP761  ALA762  ILE779  LEU786  VAL792 
 PHE793  MET794  SER795  GLU796  ALA797  LYS798  CYS799  TRP800  GLU811  SER814 

> <Gold.Protein.RotatedAtoms>
  152.2311  134.8321  160.0473 H   0  0  0  0  0  0  0  0  0  0  0  0  # atno 6907 bound_to 6896
  151.9070  133.3546  159.3858 H   0  0  0  0  0  0  0  0  0  0  0  0  # atno 6908 bound_to 6896
  150.7026  134.4696  159.5463 H   0  0  0  0  0  0  0  0  0  0  0  0  # atno 6909 bound_to 6896
  144.9821  140.7650  143.4606 H   0  0  0  0  0  0  0  0  0  0  0  0  # atno 7974 bound_to 7965
  156.0095  140.1237  157.0468 H   0  0  0  0  0  0  0  0  0  0  0  0  # atno 8008 bound_to 7997
  154.4271  140.1090  156.5879 H   0  0  0  0  0  0  0  0  0  0  0  0  # atno 8009 bound_to 7997
  155.6099  140.3471  155.4621 H   0  0  0  0  0  0  0  0  0  0  0  0  # atno 8010 bound_to 7997
  140.0652  143.4930  152.2010 H   0  0  0  0  0  0  0  0  0  0  0  0  # atno 10167 bound_to 10162
  157.2294  131.0736  151.1862 H   0  0  0  0  0  0  0  0  0  0  0  0  # atno 10718 bound_to 10713
  153.2216  135.6882  153.7994 H   0  0  0  0  0  0  0  0  0  0  0  0  # atno 10763 bound_to 10752
  153.7190  135.3270  155.3263 H   0  0  0  0  0  0  0  0  0  0  0  0  # atno 10764 bound_to 10752
  154.8272  135.4608  154.1065 H   0  0  0  0  0  0  0  0  0  0  0  0  # atno 10765 bound_to 10752
  141.0368  133.9897  157.3058 H   0  0  0  0  0  0  0  0  0  0  0  0  # atno 11005 bound_to 11000
  145.2406  139.2074  143.4994 LP  0  0  0  0  0  0  0  0  0  0  0  0  # atno 17320 bound_to 7965
  146.3410  140.2301  142.8593 LP  0  0  0  0  0  0  0  0  0  0  0  0  # atno 17321 bound_to 7965
  139.5869  144.7535  151.3497 LP  0  0  0  0  0  0  0  0  0  0  0  0  # atno 17342 bound_to 10162
  140.7152  143.7284  150.7642 LP  0  0  0  0  0  0  0  0  0  0  0  0  # atno 17343 bound_to 10162
  157.3494  130.7074  149.6431 LP  0  0  0  0  0  0  0  0  0  0  0  0  # atno 17370 bound_to 10713
  155.9676  130.4257  150.4665 LP  0  0  0  0  0  0  0  0  0  0  0  0  # atno 17371 bound_to 10713
  139.9246  135.0201  156.8190 LP  0  0  0  0  0  0  0  0  0  0  0  0  # atno 17394 bound_to 11000
  140.6307  133.9908  155.7661 LP  0  0  0  0  0  0  0  0  0  0  0  0  # atno 17395 bound_to 11000

$$$$
