AV-unprocessed.smi:1718|AV-procd|sdf|6928|dock7
  -GOLD-   22720 8133D 1   1.00000     0.00000
 Structure written by MMmdl.
 39 40  0  0  0  0  0  0  0  0  2 V2000
  155.2957  143.4591  165.6703 C   0  0  0  0  0  0  0  0  0  0  0  0
  154.9932  142.1943  164.8531 C   0  0  2  0  0  0  0  0  0  0  0  0
  156.2315  141.7083  164.3431 O   0  0  0  0  0  0  0  0  0  0  0  0
  157.0964  141.1134  165.3052 C   0  0  0  0  0  0  0  0  0  0  0  0
  157.1053  139.5901  165.1182 C   0  0  1  0  0  0  0  0  0  0  0  0
  155.8798  138.8529  165.6732 C   0  0  0  0  0  0  0  0  0  0  0  0
  155.6062  137.7632  164.6446 C   0  0  0  0  0  0  0  0  0  0  0  0
  156.7635  137.8814  163.6544 C   0  0  0  0  0  0  0  0  0  0  0  0
  157.1461  139.2438  163.7421 O   0  0  0  0  0  0  0  0  0  0  0  0
  154.0245  142.4933  163.6974 C   0  0  0  0  0  0  0  0  0  0  0  0
  153.0360  143.1963  163.9063 O   0  0  0  0  0  0  0  0  0  0  0  0
  154.3711  141.9670  162.5061 N   0  0  0  0  0  0  0  0  0  0  0  0
  153.7198  142.0450  161.2630 C   0  0  0  0  0  0  0  0  0  0  0  0
  152.9256  143.0754  160.8595 C   0  0  0  0  0  0  0  0  0  0  0  0
  152.2668  143.0908  159.5596 C   0  0  0  0  0  0  0  0  0  0  0  0
  151.4620  144.2681  159.0380 C   0  0  0  0  0  0  0  0  0  0  0  0
  151.3736  145.2327  159.9541 F   0  0  0  0  0  0  0  0  0  0  0  0
  152.0500  144.7754  157.9556 F   0  0  0  0  0  0  0  0  0  0  0  0
  150.2278  143.8918  158.7030 F   0  0  0  0  0  0  0  0  0  0  0  0
  152.5498  141.9624  158.8148 C   0  0  0  0  0  0  0  0  0  0  0  0
  153.2985  140.8886  159.1490 N   0  5  0  0  0  0  0  0  0  0  0  0
  153.9134  140.8870  160.3654 C   0  0  0  0  0  0  0  0  0  0  0  0
  154.6201  139.9457  160.7282 O   0  0  0  0  0  0  0  0  0  0  0  0
  154.3832  143.8932  166.0806 H   0  0  0  0  0  0  0  0  0  0  0  0
  155.7881  144.2213  165.0648 H   0  0  0  0  0  0  0  0  0  0  0  0
  155.9554  143.2284  166.5070 H   0  0  0  0  0  0  0  0  0  0  0  0
  154.5584  141.4501  165.5234 H   0  0  0  0  0  0  0  0  0  0  0  0
  158.1075  141.5064  165.1909 H   0  0  0  0  0  0  0  0  0  0  0  0
  156.7701  141.3458  166.3194 H   0  0  0  0  0  0  0  0  0  0  0  0
  158.0035  139.1804  165.5836 H   0  0  0  0  0  0  0  0  0  0  0  0
  156.0826  138.4428  166.6631 H   0  0  0  0  0  0  0  0  0  0  0  0
  155.0119  139.5077  165.7600 H   0  0  0  0  0  0  0  0  0  0  0  0
  155.5455  136.7691  165.0879 H   0  0  0  0  0  0  0  0  0  0  0  0
  154.6606  137.9633  164.1393 H   0  0  0  0  0  0  0  0  0  0  0  0
  157.6000  137.2498  163.9581 H   0  0  0  0  0  0  0  0  0  0  0  0
  156.4779  137.6078  162.6383 H   0  0  0  0  0  0  0  0  0  0  0  0
  155.2459  141.4632  162.4817 H   0  0  0  0  0  0  0  0  0  0  0  0
  152.7383  143.9186  161.5030 H   0  0  0  0  0  0  0  0  0  0  0  0
  152.1139  141.9185  157.7939 H   0  0  0  0  0  0  0  0  0  0  0  0
  1  2  1  0  0  0  0
  1 24  1  0  0  0  0
  1 25  1  0  0  0  0
  1 26  1  0  0  0  0
  2  3  1  0  0  0  0
  2 10  1  0  0  0  0
  2 27  1  0  0  0  0
  3  4  1  0  0  0  0
  4  5  1  0  0  0  0
  4 28  1  0  0  0  0
  4 29  1  0  0  0  0
  5  9  1  0  0  0  0
  5  6  1  0  0  0  0
  5 30  1  0  0  0  0
  6  7  1  0  0  0  0
  6 31  1  0  0  0  0
  6 32  1  0  0  0  0
  7  8  1  0  0  0  0
  7 33  1  0  0  0  0
  7 34  1  0  0  0  0
  8  9  1  0  0  0  0
  8 35  1  0  0  0  0
  8 36  1  0  0  0  0
 10 11  2  0  0  0  0
 10 12  1  0  0  0  0
 12 13  1  0  0  0  0
 12 37  1  0  0  0  0
 13 22  1  0  0  0  0
 13 14  2  0  0  0  0
 14 15  1  0  0  0  0
 14 38  1  0  0  0  0
 15 16  1  0  0  0  0
 15 20  2  0  0  0  0
 16 17  1  0  0  0  0
 16 18  1  0  0  0  0
 16 19  1  0  0  0  0
 20 21  1  0  0  0  0
 20 39  1  0  0  0  0
 21 22  1  0  0  0  0
 22 23  2  0  0  0  0
M  CHG  1  21  -1
M  END
> <s_m_source_file>
AV-unprocessed.smi

> <i_m_source_file_index>
1718

> <i_lp_mmshare_version>
43012

> <i_f3d_flags>
0

> <s_epik_input>
TzFbQ0gyXVtDSDJdW0NIMl1bQ0BIXTFbQ0gyXU9bQ0BASF0oW0NIM10pQyg9TylbTkhdYzJbY0hdYyhDKEYpKEYpRilbY0hdW25IXWMyPU8=

> <s_epik_cmdline>
J2VwaWtfcHl0aG9uJywgJy1waCcsICc3LjAnLCAnLXRuJywgJzgnLCAnLW1hJywgJzIwMCcsICctbWV0YWxfYmluZGluZycsICctaW1hZScsICc8aW5maWxlLm1hZT4nLCAnLW9tYWUnLCAnPG91dGZpbGUubWFlPic=

> <r_epik_Ionization_Penalty>
2.5466

> <r_epik_Ionization_Penalty_Charging>
0.0575837

> <r_epik_Ionization_Penalty_Neutral>
2.48901

> <r_epik_State_Penalty>
2.6532

> <r_epik_Charging_Adjusted_Penalty>
2.71078

> <i_epik_Tot_Q>
-1

> <i_epik_Tot_abs_Q>
1

> <r_epik_Metal_State_Penalty>
0.516196

> <b_epik_Metal_Only>
0

> <s_lp_Force_Field>
OPLS_2005

> <r_lp_Energy>
37.3461

> <b_lp_Chiralities_Consistent>
1

> <s_lp_Variant>
AV-unprocessed.smi:1718-7

> <Gold.Version>
5.8.1

> <Gold.Id.Protein>
6NUR|6NUR_protein|mol2

> <Gold.PLP.Fitness>
51.2351

> <Gold.PLP.PLP>
-53.4592

> <Gold.PLP.part.hbond>
-2.5749

> <Gold.PLP.part.metal>
0.0000

> <Gold.PLP.part.buried>
-6.7434

> <Gold.PLP.part.nonpolar>
-44.3003

> <Gold.PLP.part.repulsive>
0.1832

> <Gold.PLP.ligand.clash>
0.0000

> <Gold.PLP.ligand.torsion>
1.1632

> <Gold.PLP.Chemscore.Hbond>
0.0000

> <Gold.PLP.Chemscore.CHOScore>
0.0000

> <Gold.PLP.Chemscore.Metal>
0.0000

> <Gold.PLP.Chemscore.Internal.Correction>
0.1023

> <Gold.Rescore>
     Score         DG    S(hbond)    S(metal)    S(lipo)     H(rot)  DE(clash)    DE(int)     intcor
      8.27     -12.78       0.24        0.00      95.79       1.85       2.48       2.02       ----

> <Gold.Chemscore.Fitness>
8.2683

> <Gold.Chemscore.DG>
-12.7754

> <Gold.Chemscore.ZeroCoef>
-5.4800

> <Gold.Chemscore.Hbond>
0.2433

> <Gold.Chemscore.Metal>
0.0000

> <Gold.Chemscore.Lipo>
95.7890

> <Gold.Chemscore.Internal_Hbond>
0.0000

> <Gold.Chemscore.DEClash>
2.4850

> <Gold.Chemscore.DEInternal>
2.0222

> <Gold.Chemscore.Rot>
1.8455

> <Gold.Chemscore.Internal.Correction>
   9.000000E+99

> <Gold.Chemscore.Hbond.Weighted>
-0.8126

> <Gold.Chemscore.Metal.Weighted>
-0.0000

> <Gold.Chemscore.Lipo.Weighted>
-11.2073

> <Gold.Chemscore.Internal_Hbond.Weighted>
0.0000

> <Gold.Chemscore.DEClash.Weighted>
2.4850

> <Gold.Chemscore.DEInternal.Weighted>
2.0222

> <Gold.Chemscore.Rot.Weighted>
4.7245

> <Gold.Chemscore.Internal.Correction.Weighted>
   9.000000E+99

> <Gold.Protein.RotatedTorsions>
[ 6907 6896 6895 6894 ] final -155.66 input  -60.11 | X-H torsion
[ 7974 7965 7964 7962 ] final -142.11 input  175.53 | X-H torsion
[ 8008 7997 7996 7995 ] final -110.55 input   59.86 | X-H torsion
[ 10167 10162 10161 10158 ] final  -24.33 input  -65.29 | X-H torsion
[ 10718 10713 10712 10709 ] final -108.87 input   66.30 | X-H torsion
[ 10763 10752 10751 10750 ] final   60.86 input  -60.55 | X-H torsion
[ 11005 11000 10999 10996 ] final  -69.63 input  -57.11 | X-H torsion

> <Gold.Protein.ActiveResidues>
 VAL166  LYS551  ARG553  GLY616  TRP617  ASP618  TYR619  PRO620  LYS621  CYS622 
 ASP623  PHE694  ASN695  SER759  ASP760  ASP761  ALA762  ILE779  LEU786  VAL792 
 PHE793  MET794  SER795  GLU796  ALA797  LYS798  CYS799  TRP800  GLU811  SER814 

> <Gold.Protein.RotatedAtoms>
  151.2759  133.4233  159.2623 H   0  0  0  0  0  0  0  0  0  0  0  0  # atno 6907 bound_to 6896
  151.0404  134.9603  159.8168 H   0  0  0  0  0  0  0  0  0  0  0  0  # atno 6908 bound_to 6896
  152.5364  134.2717  159.9026 H   0  0  0  0  0  0  0  0  0  0  0  0  # atno 6909 bound_to 6896
  144.8468  140.5998  143.5416 H   0  0  0  0  0  0  0  0  0  0  0  0  # atno 7974 bound_to 7965
  154.9763  140.0397  157.2257 H   0  0  0  0  0  0  0  0  0  0  0  0  # atno 8008 bound_to 7997
  154.7755  140.2809  155.6082 H   0  0  0  0  0  0  0  0  0  0  0  0  # atno 8009 bound_to 7997
  156.2928  140.2602  156.2568 H   0  0  0  0  0  0  0  0  0  0  0  0  # atno 8010 bound_to 7997
  140.7288  143.4363  151.0725 H   0  0  0  0  0  0  0  0  0  0  0  0  # atno 10167 bound_to 10162
  156.0507  130.5735  150.8021 H   0  0  0  0  0  0  0  0  0  0  0  0  # atno 10718 bound_to 10713
  152.9933  135.5521  154.5942 H   0  0  0  0  0  0  0  0  0  0  0  0  # atno 10763 bound_to 10752
  154.5297  135.2813  155.1193 H   0  0  0  0  0  0  0  0  0  0  0  0  # atno 10764 bound_to 10752
  154.2513  135.6398  153.5294 H   0  0  0  0  0  0  0  0  0  0  0  0  # atno 10765 bound_to 10752
  141.1558  133.6769  156.6628 H   0  0  0  0  0  0  0  0  0  0  0  0  # atno 11005 bound_to 11000
  145.4581  139.1516  143.3881 LP  0  0  0  0  0  0  0  0  0  0  0  0  # atno 17320 bound_to 7965
  146.2751  140.4709  142.8799 LP  0  0  0  0  0  0  0  0  0  0  0  0  # atno 17321 bound_to 7965
  139.8025  143.8063  152.3164 LP  0  0  0  0  0  0  0  0  0  0  0  0  # atno 17342 bound_to 10162
  139.8085  144.7345  150.9729 LP  0  0  0  0  0  0  0  0  0  0  0  0  # atno 17343 bound_to 10162
  157.5431  131.0941  150.9800 LP  0  0  0  0  0  0  0  0  0  0  0  0  # atno 17370 bound_to 10713
  157.0078  130.5625  149.5317 LP  0  0  0  0  0  0  0  0  0  0  0  0  # atno 17371 bound_to 10713
  140.3234  134.7989  157.4270 LP  0  0  0  0  0  0  0  0  0  0  0  0  # atno 17394 bound_to 11000
  140.1078  134.5387  155.8294 LP  0  0  0  0  0  0  0  0  0  0  0  0  # atno 17395 bound_to 11000

$$$$
