#       Name:                AV-unprocessed.smi:1601
#       Creating user name   scv26
#       Creation time:       Fri Mar 27 07:07:45 2020


#       File generated by GOLD software.
#

@<TRIPOS>MOLECULE
AV-unprocessed.smi:1601
    47    48     1
SMALL
NO_CHARGES


@<TRIPOS>ATOM
      1 ****        -0.6458   0.6701  -1.4053 C.3            1 S1                 0.0000
      2 ****        -1.0773   0.7051   0.0842 C.3            1 S1                 0.0000
      3 ****        -0.4699  -0.5256   0.8119 C.3            1 S1                 0.0000
      4 ****         0.9812  -0.5800   0.6836 N.am           1 S1                 0.0000
      5 ****         1.7351  -1.6633   0.9240 C.2            1 S1                 0.0000
      6 ****         1.2667  -2.7261   1.3337 O.2            1 S1                 0.0000
      7 ****         3.2448  -1.5102   0.6652 C.3            1 S1                 0.0000
      8 ****         4.0621  -2.7457   1.0956 C.3            1 S1                 0.0000
      9 ****         3.4959  -1.1525  -0.7276 N.pl3          1 S1                 0.0000
     10 ****         3.8175   0.0880  -1.2409 C.2            1 S1                 0.0000
     11 ****         3.9209  -0.0421  -2.5960 C.2            1 S1                 0.0000
     12 ****         3.6334  -1.4161  -2.8262 C.2            1 S1                 0.0000
     13 ****         3.3737  -2.0760  -1.7096 N.2            1 S1                 0.0000
     14 ****        -2.5450   0.8197   0.2522 N.3            1 S1                 0.0000
     15 ****        -2.9536   0.8843   1.6604 C.3            1 S1                 0.0000
     16 ****        -4.4747   1.0356   1.8358 C.3            1 S1                 0.0000
     17 ****        -4.9251   2.1909   1.1425 O.3            1 S1                 0.0000
     18 ****        -4.6207   2.1319  -0.2440 C.3            1 S1                 0.0000
     19 ****        -3.1005   1.9918  -0.4344 C.3            1 S1                 0.0000
     20 ****         0.4276   0.5302  -1.5297 H              1 S1                 0.0000
     21 ****        -0.8697   1.6027  -1.9215 H              1 S1                 0.0000
     22 ****        -1.1431  -0.1399  -1.9403 H              1 S1                 0.0000
     23 ****        -0.6200   1.5919   0.5260 H              1 S1                 0.0000
     24 ****        -0.6693  -0.5022   1.8821 H              1 S1                 0.0000
     25 ****        -0.9155  -1.4422   0.4207 H              1 S1                 0.0000
     26 ****         1.4417   0.2559   0.3541 H              1 S1                 0.0000
     27 ****         3.5817  -0.6718   1.2769 H              1 S1                 0.0000
     28 ****         3.9301  -2.9565   2.1573 H              1 S1                 0.0000
     29 ****         5.1269  -2.5837   0.9269 H              1 S1                 0.0000
     30 ****         3.7721  -3.6395   0.5420 H              1 S1                 0.0000
     31 ****         3.9435   0.9520  -0.6051 H              1 S1                 0.0000
     32 ****         4.1618   0.7276  -3.3142 H              1 S1                 0.0000
     33 ****         3.6027  -1.9496  -3.7648 H              1 S1                 0.0000
     34 ****        -2.6658  -0.0229   2.1877 H              1 S1                 0.0000
     35 ****        -2.4478   1.7150   2.1550 H              1 S1                 0.0000
     36 ****        -4.9965   0.1518   1.4653 H              1 S1                 0.0000
     37 ****        -4.7252   1.1354   2.8920 H              1 S1                 0.0000
     38 ****        -5.1471   1.2952  -0.7060 H              1 S1                 0.0000
     39 ****        -4.9803   3.0413  -0.7257 H              1 S1                 0.0000
     40 ****        -2.6064   2.8975  -0.0789 H              1 S1                 0.0000
     41 ****        -2.9186   1.9313  -1.5058 H              1 S1                 0.0000
     42 ****         0.2842  -2.8079   1.5014 LP             1 S1                 0.0000
     43 ****         1.8688  -3.5073   1.4987 LP             1 S1                 0.0000
     44 ****         3.1390  -3.0432  -1.6124 LP             1 S1                 0.0000
     45 ****        -2.9090  -0.0153  -0.1604 LP             1 S1                 0.0000
     46 ****        -4.4827   2.9967   1.5362 LP             1 S1                 0.0000
     47 ****        -5.9161   2.2676   1.2525 LP             1 S1                 0.0000
@<TRIPOS>BOND
    1    1    2 1     
    2    1   20 1     
    3    1   21 1     
    4    1   22 1     
    5    2    3 1     
    6    2   14 1     
    7    2   23 1     
    8    3    4 1     
    9    3   24 1     
   10    3   25 1     
   11    4    5 am    
   12    4   26 1     
   13    5    6 2     
   14    5    7 1     
   15    7    8 1     
   16    7    9 1     
   17    7   27 1     
   18    8   28 1     
   19    8   29 1     
   20    8   30 1     
   21    9   13 1     
   22    9   10 1     
   23   10   11 2     
   24   10   31 1     
   25   11   12 1     
   26   11   32 1     
   27   12   13 2     
   28   12   33 1     
   29   14   19 1     
   30   14   15 1     
   31   15   16 1     
   32   15   34 1     
   33   15   35 1     
   34   16   17 1     
   35   16   36 1     
   36   16   37 1     
   37   17   18 1     
   38   18   19 1     
   39   18   38 1     
   40   18   39 1     
   41   19   40 1     
   42   19   41 1     
   43    6   42 1     
   44    6   43 1     
   45   13   44 1     
   46   14   45 1     
   47   17   46 1     
   48   17   47 1     
@<TRIPOS>SUBSTRUCTURE
      1 S1             1
@<TRIPOS>SET
LONE_PAIRS      STATIC     ATOMS    <user>   **** ""
6 42 43 44 45 46 47
DONOR_HYDROGENS      STATIC     ATOMS    <user>   **** ""
1 26
ATOM$BLUE        STATIC     ATOMS    COLORGROUP SYSTEM
6 42 43 44 45 46 47
ATOM$RED        STATIC     ATOMS    COLORGROUP SYSTEM
1 26
