AV-unprocessed.smi:1934|AV-procd|sdf|7826|dock6
  -GOLD-   22720 9573D 1   1.00000     0.00000
 Structure written by MMmdl.
 46 47  0  0  0  0  0  0  0  0  2 V2000
  150.8609  141.9803  156.7499 C   0  0  0  0  0  0  0  0  0  0  0  0
  150.5362  140.7989  155.8840 C   0  0  0  0  0  0  0  0  0  0  0  0
  149.2923  140.4819  155.2652 C   0  0  0  0  0  0  0  0  0  0  0  0
  149.5702  139.3121  154.6124 C   0  0  0  0  0  0  0  0  0  0  0  0
  148.7483  138.5440  153.8487 N   0  0  0  0  0  0  0  0  0  0  0  0
  147.4058  138.5644  153.7807 C   0  0  0  0  0  0  0  0  0  0  0  0
  146.6679  139.3180  154.4159 O   0  0  0  0  0  0  0  0  0  0  0  0
  146.9481  137.6379  152.9263 N   0  0  0  0  0  0  0  0  0  0  0  0
  145.5393  137.3946  152.6377 C   0  0  0  0  0  0  0  0  0  0  0  0
  145.1504  135.9296  152.9180 C   0  0  0  0  0  0  0  0  0  0  0  0
  146.2899  134.9933  152.7464 N   0  3  2  0  0  0  0  0  0  0  0  0
  145.9134  133.7997  151.9451 C   0  0  0  0  0  0  0  0  0  0  0  0
  147.1347  132.9105  151.6643 C   0  0  0  0  0  0  0  0  0  0  0  0
  147.8215  132.4936  152.9706 C   0  0  0  0  0  0  0  0  0  0  0  0
  148.1837  133.7360  153.8010 C   0  0  2  0  0  0  0  0  0  0  0  0
  148.8502  133.3473  155.1283 C   0  0  0  0  0  0  0  0  0  0  0  0
  146.9326  134.6075  154.0321 C   0  0  0  0  0  0  0  0  0  0  0  0
  150.8890  138.9814  154.8337 N   0  0  0  0  0  0  0  0  0  0  0  0
  151.6466  137.8397  154.3586 C   0  0  0  0  0  0  0  0  0  0  0  0
  151.4814  139.9023  155.6244 N   0  0  0  0  0  0  0  0  0  0  0  0
  150.0002  142.6416  156.8522 H   0  0  0  0  0  0  0  0  0  0  0  0
  151.6788  142.5646  156.3275 H   0  0  0  0  0  0  0  0  0  0  0  0
  151.1565  141.6643  157.7506 H   0  0  0  0  0  0  0  0  0  0  0  0
  148.3659  141.0345  155.3072 H   0  0  0  0  0  0  0  0  0  0  0  0
  149.2142  137.8568  153.2746 H   0  0  0  0  0  0  0  0  0  0  0  0
  147.6210  137.0612  152.4420 H   0  0  0  0  0  0  0  0  0  0  0  0
  144.9171  138.0751  153.2215 H   0  0  0  0  0  0  0  0  0  0  0  0
  145.3785  137.6479  151.5906 H   0  0  0  0  0  0  0  0  0  0  0  0
  144.7315  135.8241  153.9202 H   0  0  0  0  0  0  0  0  0  0  0  0
  144.3573  135.6470  152.2241 H   0  0  0  0  0  0  0  0  0  0  0  0
  145.1466  133.2315  152.4743 H   0  0  0  0  0  0  0  0  0  0  0  0
  145.4775  134.1132  150.9958 H   0  0  0  0  0  0  0  0  0  0  0  0
  146.8300  132.0252  151.1052 H   0  0  0  0  0  0  0  0  0  0  0  0
  147.8427  133.4475  151.0314 H   0  0  0  0  0  0  0  0  0  0  0  0
  147.1578  131.8431  153.5423 H   0  0  0  0  0  0  0  0  0  0  0  0
  148.7162  131.9103  152.7495 H   0  0  0  0  0  0  0  0  0  0  0  0
  148.9051  134.3247  153.2316 H   0  0  0  0  0  0  0  0  0  0  0  0
  148.1755  132.7639  155.7559 H   0  0  0  0  0  0  0  0  0  0  0  0
  149.1479  134.2317  155.6923 H   0  0  0  0  0  0  0  0  0  0  0  0
  149.7460  132.7491  154.9578 H   0  0  0  0  0  0  0  0  0  0  0  0
  147.2238  135.4985  154.5869 H   0  0  0  0  0  0  0  0  0  0  0  0
  146.2103  134.0736  154.6523 H   0  0  0  0  0  0  0  0  0  0  0  0
  151.4695  137.6958  153.2926 H   0  0  0  0  0  0  0  0  0  0  0  0
  151.3334  136.9449  154.8970 H   0  0  0  0  0  0  0  0  0  0  0  0
  152.7146  137.9950  154.5188 H   0  0  0  0  0  0  0  0  0  0  0  0
  146.9856  135.4857  152.2042 H   0  0  0  0  0  0  0  0  0  0  0  0
  1  2  1  0  0  0  0
  1 21  1  0  0  0  0
  1 22  1  0  0  0  0
  1 23  1  0  0  0  0
  2 20  2  0  0  0  0
  2  3  1  0  0  0  0
  3  4  2  0  0  0  0
  3 24  1  0  0  0  0
  4  5  1  0  0  0  0
  4 18  1  0  0  0  0
  5  6  1  0  0  0  0
  5 25  1  0  0  0  0
  6  7  2  0  0  0  0
  6  8  1  0  0  0  0
  8  9  1  0  0  0  0
  8 26  1  0  0  0  0
  9 10  1  0  0  0  0
  9 27  1  0  0  0  0
  9 28  1  0  0  0  0
 10 11  1  0  0  0  0
 10 29  1  0  0  0  0
 10 30  1  0  0  0  0
 11 17  1  0  0  0  0
 11 12  1  0  0  0  0
 11 46  1  0  0  0  0
 12 13  1  0  0  0  0
 12 31  1  0  0  0  0
 12 32  1  0  0  0  0
 13 14  1  0  0  0  0
 13 33  1  0  0  0  0
 13 34  1  0  0  0  0
 14 15  1  0  0  0  0
 14 35  1  0  0  0  0
 14 36  1  0  0  0  0
 15 16  1  0  0  0  0
 15 17  1  0  0  0  0
 15 37  1  0  0  0  0
 16 38  1  0  0  0  0
 16 39  1  0  0  0  0
 16 40  1  0  0  0  0
 17 41  1  0  0  0  0
 17 42  1  0  0  0  0
 18 19  1  0  0  0  0
 18 20  1  0  0  0  0
 19 43  1  0  0  0  0
 19 44  1  0  0  0  0
 19 45  1  0  0  0  0
M  CHG  1  11   1
M  END
> <s_m_source_file>
AV-unprocessed.smi

> <i_m_source_file_index>
1934

> <i_lp_mmshare_version>
43012

> <i_f3d_flags>
0

> <s_epik_input>
W0NIM11jMVtjSF1jKG4objEpW0NIM10pW05IXUMoPU8pW05IXVtDSDJdW0NIMl1OMltDSDJdW0NIMl1bQ0gyXVtDQEBIXShbQ0gzXSlbQ0gyXTI=

> <s_epik_cmdline>
J2VwaWtfcHl0aG9uJywgJy1waCcsICc3LjAnLCAnLXRuJywgJzgnLCAnLW1hJywgJzIwMCcsICctbWV0YWxfYmluZGluZycsICctaW1hZScsICc8aW5maWxlLm1hZT4nLCAnLW9tYWUnLCAnPG91dGZpbGUubWFlPic=

> <r_lp_tautomer_probability>
1

> <r_epik_Ionization_Penalty>
0.00202955

> <r_epik_Ionization_Penalty_Charging>
0.00195276

> <r_epik_Ionization_Penalty_Neutral>
7.67968e-05

> <r_epik_State_Penalty>
0.00133177

> <r_epik_Charging_Adjusted_Penalty>
0.00328452

> <i_epik_Tot_Q>
1

> <i_epik_Tot_abs_Q>
1

> <r_epik_Metal_State_Penalty>
-0

> <b_epik_Metal_Only>
0

> <s_lp_Force_Field>
OPLS_2005

> <r_lp_Energy>
17.6546

> <b_lp_Chiralities_Consistent>
1

> <s_lp_Variant>
AV-unprocessed.smi:1934-4

> <Gold.Version>
5.8.1

> <Gold.Id.Protein>
6NUR|6NUR_protein|mol2

> <Gold.PLP.Fitness>
44.9790

> <Gold.PLP.PLP>
-35.3733

> <Gold.PLP.part.hbond>
-4.7715

> <Gold.PLP.part.metal>
0.0000

> <Gold.PLP.part.buried>
-0.2193

> <Gold.PLP.part.nonpolar>
-31.1958

> <Gold.PLP.part.repulsive>
0.2910

> <Gold.PLP.ligand.clash>
0.0000

> <Gold.PLP.ligand.torsion>
0.8753

> <Gold.PLP.Chemscore.Hbond>
3.7775

> <Gold.PLP.Chemscore.CHOScore>
0.0000

> <Gold.PLP.Chemscore.Metal>
0.0000

> <Gold.Chemscore.Hbonds>
donor molecule, donor type, donor heavy atom, donor atom, acceptor molecule, acceptor atom, score
      L1  H     5    25       P1  7948  0.67
      L1  H     8    26       P1  7948  1.00
      L1  H    11    46       P1  7948  1.62

> <Gold.PLP.Chemscore.Internal.Correction>
0.0240

> <Gold.Rescore>
     Score         DG    S(hbond)    S(metal)    S(lipo)     H(rot)  DE(clash)    DE(int)     intcor
     16.37     -18.36       2.62        0.00      67.71       1.48       0.03       1.96       ----

> <Gold.Chemscore.Fitness>
16.3726

> <Gold.Chemscore.DG>
-18.3602

> <Gold.Chemscore.ZeroCoef>
-5.4800

> <Gold.Chemscore.Hbond>
2.6217

> <Gold.Chemscore.Metal>
0.0000

> <Gold.Chemscore.Lipo>
67.7123

> <Gold.Chemscore.Internal_Hbond>
0.0000

> <Gold.Chemscore.DEClash>
0.0282

> <Gold.Chemscore.DEInternal>
1.9593

> <Gold.Chemscore.Rot>
1.4838

> <Gold.Chemscore.Internal.Correction>
   9.000000E+99

> <Gold.Chemscore.Hbonds>
donor molecule, donor type, donor heavy atom, donor atom, acceptor molecule, acceptor atom, score
      L1  H     5    25       P1  7948  0.66
      L1  H     8    26       P1  7948  1.00
      L1  H    11    46       P1  7948  0.78

> <Gold.Chemscore.Hbond.Weighted>
-8.7563

> <Gold.Chemscore.Metal.Weighted>
-0.0000

> <Gold.Chemscore.Lipo.Weighted>
-7.9223

> <Gold.Chemscore.Internal_Hbond.Weighted>
0.0000

> <Gold.Chemscore.DEClash.Weighted>
0.0282

> <Gold.Chemscore.DEInternal.Weighted>
1.9593

> <Gold.Chemscore.Rot.Weighted>
3.7985

> <Gold.Chemscore.Internal.Correction.Weighted>
   9.000000E+99

> <Gold.Protein.RotatedTorsions>
[ 6907 6896 6895 6894 ] final  -46.24 input  -60.11 | X-H torsion
[ 7974 7965 7964 7962 ] final   84.70 input  175.53 | X-H torsion
[ 8008 7997 7996 7995 ] final -138.04 input   59.86 | X-H torsion
[ 10167 10162 10161 10158 ] final  -81.38 input  -65.29 | X-H torsion
[ 10718 10713 10712 10709 ] final  -41.64 input   66.30 | X-H torsion
[ 10763 10752 10751 10750 ] final -159.88 input  -60.55 | X-H torsion
[ 11005 11000 10999 10996 ] final    8.14 input  -57.11 | X-H torsion

> <Gold.Protein.ActiveResidues>
 VAL166  LYS551  ARG553  GLY616  TRP617  ASP618  TYR619  PRO620  LYS621  CYS622 
 ASP623  PHE694  ASN695  SER759  ASP760  ASP761  ALA762  ILE779  LEU786  VAL792 
 PHE793  MET794  SER795  GLU796  ALA797  LYS798  CYS799  TRP800  GLU811  SER814 

> <Gold.Protein.RotatedAtoms>
  150.9133  134.8550  159.7439 H   0  0  0  0  0  0  0  0  0  0  0  0  # atno 6907 bound_to 6896
  152.4955  134.4326  159.9527 H   0  0  0  0  0  0  0  0  0  0  0  0  # atno 6908 bound_to 6896
  151.4367  133.3615  159.2811 H   0  0  0  0  0  0  0  0  0  0  0  0  # atno 6909 bound_to 6896
  145.5953  139.2344  143.2276 H   0  0  0  0  0  0  0  0  0  0  0  0  # atno 7974 bound_to 7965
  155.4217  140.0519  157.3025 H   0  0  0  0  0  0  0  0  0  0  0  0  # atno 8008 bound_to 7997
  154.4900  140.2116  155.9529 H   0  0  0  0  0  0  0  0  0  0  0  0  # atno 8009 bound_to 7997
  156.1328  140.3168  155.8380 H   0  0  0  0  0  0  0  0  0  0  0  0  # atno 8010 bound_to 7997
  140.4417  143.2512  151.8616 H   0  0  0  0  0  0  0  0  0  0  0  0  # atno 10167 bound_to 10162
  156.2682  130.4204  149.8467 H   0  0  0  0  0  0  0  0  0  0  0  0  # atno 10718 bound_to 10713
  154.7437  135.3075  154.8682 H   0  0  0  0  0  0  0  0  0  0  0  0  # atno 10763 bound_to 10752
  153.9489  135.6766  153.4748 H   0  0  0  0  0  0  0  0  0  0  0  0  # atno 10764 bound_to 10752
  153.1035  135.4900  154.8835 H   0  0  0  0  0  0  0  0  0  0  0  0  # atno 10765 bound_to 10752
  140.5404  134.0380  155.7902 H   0  0  0  0  0  0  0  0  0  0  0  0  # atno 11005 bound_to 11000
  146.1616  140.6779  142.9274 LP  0  0  0  0  0  0  0  0  0  0  0  0  # atno 17320 bound_to 7965
  144.7333  140.4736  143.6922 LP  0  0  0  0  0  0  0  0  0  0  0  0  # atno 17321 bound_to 7965
  139.4790  144.5221  151.8786 LP  0  0  0  0  0  0  0  0  0  0  0  0  # atno 17342 bound_to 10162
  140.4311  144.2115  150.5888 LP  0  0  0  0  0  0  0  0  0  0  0  0  # atno 17343 bound_to 10162
  156.5957  130.8525  151.3419 LP  0  0  0  0  0  0  0  0  0  0  0  0  # atno 17370 bound_to 10713
  157.7275  130.9643  150.1700 LP  0  0  0  0  0  0  0  0  0  0  0  0  # atno 17371 bound_to 10713
  141.1231  133.9429  157.2691 LP  0  0  0  0  0  0  0  0  0  0  0  0  # atno 17394 bound_to 11000
  139.9507  135.0176  156.8985 LP  0  0  0  0  0  0  0  0  0  0  0  0  # atno 17395 bound_to 11000

$$$$
