AV-unprocessed.smi:2648|AV-procd|sdf|10285|dock2
  -GOLD-   2272014293D 1   1.00000     0.00000
 Structure written by MMmdl.
 32 33  0  0  0  0  0  0  0  0  1 V2000
  144.6056  136.4984  152.5396 O   0  0  0  0  0  0  0  0  0  0  0  0
  145.8191  136.4110  152.3521 C   0  0  0  0  0  0  0  0  0  0  0  0
  146.6986  137.3261  152.7840 N   0  0  0  0  0  0  0  0  0  0  0  0
  146.3493  138.5329  153.5228 C   0  0  0  0  0  0  0  0  0  0  0  0
  146.9032  139.7937  152.8346 C   0  0  0  0  0  0  0  0  0  0  0  0
  147.7809  140.5468  153.7333 N   0  0  0  0  0  0  0  0  0  0  0  0
  148.9231  140.0699  154.2452 C   0  0  0  0  0  0  0  0  0  0  0  0
  149.4149  138.9553  154.0719 O   0  0  0  0  0  0  0  0  0  0  0  0
  149.5536  141.1496  155.0972 C   0  0  0  0  0  0  0  0  0  0  0  0
  148.5711  142.1963  154.9146 N   0  0  0  0  0  0  0  0  0  0  0  0
  147.5619  141.8165  154.1201 C   0  0  0  0  0  0  0  0  0  0  0  0
  146.6065  142.5232  153.8020 O   0  0  0  0  0  0  0  0  0  0  0  0
  146.4365  135.4211  151.6839 N   0  0  0  0  0  0  0  0  0  0  0  0
  145.8680  134.2733  151.0668 C   0  0  0  0  0  0  0  0  0  0  0  0
  144.4739  134.2671  150.8545 C   0  0  0  0  0  0  0  0  0  0  0  0
  143.8859  133.1478  150.2326 C   0  0  0  0  0  0  0  0  0  0  0  0
  144.5907  132.0748  149.8173 N   0  0  0  0  0  0  0  0  0  0  0  0
  145.9269  132.0880  150.0080 C   0  0  0  0  0  0  0  0  0  0  0  0
  146.6138  133.1559  150.6192 C   0  0  0  0  0  0  0  0  0  0  0  0
  147.6774  137.1822  152.5826 H   0  0  0  0  0  0  0  0  0  0  0  0
  145.2657  138.5997  153.6359 H   0  0  0  0  0  0  0  0  0  0  0  0
  146.7611  138.4446  154.5287 H   0  0  0  0  0  0  0  0  0  0  0  0
  147.4464  139.5163  151.9298 H   0  0  0  0  0  0  0  0  0  0  0  0
  146.0834  140.4326  152.5012 H   0  0  0  0  0  0  0  0  0  0  0  0
  149.6304  140.8465  156.1419 H   0  0  0  0  0  0  0  0  0  0  0  0
  150.5319  141.4436  154.7157 H   0  0  0  0  0  0  0  0  0  0  0  0
  148.6537  143.1087  155.3386 H   0  0  0  0  0  0  0  0  0  0  0  0
  147.4311  135.5316  151.5519 H   0  0  0  0  0  0  0  0  0  0  0  0
  143.8603  135.0999  151.1658 H   0  0  0  0  0  0  0  0  0  0  0  0
  142.8198  133.1151  150.0639 H   0  0  0  0  0  0  0  0  0  0  0  0
  146.4676  131.2214  149.6576 H   0  0  0  0  0  0  0  0  0  0  0  0
  147.6864  133.0984  150.7192 H   0  0  0  0  0  0  0  0  0  0  0  0
  1  2  2  0  0  0  0
  2  3  1  0  0  0  0
  2 13  1  0  0  0  0
  3  4  1  0  0  0  0
  3 20  1  0  0  0  0
  4  5  1  0  0  0  0
  4 21  1  0  0  0  0
  4 22  1  0  0  0  0
  5  6  1  0  0  0  0
  5 23  1  0  0  0  0
  5 24  1  0  0  0  0
  6 11  1  0  0  0  0
  6  7  1  0  0  0  0
  7  8  2  0  0  0  0
  7  9  1  0  0  0  0
  9 10  1  0  0  0  0
  9 25  1  0  0  0  0
  9 26  1  0  0  0  0
 10 11  1  0  0  0  0
 10 27  1  0  0  0  0
 11 12  2  0  0  0  0
 13 14  1  0  0  0  0
 13 28  1  0  0  0  0
 14 19  1  0  0  0  0
 14 15  2  0  0  0  0
 15 16  1  0  0  0  0
 15 29  1  0  0  0  0
 16 17  2  0  0  0  0
 16 30  1  0  0  0  0
 17 18  1  0  0  0  0
 18 19  2  0  0  0  0
 18 31  1  0  0  0  0
 19 32  1  0  0  0  0
M  END
> <s_m_source_file>
AV-unprocessed.smi

> <i_m_source_file_index>
2648

> <i_lp_mmshare_version>
43012

> <i_f3d_flags>
0

> <s_epik_input>
W2NIXTFbY0hdbltjSF1bY0hdYzFbTkhdQyg9TylbTkhdW0NIMl1bQ0gyXU4yQyg9TylbQ0gyXVtOSF1DMj1P

> <s_epik_cmdline>
J2VwaWtfcHl0aG9uJywgJy1waCcsICc3LjAnLCAnLXRuJywgJzgnLCAnLW1hJywgJzIwMCcsICctbWV0YWxfYmluZGluZycsICctaW1hZScsICc8aW5maWxlLm1hZT4nLCAnLW9tYWUnLCAnPG91dGZpbGUubWFlPic=

> <r_lp_tautomer_probability>
1

> <r_epik_Ionization_Penalty>
0.109042

> <r_epik_Ionization_Penalty_Charging>
0

> <r_epik_Ionization_Penalty_Neutral>
0.109042

> <r_epik_State_Penalty>
0.0987421

> <r_epik_Charging_Adjusted_Penalty>
0.0987421

> <i_epik_Tot_Q>
0

> <i_epik_Tot_abs_Q>
0

> <r_epik_Metal_State_Penalty>
0.108818

> <b_epik_Metal_Only>
0

> <s_lp_Force_Field>
OPLS_2005

> <r_lp_Energy>
20.6194

> <b_lp_Chiralities_Consistent>
1

> <s_lp_Variant>
AV-unprocessed.smi:2648-1

> <Gold.Version>
5.8.1

> <Gold.Id.Protein>
6NUR|6NUR_protein|mol2

> <Gold.PLP.Fitness>
46.6088

> <Gold.PLP.PLP>
-32.8994

> <Gold.PLP.part.hbond>
-3.0000

> <Gold.PLP.part.metal>
0.0000

> <Gold.PLP.part.buried>
-4.6192

> <Gold.PLP.part.nonpolar>
-27.2126

> <Gold.PLP.part.repulsive>
1.0344

> <Gold.PLP.ligand.clash>
0.0000

> <Gold.PLP.ligand.torsion>
0.4348

> <Gold.PLP.Chemscore.Hbond>
2.9920

> <Gold.PLP.Chemscore.CHOScore>
1.8604

> <Gold.PLP.Chemscore.Metal>
0.0000

> <Gold.Chemscore.Hbonds>
donor molecule, donor type, donor heavy atom, donor atom, acceptor molecule, acceptor atom, score
      L1  H     3    20       P1  7948  1.00
      L1  H    10    27       P1  8028  1.00
      L1  H    13    28       P1  7948  1.00
      L1  C    16    30       P1 10186  1.00
      L1  C    18    31       P1 10747  0.72

> <Gold.PLP.Chemscore.Internal.Correction>
0.0217

> <Gold.Rescore>
     Score         DG    S(hbond)    S(metal)    S(lipo)     H(rot)  DE(clash)    DE(int)     intcor
     15.27     -17.11       2.89        0.00      59.32       1.93       0.02       1.82       ----

> <Gold.Chemscore.Fitness>
15.2715

> <Gold.Chemscore.DG>
-17.1095

> <Gold.Chemscore.ZeroCoef>
-5.4800

> <Gold.Chemscore.Hbond>
2.8859

> <Gold.Chemscore.Metal>
0.0000

> <Gold.Chemscore.Lipo>
59.3162

> <Gold.Chemscore.Internal_Hbond>
0.0000

> <Gold.Chemscore.DEClash>
0.0191

> <Gold.Chemscore.DEInternal>
1.8190

> <Gold.Chemscore.Rot>
1.9334

> <Gold.Chemscore.Internal.Correction>
   9.000000E+99

> <Gold.Chemscore.Hbonds>
donor molecule, donor type, donor heavy atom, donor atom, acceptor molecule, acceptor atom, score
      L1  H     3    20       P1  7948  0.94
      L1  H    10    27       P1  8028  1.00
      L1  H    13    28       P1  7948  0.95

> <Gold.Chemscore.Hbond.Weighted>
-9.6389

> <Gold.Chemscore.Metal.Weighted>
-0.0000

> <Gold.Chemscore.Lipo.Weighted>
-6.9400

> <Gold.Chemscore.Internal_Hbond.Weighted>
0.0000

> <Gold.Chemscore.DEClash.Weighted>
0.0191

> <Gold.Chemscore.DEInternal.Weighted>
1.8190

> <Gold.Chemscore.Rot.Weighted>
4.9494

> <Gold.Chemscore.Internal.Correction.Weighted>
   9.000000E+99

> <Gold.Protein.RotatedTorsions>
[ 6907 6896 6895 6894 ] final  111.27 input  -60.11 | X-H torsion
[ 7974 7965 7964 7962 ] final   99.88 input  175.53 | X-H torsion
[ 8008 7997 7996 7995 ] final  -62.08 input   59.86 | X-H torsion
[ 10167 10162 10161 10158 ] final   84.06 input  -65.29 | X-H torsion
[ 10718 10713 10712 10709 ] final  -61.25 input   66.30 | X-H torsion
[ 10763 10752 10751 10750 ] final   50.06 input  -60.55 | X-H torsion
[ 11005 11000 10999 10996 ] final  170.49 input  -57.11 | X-H torsion

> <Gold.Protein.ActiveResidues>
 VAL166  LYS551  ARG553  GLY616  TRP617  ASP618  TYR619  PRO620  LYS621  CYS622 
 ASP623  PHE694  ASN695  SER759  ASP760  ASP761  ALA762  ILE779  LEU786  VAL792 
 PHE793  MET794  SER795  GLU796  ALA797  LYS798  CYS799  TRP800  GLU811  SER814 

> <Gold.Protein.RotatedAtoms>
  152.4978  133.8681  159.7284 H   0  0  0  0  0  0  0  0  0  0  0  0  # atno 6907 bound_to 6896
  150.9175  133.6912  159.2846 H   0  0  0  0  0  0  0  0  0  0  0  0  # atno 6908 bound_to 6896
  151.4301  135.1013  159.9692 H   0  0  0  0  0  0  0  0  0  0  0  0  # atno 6909 bound_to 6896
  145.3930  139.2360  143.3341 H   0  0  0  0  0  0  0  0  0  0  0  0  # atno 7974 bound_to 7965
  154.4481  140.1004  156.6530 H   0  0  0  0  0  0  0  0  0  0  0  0  # atno 8008 bound_to 7997
  155.5376  140.3483  155.4421 H   0  0  0  0  0  0  0  0  0  0  0  0  # atno 8009 bound_to 7997
  156.0620  140.1328  156.9919 H   0  0  0  0  0  0  0  0  0  0  0  0  # atno 8010 bound_to 7997
  139.9120  144.6266  150.8528 H   0  0  0  0  0  0  0  0  0  0  0  0  # atno 10167 bound_to 10162
  156.0934  130.4196  150.0968 H   0  0  0  0  0  0  0  0  0  0  0  0  # atno 10718 bound_to 10713
  152.9785  135.5891  154.4190 H   0  0  0  0  0  0  0  0  0  0  0  0  # atno 10763 bound_to 10752
  154.3817  135.2767  155.2209 H   0  0  0  0  0  0  0  0  0  0  0  0  # atno 10764 bound_to 10752
  154.4120  135.6079  153.6013 H   0  0  0  0  0  0  0  0  0  0  0  0  # atno 10765 bound_to 10752
  140.3089  134.7533  157.3976 H   0  0  0  0  0  0  0  0  0  0  0  0  # atno 11005 bound_to 11000
  146.2788  140.4616  142.8784 LP  0  0  0  0  0  0  0  0  0  0  0  0  # atno 17320 bound_to 7965
  144.8427  140.6881  143.6219 LP  0  0  0  0  0  0  0  0  0  0  0  0  # atno 17321 bound_to 7965
  140.7683  143.3359  151.2310 LP  0  0  0  0  0  0  0  0  0  0  0  0  # atno 17342 bound_to 10162
  139.6935  143.9653  152.2871 LP  0  0  0  0  0  0  0  0  0  0  0  0  # atno 17343 bound_to 10162
  156.8972  130.9608  151.3581 LP  0  0  0  0  0  0  0  0  0  0  0  0  # atno 17370 bound_to 10713
  157.6090  130.8568  149.8920 LP  0  0  0  0  0  0  0  0  0  0  0  0  # atno 17371 bound_to 10713
  140.1042  134.5432  155.8325 LP  0  0  0  0  0  0  0  0  0  0  0  0  # atno 17394 bound_to 11000
  141.2112  133.6704  156.6567 LP  0  0  0  0  0  0  0  0  0  0  0  0  # atno 17395 bound_to 11000

$$$$
