AV-unprocessed.smi:890|AV-procd|sdf|4061|dock5
  -GOLD-   22720 1553D 1   1.00000     0.00000
 Structure written by MMmdl.
 53 56  0  0  0  0  0  0  0  0  3 V2000
  145.3715  138.4103  153.1545 O   0  0  0  0  0  0  0  0  0  0  0  0
  146.4517  137.8306  153.0571 C   0  0  0  0  0  0  0  0  0  0  0  0
  146.6246  136.5357  152.7399 N   0  0  0  0  0  0  0  0  0  0  0  0
  145.6625  135.5191  152.4587 C   0  0  0  0  0  0  0  0  0  0  0  0
  144.3647  135.7760  151.9424 C   0  0  0  0  0  0  0  0  0  0  0  0
  143.4824  134.7044  151.7008 C   0  0  0  0  0  0  0  0  0  0  0  0
  143.9039  133.3917  151.9774 C   0  0  0  0  0  0  0  0  0  0  0  0
  145.1419  133.1781  152.4680 N   0  3  0  0  0  0  0  0  0  0  0  0
  146.0292  134.1722  152.7169 C   0  0  0  0  0  0  0  0  0  0  0  0
  147.2929  133.8372  153.2346 N   0  0  0  0  0  0  0  0  0  0  0  0
  148.1258  133.0062  152.3809 C   0  0  0  0  0  0  0  0  0  0  0  0
  149.2373  132.4754  153.2902 C   0  0  0  0  0  0  0  0  0  0  0  0
  148.6727  132.5903  154.7119 C   0  0  0  0  0  0  0  0  0  0  0  0
  147.2736  133.1859  154.5334 C   0  0  0  0  0  0  0  0  0  0  0  0
  147.6310  138.4350  153.2618 N   0  0  0  0  0  0  0  0  0  0  0  0
  147.8073  139.8376  153.6280 C   0  0  2  0  0  0  0  0  0  0  0  0
  149.2218  140.0523  154.1933 C   0  0  0  0  0  0  0  0  0  0  0  0
  149.4139  141.4976  154.6915 C   0  0  0  0  0  0  0  0  0  0  0  0
  148.3818  141.8874  155.6859 N   0  3  2  0  0  0  0  0  0  0  0  0
  148.5867  141.2692  157.0173 C   0  0  0  0  0  0  0  0  0  0  0  0
  149.1064  142.2311  158.0601 C   0  0  0  0  0  0  0  0  0  0  0  0
  150.0358  141.2112  157.4408 C   0  0  0  0  0  0  0  0  0  0  0  0
  147.0052  141.7066  155.1586 C   0  0  0  0  0  0  0  0  0  0  0  0
  146.7555  140.2675  154.6693 C   0  0  0  0  0  0  0  0  0  0  0  0
  147.5849  136.2283  152.6932 H   0  0  0  0  0  0  0  0  0  0  0  0
  144.0121  136.7704  151.7238 H   0  0  0  0  0  0  0  0  0  0  0  0
  142.4928  134.8898  151.3088 H   0  0  0  0  0  0  0  0  0  0  0  0
  143.2937  132.5134  151.8241 H   0  0  0  0  0  0  0  0  0  0  0  0
  147.5499  132.1753  151.9713 H   0  0  0  0  0  0  0  0  0  0  0  0
  148.5294  133.5810  151.5466 H   0  0  0  0  0  0  0  0  0  0  0  0
  149.5110  131.4517  153.0333 H   0  0  0  0  0  0  0  0  0  0  0  0
  150.1321  133.0919  153.1955 H   0  0  0  0  0  0  0  0  0  0  0  0
  148.6363  131.6280  155.2230 H   0  0  0  0  0  0  0  0  0  0  0  0
  149.2974  133.2581  155.3065 H   0  0  0  0  0  0  0  0  0  0  0  0
  147.0345  133.8952  155.3264 H   0  0  0  0  0  0  0  0  0  0  0  0
  146.5235  132.3941  154.5520 H   0  0  0  0  0  0  0  0  0  0  0  0
  148.4709  137.8847  153.1569 H   0  0  0  0  0  0  0  0  0  0  0  0
  147.6993  140.4567  152.7352 H   0  0  0  0  0  0  0  0  0  0  0  0
  149.4077  139.3537  155.0103 H   0  0  0  0  0  0  0  0  0  0  0  0
  149.9658  139.8290  153.4278 H   0  0  0  0  0  0  0  0  0  0  0  0
  150.4094  141.6239  155.1186 H   0  0  0  0  0  0  0  0  0  0  0  0
  149.3540  142.1848  153.8465 H   0  0  0  0  0  0  0  0  0  0  0  0
  147.9012  140.4732  157.3016 H   0  0  0  0  0  0  0  0  0  0  0  0
  149.2461  143.2732  157.7786 H   0  0  0  0  0  0  0  0  0  0  0  0
  148.8013  142.0651  159.0914 H   0  0  0  0  0  0  0  0  0  0  0  0
  150.3441  140.3748  158.0649 H   0  0  0  0  0  0  0  0  0  0  0  0
  150.7911  141.5766  156.7473 H   0  0  0  0  0  0  0  0  0  0  0  0
  146.2752  141.9816  155.9208 H   0  0  0  0  0  0  0  0  0  0  0  0
  146.8602  142.4018  154.3306 H   0  0  0  0  0  0  0  0  0  0  0  0
  145.7545  140.2002  154.2418 H   0  0  0  0  0  0  0  0  0  0  0  0
  146.7695  139.5822  155.5177 H   0  0  0  0  0  0  0  0  0  0  0  0
  148.4962  142.8800  155.8339 H   0  0  0  0  0  0  0  0  0  0  0  0
  145.4240  132.2171  152.6626 H   0  0  0  0  0  0  0  0  0  0  0  0
  1  2  2  0  0  0  0
  2  3  1  0  0  0  0
  2 15  1  0  0  0  0
  3  4  1  0  0  0  0
  3 25  1  0  0  0  0
  4  9  1  0  0  0  0
  4  5  2  0  0  0  0
  5  6  1  0  0  0  0
  5 26  1  0  0  0  0
  6  7  2  0  0  0  0
  6 27  1  0  0  0  0
  7  8  1  0  0  0  0
  7 28  1  0  0  0  0
  8  9  2  0  0  0  0
  8 53  1  0  0  0  0
  9 10  1  0  0  0  0
 10 14  1  0  0  0  0
 10 11  1  0  0  0  0
 11 12  1  0  0  0  0
 11 29  1  0  0  0  0
 11 30  1  0  0  0  0
 12 13  1  0  0  0  0
 12 31  1  0  0  0  0
 12 32  1  0  0  0  0
 13 14  1  0  0  0  0
 13 33  1  0  0  0  0
 13 34  1  0  0  0  0
 14 35  1  0  0  0  0
 14 36  1  0  0  0  0
 15 16  1  0  0  0  0
 15 37  1  0  0  0  0
 16 24  1  0  0  0  0
 16 17  1  0  0  0  0
 16 38  1  0  0  0  0
 17 18  1  0  0  0  0
 17 39  1  0  0  0  0
 17 40  1  0  0  0  0
 18 19  1  0  0  0  0
 18 41  1  0  0  0  0
 18 42  1  0  0  0  0
 19 20  1  0  0  0  0
 19 23  1  0  0  0  0
 19 52  1  0  0  0  0
 20 22  1  0  0  0  0
 20 21  1  0  0  0  0
 20 43  1  0  0  0  0
 21 22  1  0  0  0  0
 21 44  1  0  0  0  0
 21 45  1  0  0  0  0
 22 46  1  0  0  0  0
 22 47  1  0  0  0  0
 23 24  1  0  0  0  0
 23 48  1  0  0  0  0
 23 49  1  0  0  0  0
 24 50  1  0  0  0  0
 24 51  1  0  0  0  0
M  CHG  1   8   1
M  CHG  1  19   1
M  END
> <s_m_source_file>
AV-unprocessed.smi

> <i_m_source_file_index>
890

> <i_lp_mmshare_version>
43012

> <i_f3d_flags>
0

> <s_epik_input>
W0NIMl0xW0NIMl1bQ0hdMU4oW0NIMl1bQ0gyXTIpW0NIMl1bQ0gyXVtDSF0yW05IXUMoPU8pW05IXWMzW2NIXVtjSF1bY0hdbmMzTjRbQ0gyXVtDSDJdW0NIMl1bQ0gyXTQ=

> <s_epik_cmdline>
J2VwaWtfcHl0aG9uJywgJy1waCcsICc3LjAnLCAnLXRuJywgJzgnLCAnLW1hJywgJzIwMCcsICctbWV0YWxfYmluZGluZycsICctaW1hZScsICc8aW5maWxlLm1hZT4nLCAnLW9tYWUnLCAnPG91dGZpbGUubWFlPic=

> <r_lp_tautomer_probability>
0.999994

> <r_epik_Ionization_Penalty>
1.36901

> <r_epik_Ionization_Penalty_Charging>
1.36899

> <r_epik_Ionization_Penalty_Neutral>
1.88098e-05

> <r_epik_State_Penalty>
1.38441

> <r_epik_Charging_Adjusted_Penalty>
2.7534

> <i_epik_Tot_Q>
2

> <i_epik_Tot_abs_Q>
2

> <r_epik_Metal_State_Penalty>
1.45718

> <b_epik_Metal_Only>
0

> <s_lp_Force_Field>
OPLS_2005

> <r_lp_Energy>
67.0325

> <b_lp_Chiralities_Consistent>
1

> <s_lp_Variant>
AV-unprocessed.smi:890-5

> <Gold.Version>
5.8.1

> <Gold.Id.Protein>
6NUR|6NUR_protein|mol2

> <Gold.PLP.Fitness>
39.0661

> <Gold.PLP.PLP>
-30.8407

> <Gold.PLP.part.hbond>
-2.9772

> <Gold.PLP.part.metal>
0.0000

> <Gold.PLP.part.buried>
-3.3076

> <Gold.PLP.part.nonpolar>
-27.8643

> <Gold.PLP.part.repulsive>
2.9428

> <Gold.PLP.ligand.clash>
0.0000

> <Gold.PLP.ligand.torsion>
1.2337

> <Gold.PLP.Chemscore.Hbond>
3.1342

> <Gold.PLP.Chemscore.CHOScore>
0.0000

> <Gold.PLP.Chemscore.Metal>
0.0000

> <Gold.Chemscore.Hbonds>
donor molecule, donor type, donor heavy atom, donor atom, acceptor molecule, acceptor atom, score
      L1  H     3    25       P1  7948  0.93
      L1  H    15    37       P1  7948  0.47
      L1  H    19    52       P1  8028  2.00

> <Gold.PLP.Chemscore.Internal.Correction>
1.2900

> <Gold.Rescore>
     Score         DG    S(hbond)    S(metal)    S(lipo)     H(rot)  DE(clash)    DE(int)     intcor
     15.34     -19.76       2.55        0.00      78.77       1.35       1.65       2.77       ----

> <Gold.Chemscore.Fitness>
15.3397

> <Gold.Chemscore.DG>
-19.7641

> <Gold.Chemscore.ZeroCoef>
-5.4800

> <Gold.Chemscore.Hbond>
2.5511

> <Gold.Chemscore.Metal>
0.0000

> <Gold.Chemscore.Lipo>
78.7741

> <Gold.Chemscore.Internal_Hbond>
0.0000

> <Gold.Chemscore.DEClash>
1.6495

> <Gold.Chemscore.DEInternal>
2.7749

> <Gold.Chemscore.Rot>
1.3489

> <Gold.Chemscore.Internal.Correction>
   9.000000E+99

> <Gold.Chemscore.Hbonds>
donor molecule, donor type, donor heavy atom, donor atom, acceptor molecule, acceptor atom, score
      L1  H     3    25       P1  7948  0.88
      L1  H    15    37       P1  7948  0.47
      L1  H    19    52       P1  8028  0.99

> <Gold.Chemscore.Hbond.Weighted>
-8.5207

> <Gold.Chemscore.Metal.Weighted>
-0.0000

> <Gold.Chemscore.Lipo.Weighted>
-9.2166

> <Gold.Chemscore.Internal_Hbond.Weighted>
0.0000

> <Gold.Chemscore.DEClash.Weighted>
1.6495

> <Gold.Chemscore.DEInternal.Weighted>
2.7749

> <Gold.Chemscore.Rot.Weighted>
3.4532

> <Gold.Chemscore.Internal.Correction.Weighted>
   9.000000E+99

> <Gold.Protein.RotatedTorsions>
[ 6907 6896 6895 6894 ] final -178.45 input  -60.11 | X-H torsion
[ 7974 7965 7964 7962 ] final  -27.73 input  175.53 | X-H torsion
[ 8008 7997 7996 7995 ] final   83.85 input   59.86 | X-H torsion
[ 10167 10162 10161 10158 ] final   76.36 input  -65.29 | X-H torsion
[ 10718 10713 10712 10709 ] final  166.46 input   66.30 | X-H torsion
[ 10763 10752 10751 10750 ] final   42.50 input  -60.55 | X-H torsion
[ 11005 11000 10999 10996 ] final   12.08 input  -57.11 | X-H torsion

> <Gold.Protein.ActiveResidues>
 VAL166  LYS551  ARG553  GLY616  TRP617  ASP618  TYR619  PRO620  LYS621  CYS622 
 ASP623  PHE694  ASN695  SER759  ASP760  ASP761  ALA762  ILE779  LEU786  VAL792 
 PHE793  MET794  SER795  GLU796  ALA797  LYS798  CYS799  TRP800  GLU811  SER814 

> <Gold.Protein.RotatedAtoms>
  151.6375  133.3328  159.3122 H   0  0  0  0  0  0  0  0  0  0  0  0  # atno 6907 bound_to 6896
  150.8025  134.7132  159.6625 H   0  0  0  0  0  0  0  0  0  0  0  0  # atno 6908 bound_to 6896
  152.4118  134.6115  160.0078 H   0  0  0  0  0  0  0  0  0  0  0  0  # atno 6909 bound_to 6896
  146.1337  140.5190  142.8682 H   0  0  0  0  0  0  0  0  0  0  0  0  # atno 7974 bound_to 7965
  155.9294  140.3416  155.6237 H   0  0  0  0  0  0  0  0  0  0  0  0  # atno 8008 bound_to 7997
  155.7176  140.0779  157.2363 H   0  0  0  0  0  0  0  0  0  0  0  0  # atno 8009 bound_to 7997
  154.4082  140.1611  156.2353 H   0  0  0  0  0  0  0  0  0  0  0  0  # atno 8010 bound_to 7997
  139.9931  144.5742  150.7801 H   0  0  0  0  0  0  0  0  0  0  0  0  # atno 10167 bound_to 10162
  157.0656  131.0352  151.2631 H   0  0  0  0  0  0  0  0  0  0  0  0  # atno 10718 bound_to 10713
  152.9882  135.6130  154.2959 H   0  0  0  0  0  0  0  0  0  0  0  0  # atno 10763 bound_to 10752
  154.2682  135.2780  155.2751 H   0  0  0  0  0  0  0  0  0  0  0  0  # atno 10764 bound_to 10752
  154.5146  135.5831  153.6689 H   0  0  0  0  0  0  0  0  0  0  0  0  # atno 10765 bound_to 10752
  140.4959  134.0793  155.7782 H   0  0  0  0  0  0  0  0  0  0  0  0  # atno 11005 bound_to 11000
  144.7717  140.5653  143.6665 LP  0  0  0  0  0  0  0  0  0  0  0  0  # atno 17320 bound_to 7965
  145.5203  139.1477  143.3556 LP  0  0  0  0  0  0  0  0  0  0  0  0  # atno 17321 bound_to 7965
  140.7447  143.2865  151.3449 LP  0  0  0  0  0  0  0  0  0  0  0  0  # atno 17342 bound_to 10162
  139.6326  144.0692  152.2489 LP  0  0  0  0  0  0  0  0  0  0  0  0  # atno 17343 bound_to 10162
  157.4919  130.7827  149.7517 LP  0  0  0  0  0  0  0  0  0  0  0  0  # atno 17370 bound_to 10713
  155.9965  130.3905  150.2775 LP  0  0  0  0  0  0  0  0  0  0  0  0  # atno 17371 bound_to 10713
  141.1460  133.9054  157.2214 LP  0  0  0  0  0  0  0  0  0  0  0  0  # atno 17394 bound_to 11000
  139.9741  135.0119  156.9587 LP  0  0  0  0  0  0  0  0  0  0  0  0  # atno 17395 bound_to 11000

$$$$
