#       Name:                AV-unprocessed.smi:21
#       Creating user name   scv26
#       Creation time:       Thu Mar 26 15:32:09 2020


#       File generated by GOLD software.
#

@<TRIPOS>MOLECULE
AV-unprocessed.smi:21
    71    74     1
SMALL
NO_CHARGES


@<TRIPOS>ATOM
      1 ****        -0.6375  -1.0081  -4.8283 C.3            1 S1                 0.0000
      2 ****        -1.7005  -1.6703  -4.1620 O.3            1 S1                 0.0000
      3 ****        -2.7517  -0.8023  -3.7640 C.3            1 S1                 0.0000
      4 ****        -2.3753   0.1003  -2.5943 C.3            1 S1                 0.0000
      5 ****        -3.7223   0.4610  -1.9473 C.3            1 S1                 0.0000
      6 ****        -3.6172   0.7977  -0.4369 C.3            1 S1                 0.0000
      7 ****        -2.8457   2.0116  -0.1632 N.pl3          1 S1                 0.0000
      8 ****        -3.4859   3.2921  -0.4552 C.3            1 S1                 0.0000
      9 ****        -1.4840   1.9559  -0.1756 C.ar           1 S1                 0.0000
     10 ****        -0.7957   2.9457  -0.8065 N.ar           1 S1                 0.0000
     11 ****         0.5379   2.9195  -0.8691 C.ar           1 S1                 0.0000
     12 ****         1.3762   2.0091  -0.3746 N.ar           1 S1                 0.0000
     13 ****         0.7011   1.0164   0.2705 C.ar           1 S1                 0.0000
     14 ****        -0.7127   0.9125   0.4205 C.ar           1 S1                 0.0000
     15 ****        -1.0162  -0.2311   1.1523 N.2            1 S1                 0.0000
     16 ****         0.1420  -0.7747   1.4065 C.2            1 S1                 0.0000
     17 ****         1.2279  -0.0873   0.9182 N.pl3          1 S1                 0.0000
     18 ****         2.6247  -0.4644   1.0565 C.3            1 S1                 0.0000
     19 ****         3.1601  -0.3314   2.5050 C.3            1 S1                 0.0000
     20 ****         2.9737   1.1113   3.0430 C.3            1 S1                 0.0000
     21 ****         3.0467   1.1593   4.4524 O.3            1 S1                 0.0000
     22 ****         4.6401  -0.8005   2.5753 C.3            1 S1                 0.0000
     23 ****         5.2453  -0.8732   3.9674 C.3            1 S1                 0.0000
     24 ****         6.4552  -1.7766   3.7570 C.3            1 S1                 0.0000
     25 ****         6.0897  -2.6727   2.7148 O.3            1 S1                 0.0000
     26 ****         4.8777  -2.2409   2.1054 C.3            1 S1                 0.0000
     27 ****        -4.6447  -0.6611  -2.2976 N.4            1 S1                 1.0000
     28 ****        -5.3674  -1.3388  -1.1953 C.3            1 S1                 0.0000
     29 ****        -3.9122  -1.5996  -3.1767 C.3            1 S1                 0.0000
     30 ****        -3.1094  -0.2065  -4.6060 H              1 S1                 0.0000
     31 ****        -4.1253   1.3307  -2.4680 H              1 S1                 0.0000
     32 ****         0.1046  -1.7404  -5.1459 H              1 S1                 0.0000
     33 ****        -0.1381  -0.2925  -4.1745 H              1 S1                 0.0000
     34 ****        -0.9925  -0.4838  -5.7163 H              1 S1                 0.0000
     35 ****        -1.7612  -0.4637  -1.8909 H              1 S1                 0.0000
     36 ****        -1.8091   0.9789  -2.9046 H              1 S1                 0.0000
     37 ****        -4.6140   0.9746  -0.0336 H              1 S1                 0.0000
     38 ****        -3.2332  -0.0550   0.1161 H              1 S1                 0.0000
     39 ****        -3.0567   4.0885   0.1542 H              1 S1                 0.0000
     40 ****        -4.5533   3.2501  -0.2375 H              1 S1                 0.0000
     41 ****        -3.3655   3.5559  -1.5067 H              1 S1                 0.0000
     42 ****         0.9984   3.7455  -1.3911 H              1 S1                 0.0000
     43 ****         0.2381  -1.6943   1.9654 H              1 S1                 0.0000
     44 ****         2.7123  -1.4920   0.7041 H              1 S1                 0.0000
     45 ****         3.2234   0.1450   0.3784 H              1 S1                 0.0000
     46 ****         2.5618  -0.9988   3.1276 H              1 S1                 0.0000
     47 ****         3.7162   1.7844   2.6134 H              1 S1                 0.0000
     48 ****         1.9973   1.5161   2.7808 H              1 S1                 0.0000
     49 ****         2.9130   2.0529   4.7300 H              1 S1                 0.0000
     50 ****         5.2572  -0.1353   1.9685 H              1 S1                 0.0000
     51 ****         5.5266   0.1009   4.3676 H              1 S1                 0.0000
     52 ****         4.5468  -1.3413   4.6627 H              1 S1                 0.0000
     53 ****         7.3149  -1.1921   3.4270 H              1 S1                 0.0000
     54 ****         6.7373  -2.3123   4.6635 H              1 S1                 0.0000
     55 ****         4.0737  -2.8957   2.4447 H              1 S1                 0.0000
     56 ****         4.9428  -2.3215   1.0200 H              1 S1                 0.0000
     57 ****        -4.6777  -1.7992  -0.4869 H              1 S1                 0.0000
     58 ****        -6.0068  -2.1253  -1.5976 H              1 S1                 0.0000
     59 ****        -6.0127  -0.6424  -0.6600 H              1 S1                 0.0000
     60 ****        -4.5602  -2.0250  -3.9434 H              1 S1                 0.0000
     61 ****        -3.5178  -2.4236  -2.5785 H              1 S1                 0.0000
     62 ****        -5.3575  -0.2417  -2.8777 H              1 S1                 0.0000
     63 ****        -1.3329  -2.1162  -3.3460 LP             1 S1                 0.0000
     64 ****        -2.0778  -2.3616  -4.7783 LP             1 S1                 0.0000
     65 ****        -1.2950   3.7024  -1.2287 LP             1 S1                 0.0000
     66 ****         2.3712   2.0492  -0.4652 LP             1 S1                 0.0000
     67 ****        -1.9202  -0.5623   1.4229 LP             1 S1                 0.0000
     68 ****         3.9461   0.8434   4.7543 LP             1 S1                 0.0000
     69 ****         2.3382   0.5741   4.8468 LP             1 S1                 0.0000
     70 ****         5.9613  -3.5886   3.0951 LP             1 S1                 0.0000
     71 ****         6.8160  -2.6959   2.0278 LP             1 S1                 0.0000
@<TRIPOS>BOND
    1    1    2 1     
    2    1   32 1     
    3    1   33 1     
    4    1   34 1     
    5    2    3 1     
    6    3   30 1     
    7    3   29 1     
    8    3    4 1     
    9    4    5 1     
   10    4   35 1     
   11    4   36 1     
   12    5   31 1     
   13    5    6 1     
   14    5   27 1     
   15    6    7 1     
   16    6   37 1     
   17    6   38 1     
   18    7    8 1     
   19    7    9 1     
   20    8   39 1     
   21    8   40 1     
   22    8   41 1     
   23    9   14 ar    
   24    9   10 ar    
   25   10   11 ar    
   26   11   12 ar    
   27   11   42 1     
   28   12   13 ar    
   29   13   17 1     
   30   13   14 ar    
   31   14   15 1     
   32   15   16 2     
   33   16   17 1     
   34   16   43 1     
   35   17   18 1     
   36   18   19 1     
   37   18   44 1     
   38   18   45 1     
   39   19   20 1     
   40   19   22 1     
   41   19   46 1     
   42   20   21 1     
   43   20   47 1     
   44   20   48 1     
   45   21   49 1     
   46   22   26 1     
   47   22   23 1     
   48   22   50 1     
   49   23   24 1     
   50   23   51 1     
   51   23   52 1     
   52   24   25 1     
   53   24   53 1     
   54   24   54 1     
   55   25   26 1     
   56   26   55 1     
   57   26   56 1     
   58   27   28 1     
   59   27   29 1     
   60   27   62 1     
   61   28   57 1     
   62   28   58 1     
   63   28   59 1     
   64   29   60 1     
   65   29   61 1     
   66    2   63 1     
   67    2   64 1     
   68   10   65 1     
   69   12   66 1     
   70   15   67 1     
   71   21   68 1     
   72   21   69 1     
   73   25   70 1     
   74   25   71 1     
@<TRIPOS>SUBSTRUCTURE
      1 S1             1
@<TRIPOS>SET
LONE_PAIRS      STATIC     ATOMS    <user>   **** ""
9 63 64 65 66 67 68 69 70 71
DONOR_HYDROGENS      STATIC     ATOMS    <user>   **** ""
2 49 62
ATOM$BLUE        STATIC     ATOMS    COLORGROUP SYSTEM
9 63 64 65 66 67 68 69 70 71
ATOM$RED        STATIC     ATOMS    COLORGROUP SYSTEM
2 49 62
