AV-unprocessed.smi:1328|AV-procd|sdf|5482|dock1
  -GOLD-   22720 5 53D 1   1.00000     0.00000
 Structure written by MMmdl.
 38 39  0  0  0  0  0  0  0  0  1 V2000
  150.4647  135.1521  156.5040 C   0  0  0  0  0  0  0  0  0  0  0  0
  150.3581  133.6695  156.2883 C   0  0  0  0  0  0  0  0  0  0  0  0
  150.6670  132.8424  157.2729 N   0  0  0  0  0  0  0  0  0  0  0  0
  150.4648  131.5539  156.7687 O   0  0  0  0  0  0  0  0  0  0  0  0
  150.0387  131.6575  155.4841 C   0  0  0  0  0  0  0  0  0  0  0  0
  149.7568  130.3819  154.7646 C   0  0  0  0  0  0  0  0  0  0  0  0
  149.9513  132.9715  155.1149 C   0  0  0  0  0  0  0  0  0  0  0  0
  149.5228  133.5482  153.7908 C   0  0  0  0  0  0  0  0  0  0  0  0
  148.0318  133.2873  153.5783 C   0  0  0  0  0  0  0  0  0  0  0  0
  147.5018  132.3004  154.0884 O   0  0  0  0  0  0  0  0  0  0  0  0
  147.3702  134.1851  152.8310 N   0  0  0  0  0  0  0  0  0  0  0  0
  145.9384  134.1738  152.5388 C   0  0  1  0  0  0  0  0  0  0  0  0
  145.5642  135.5105  151.8825 C   0  0  0  0  0  0  0  0  0  0  0  0
  145.5753  132.9735  151.6400 C   0  0  1  0  0  0  0  0  0  0  0  0
  144.1332  132.9548  151.1297 C   0  0  0  0  0  0  0  0  0  0  0  0
  144.2127  132.1137  149.8660 C   0  0  0  0  0  0  0  0  0  0  0  0
  145.7055  132.0946  149.5252 C   0  0  0  0  0  0  0  0  0  0  0  0
  146.3088  133.0135  150.4259 O   0  0  0  0  0  0  0  0  0  0  0  0
  151.3351  135.5576  155.9883 H   0  0  0  0  0  0  0  0  0  0  0  0
  150.5589  135.4006  157.5615 H   0  0  0  0  0  0  0  0  0  0  0  0
  149.5830  135.6681  156.1241 H   0  0  0  0  0  0  0  0  0  0  0  0
  148.6826  130.2352  154.6506 H   0  0  0  0  0  0  0  0  0  0  0  0
  150.1597  129.5265  155.3072 H   0  0  0  0  0  0  0  0  0  0  0  0
  150.2043  130.3914  153.7708 H   0  0  0  0  0  0  0  0  0  0  0  0
  149.7248  134.6192  153.7404 H   0  0  0  0  0  0  0  0  0  0  0  0
  150.0741  133.0991  152.9642 H   0  0  0  0  0  0  0  0  0  0  0  0
  147.8991  134.9567  152.4511 H   0  0  0  0  0  0  0  0  0  0  0  0
  145.3736  134.0960  153.4696 H   0  0  0  0  0  0  0  0  0  0  0  0
  144.4938  135.5656  151.6830 H   0  0  0  0  0  0  0  0  0  0  0  0
  146.0861  135.6487  150.9350 H   0  0  0  0  0  0  0  0  0  0  0  0
  145.8194  136.3504  152.5293 H   0  0  0  0  0  0  0  0  0  0  0  0
  145.7967  132.0351  152.1525 H   0  0  0  0  0  0  0  0  0  0  0  0
  143.4304  132.5559  151.8616 H   0  0  0  0  0  0  0  0  0  0  0  0
  143.8134  133.9655  150.8721 H   0  0  0  0  0  0  0  0  0  0  0  0
  143.8481  131.1008  150.0397 H   0  0  0  0  0  0  0  0  0  0  0  0
  143.6172  132.5521  149.0647 H   0  0  0  0  0  0  0  0  0  0  0  0
  146.1230  131.1005  149.6913 H   0  0  0  0  0  0  0  0  0  0  0  0
  145.9023  132.3778  148.4910 H   0  0  0  0  0  0  0  0  0  0  0  0
  1  2  1  0  0  0  0
  1 19  1  0  0  0  0
  1 20  1  0  0  0  0
  1 21  1  0  0  0  0
  2  7  1  0  0  0  0
  2  3  2  0  0  0  0
  3  4  1  0  0  0  0
  4  5  1  0  0  0  0
  5  6  1  0  0  0  0
  5  7  2  0  0  0  0
  6 22  1  0  0  0  0
  6 23  1  0  0  0  0
  6 24  1  0  0  0  0
  7  8  1  0  0  0  0
  8  9  1  0  0  0  0
  8 25  1  0  0  0  0
  8 26  1  0  0  0  0
  9 10  2  0  0  0  0
  9 11  1  0  0  0  0
 11 12  1  0  0  0  0
 11 27  1  0  0  0  0
 12 13  1  0  0  0  0
 12 14  1  0  0  0  0
 12 28  1  0  0  0  0
 13 29  1  0  0  0  0
 13 30  1  0  0  0  0
 13 31  1  0  0  0  0
 14 18  1  0  0  0  0
 14 15  1  0  0  0  0
 14 32  1  0  0  0  0
 15 16  1  0  0  0  0
 15 33  1  0  0  0  0
 15 34  1  0  0  0  0
 16 17  1  0  0  0  0
 16 35  1  0  0  0  0
 16 36  1  0  0  0  0
 17 18  1  0  0  0  0
 17 37  1  0  0  0  0
 17 38  1  0  0  0  0
M  END
> <s_m_source_file>
AV-unprocessed.smi

> <i_m_source_file_index>
1328

> <i_lp_mmshare_version>
43012

> <i_f3d_flags>
0

> <s_epik_input>
W0NIM11jMW5vYyhbQ0gzXSljMVtDSDJdQyg9TylbTkhdW0NASF0oW0NIM10pW0NAQEhdMltDSDJdW0NIMl1bQ0gyXU8y

> <s_epik_cmdline>
J2VwaWtfcHl0aG9uJywgJy1waCcsICc3LjAnLCAnLXRuJywgJzgnLCAnLW1hJywgJzIwMCcsICctbWV0YWxfYmluZGluZycsICctaW1hZScsICc8aW5maWxlLm1hZT4nLCAnLW9tYWUnLCAnPG91dGZpbGUubWFlPic=

> <r_lp_tautomer_probability>
1

> <r_epik_Ionization_Penalty>
2.66156e-08

> <r_epik_Ionization_Penalty_Charging>
0

> <r_epik_Ionization_Penalty_Neutral>
2.66156e-08

> <r_epik_State_Penalty>
-0

> <r_epik_Charging_Adjusted_Penalty>
0

> <i_epik_Tot_Q>
0

> <i_epik_Tot_abs_Q>
0

> <r_epik_Metal_State_Penalty>
-0

> <b_epik_Metal_Only>
0

> <s_lp_Force_Field>
OPLS_2005

> <r_lp_Energy>
12.2386

> <b_lp_Chiralities_Consistent>
1

> <s_lp_Variant>
AV-unprocessed.smi:1328-4

> <Gold.Version>
5.8.1

> <Gold.Id.Protein>
6NUR|6NUR_protein|mol2

> <Gold.PLP.Fitness>
37.4098

> <Gold.PLP.PLP>
-32.5109

> <Gold.PLP.part.hbond>
-2.0000

> <Gold.PLP.part.metal>
0.0000

> <Gold.PLP.part.buried>
-5.4482

> <Gold.PLP.part.nonpolar>
-26.0057

> <Gold.PLP.part.repulsive>
0.2575

> <Gold.PLP.ligand.clash>
0.0000

> <Gold.PLP.ligand.torsion>
0.5568

> <Gold.PLP.Chemscore.Hbond>
1.9913

> <Gold.PLP.Chemscore.CHOScore>
0.0000

> <Gold.PLP.Chemscore.Metal>
0.0000

> <Gold.Chemscore.Hbonds>
donor molecule, donor type, donor heavy atom, donor atom, acceptor molecule, acceptor atom, score
      L1  H    11    27       P1  7948  1.00
      P1  H  6896  6907       L1     3  0.83

> <Gold.PLP.Chemscore.Internal.Correction>
0.0388

> <Gold.Rescore>
     Score         DG    S(hbond)    S(metal)    S(lipo)     H(rot)  DE(clash)    DE(int)     intcor
     15.94     -16.67       1.96        0.00      73.00       1.52       0.01       0.73       ----

> <Gold.Chemscore.Fitness>
15.9372

> <Gold.Chemscore.DG>
-16.6732

> <Gold.Chemscore.ZeroCoef>
-5.4800

> <Gold.Chemscore.Hbond>
1.9558

> <Gold.Chemscore.Metal>
0.0000

> <Gold.Chemscore.Lipo>
73.0044

> <Gold.Chemscore.Internal_Hbond>
0.0000

> <Gold.Chemscore.DEClash>
0.0060

> <Gold.Chemscore.DEInternal>
0.7300

> <Gold.Chemscore.Rot>
1.5159

> <Gold.Chemscore.Internal.Correction>
   9.000000E+99

> <Gold.Chemscore.Hbonds>
donor molecule, donor type, donor heavy atom, donor atom, acceptor molecule, acceptor atom, score
      L1  H    11    27       P1  7948  0.88
      P1  H  6896  6907       L1     3  0.80

> <Gold.Chemscore.Hbond.Weighted>
-6.5324

> <Gold.Chemscore.Metal.Weighted>
-0.0000

> <Gold.Chemscore.Lipo.Weighted>
-8.5415

> <Gold.Chemscore.Internal_Hbond.Weighted>
0.0000

> <Gold.Chemscore.DEClash.Weighted>
0.0060

> <Gold.Chemscore.DEInternal.Weighted>
0.7300

> <Gold.Chemscore.Rot.Weighted>
3.8807

> <Gold.Chemscore.Internal.Correction.Weighted>
   9.000000E+99

> <Gold.Protein.RotatedTorsions>
[ 6907 6896 6895 6894 ] final -157.20 input  -60.11 | X-H torsion
[ 7974 7965 7964 7962 ] final  -85.22 input  175.53 | X-H torsion
[ 8008 7997 7996 7995 ] final -112.07 input   59.86 | X-H torsion
[ 10167 10162 10161 10158 ] final  116.37 input  -65.29 | X-H torsion
[ 10718 10713 10712 10709 ] final   92.16 input   66.30 | X-H torsion
[ 10763 10752 10751 10750 ] final   68.29 input  -60.55 | X-H torsion
[ 11005 11000 10999 10996 ] final  -51.00 input  -57.11 | X-H torsion

> <Gold.Protein.ActiveResidues>
 VAL166  LYS551  ARG553  GLY616  TRP617  ASP618  TYR619  PRO620  LYS621  CYS622 
 ASP623  PHE694  ASN695  SER759  ASP760  ASP761  ALA762  ILE779  LEU786  VAL792 
 PHE793  MET794  SER795  GLU796  ALA797  LYS798  CYS799  TRP800  GLU811  SER814 

> <Gold.Protein.RotatedAtoms>
  151.2992  133.4130  159.2638 H   0  0  0  0  0  0  0  0  0  0  0  0  # atno 6907 bound_to 6896
  151.0210  134.9469  159.8070 H   0  0  0  0  0  0  0  0  0  0  0  0  # atno 6908 bound_to 6896
  152.5324  134.2955  159.9111 H   0  0  0  0  0  0  0  0  0  0  0  0  # atno 6909 bound_to 6896
  145.4962  140.9550  143.1785 H   0  0  0  0  0  0  0  0  0  0  0  0  # atno 7974 bound_to 7965
  154.9996  140.0394  157.2354 H   0  0  0  0  0  0  0  0  0  0  0  0  # atno 8008 bound_to 7997
  154.7556  140.2775  155.6233 H   0  0  0  0  0  0  0  0  0  0  0  0  # atno 8009 bound_to 7997
  156.2894  140.2638  156.2321 H   0  0  0  0  0  0  0  0  0  0  0  0  # atno 8010 bound_to 7997
  139.6252  144.7107  151.2549 H   0  0  0  0  0  0  0  0  0  0  0  0  # atno 10167 bound_to 10162
  157.6959  131.0433  150.3839 H   0  0  0  0  0  0  0  0  0  0  0  0  # atno 10718 bound_to 10713
  153.0228  135.5253  154.7111 H   0  0  0  0  0  0  0  0  0  0  0  0  # atno 10763 bound_to 10752
  154.6193  135.2887  155.0346 H   0  0  0  0  0  0  0  0  0  0  0  0  # atno 10764 bound_to 10752
  154.1339  135.6588  153.4980 H   0  0  0  0  0  0  0  0  0  0  0  0  # atno 10765 bound_to 10752
  141.0847  133.6645  156.3813 H   0  0  0  0  0  0  0  0  0  0  0  0  # atno 11005 bound_to 11000
  144.7806  139.6534  143.7156 LP  0  0  0  0  0  0  0  0  0  0  0  0  # atno 17320 bound_to 7965
  146.2254  139.5713  142.9590 LP  0  0  0  0  0  0  0  0  0  0  0  0  # atno 17321 bound_to 7965
  140.7406  143.6581  150.8188 LP  0  0  0  0  0  0  0  0  0  0  0  0  # atno 17342 bound_to 10162
  140.0198  143.5554  152.2805 LP  0  0  0  0  0  0  0  0  0  0  0  0  # atno 17343 bound_to 10162
  156.4250  130.3960  149.6799 LP  0  0  0  0  0  0  0  0  0  0  0  0  # atno 17370 bound_to 10713
  156.4037  130.7687  151.2696 LP  0  0  0  0  0  0  0  0  0  0  0  0  # atno 17371 bound_to 10713
  140.5389  134.6139  157.5374 LP  0  0  0  0  0  0  0  0  0  0  0  0  # atno 17394 bound_to 11000
  139.9664  134.7366  156.0130 LP  0  0  0  0  0  0  0  0  0  0  0  0  # atno 17395 bound_to 11000

$$$$
