AV-unprocessed.smi:942|AV-procd|sdf|4226|dock5
  -GOLD-   22720 2133D 1   1.00000     0.00000
 Structure written by MMmdl.
 42 44  0  0  0  0  0  0  0  0  1 V2000
  150.3120  142.2075  156.5556 O   0  0  0  0  0  0  0  0  0  0  0  0
  150.3282  141.3172  157.4062 C   0  0  0  0  0  0  0  0  0  0  0  0
  149.5622  140.2179  157.3410 N   0  0  0  0  0  0  0  0  0  0  0  0
  148.5609  139.9292  156.3120 C   0  0  1  0  0  0  0  0  0  0  0  0
  147.6356  141.1476  156.1149 C   0  0  0  0  0  0  0  0  0  0  0  0
  147.9196  141.6981  154.7095 C   0  0  0  0  0  0  0  0  0  0  0  0
  149.2493  141.0755  154.2871 C   0  0  0  0  0  0  0  0  0  0  0  0
  149.2135  139.6871  154.9340 C   0  0  1  0  0  0  0  0  0  0  0  0
  150.4913  138.9809  154.9791 N   0  0  0  0  0  0  0  0  0  0  0  0
  151.7284  139.4488  155.4130 C   0  0  0  0  0  0  0  0  0  0  0  0
  152.6206  138.4126  155.2570 C   0  0  0  0  0  0  0  0  0  0  0  0
  151.9674  137.3080  154.7182 N   0  0  0  0  0  0  0  0  0  0  0  0
  150.7159  137.7222  154.5735 C   0  0  0  0  0  0  0  0  0  0  0  0
  151.2440  141.4335  158.6314 C   0  0  0  0  0  0  0  0  0  0  0  0
  151.9801  142.7905  158.6389 C   0  0  0  0  0  0  0  0  0  0  0  0
  152.9112  142.9150  159.8562 C   0  0  0  0  0  0  0  0  0  0  0  0
  153.9112  141.7492  159.9148 C   0  0  0  0  0  0  0  0  0  0  0  0
  153.1871  140.3935  159.9006 C   0  0  0  0  0  0  0  0  0  0  0  0
  152.2588  140.2714  158.6812 C   0  0  0  0  0  0  0  0  0  0  0  0
  149.6481  139.5427  158.0869 H   0  0  0  0  0  0  0  0  0  0  0  0
  147.9735  139.0516  156.5876 H   0  0  0  0  0  0  0  0  0  0  0  0
  146.5869  140.8629  156.2070 H   0  0  0  0  0  0  0  0  0  0  0  0
  147.8206  141.9149  156.8682 H   0  0  0  0  0  0  0  0  0  0  0  0
  147.1337  141.3749  154.0257 H   0  0  0  0  0  0  0  0  0  0  0  0
  147.9467  142.7878  154.6864 H   0  0  0  0  0  0  0  0  0  0  0  0
  149.3662  141.0344  153.2038 H   0  0  0  0  0  0  0  0  0  0  0  0
  150.0669  141.6715  154.6952 H   0  0  0  0  0  0  0  0  0  0  0  0
  148.5334  139.0698  154.3444 H   0  0  0  0  0  0  0  0  0  0  0  0
  151.8774  140.4487  155.7919 H   0  0  0  0  0  0  0  0  0  0  0  0
  153.6760  138.3802  155.4845 H   0  0  0  0  0  0  0  0  0  0  0  0
  149.9378  137.0899  154.1713 H   0  0  0  0  0  0  0  0  0  0  0  0
  150.6248  141.3802  159.5289 H   0  0  0  0  0  0  0  0  0  0  0  0
  152.5669  142.9065  157.7262 H   0  0  0  0  0  0  0  0  0  0  0  0
  151.2588  143.6090  158.6470 H   0  0  0  0  0  0  0  0  0  0  0  0
  153.4481  143.8634  159.8175 H   0  0  0  0  0  0  0  0  0  0  0  0
  152.3169  142.9338  160.7705 H   0  0  0  0  0  0  0  0  0  0  0  0
  154.5915  141.8084  159.0641 H   0  0  0  0  0  0  0  0  0  0  0  0
  154.5277  141.8324  160.8102 H   0  0  0  0  0  0  0  0  0  0  0  0
  153.9159  139.5826  159.8952 H   0  0  0  0  0  0  0  0  0  0  0  0
  152.6051  140.2800  160.8160 H   0  0  0  0  0  0  0  0  0  0  0  0
  151.7342  139.3157  158.7173 H   0  0  0  0  0  0  0  0  0  0  0  0
  152.8628  140.2579  157.7724 H   0  0  0  0  0  0  0  0  0  0  0  0
  1  2  2  0  0  0  0
  2  3  1  0  0  0  0
  2 14  1  0  0  0  0
  3  4  1  0  0  0  0
  3 20  1  0  0  0  0
  4  8  1  0  0  0  0
  4  5  1  0  0  0  0
  4 21  1  0  0  0  0
  5  6  1  0  0  0  0
  5 22  1  0  0  0  0
  5 23  1  0  0  0  0
  6  7  1  0  0  0  0
  6 24  1  0  0  0  0
  6 25  1  0  0  0  0
  7  8  1  0  0  0  0
  7 26  1  0  0  0  0
  7 27  1  0  0  0  0
  8  9  1  0  0  0  0
  8 28  1  0  0  0  0
  9 13  1  0  0  0  0
  9 10  1  0  0  0  0
 10 11  2  0  0  0  0
 10 29  1  0  0  0  0
 11 12  1  0  0  0  0
 11 30  1  0  0  0  0
 12 13  2  0  0  0  0
 13 31  1  0  0  0  0
 14 19  1  0  0  0  0
 14 15  1  0  0  0  0
 14 32  1  0  0  0  0
 15 16  1  0  0  0  0
 15 33  1  0  0  0  0
 15 34  1  0  0  0  0
 16 17  1  0  0  0  0
 16 35  1  0  0  0  0
 16 36  1  0  0  0  0
 17 18  1  0  0  0  0
 17 37  1  0  0  0  0
 17 38  1  0  0  0  0
 18 19  1  0  0  0  0
 18 39  1  0  0  0  0
 18 40  1  0  0  0  0
 19 41  1  0  0  0  0
 19 42  1  0  0  0  0
M  END
> <s_m_source_file>
AV-unprocessed.smi

> <i_m_source_file_index>
942

> <i_lp_mmshare_version>
43012

> <i_f3d_flags>
0

> <s_epik_input>
W0NIMl0xW0NIMl1bQ0gyXVtDSDJdW0NIMl1bQ0hdMUMoPU8pW05IXVtDQEBIXTJbQ0gyXVtDSDJdW0NIMl1bQ0BIXTJuM1tjSF1bY0hdbltjSF0z

> <s_epik_cmdline>
J2VwaWtfcHl0aG9uJywgJy1waCcsICc3LjAnLCAnLXRuJywgJzgnLCAnLW1hJywgJzIwMCcsICctbWV0YWxfYmluZGluZycsICctaW1hZScsICc8aW5maWxlLm1hZT4nLCAnLW9tYWUnLCAnPG91dGZpbGUubWFlPic=

> <r_lp_tautomer_probability>
1

> <r_epik_Ionization_Penalty>
0.778458

> <r_epik_Ionization_Penalty_Charging>
0.778458

> <r_epik_Ionization_Penalty_Neutral>
2.79355e-08

> <r_epik_State_Penalty>
0.807804

> <r_epik_Charging_Adjusted_Penalty>
1.58626

> <i_epik_Tot_Q>
0

> <i_epik_Tot_abs_Q>
0

> <r_epik_Metal_State_Penalty>
0.343007

> <b_epik_Metal_Only>
0

> <s_lp_Force_Field>
OPLS_2005

> <r_lp_Energy>
33.2342

> <b_lp_Chiralities_Consistent>
1

> <s_lp_Variant>
AV-unprocessed.smi:942-6

> <Gold.Version>
5.8.1

> <Gold.Id.Protein>
6NUR|6NUR_protein|mol2

> <Gold.PLP.Fitness>
43.5605

> <Gold.PLP.PLP>
-38.6770

> <Gold.PLP.part.hbond>
-1.0000

> <Gold.PLP.part.metal>
0.0000

> <Gold.PLP.part.buried>
-3.8187

> <Gold.PLP.part.nonpolar>
-35.1547

> <Gold.PLP.part.repulsive>
1.1337

> <Gold.PLP.ligand.clash>
0.0369

> <Gold.PLP.ligand.torsion>
0.3258

> <Gold.PLP.Chemscore.Hbond>
0.8480

> <Gold.PLP.Chemscore.CHOScore>
1.0000

> <Gold.PLP.Chemscore.Metal>
0.0000

> <Gold.Chemscore.Hbonds>
donor molecule, donor type, donor heavy atom, donor atom, acceptor molecule, acceptor atom, score
      P1  H 10752 10763       L1    12  0.88
      L1  C    13    31       P1  7948  0.78

> <Gold.PLP.Chemscore.Internal.Correction>
0.0279

> <Gold.Rescore>
     Score         DG    S(hbond)    S(metal)    S(lipo)     H(rot)  DE(clash)    DE(int)     intcor
     10.43     -15.53       0.74        0.00      96.36       1.44       0.23       4.87       ----

> <Gold.Chemscore.Fitness>
10.4332

> <Gold.Chemscore.DG>
-15.5259

> <Gold.Chemscore.ZeroCoef>
-5.4800

> <Gold.Chemscore.Hbond>
0.7356

> <Gold.Chemscore.Metal>
0.0000

> <Gold.Chemscore.Lipo>
96.3611

> <Gold.Chemscore.Internal_Hbond>
0.0000

> <Gold.Chemscore.DEClash>
0.2250

> <Gold.Chemscore.DEInternal>
4.8677

> <Gold.Chemscore.Rot>
1.4395

> <Gold.Chemscore.Internal.Correction>
   9.000000E+99

> <Gold.Chemscore.Hbonds>
donor molecule, donor type, donor heavy atom, donor atom, acceptor molecule, acceptor atom, score
      P1  H 10752 10763       L1    12  0.84

> <Gold.Chemscore.Hbond.Weighted>
-2.4569

> <Gold.Chemscore.Metal.Weighted>
-0.0000

> <Gold.Chemscore.Lipo.Weighted>
-11.2742

> <Gold.Chemscore.Internal_Hbond.Weighted>
0.0000

> <Gold.Chemscore.DEClash.Weighted>
0.2250

> <Gold.Chemscore.DEInternal.Weighted>
4.8677

> <Gold.Chemscore.Rot.Weighted>
3.6852

> <Gold.Chemscore.Internal.Correction.Weighted>
   9.000000E+99

> <Gold.Protein.RotatedTorsions>
[ 6907 6896 6895 6894 ] final  137.13 input  -60.11 | X-H torsion
[ 7974 7965 7964 7962 ] final  -41.09 input  175.53 | X-H torsion
[ 8008 7997 7996 7995 ] final  -13.04 input   59.86 | X-H torsion
[ 10167 10162 10161 10158 ] final  -29.17 input  -65.29 | X-H torsion
[ 10718 10713 10712 10709 ] final -177.00 input   66.30 | X-H torsion
[ 10763 10752 10751 10750 ] final   42.06 input  -60.55 | X-H torsion
[ 11005 11000 10999 10996 ] final   53.57 input  -57.11 | X-H torsion

> <Gold.Protein.ActiveResidues>
 VAL166  LYS551  ARG553  GLY616  TRP617  ASP618  TYR619  PRO620  LYS621  CYS622 
 ASP623  PHE694  ASN695  SER759  ASP760  ASP761  ALA762  ILE779  LEU786  VAL792 
 PHE793  MET794  SER795  GLU796  ALA797  LYS798  CYS799  TRP800  GLU811  SER814 

> <Gold.Protein.RotatedAtoms>
  152.2815  133.5475  159.5500 H   0  0  0  0  0  0  0  0  0  0  0  0  # atno 6907 bound_to 6896
  150.7198  134.0557  159.3823 H   0  0  0  0  0  0  0  0  0  0  0  0  # atno 6908 bound_to 6896
  151.8468  135.0572  160.0505 H   0  0  0  0  0  0  0  0  0  0  0  0  # atno 6909 bound_to 6896
  146.0244  140.6810  142.9163 H   0  0  0  0  0  0  0  0  0  0  0  0  # atno 7974 bound_to 7965
  154.5326  140.2260  155.8779 H   0  0  0  0  0  0  0  0  0  0  0  0  # atno 8008 bound_to 7997
  156.1779  140.3107  155.9056 H   0  0  0  0  0  0  0  0  0  0  0  0  # atno 8009 bound_to 7997
  155.3421  140.0451  157.3035 H   0  0  0  0  0  0  0  0  0  0  0  0  # atno 8010 bound_to 7997
  140.7263  143.3950  151.1363 H   0  0  0  0  0  0  0  0  0  0  0  0  # atno 10167 bound_to 10162
  156.8229  130.9626  151.3111 H   0  0  0  0  0  0  0  0  0  0  0  0  # atno 10718 bound_to 10713
  152.9892  135.6143  154.2889 H   0  0  0  0  0  0  0  0  0  0  0  0  # atno 10763 bound_to 10752
  154.2615  135.2782  155.2778 H   0  0  0  0  0  0  0  0  0  0  0  0  # atno 10764 bound_to 10752
  154.5202  135.5817  153.6732 H   0  0  0  0  0  0  0  0  0  0  0  0  # atno 10765 bound_to 10752
  140.0756  134.5409  155.9000 H   0  0  0  0  0  0  0  0  0  0  0  0  # atno 11005 bound_to 11000
  144.7003  140.3623  143.7161 LP  0  0  0  0  0  0  0  0  0  0  0  0  # atno 17320 bound_to 7965
  145.7142  139.1692  143.2521 LP  0  0  0  0  0  0  0  0  0  0  0  0  # atno 17321 bound_to 7965
  139.7561  143.8705  152.3089 LP  0  0  0  0  0  0  0  0  0  0  0  0  # atno 17342 bound_to 10162
  139.8575  144.7134  150.9139 LP  0  0  0  0  0  0  0  0  0  0  0  0  # atno 17343 bound_to 10162
  157.6447  130.8834  149.9516 LP  0  0  0  0  0  0  0  0  0  0  0  0  # atno 17370 bound_to 10713
  156.0978  130.3658  150.0274 LP  0  0  0  0  0  0  0  0  0  0  0  0  # atno 17371 bound_to 10713
  141.2028  133.6627  156.6027 LP  0  0  0  0  0  0  0  0  0  0  0  0  # atno 17394 bound_to 11000
  140.3563  134.7726  157.4502 LP  0  0  0  0  0  0  0  0  0  0  0  0  # atno 17395 bound_to 11000

$$$$
