AV-unprocessed.smi:266|AV-procd|sdf|2036|dock9
  -GOLD-   2262021253D 1   1.00000     0.00000
 Structure written by MMmdl.
 52 55  0  0  0  0  0  0  0  0  1 V2000
  143.5334  133.0285  148.4763 C   0  0  0  0  0  0  0  0  0  0  0  0
  144.0640  132.6977  149.8803 C   0  0  1  0  0  0  0  0  0  0  0  0
  144.9727  131.6069  149.8148 O   0  0  0  0  0  0  0  0  0  0  0  0
  145.7587  131.6407  150.9913 C   0  0  0  0  0  0  0  0  0  0  0  0
  146.0940  133.1199  151.1198 C   0  0  0  0  0  0  0  0  0  0  0  0
  144.8220  133.8250  150.6325 C   0  0  1  0  0  0  0  0  0  0  0  0
  145.2043  134.8732  149.7579 O   0  0  0  0  0  0  0  0  0  0  0  0
  143.9513  134.4214  151.7698 C   0  0  0  0  0  0  0  0  0  0  0  0
  144.5522  135.5537  152.4611 N   0  0  0  0  0  0  0  0  0  0  0  0
  144.2538  136.8839  152.2729 C   0  0  0  0  0  0  0  0  0  0  0  0
  144.9349  137.7167  153.0103 N   0  0  0  0  0  0  0  0  0  0  0  0
  145.7864  136.9043  153.7508 C   0  0  0  0  0  0  0  0  0  0  0  0
  146.7929  137.1399  154.7339 C   0  0  0  0  0  0  0  0  0  0  0  0
  147.1764  138.3559  155.1953 N   0  0  0  0  0  0  0  0  0  0  0  0
  146.4789  139.4589  154.5468 C   0  0  0  0  0  0  0  0  0  0  0  0
  148.5683  138.5754  155.5877 C   0  0  0  0  0  0  0  0  0  0  0  0
  149.4082  139.3329  154.5305 C   0  0  1  0  0  0  0  0  0  0  0  0
  149.8322  140.7171  155.0623 C   0  0  0  0  0  0  0  0  0  0  0  0
  151.0264  140.5551  156.0138 C   0  0  0  0  0  0  0  0  0  0  0  0
  151.9390  139.0761  155.4307 S   0  0  0  0  0  0  0  0  0  0  0  0
  153.1788  139.4903  154.7567 O   0  0  0  0  0  0  0  0  0  0  0  0
  151.9605  138.0753  156.5083 O   0  0  0  0  0  0  0  0  0  0  0  0
  150.7039  138.5857  154.1700 C   0  0  0  0  0  0  0  0  0  0  0  0
  147.4171  136.0578  155.2649 N   0  0  0  0  0  0  0  0  0  0  0  0
  147.1028  134.8271  154.8516 C   0  0  0  0  0  0  0  0  0  0  0  0
  146.2030  134.4590  153.9382 N   0  0  0  0  0  0  0  0  0  0  0  0
  145.5566  135.5392  153.4143 C   0  0  0  0  0  0  0  0  0  0  0  0
  142.8432  133.8720  148.5062 H   0  0  0  0  0  0  0  0  0  0  0  0
  142.9979  132.1770  148.0564 H   0  0  0  0  0  0  0  0  0  0  0  0
  144.3432  133.2767  147.7896 H   0  0  0  0  0  0  0  0  0  0  0  0
  143.2246  132.3587  150.4897 H   0  0  0  0  0  0  0  0  0  0  0  0
  145.1695  131.2946  151.8420 H   0  0  0  0  0  0  0  0  0  0  0  0
  146.6451  131.0121  150.9024 H   0  0  0  0  0  0  0  0  0  0  0  0
  146.4019  133.3850  152.1299 H   0  0  0  0  0  0  0  0  0  0  0  0
  146.9355  133.3401  150.4602 H   0  0  0  0  0  0  0  0  0  0  0  0
  144.4253  135.3227  149.4678 H   0  0  0  0  0  0  0  0  0  0  0  0
  142.9862  134.7399  151.3730 H   0  0  0  0  0  0  0  0  0  0  0  0
  143.7338  133.6538  152.5140 H   0  0  0  0  0  0  0  0  0  0  0  0
  143.5056  137.2206  151.5699 H   0  0  0  0  0  0  0  0  0  0  0  0
  145.4174  139.4454  154.7961 H   0  0  0  0  0  0  0  0  0  0  0  0
  146.5796  139.3967  153.4625 H   0  0  0  0  0  0  0  0  0  0  0  0
  146.8811  140.4199  154.8684 H   0  0  0  0  0  0  0  0  0  0  0  0
  148.5932  139.0998  156.5425 H   0  0  0  0  0  0  0  0  0  0  0  0
  149.0262  137.6045  155.7784 H   0  0  0  0  0  0  0  0  0  0  0  0
  148.8130  139.4766  153.6291 H   0  0  0  0  0  0  0  0  0  0  0  0
  150.1450  141.3302  154.2161 H   0  0  0  0  0  0  0  0  0  0  0  0
  149.0059  141.2459  155.5388 H   0  0  0  0  0  0  0  0  0  0  0  0
  151.6834  141.4247  156.0198 H   0  0  0  0  0  0  0  0  0  0  0  0
  150.6908  140.3650  157.0334 H   0  0  0  0  0  0  0  0  0  0  0  0
  150.6004  137.5007  154.1435 H   0  0  0  0  0  0  0  0  0  0  0  0
  151.0733  138.9153  153.1986 H   0  0  0  0  0  0  0  0  0  0  0  0
  147.6503  134.0227  155.3201 H   0  0  0  0  0  0  0  0  0  0  0  0
  1  2  1  0  0  0  0
  1 28  1  0  0  0  0
  1 29  1  0  0  0  0
  1 30  1  0  0  0  0
  2  6  1  0  0  0  0
  2  3  1  0  0  0  0
  2 31  1  0  0  0  0
  3  4  1  0  0  0  0
  4  5  1  0  0  0  0
  4 32  1  0  0  0  0
  4 33  1  0  0  0  0
  5  6  1  0  0  0  0
  5 34  1  0  0  0  0
  5 35  1  0  0  0  0
  6  7  1  0  0  0  0
  6  8  1  0  0  0  0
  7 36  1  0  0  0  0
  8  9  1  0  0  0  0
  8 37  1  0  0  0  0
  8 38  1  0  0  0  0
  9 27  1  0  0  0  0
  9 10  1  0  0  0  0
 10 11  2  0  0  0  0
 10 39  1  0  0  0  0
 11 12  1  0  0  0  0
 12 27  2  0  0  0  0
 12 13  1  0  0  0  0
 13 14  1  0  0  0  0
 13 24  2  0  0  0  0
 14 15  1  0  0  0  0
 14 16  1  0  0  0  0
 15 40  1  0  0  0  0
 15 41  1  0  0  0  0
 15 42  1  0  0  0  0
 16 17  1  0  0  0  0
 16 43  1  0  0  0  0
 16 44  1  0  0  0  0
 17 23  1  0  0  0  0
 17 18  1  0  0  0  0
 17 45  1  0  0  0  0
 18 19  1  0  0  0  0
 18 46  1  0  0  0  0
 18 47  1  0  0  0  0
 19 20  1  0  0  0  0
 19 48  1  0  0  0  0
 19 49  1  0  0  0  0
 20 21  2  0  0  0  0
 20 22  2  0  0  0  0
 20 23  1  0  0  0  0
 23 50  1  0  0  0  0
 23 51  1  0  0  0  0
 24 25  1  0  0  0  0
 25 26  2  0  0  0  0
 25 52  1  0  0  0  0
 26 27  1  0  0  0  0
M  END
> <s_m_source_file>
AV-unprocessed.smi

> <i_m_source_file_index>
266

> <i_lp_mmshare_version>
43012

> <i_f3d_flags>
0

> <s_epik_input>
W0NIMl0xW0NIMl1PW0NAQEhdKFtDSDNdKVtDQEBdMShbT0hdKVtDSDJdbihbY0hdbjIpYyhjMjMpbltjSF1uYzNOKFtDSDNdKVtDSDJdW0NAQEhdKFtDSDJdNClbQ0gyXVtDSDJdUzQoPU8pPU8=

> <s_epik_cmdline>
J2VwaWtfcHl0aG9uJywgJy1waCcsICc3LjAnLCAnLXRuJywgJzgnLCAnLW1hJywgJzIwMCcsICctbWV0YWxfYmluZGluZycsICctaW1hZScsICc8aW5maWxlLm1hZT4nLCAnLW9tYWUnLCAnPG91dGZpbGUubWFlPic=

> <r_lp_tautomer_probability>
1

> <r_epik_Ionization_Penalty>
0.00155497

> <r_epik_Ionization_Penalty_Charging>
0

> <r_epik_Ionization_Penalty_Neutral>
0.00155497

> <r_epik_State_Penalty>
-0

> <r_epik_Charging_Adjusted_Penalty>
0

> <i_epik_Tot_Q>
0

> <i_epik_Tot_abs_Q>
0

> <r_epik_Metal_State_Penalty>
-0

> <b_epik_Metal_Only>
0

> <s_lp_Force_Field>
OPLS_2005

> <r_lp_Energy>
31.7584

> <b_lp_Chiralities_Consistent>
1

> <s_lp_Variant>
AV-unprocessed.smi:266-6

> <Gold.Version>
5.8.1

> <Gold.Id.Protein>
6NUR|6NUR_protein|mol2

> <Gold.PLP.Fitness>
42.4001

> <Gold.PLP.PLP>
-38.9655

> <Gold.PLP.part.hbond>
-3.2046

> <Gold.PLP.part.metal>
0.0000

> <Gold.PLP.part.buried>
-3.5915

> <Gold.PLP.part.nonpolar>
-31.4691

> <Gold.PLP.part.repulsive>
0.4956

> <Gold.PLP.ligand.clash>
0.0000

> <Gold.PLP.ligand.torsion>
1.4787

> <Gold.PLP.Chemscore.Hbond>
1.0094

> <Gold.PLP.Chemscore.CHOScore>
0.9345

> <Gold.PLP.Chemscore.Metal>
0.0000

> <Gold.Chemscore.Hbonds>
donor molecule, donor type, donor heavy atom, donor atom, acceptor molecule, acceptor atom, score
      P1  H  7989  7998       L1    21  0.01
      P1  H  7997  8010       L1    21  1.00
      L1  C    10    39       P1 10171  0.93

> <Gold.PLP.Chemscore.Internal.Correction>
0.5602

> <Gold.Rescore>
     Score         DG    S(hbond)    S(metal)    S(lipo)     H(rot)  DE(clash)    DE(int)     intcor
      9.03     -12.63       0.96        0.00      87.23       2.45       0.59       3.02       ----

> <Gold.Chemscore.Fitness>
9.0256

> <Gold.Chemscore.DG>
-12.6297

> <Gold.Chemscore.ZeroCoef>
-5.4800

> <Gold.Chemscore.Hbond>
0.9607

> <Gold.Chemscore.Metal>
0.0000

> <Gold.Chemscore.Lipo>
87.2267

> <Gold.Chemscore.Internal_Hbond>
0.0000

> <Gold.Chemscore.DEClash>
0.5887

> <Gold.Chemscore.DEInternal>
3.0154

> <Gold.Chemscore.Rot>
2.4471

> <Gold.Chemscore.Internal.Correction>
   9.000000E+99

> <Gold.Chemscore.Hbonds>
donor molecule, donor type, donor heavy atom, donor atom, acceptor molecule, acceptor atom, score
      P1  H  7997  8010       L1    21  0.85

> <Gold.Chemscore.Hbond.Weighted>
-3.2087

> <Gold.Chemscore.Metal.Weighted>
-0.0000

> <Gold.Chemscore.Lipo.Weighted>
-10.2055

> <Gold.Chemscore.Internal_Hbond.Weighted>
0.0000

> <Gold.Chemscore.DEClash.Weighted>
0.5887

> <Gold.Chemscore.DEInternal.Weighted>
3.0154

> <Gold.Chemscore.Rot.Weighted>
6.2645

> <Gold.Chemscore.Internal.Correction.Weighted>
   9.000000E+99

> <Gold.Protein.RotatedTorsions>
[ 6907 6896 6895 6894 ] final    8.84 input  -60.11 | X-H torsion
[ 7974 7965 7964 7962 ] final   63.05 input  175.53 | X-H torsion
[ 8008 7997 7996 7995 ] final  101.56 input   59.86 | X-H torsion
[ 10167 10162 10161 10158 ] final -159.76 input  -65.29 | X-H torsion
[ 10718 10713 10712 10709 ] final  158.86 input   66.30 | X-H torsion
[ 10763 10752 10751 10750 ] final   -3.23 input  -60.55 | X-H torsion
[ 11005 11000 10999 10996 ] final  163.51 input  -57.11 | X-H torsion

> <Gold.Protein.ActiveResidues>
 VAL166  LYS551  ARG553  GLY616  TRP617  ASP618  TYR619  PRO620  LYS621  CYS622 
 ASP623  PHE694  ASN695  SER759  ASP760  ASP761  ALA762  ILE779  LEU786  VAL792 
 PHE793  MET794  SER795  GLU796  ALA797  LYS798  CYS799  TRP800  GLU811  SER814 

> <Gold.Protein.RotatedAtoms>
  151.7125  135.0910  160.0269 H   0  0  0  0  0  0  0  0  0  0  0  0  # atno 6907 bound_to 6896
  152.3653  133.6344  159.6054 H   0  0  0  0  0  0  0  0  0  0  0  0  # atno 6908 bound_to 6896
  150.7633  133.9275  159.3458 H   0  0  0  0  0  0  0  0  0  0  0  0  # atno 6909 bound_to 6896
  145.8663  139.3348  143.0789 H   0  0  0  0  0  0  0  0  0  0  0  0  # atno 7974 bound_to 7965
  156.1310  140.3195  155.8349 H   0  0  0  0  0  0  0  0  0  0  0  0  # atno 8008 bound_to 7997
  155.4331  140.0520  157.3034 H   0  0  0  0  0  0  0  0  0  0  0  0  # atno 8009 bound_to 7997
  154.4900  140.2088  155.9583 H   0  0  0  0  0  0  0  0  0  0  0  0  # atno 8010 bound_to 7997
  139.6591  143.9946  152.2213 H   0  0  0  0  0  0  0  0  0  0  0  0  # atno 10167 bound_to 10162
  157.1721  131.0612  151.2177 H   0  0  0  0  0  0  0  0  0  0  0  0  # atno 10718 bound_to 10713
  153.3686  135.6993  153.6655 H   0  0  0  0  0  0  0  0  0  0  0  0  # atno 10763 bound_to 10752
  153.5314  135.3591  155.2678 H   0  0  0  0  0  0  0  0  0  0  0  0  # atno 10764 bound_to 10752
  154.8678  135.4181  154.2960 H   0  0  0  0  0  0  0  0  0  0  0  0  # atno 10765 bound_to 10752
  140.2365  134.8084  157.3369 H   0  0  0  0  0  0  0  0  0  0  0  0  # atno 11005 bound_to 11000
  145.9190  140.9128  143.0415 LP  0  0  0  0  0  0  0  0  0  0  0  0  # atno 17320 bound_to 7965
  144.6726  140.1263  143.7446 LP  0  0  0  0  0  0  0  0  0  0  0  0  # atno 17321 bound_to 7965
  139.9680  144.6513  150.8016 LP  0  0  0  0  0  0  0  0  0  0  0  0  # atno 17342 bound_to 10162
  140.7572  143.3081  151.2911 LP  0  0  0  0  0  0  0  0  0  0  0  0  # atno 17343 bound_to 10162
  157.4034  130.7345  149.6784 LP  0  0  0  0  0  0  0  0  0  0  0  0  # atno 17370 bound_to 10713
  155.9737  130.4115  150.3983 LP  0  0  0  0  0  0  0  0  0  0  0  0  # atno 17371 bound_to 10713
  140.1697  134.4624  155.7840 LP  0  0  0  0  0  0  0  0  0  0  0  0  # atno 17394 bound_to 11000
  141.2214  133.6936  156.7686 LP  0  0  0  0  0  0  0  0  0  0  0  0  # atno 17395 bound_to 11000

$$$$
