AV-unprocessed.smi:158|AV-procd|sdf|1327|dock7
  -GOLD-   2262019 23D 1   1.00000     0.00000
 Structure written by MMmdl.
 31 33  0  0  0  0  0  0  0  0  1 V2000
  145.2420  138.4836  153.8780 N   0  0  0  0  0  0  0  0  0  0  0  0
  146.5004  138.5763  154.3309 C   0  0  0  0  0  0  0  0  0  0  0  0
  147.1694  137.4340  154.6099 N   0  0  0  0  0  0  0  0  0  0  0  0
  148.4285  137.4836  155.0599 C   0  0  0  0  0  0  0  0  0  0  0  0
  149.1899  135.9714  155.3870 Cl  0  0  0  0  0  0  0  0  0  0  0  0
  149.1649  138.5752  155.2861 N   0  0  0  0  0  0  0  0  0  0  0  0
  148.4955  139.7333  155.0145 C   0  0  0  0  0  0  0  0  0  0  0  0
  147.1614  139.8133  154.5297 C   0  0  0  0  0  0  0  0  0  0  0  0
  146.7984  141.1402  154.3523 N   0  0  0  0  0  0  0  0  0  0  0  0
  147.8617  141.8047  154.7155 C   0  0  0  0  0  0  0  0  0  0  0  0
  148.9297  141.0418  155.1377 N   0  0  0  0  0  0  0  0  0  0  0  0
  150.2632  141.5552  155.6061 C   0  0  2  0  0  0  0  0  0  0  0  0
  151.2316  140.5634  155.4184 O   0  0  0  0  0  0  0  0  0  0  0  0
  151.8303  140.2026  156.6652 C   0  0  2  0  0  0  0  0  0  0  0  0
  152.2832  138.7313  156.6788 C   0  0  0  0  0  0  0  0  0  0  0  0
  153.3872  138.5527  155.8167 O   0  0  0  0  0  0  0  0  0  0  0  0
  150.8289  140.6367  157.7463 C   0  0  2  0  0  0  0  0  0  0  0  0
  149.8413  139.6502  157.9841 O   0  0  0  0  0  0  0  0  0  0  0  0
  150.2474  141.8842  157.1073 C   0  0  2  0  0  0  0  0  0  0  0  0
  149.0399  142.2275  157.5626 F   0  0  0  0  0  0  0  0  0  0  0  0
  150.4517  142.4223  154.9722 H   0  0  0  0  0  0  0  0  0  0  0  0
  152.7149  140.8357  156.7556 H   0  0  0  0  0  0  0  0  0  0  0  0
  151.3250  140.8589  158.6917 H   0  0  0  0  0  0  0  0  0  0  0  0
  150.9130  142.7320  157.2737 H   0  0  0  0  0  0  0  0  0  0  0  0
  144.7228  139.3227  153.6624 H   0  0  0  0  0  0  0  0  0  0  0  0
  144.8151  137.5768  153.7553 H   0  0  0  0  0  0  0  0  0  0  0  0
  147.8962  142.8843  154.6924 H   0  0  0  0  0  0  0  0  0  0  0  0
  152.5426  138.3922  157.6813 H   0  0  0  0  0  0  0  0  0  0  0  0
  151.4722  138.0920  156.3296 H   0  0  0  0  0  0  0  0  0  0  0  0
  153.1738  137.8754  155.1929 H   0  0  0  0  0  0  0  0  0  0  0  0
  149.3466  139.5239  157.1889 H   0  0  0  0  0  0  0  0  0  0  0  0
  1  2  1  0  0  0  0
  1 25  1  0  0  0  0
  1 26  1  0  0  0  0
  2  8  1  0  0  0  0
  2  3  2  0  0  0  0
  3  4  1  0  0  0  0
  4  5  1  0  0  0  0
  4  6  2  0  0  0  0
  6  7  1  0  0  0  0
  7 11  1  0  0  0  0
  7  8  2  0  0  0  0
  8  9  1  0  0  0  0
  9 10  2  0  0  0  0
 10 11  1  0  0  0  0
 10 27  1  0  0  0  0
 11 12  1  0  0  0  0
 12 21  1  0  0  0  0
 12 19  1  0  0  0  0
 12 13  1  0  0  0  0
 13 14  1  0  0  0  0
 14 22  1  0  0  0  0
 14 15  1  0  0  0  0
 14 17  1  0  0  0  0
 15 16  1  0  0  0  0
 15 28  1  0  0  0  0
 15 29  1  0  0  0  0
 16 30  1  0  0  0  0
 17 23  1  0  0  0  0
 17 18  1  0  0  0  0
 17 19  1  0  0  0  0
 18 31  1  0  0  0  0
 19 24  1  0  0  0  0
 19 20  1  0  0  0  0
M  END
> <s_m_source_file>
AV-unprocessed.smi

> <i_m_source_file_index>
158

> <i_lp_mmshare_version>
43012

> <i_f3d_flags>
0

> <s_epik_input>
Q2xjKG4xKW5jKFtOSDJdKWMoYzEyKW5bY0hdbjJbQ0BASF0zT1tDQEhdKFtDSDJdW09IXSlbQ0BASF0oW09IXSlbQ0BASF0zRg==

> <s_epik_cmdline>
J2VwaWtfcHl0aG9uJywgJy1waCcsICc3LjAnLCAnLXRuJywgJzgnLCAnLW1hJywgJzIwMCcsICctbWV0YWxfYmluZGluZycsICctaW1hZScsICc8aW5maWxlLm1hZT4nLCAnLW9tYWUnLCAnPG91dGZpbGUubWFlPic=

> <r_lp_tautomer_probability>
1

> <r_epik_Ionization_Penalty>
6.51543e-05

> <r_epik_Ionization_Penalty_Charging>
0

> <r_epik_Ionization_Penalty_Neutral>
6.51543e-05

> <r_epik_State_Penalty>
-0

> <r_epik_Charging_Adjusted_Penalty>
0

> <i_epik_Tot_Q>
0

> <i_epik_Tot_abs_Q>
0

> <r_epik_Metal_State_Penalty>
-0

> <b_epik_Metal_Only>
0

> <s_epik_Chemistry_Notes>
This compound contains an acetal/aminal-like group ( X-CH(R)-Y where X, Y are N, S, or O) that may be acid/base labile, releasing an aldehyde.

> <s_lp_Force_Field>
OPLS_2005

> <r_lp_Energy>
41.2985

> <b_lp_Chiralities_Consistent>
1

> <s_lp_Variant>
AV-unprocessed.smi:158-5

> <Gold.Version>
5.8.1

> <Gold.Id.Protein>
6NUR|6NUR_protein|mol2

> <Gold.PLP.Fitness>
33.0158

> <Gold.PLP.PLP>
-22.6041

> <Gold.PLP.part.hbond>
-3.0000

> <Gold.PLP.part.metal>
0.0000

> <Gold.PLP.part.buried>
-3.6478

> <Gold.PLP.part.nonpolar>
-16.2599

> <Gold.PLP.part.repulsive>
0.3359

> <Gold.PLP.ligand.clash>
0.0000

> <Gold.PLP.ligand.torsion>
0.7578

> <Gold.PLP.Chemscore.Hbond>
2.7008

> <Gold.PLP.Chemscore.CHOScore>
1.0000

> <Gold.PLP.Chemscore.Metal>
0.0000

> <Gold.Chemscore.Hbonds>
donor molecule, donor type, donor heavy atom, donor atom, acceptor molecule, acceptor atom, score
      L1  H     1    25       P1 10175  1.00
      P1  H  7989  7998       L1    13  0.84
      P1  H  7997  8008       L1    16  0.84
      L1  C    10    27       P1  8028  1.00

> <Gold.PLP.Chemscore.Internal.Correction>
0.8248

> <Gold.Rescore>
     Score         DG    S(hbond)    S(metal)    S(lipo)     H(rot)  DE(clash)    DE(int)     intcor
      6.84      -9.16       2.49        0.00      28.75       3.12       0.19       2.14       ----

> <Gold.Chemscore.Fitness>
6.8362

> <Gold.Chemscore.DG>
-9.1599

> <Gold.Chemscore.ZeroCoef>
-5.4800

> <Gold.Chemscore.Hbond>
2.4884

> <Gold.Chemscore.Metal>
0.0000

> <Gold.Chemscore.Lipo>
28.7488

> <Gold.Chemscore.Internal_Hbond>
0.0000

> <Gold.Chemscore.DEClash>
0.1870

> <Gold.Chemscore.DEInternal>
2.1367

> <Gold.Chemscore.Rot>
3.1230

> <Gold.Chemscore.Internal.Correction>
   9.000000E+99

> <Gold.Chemscore.Hbonds>
donor molecule, donor type, donor heavy atom, donor atom, acceptor molecule, acceptor atom, score
      L1  H     1    25       P1 10175  0.96
      P1  H  7989  7998       L1    13  0.18
      P1  H  7997  8008       L1    16  0.19

> <Gold.Chemscore.Hbond.Weighted>
-8.3113

> <Gold.Chemscore.Metal.Weighted>
-0.0000

> <Gold.Chemscore.Lipo.Weighted>
-3.3636

> <Gold.Chemscore.Internal_Hbond.Weighted>
0.0000

> <Gold.Chemscore.DEClash.Weighted>
0.1870

> <Gold.Chemscore.DEInternal.Weighted>
2.1367

> <Gold.Chemscore.Rot.Weighted>
7.9950

> <Gold.Chemscore.Internal.Correction.Weighted>
   9.000000E+99

> <Gold.Protein.RotatedTorsions>
[ 6907 6896 6895 6894 ] final  -31.19 input  -60.11 | X-H torsion
[ 7974 7965 7964 7962 ] final  150.09 input  175.53 | X-H torsion
[ 8008 7997 7996 7995 ] final  -39.34 input   59.86 | X-H torsion
[ 10167 10162 10161 10158 ] final -160.40 input  -65.29 | X-H torsion
[ 10718 10713 10712 10709 ] final  154.26 input   66.30 | X-H torsion
[ 10763 10752 10751 10750 ] final  159.63 input  -60.55 | X-H torsion
[ 11005 11000 10999 10996 ] final  -21.32 input  -57.11 | X-H torsion

> <Gold.Protein.ActiveResidues>
 VAL166  LYS551  ARG553  GLY616  TRP617  ASP618  TYR619  PRO620  LYS621  CYS622 
 ASP623  PHE694  ASN695  SER759  ASP760  ASP761  ALA762  ILE779  LEU786  VAL792 
 PHE793  MET794  SER795  GLU796  ALA797  LYS798  CYS799  TRP800  GLU811  SER814 

> <Gold.Protein.RotatedAtoms>
  151.0954  134.9941  159.8422 H   0  0  0  0  0  0  0  0  0  0  0  0  # atno 6907 bound_to 6896
  152.5432  134.2014  159.8724 H   0  0  0  0  0  0  0  0  0  0  0  0  # atno 6908 bound_to 6896
  151.2053  133.4543  159.2630 H   0  0  0  0  0  0  0  0  0  0  0  0  # atno 6909 bound_to 6896
  144.8389  139.6364  143.6025 H   0  0  0  0  0  0  0  0  0  0  0  0  # atno 7974 bound_to 7965
  154.4024  140.1554  156.2847 H   0  0  0  0  0  0  0  0  0  0  0  0  # atno 8008 bound_to 7997
  155.8838  140.3442  155.5885 H   0  0  0  0  0  0  0  0  0  0  0  0  # atno 8009 bound_to 7997
  155.7636  140.0821  157.2133 H   0  0  0  0  0  0  0  0  0  0  0  0  # atno 8010 bound_to 7997
  139.6542  144.0028  152.2183 H   0  0  0  0  0  0  0  0  0  0  0  0  # atno 10167 bound_to 10162
  157.2340  131.0745  151.1835 H   0  0  0  0  0  0  0  0  0  0  0  0  # atno 10718 bound_to 10713
  154.2349  135.2777  155.2876 H   0  0  0  0  0  0  0  0  0  0  0  0  # atno 10763 bound_to 10752
  154.5593  135.5651  153.6996 H   0  0  0  0  0  0  0  0  0  0  0  0  # atno 10764 bound_to 10752
  153.0012  135.6294  154.2491 H   0  0  0  0  0  0  0  0  0  0  0  0  # atno 10765 bound_to 10752
  140.8550  133.7829  156.0009 H   0  0  0  0  0  0  0  0  0  0  0  0  # atno 11005 bound_to 11000
  146.2685  139.6577  142.9313 LP  0  0  0  0  0  0  0  0  0  0  0  0  # atno 17320 bound_to 7965
  145.4735  141.0436  143.2685 LP  0  0  0  0  0  0  0  0  0  0  0  0  # atno 17321 bound_to 7965
  139.9750  144.6467  150.7953 LP  0  0  0  0  0  0  0  0  0  0  0  0  # atno 17342 bound_to 10162
  140.7552  143.3041  151.3006 LP  0  0  0  0  0  0  0  0  0  0  0  0  # atno 17343 bound_to 10162
  157.3449  130.7052  149.6404 LP  0  0  0  0  0  0  0  0  0  0  0  0  # atno 17370 bound_to 10713
  155.9673  130.4269  150.4721 LP  0  0  0  0  0  0  0  0  0  0  0  0  # atno 17371 bound_to 10713
  140.8747  134.2683  157.5173 LP  0  0  0  0  0  0  0  0  0  0  0  0  # atno 17394 bound_to 11000
  139.8705  134.9585  156.4303 LP  0  0  0  0  0  0  0  0  0  0  0  0  # atno 17395 bound_to 11000

$$$$
