AV-unprocessed.smi:1783|AV-procd|sdf|7193|dock8
  -GOLD-   22720 8433D 1   1.00000     0.00000
 Structure written by MMmdl.
 30 31  0  0  0  0  0  0  0  0  1 V2000
  151.5180  140.6884  155.5115 O   0  0  0  0  0  0  0  0  0  0  0  0
  151.7913  139.6200  156.0580 C   0  0  0  0  0  0  0  0  0  0  0  0
  152.2215  139.4927  157.3296 N   0  0  0  0  0  0  0  0  0  0  0  0
  152.4409  140.4818  158.3027 C   0  0  0  0  0  0  0  0  0  0  0  0
  151.8848  141.7214  158.2903 C   0  0  0  0  0  0  0  0  0  0  0  0
  152.1462  142.6944  159.3378 C   0  0  0  0  0  0  0  0  0  0  0  0
  151.5874  144.1072  159.2687 C   0  0  0  0  0  0  0  0  0  0  0  0
  150.2744  144.0644  159.0471 F   0  0  0  0  0  0  0  0  0  0  0  0
  151.7951  144.7664  160.4096 F   0  0  0  0  0  0  0  0  0  0  0  0
  152.1531  144.7973  158.2781 F   0  0  0  0  0  0  0  0  0  0  0  0
  152.9757  142.3066  160.3240 C   0  0  0  0  0  0  0  0  0  0  0  0
  153.5327  141.0264  160.3563 N   0  0  0  0  0  0  0  0  0  0  0  0
  153.3228  140.0821  159.4118 C   0  0  0  0  0  0  0  0  0  0  0  0
  153.8533  138.9763  159.5105 O   0  0  0  0  0  0  0  0  0  0  0  0
  151.6511  138.3020  155.2698 C   0  0  1  0  0  0  0  0  0  0  0  0
  150.6404  137.3135  155.8608 C   0  0  0  0  0  0  0  0  0  0  0  0
  149.3042  137.8186  155.3414 C   0  0  0  0  0  0  0  0  0  0  0  0
  149.6717  138.5951  154.0725 C   0  0  0  0  0  0  0  0  0  0  0  0
  151.0947  138.5466  153.9804 O   0  0  0  0  0  0  0  0  0  0  0  0
  154.1316  140.8059  161.1389 H   0  0  0  0  0  0  0  0  0  0  0  0
  152.4707  138.5571  157.6183 H   0  0  0  0  0  0  0  0  0  0  0  0
  151.2069  142.0183  157.5070 H   0  0  0  0  0  0  0  0  0  0  0  0
  153.2787  142.9367  161.1472 H   0  0  0  0  0  0  0  0  0  0  0  0
  152.6387  137.8498  155.1745 H   0  0  0  0  0  0  0  0  0  0  0  0
  150.8367  136.3172  155.4628 H   0  0  0  0  0  0  0  0  0  0  0  0
  150.6697  137.2398  156.9486 H   0  0  0  0  0  0  0  0  0  0  0  0
  148.6081  137.0026  155.1452 H   0  0  0  0  0  0  0  0  0  0  0  0
  148.8406  138.4877  156.0674 H   0  0  0  0  0  0  0  0  0  0  0  0
  149.2251  138.1575  153.1792 H   0  0  0  0  0  0  0  0  0  0  0  0
  149.3400  139.6318  154.1432 H   0  0  0  0  0  0  0  0  0  0  0  0
  1  2  2  0  0  0  0
  2  3  1  0  0  0  0
  2 15  1  0  0  0  0
  3  4  1  0  0  0  0
  3 21  1  0  0  0  0
  4 13  1  0  0  0  0
  4  5  2  0  0  0  0
  5  6  1  0  0  0  0
  5 22  1  0  0  0  0
  6  7  1  0  0  0  0
  6 11  2  0  0  0  0
  7  8  1  0  0  0  0
  7  9  1  0  0  0  0
  7 10  1  0  0  0  0
 11 12  1  0  0  0  0
 11 23  1  0  0  0  0
 12 20  1  0  0  0  0
 12 13  1  0  0  0  0
 13 14  2  0  0  0  0
 15 19  1  0  0  0  0
 15 16  1  0  0  0  0
 15 24  1  0  0  0  0
 16 17  1  0  0  0  0
 16 25  1  0  0  0  0
 16 26  1  0  0  0  0
 17 18  1  0  0  0  0
 17 27  1  0  0  0  0
 17 28  1  0  0  0  0
 18 19  1  0  0  0  0
 18 29  1  0  0  0  0
 18 30  1  0  0  0  0
M  END
> <s_m_source_file>
AV-unprocessed.smi

> <i_m_source_file_index>
1783

> <i_lp_mmshare_version>
43012

> <i_f3d_flags>
0

> <s_epik_input>
TzFbQ0gyXVtDSDJdW0NIMl1bQ0BIXTFDKD1PKVtOSF1jMltjSF1jKEMoRikoRilGKVtjSF1bbkhdYzI9Tw==

> <s_epik_cmdline>
J2VwaWtfcHl0aG9uJywgJy1waCcsICc3LjAnLCAnLXRuJywgJzgnLCAnLW1hJywgJzIwMCcsICctbWV0YWxfYmluZGluZycsICctaW1hZScsICc8aW5maWxlLm1hZT4nLCAnLW9tYWUnLCAnPG91dGZpbGUubWFlPic=

> <r_lp_tautomer_probability>
0.999

> <r_epik_Ionization_Penalty>
0.00885957

> <r_epik_Ionization_Penalty_Charging>
0.00885947

> <r_epik_Ionization_Penalty_Neutral>
9.33956e-08

> <r_epik_State_Penalty>
0.00669851

> <r_epik_Charging_Adjusted_Penalty>
0.015558

> <i_epik_Tot_Q>
0

> <i_epik_Tot_abs_Q>
0

> <r_epik_Metal_State_Penalty>
0.320804

> <b_epik_Metal_Only>
0

> <s_lp_Force_Field>
OPLS_2005

> <r_lp_Energy>
32.0123

> <b_lp_Chiralities_Consistent>
1

> <s_lp_Variant>
AV-unprocessed.smi:1783-2

> <Gold.Version>
5.8.1

> <Gold.Id.Protein>
6NUR|6NUR_protein|mol2

> <Gold.PLP.Fitness>
38.9939

> <Gold.PLP.PLP>
-38.3546

> <Gold.PLP.part.hbond>
-1.0000

> <Gold.PLP.part.metal>
0.0000

> <Gold.PLP.part.buried>
-4.3651

> <Gold.PLP.part.nonpolar>
-32.1975

> <Gold.PLP.part.repulsive>
0.3817

> <Gold.PLP.ligand.clash>
0.7348

> <Gold.PLP.ligand.torsion>
0.4238

> <Gold.PLP.Chemscore.Hbond>
0.7176

> <Gold.PLP.Chemscore.CHOScore>
0.0000

> <Gold.PLP.Chemscore.Metal>
0.0000

> <Gold.Chemscore.Hbonds>
donor molecule, donor type, donor heavy atom, donor atom, acceptor molecule, acceptor atom, score
      P1  H  7989  7998       L1     1  0.74

> <Gold.PLP.Chemscore.Internal.Correction>
0.0688

> <Gold.Rescore>
     Score         DG    S(hbond)    S(metal)    S(lipo)     H(rot)  DE(clash)    DE(int)     intcor
     12.38     -13.60       0.83        0.00      67.54       1.00       0.11       1.11       ----

> <Gold.Chemscore.Fitness>
12.3766

> <Gold.Chemscore.DG>
-13.5950

> <Gold.Chemscore.ZeroCoef>
-5.4800

> <Gold.Chemscore.Hbond>
0.8300

> <Gold.Chemscore.Metal>
0.0000

> <Gold.Chemscore.Lipo>
67.5445

> <Gold.Chemscore.Internal_Hbond>
0.0000

> <Gold.Chemscore.DEClash>
0.1132

> <Gold.Chemscore.DEInternal>
1.1052

> <Gold.Chemscore.Rot>
1.0000

> <Gold.Chemscore.Internal.Correction>
   9.000000E+99

> <Gold.Chemscore.Hbonds>
donor molecule, donor type, donor heavy atom, donor atom, acceptor molecule, acceptor atom, score
      P1  H  7989  7998       L1     1  0.67

> <Gold.Chemscore.Hbond.Weighted>
-2.7723

> <Gold.Chemscore.Metal.Weighted>
-0.0000

> <Gold.Chemscore.Lipo.Weighted>
-7.9027

> <Gold.Chemscore.Internal_Hbond.Weighted>
0.0000

> <Gold.Chemscore.DEClash.Weighted>
0.1132

> <Gold.Chemscore.DEInternal.Weighted>
1.1052

> <Gold.Chemscore.Rot.Weighted>
2.5600

> <Gold.Chemscore.Internal.Correction.Weighted>
   9.000000E+99

> <Gold.Protein.RotatedTorsions>
[ 6907 6896 6895 6894 ] final  119.38 input  -60.11 | X-H torsion
[ 7974 7965 7964 7962 ] final   52.19 input  175.53 | X-H torsion
[ 8008 7997 7996 7995 ] final  111.67 input   59.86 | X-H torsion
[ 10167 10162 10161 10158 ] final  174.03 input  -65.29 | X-H torsion
[ 10718 10713 10712 10709 ] final    5.21 input   66.30 | X-H torsion
[ 10763 10752 10751 10750 ] final  136.72 input  -60.55 | X-H torsion
[ 11005 11000 10999 10996 ] final  118.39 input  -57.11 | X-H torsion

> <Gold.Protein.ActiveResidues>
 VAL166  LYS551  ARG553  GLY616  TRP617  ASP618  TYR619  PRO620  LYS621  CYS622 
 ASP623  PHE694  ASN695  SER759  ASP760  ASP761  ALA762  ILE779  LEU786  VAL792 
 PHE793  MET794  SER795  GLU796  ALA797  LYS798  CYS799  TRP800  GLU811  SER814 

> <Gold.Protein.RotatedAtoms>
  152.4476  133.7566  159.6723 H   0  0  0  0  0  0  0  0  0  0  0  0  # atno 6907 bound_to 6896
  150.8379  133.7972  159.3078 H   0  0  0  0  0  0  0  0  0  0  0  0  # atno 6908 bound_to 6896
  151.5606  135.1068  160.0023 H   0  0  0  0  0  0  0  0  0  0  0  0  # atno 6909 bound_to 6896
  145.9838  139.4269  143.0116 H   0  0  0  0  0  0  0  0  0  0  0  0  # atno 7974 bound_to 7965
  156.2140  140.3014  155.9797 H   0  0  0  0  0  0  0  0  0  0  0  0  # atno 8008 bound_to 7997
  155.2652  140.0431  157.3018 H   0  0  0  0  0  0  0  0  0  0  0  0  # atno 8009 bound_to 7997
  154.5741  140.2356  155.8157 H   0  0  0  0  0  0  0  0  0  0  0  0  # atno 8010 bound_to 7997
  139.5128  144.3193  152.0218 H   0  0  0  0  0  0  0  0  0  0  0  0  # atno 10167 bound_to 10162
  156.9040  130.5732  149.5647 H   0  0  0  0  0  0  0  0  0  0  0  0  # atno 10718 bound_to 10713
  153.8612  135.3067  155.3438 H   0  0  0  0  0  0  0  0  0  0  0  0  # atno 10763 bound_to 10752
  154.7848  135.4815  153.9925 H   0  0  0  0  0  0  0  0  0  0  0  0  # atno 10764 bound_to 10752
  153.1461  135.6834  153.9047 H   0  0  0  0  0  0  0  0  0  0  0  0  # atno 10765 bound_to 10752
  139.9108  134.9620  156.7496 H   0  0  0  0  0  0  0  0  0  0  0  0  # atno 11005 bound_to 11000
  145.7731  140.9888  143.1139 LP  0  0  0  0  0  0  0  0  0  0  0  0  # atno 17320 bound_to 7965
  144.6869  139.9471  143.7477 LP  0  0  0  0  0  0  0  0  0  0  0  0  # atno 17321 bound_to 7965
  140.2635  144.4041  150.6177 LP  0  0  0  0  0  0  0  0  0  0  0  0  # atno 17342 bound_to 10162
  140.6140  143.2171  151.6829 LP  0  0  0  0  0  0  0  0  0  0  0  0  # atno 17343 bound_to 10162
  156.0568  130.5628  150.9109 LP  0  0  0  0  0  0  0  0  0  0  0  0  # atno 17370 bound_to 10713
  157.6009  131.0941  150.8962 LP  0  0  0  0  0  0  0  0  0  0  0  0  # atno 17371 bound_to 10713
  140.6784  133.9496  155.7896 LP  0  0  0  0  0  0  0  0  0  0  0  0  # atno 17394 bound_to 11000
  141.0527  134.0461  157.3762 LP  0  0  0  0  0  0  0  0  0  0  0  0  # atno 17395 bound_to 11000

$$$$
