AV-unprocessed.smi:1095|AV-procd|sdf|4748|dock6
  -GOLD-   22720 3283D 1   1.00000     0.00000
 Structure written by MMmdl.
 50 51  0  0  0  0  0  0  0  0  1 V2000
  153.6632  142.2500  162.9961 C   0  0  0  0  0  0  0  0  0  0  0  0
  153.3880  141.8049  161.5532 C   0  0  0  0  0  0  0  0  0  0  0  0
  153.0961  142.9658  160.5805 C   0  0  2  0  0  0  0  0  0  0  0  0
  151.9360  143.8635  161.0621 C   0  0  0  0  0  0  0  0  0  0  0  0
  151.6345  144.9960  160.0643 C   0  0  0  0  0  0  0  0  0  0  0  0
  151.3430  144.4740  158.6434 C   0  0  2  0  0  0  0  0  0  0  0  0
  149.9508  143.8075  158.5421 C   0  0  0  0  0  0  0  0  0  0  0  0
  148.8844  144.6868  159.0094 N   0  0  0  0  0  0  0  0  0  0  0  0
  148.2278  144.5528  160.1719 C   0  0  0  0  0  0  0  0  0  0  0  0
  148.4358  143.6349  160.9658 O   0  0  0  0  0  0  0  0  0  0  0  0
  147.1839  145.6238  160.4935 C   0  0  0  0  0  0  0  0  0  0  0  0
  145.8133  145.1470  160.0806 C   0  0  0  0  0  0  0  0  0  0  0  0
  145.1602  143.9362  160.4594 C   0  0  0  0  0  0  0  0  0  0  0  0
  145.6664  142.8347  161.3458 C   0  0  0  0  0  0  0  0  0  0  0  0
  143.9582  143.8210  159.9206 N   0  0  0  0  0  0  0  0  0  0  0  0
  143.8011  144.9396  159.1852 N   0  0  0  0  0  0  0  0  0  0  0  0
  142.5682  145.1365  158.4478 C   0  0  0  0  0  0  0  0  0  0  0  0
  144.9094  145.7615  159.2552 C   0  0  0  0  0  0  0  0  0  0  0  0
  144.9883  147.0599  158.5183 C   0  0  0  0  0  0  0  0  0  0  0  0
  152.5016  143.5677  158.1727 C   0  0  0  0  0  0  0  0  0  0  0  0
  152.7989  142.4308  159.1653 C   0  0  0  0  0  0  0  0  0  0  0  0
  153.9357  141.3959  163.6162 H   0  0  0  0  0  0  0  0  0  0  0  0
  152.7881  142.7145  163.4499 H   0  0  0  0  0  0  0  0  0  0  0  0
  154.4855  142.9648  163.0385 H   0  0  0  0  0  0  0  0  0  0  0  0
  154.2612  141.2557  161.1990 H   0  0  0  0  0  0  0  0  0  0  0  0
  152.5612  141.0937  161.5417 H   0  0  0  0  0  0  0  0  0  0  0  0
  153.9950  143.5810  160.5155 H   0  0  0  0  0  0  0  0  0  0  0  0
  151.0409  143.2612  161.2201 H   0  0  0  0  0  0  0  0  0  0  0  0
  152.1772  144.3070  162.0279 H   0  0  0  0  0  0  0  0  0  0  0  0
  150.7988  145.5971  160.4240 H   0  0  0  0  0  0  0  0  0  0  0  0
  152.4926  145.6684  160.0263 H   0  0  0  0  0  0  0  0  0  0  0  0
  151.3232  145.3436  157.9847 H   0  0  0  0  0  0  0  0  0  0  0  0
  149.7273  143.5311  157.5123 H   0  0  0  0  0  0  0  0  0  0  0  0
  149.9368  142.8762  159.1109 H   0  0  0  0  0  0  0  0  0  0  0  0
  148.6464  145.4692  158.4174 H   0  0  0  0  0  0  0  0  0  0  0  0
  147.2109  145.8642  161.5572 H   0  0  0  0  0  0  0  0  0  0  0  0
  147.4635  146.5411  159.9755 H   0  0  0  0  0  0  0  0  0  0  0  0
  145.9685  141.9697  160.7552 H   0  0  0  0  0  0  0  0  0  0  0  0
  144.8994  142.5073  162.0479 H   0  0  0  0  0  0  0  0  0  0  0  0
  146.5298  143.1551  161.9282 H   0  0  0  0  0  0  0  0  0  0  0  0
  142.1834  146.1392  158.6343 H   0  0  0  0  0  0  0  0  0  0  0  0
  141.8152  144.4099  158.7558 H   0  0  0  0  0  0  0  0  0  0  0  0
  142.7580  145.0194  157.3808 H   0  0  0  0  0  0  0  0  0  0  0  0
  146.0194  147.4019  158.4304 H   0  0  0  0  0  0  0  0  0  0  0  0
  144.4196  147.8321  159.0363 H   0  0  0  0  0  0  0  0  0  0  0  0
  144.5883  146.9638  157.5087 H   0  0  0  0  0  0  0  0  0  0  0  0
  152.2949  143.1534  157.1866 H   0  0  0  0  0  0  0  0  0  0  0  0
  153.4001  144.1747  158.0553 H   0  0  0  0  0  0  0  0  0  0  0  0
  153.6496  141.8533  158.8020 H   0  0  0  0  0  0  0  0  0  0  0  0
  151.9566  141.7390  159.1984 H   0  0  0  0  0  0  0  0  0  0  0  0
  1  2  1  0  0  0  0
  1 22  1  0  0  0  0
  1 23  1  0  0  0  0
  1 24  1  0  0  0  0
  2  3  1  0  0  0  0
  2 25  1  0  0  0  0
  2 26  1  0  0  0  0
  3 21  1  0  0  0  0
  3  4  1  0  0  0  0
  3 27  1  0  0  0  0
  4  5  1  0  0  0  0
  4 28  1  0  0  0  0
  4 29  1  0  0  0  0
  5  6  1  0  0  0  0
  5 30  1  0  0  0  0
  5 31  1  0  0  0  0
  6  7  1  0  0  0  0
  6 20  1  0  0  0  0
  6 32  1  0  0  0  0
  7  8  1  0  0  0  0
  7 33  1  0  0  0  0
  7 34  1  0  0  0  0
  8  9  1  0  0  0  0
  8 35  1  0  0  0  0
  9 10  2  0  0  0  0
  9 11  1  0  0  0  0
 11 12  1  0  0  0  0
 11 36  1  0  0  0  0
 11 37  1  0  0  0  0
 12 18  2  0  0  0  0
 12 13  1  0  0  0  0
 13 14  1  0  0  0  0
 13 15  2  0  0  0  0
 14 38  1  0  0  0  0
 14 39  1  0  0  0  0
 14 40  1  0  0  0  0
 15 16  1  0  0  0  0
 16 17  1  0  0  0  0
 16 18  1  0  0  0  0
 17 41  1  0  0  0  0
 17 42  1  0  0  0  0
 17 43  1  0  0  0  0
 18 19  1  0  0  0  0
 19 44  1  0  0  0  0
 19 45  1  0  0  0  0
 19 46  1  0  0  0  0
 20 21  1  0  0  0  0
 20 47  1  0  0  0  0
 20 48  1  0  0  0  0
 21 49  1  0  0  0  0
 21 50  1  0  0  0  0
M  END
> <s_m_source_file>
AV-unprocessed.smi

> <i_m_source_file_index>
1095

> <i_lp_mmshare_version>
43012

> <i_f3d_flags>
0

> <s_epik_input>
W0NIM11bQ0gyXVtDQEBIXTFbQ0gyXVtDSDJdW0NASF0oW0NIMl1bQ0gyXTEpW0NIMl1bTkhdQyg9TylbQ0gyXWMyYyhbQ0gzXSlubihbQ0gzXSljMltDSDNd

> <s_epik_cmdline>
J2VwaWtfcHl0aG9uJywgJy1waCcsICc3LjAnLCAnLXRuJywgJzgnLCAnLW1hJywgJzIwMCcsICctbWV0YWxfYmluZGluZycsICctaW1hZScsICc8aW5maWxlLm1hZT4nLCAnLW9tYWUnLCAnPG91dGZpbGUubWFlPic=

> <r_lp_tautomer_probability>
1

> <r_epik_Ionization_Penalty>
0.00317479

> <r_epik_Ionization_Penalty_Charging>
0

> <r_epik_Ionization_Penalty_Neutral>
0.00317479

> <r_epik_State_Penalty>
0.00223767

> <r_epik_Charging_Adjusted_Penalty>
0.00223767

> <i_epik_Tot_Q>
0

> <i_epik_Tot_abs_Q>
0

> <r_epik_Metal_State_Penalty>
-0

> <b_epik_Metal_Only>
0

> <s_lp_Force_Field>
OPLS_2005

> <r_lp_Energy>
8.21356

> <b_lp_Chiralities_Consistent>
1

> <s_lp_Variant>
AV-unprocessed.smi:1095-2

> <Gold.Version>
5.8.1

> <Gold.Id.Protein>
6NUR|6NUR_protein|mol2

> <Gold.PLP.Fitness>
57.1521

> <Gold.PLP.PLP>
-52.3746

> <Gold.PLP.part.hbond>
-1.7102

> <Gold.PLP.part.metal>
0.0000

> <Gold.PLP.part.buried>
-9.1730

> <Gold.PLP.part.nonpolar>
-43.2082

> <Gold.PLP.part.repulsive>
0.4105

> <Gold.PLP.ligand.clash>
0.0000

> <Gold.PLP.ligand.torsion>
0.4737

> <Gold.PLP.Chemscore.Hbond>
1.8960

> <Gold.PLP.Chemscore.CHOScore>
0.0000

> <Gold.PLP.Chemscore.Metal>
0.0000

> <Gold.Chemscore.Hbonds>
donor molecule, donor type, donor heavy atom, donor atom, acceptor molecule, acceptor atom, score
      L1  H     8    35       P1  8029  0.75
      P1  H  6933  6944       L1    10  0.55

> <Gold.PLP.Chemscore.Internal.Correction>
0.0368

> <Gold.Rescore>
     Score         DG    S(hbond)    S(metal)    S(lipo)     H(rot)  DE(clash)    DE(int)     intcor
     22.18     -23.26       1.79        0.00     132.22       1.43       0.02       1.07       ----

> <Gold.Chemscore.Fitness>
22.1754

> <Gold.Chemscore.DG>
-23.2639

> <Gold.Chemscore.ZeroCoef>
-5.4800

> <Gold.Chemscore.Hbond>
1.7916

> <Gold.Chemscore.Metal>
0.0000

> <Gold.Chemscore.Lipo>
132.2214

> <Gold.Chemscore.Internal_Hbond>
0.0000

> <Gold.Chemscore.DEClash>
0.0170

> <Gold.Chemscore.DEInternal>
1.0715

> <Gold.Chemscore.Rot>
1.4336

> <Gold.Chemscore.Internal.Correction>
   9.000000E+99

> <Gold.Chemscore.Hbonds>
donor molecule, donor type, donor heavy atom, donor atom, acceptor molecule, acceptor atom, score
      L1  H     8    35       P1  8029  0.71
      P1  H  6933  6944       L1    10  0.51

> <Gold.Chemscore.Hbond.Weighted>
-5.9840

> <Gold.Chemscore.Metal.Weighted>
-0.0000

> <Gold.Chemscore.Lipo.Weighted>
-15.4699

> <Gold.Chemscore.Internal_Hbond.Weighted>
0.0000

> <Gold.Chemscore.DEClash.Weighted>
0.0170

> <Gold.Chemscore.DEInternal.Weighted>
1.0715

> <Gold.Chemscore.Rot.Weighted>
3.6700

> <Gold.Chemscore.Internal.Correction.Weighted>
   9.000000E+99

> <Gold.Protein.RotatedTorsions>
[ 6907 6896 6895 6894 ] final    3.00 input  -60.11 | X-H torsion
[ 7974 7965 7964 7962 ] final -154.77 input  175.53 | X-H torsion
[ 8008 7997 7996 7995 ] final -171.52 input   59.86 | X-H torsion
[ 10167 10162 10161 10158 ] final  -76.73 input  -65.29 | X-H torsion
[ 10718 10713 10712 10709 ] final -141.28 input   66.30 | X-H torsion
[ 10763 10752 10751 10750 ] final -148.49 input  -60.55 | X-H torsion
[ 11005 11000 10999 10996 ] final -169.30 input  -57.11 | X-H torsion

> <Gold.Protein.ActiveResidues>
 VAL166  LYS551  ARG553  GLY616  TRP617  ASP618  TYR619  PRO620  LYS621  CYS622 
 ASP623  PHE694  ASN695  SER759  ASP760  ASP761  ALA762  ILE779  LEU786  VAL792 
 PHE793  MET794  SER795  GLU796  ALA797  LYS798  CYS799  TRP800  GLU811  SER814 

> <Gold.Protein.RotatedAtoms>
  151.6180  135.1034  160.0095 H   0  0  0  0  0  0  0  0  0  0  0  0  # atno 6907 bound_to 6896
  152.4173  133.7054  159.6459 H   0  0  0  0  0  0  0  0  0  0  0  0  # atno 6908 bound_to 6896
  150.8061  133.8434  159.3226 H   0  0  0  0  0  0  0  0  0  0  0  0  # atno 6909 bound_to 6896
  144.7672  140.4341  143.5933 H   0  0  0  0  0  0  0  0  0  0  0  0  # atno 7974 bound_to 7965
  155.9326  140.1094  157.1120 H   0  0  0  0  0  0  0  0  0  0  0  0  # atno 8008 bound_to 7997
  154.4073  140.1234  156.4888 H   0  0  0  0  0  0  0  0  0  0  0  0  # atno 8009 bound_to 7997
  155.7061  140.3471  155.4956 H   0  0  0  0  0  0  0  0  0  0  0  0  # atno 8010 bound_to 7997
  140.4831  143.2397  151.8026 H   0  0  0  0  0  0  0  0  0  0  0  0  # atno 10167 bound_to 10162
  156.3322  130.7592  151.1712 H   0  0  0  0  0  0  0  0  0  0  0  0  # atno 10718 bound_to 10713
  154.8230  135.3333  154.6982 H   0  0  0  0  0  0  0  0  0  0  0  0  # atno 10763 bound_to 10752
  153.7612  135.6932  153.4929 H   0  0  0  0  0  0  0  0  0  0  0  0  # atno 10764 bound_to 10752
  153.2109  135.4482  155.0327 H   0  0  0  0  0  0  0  0  0  0  0  0  # atno 10765 bound_to 10752
  140.5322  134.5605  157.5078 H   0  0  0  0  0  0  0  0  0  0  0  0  # atno 11005 bound_to 11000
  145.6432  139.1553  143.2904 LP  0  0  0  0  0  0  0  0  0  0  0  0  # atno 17320 bound_to 7965
  146.1790  140.6527  142.9198 LP  0  0  0  0  0  0  0  0  0  0  0  0  # atno 17321 bound_to 7965
  139.4837  144.4746  151.9382 LP  0  0  0  0  0  0  0  0  0  0  0  0  # atno 17342 bound_to 10162
  140.3832  144.2710  150.5906 LP  0  0  0  0  0  0  0  0  0  0  0  0  # atno 17343 bound_to 10162
  157.7432  131.0478  150.4962 LP  0  0  0  0  0  0  0  0  0  0  0  0  # atno 17370 bound_to 10713
  156.5130  130.4144  149.6291 LP  0  0  0  0  0  0  0  0  0  0  0  0  # atno 17371 bound_to 10713
  139.9548  134.7554  156.0367 LP  0  0  0  0  0  0  0  0  0  0  0  0  # atno 17394 bound_to 11000
  141.1275  133.6595  156.3374 LP  0  0  0  0  0  0  0  0  0  0  0  0  # atno 17395 bound_to 11000

$$$$
