AV-unprocessed.smi:2075|AV-procd|sdf|8456|dock2
  -GOLD-   2272011153D 1   1.00000     0.00000
 Structure written by MMmdl.
 37 38  0  0  0  0  0  0  0  0  1 V2000
  150.7708  144.2956  161.0282 O   0  0  0  0  0  0  0  0  0  0  0  0
  150.1454  144.7548  160.0722 C   0  0  0  0  0  0  0  0  0  0  0  0
  150.8496  145.0687  158.7463 C   0  0  0  0  0  0  0  0  0  0  0  0
  151.9980  144.1055  158.3838 C   0  0  0  0  0  0  0  0  0  0  0  0
  151.4855  142.9986  157.8470 F   0  0  0  0  0  0  0  0  0  0  0  0
  152.8278  144.6602  157.4992 F   0  0  0  0  0  0  0  0  0  0  0  0
  152.6902  143.7694  159.4734 F   0  0  0  0  0  0  0  0  0  0  0  0
  148.8281  145.0092  160.1138 N   0  0  0  0  0  0  0  0  0  0  0  0
  147.9674  144.7698  161.2682 C   0  0  0  0  0  0  0  0  0  0  0  0
  146.4781  144.8127  160.9566 C   0  0  0  0  0  0  0  0  0  0  0  0
  145.5719  144.0387  161.7063 C   0  0  0  0  0  0  0  0  0  0  0  0
  144.1991  144.0989  161.3994 C   0  0  0  0  0  0  0  0  0  0  0  0
  143.7604  144.9388  160.3436 C   0  0  0  0  0  0  0  0  0  0  0  0
  142.3965  145.0502  159.9855 N   0  0  0  0  0  0  0  0  0  0  0  0
  142.0046  144.7399  158.6126 C   0  0  0  0  0  0  0  0  0  0  0  0
  140.4771  144.5982  158.5014 C   0  0  0  0  0  0  0  0  0  0  0  0
  139.8459  145.7674  159.0095 O   0  0  0  0  0  0  0  0  0  0  0  0
  140.1373  145.9620  160.3885 C   0  0  0  0  0  0  0  0  0  0  0  0
  141.6506  146.1601  160.5795 C   0  0  0  0  0  0  0  0  0  0  0  0
  144.6385  145.6884  159.6334 N   0  0  0  0  0  0  0  0  0  0  0  0
  145.9527  145.6268  159.9316 C   0  0  0  0  0  0  0  0  0  0  0  0
  150.1065  145.0512  157.9475 H   0  0  0  0  0  0  0  0  0  0  0  0
  151.2281  146.0905  158.7934 H   0  0  0  0  0  0  0  0  0  0  0  0
  148.3894  145.3896  159.2878 H   0  0  0  0  0  0  0  0  0  0  0  0
  148.2247  143.8123  161.7248 H   0  0  0  0  0  0  0  0  0  0  0  0
  148.1809  145.5344  162.0152 H   0  0  0  0  0  0  0  0  0  0  0  0
  145.9212  143.4012  162.5052 H   0  0  0  0  0  0  0  0  0  0  0  0
  143.5177  143.4912  161.9746 H   0  0  0  0  0  0  0  0  0  0  0  0
  142.3583  145.5309  157.9500 H   0  0  0  0  0  0  0  0  0  0  0  0
  142.4630  143.8052  158.2881 H   0  0  0  0  0  0  0  0  0  0  0  0
  140.1886  144.4629  157.4591 H   0  0  0  0  0  0  0  0  0  0  0  0
  140.1281  143.7180  159.0441 H   0  0  0  0  0  0  0  0  0  0  0  0
  139.5976  146.8395  160.7447 H   0  0  0  0  0  0  0  0  0  0  0  0
  139.7802  145.1114  160.9716 H   0  0  0  0  0  0  0  0  0  0  0  0
  141.8538  146.2600  161.6456 H   0  0  0  0  0  0  0  0  0  0  0  0
  141.9687  147.0894  160.1054 H   0  0  0  0  0  0  0  0  0  0  0  0
  146.5992  146.2501  159.3317 H   0  0  0  0  0  0  0  0  0  0  0  0
  1  2  2  0  0  0  0
  2  3  1  0  0  0  0
  2  8  1  0  0  0  0
  3  4  1  0  0  0  0
  3 22  1  0  0  0  0
  3 23  1  0  0  0  0
  4  5  1  0  0  0  0
  4  6  1  0  0  0  0
  4  7  1  0  0  0  0
  8  9  1  0  0  0  0
  8 24  1  0  0  0  0
  9 10  1  0  0  0  0
  9 25  1  0  0  0  0
  9 26  1  0  0  0  0
 10 21  1  0  0  0  0
 10 11  2  0  0  0  0
 11 12  1  0  0  0  0
 11 27  1  0  0  0  0
 12 13  2  0  0  0  0
 12 28  1  0  0  0  0
 13 14  1  0  0  0  0
 13 20  1  0  0  0  0
 14 19  1  0  0  0  0
 14 15  1  0  0  0  0
 15 16  1  0  0  0  0
 15 29  1  0  0  0  0
 15 30  1  0  0  0  0
 16 17  1  0  0  0  0
 16 31  1  0  0  0  0
 16 32  1  0  0  0  0
 17 18  1  0  0  0  0
 18 19  1  0  0  0  0
 18 33  1  0  0  0  0
 18 34  1  0  0  0  0
 19 35  1  0  0  0  0
 19 36  1  0  0  0  0
 20 21  2  0  0  0  0
 21 37  1  0  0  0  0
M  END
> <s_m_source_file>
AV-unprocessed.smi

> <i_m_source_file_index>
2075

> <i_lp_mmshare_version>
43012

> <i_f3d_flags>
0

> <s_epik_input>
RkMoRikoRilbQ0gyXUMoPU8pW05IXVtDSDJdYzFbY0hdW2NIXWMobltjSF0xKU4yW0NIMl1bQ0gyXU9bQ0gyXVtDSDJdMg==

> <s_epik_cmdline>
J2VwaWtfcHl0aG9uJywgJy1waCcsICc3LjAnLCAnLXRuJywgJzgnLCAnLW1hJywgJzIwMCcsICctbWV0YWxfYmluZGluZycsICctaW1hZScsICc8aW5maWxlLm1hZT4nLCAnLW9tYWUnLCAnPG91dGZpbGUubWFlPic=

> <r_lp_tautomer_probability>
1

> <r_epik_Ionization_Penalty>
0.00347018

> <r_epik_Ionization_Penalty_Charging>
0

> <r_epik_Ionization_Penalty_Neutral>
0.00347018

> <r_epik_State_Penalty>
0.00246037

> <r_epik_Charging_Adjusted_Penalty>
0.00246037

> <i_epik_Tot_Q>
0

> <i_epik_Tot_abs_Q>
0

> <r_epik_Metal_State_Penalty>
-0

> <b_epik_Metal_Only>
0

> <s_lp_Force_Field>
OPLS_2005

> <r_lp_Energy>
11.9442

> <b_lp_Chiralities_Consistent>
1

> <s_lp_Variant>
AV-unprocessed.smi:2075-1

> <Gold.Version>
5.8.1

> <Gold.Id.Protein>
6NUR|6NUR_protein|mol2

> <Gold.PLP.Fitness>
44.0730

> <Gold.PLP.PLP>
-41.4225

> <Gold.PLP.part.hbond>
-0.7938

> <Gold.PLP.part.metal>
0.0000

> <Gold.PLP.part.buried>
-6.9589

> <Gold.PLP.part.nonpolar>
-33.6991

> <Gold.PLP.part.repulsive>
0.6375

> <Gold.PLP.ligand.clash>
0.0000

> <Gold.PLP.ligand.torsion>
1.4774

> <Gold.PLP.Chemscore.Hbond>
0.7150

> <Gold.PLP.Chemscore.CHOScore>
0.9959

> <Gold.PLP.Chemscore.Metal>
0.0000

> <Gold.Chemscore.Hbonds>
donor molecule, donor type, donor heavy atom, donor atom, acceptor molecule, acceptor atom, score
      L1  H     8    24       P1  8029  0.73
      L1  C    21    37       P1  8029  1.00

> <Gold.PLP.Chemscore.Internal.Correction>
0.4727

> <Gold.Rescore>
     Score         DG    S(hbond)    S(metal)    S(lipo)     H(rot)  DE(clash)    DE(int)     intcor
      8.08     -11.57       0.81        0.00      72.89       2.01       0.71       2.79       ----

> <Gold.Chemscore.Fitness>
8.0754

> <Gold.Chemscore.DG>
-11.5672

> <Gold.Chemscore.ZeroCoef>
-5.4800

> <Gold.Chemscore.Hbond>
0.8099

> <Gold.Chemscore.Metal>
0.0000

> <Gold.Chemscore.Lipo>
72.8886

> <Gold.Chemscore.Internal_Hbond>
0.0000

> <Gold.Chemscore.DEClash>
0.7062

> <Gold.Chemscore.DEInternal>
2.7855

> <Gold.Chemscore.Rot>
2.0101

> <Gold.Chemscore.Internal.Correction>
   9.000000E+99

> <Gold.Chemscore.Hbonds>
donor molecule, donor type, donor heavy atom, donor atom, acceptor molecule, acceptor atom, score
      L1  H     8    24       P1  8029  0.73

> <Gold.Chemscore.Hbond.Weighted>
-2.7050

> <Gold.Chemscore.Metal.Weighted>
-0.0000

> <Gold.Chemscore.Lipo.Weighted>
-8.5280

> <Gold.Chemscore.Internal_Hbond.Weighted>
0.0000

> <Gold.Chemscore.DEClash.Weighted>
0.7062

> <Gold.Chemscore.DEInternal.Weighted>
2.7855

> <Gold.Chemscore.Rot.Weighted>
5.1458

> <Gold.Chemscore.Internal.Correction.Weighted>
   9.000000E+99

> <Gold.Protein.RotatedTorsions>
[ 6907 6896 6895 6894 ] final -143.41 input  -60.11 | X-H torsion
[ 7974 7965 7964 7962 ] final  -79.93 input  175.53 | X-H torsion
[ 8008 7997 7996 7995 ] final -179.40 input   59.86 | X-H torsion
[ 10167 10162 10161 10158 ] final   17.97 input  -65.29 | X-H torsion
[ 10718 10713 10712 10709 ] final  -33.11 input   66.30 | X-H torsion
[ 10763 10752 10751 10750 ] final   67.96 input  -60.55 | X-H torsion
[ 11005 11000 10999 10996 ] final  136.36 input  -57.11 | X-H torsion

> <Gold.Protein.ActiveResidues>
 VAL166  LYS551  ARG553  GLY616  TRP617  ASP618  TYR619  PRO620  LYS621  CYS622 
 ASP623  PHE694  ASN695  SER759  ASP760  ASP761  ALA762  ILE779  LEU786  VAL792 
 PHE793  MET794  SER795  GLU796  ALA797  LYS798  CYS799  TRP800  GLU811  SER814 

> <Gold.Protein.RotatedAtoms>
  151.1001  133.5250  159.2610 H   0  0  0  0  0  0  0  0  0  0  0  0  # atno 6907 bound_to 6896
  151.2084  135.0471  159.8911 H   0  0  0  0  0  0  0  0  0  0  0  0  # atno 6908 bound_to 6896
  152.5442  134.0819  159.8293 H   0  0  0  0  0  0  0  0  0  0  0  0  # atno 6909 bound_to 6896
  145.5667  140.9473  143.1418 H   0  0  0  0  0  0  0  0  0  0  0  0  # atno 7974 bound_to 7965
  156.0301  140.1280  157.0267 H   0  0  0  0  0  0  0  0  0  0  0  0  # atno 8008 bound_to 7997
  154.4346  140.1051  156.6157 H   0  0  0  0  0  0  0  0  0  0  0  0  # atno 8009 bound_to 7997
  155.5820  140.3468  155.4545 H   0  0  0  0  0  0  0  0  0  0  0  0  # atno 8010 bound_to 7997
  140.5688  143.9201  150.6696 H   0  0  0  0  0  0  0  0  0  0  0  0  # atno 10167 bound_to 10162
  156.3666  130.4332  149.7579 H   0  0  0  0  0  0  0  0  0  0  0  0  # atno 10718 bound_to 10713
  153.0212  135.5265  154.7061 H   0  0  0  0  0  0  0  0  0  0  0  0  # atno 10763 bound_to 10752
  154.6156  135.2883  155.0386 H   0  0  0  0  0  0  0  0  0  0  0  0  # atno 10764 bound_to 10752
  154.1391  135.6581  153.4991 H   0  0  0  0  0  0  0  0  0  0  0  0  # atno 10765 bound_to 10752
  140.0041  134.9466  157.0136 H   0  0  0  0  0  0  0  0  0  0  0  0  # atno 11005 bound_to 11000
  144.7457  139.7327  143.7293 LP  0  0  0  0  0  0  0  0  0  0  0  0  # atno 17320 bound_to 7965
  146.1813  139.5007  142.9864 LP  0  0  0  0  0  0  0  0  0  0  0  0  # atno 17321 bound_to 7965
  140.2671  143.3482  152.1271 LP  0  0  0  0  0  0  0  0  0  0  0  0  # atno 17342 bound_to 10162
  139.5106  144.6887  151.5817 LP  0  0  0  0  0  0  0  0  0  0  0  0  # atno 17343 bound_to 10162
  156.4723  130.8002  151.3020 LP  0  0  0  0  0  0  0  0  0  0  0  0  # atno 17370 bound_to 10713
  157.7479  131.0032  150.3029 LP  0  0  0  0  0  0  0  0  0  0  0  0  # atno 17371 bound_to 10713
  140.4674  134.1422  155.7198 LP  0  0  0  0  0  0  0  0  0  0  0  0  # atno 17394 bound_to 11000
  141.1664  133.8695  157.1702 LP  0  0  0  0  0  0  0  0  0  0  0  0  # atno 17395 bound_to 11000

$$$$
