AV-unprocessed.smi:537|AV-procd|sdf|2865|dock9
  -GOLD-   2262023353D 1   1.00000     0.00000
 Structure written by MMmdl.
 32 33  0  0  0  0  0  0  0  0  2 V2000
  153.7057  141.5132  160.8390 C   0  0  0  0  0  0  0  0  0  0  0  0
  152.7692  141.8125  159.7742 N   0  0  0  0  0  0  0  0  0  0  0  0
  152.4470  141.1287  158.6081 C   0  0  0  0  0  0  0  0  0  0  0  0
  152.9956  139.9708  158.2379 N   0  0  0  0  0  0  0  0  0  0  0  0
  152.3503  139.7028  157.0388 C   0  0  0  0  0  0  0  0  0  0  0  0
  151.4546  140.6780  156.7261 C   0  0  0  0  0  0  0  0  0  0  0  0
  150.6097  140.6585  155.5121 C   0  0  0  0  0  0  0  0  0  0  0  0
  149.8077  141.5605  155.2793 O   0  0  0  0  0  0  0  0  0  0  0  0
  150.8438  139.5507  154.7392 N   0  5  0  0  0  0  0  0  0  0  0  0
  151.7435  138.5426  155.0150 C   0  0  0  0  0  0  0  0  0  0  0  0
  151.8866  137.5830  154.2570 O   0  0  0  0  0  0  0  0  0  0  0  0
  152.5019  138.6006  156.1567 N   0  0  0  0  0  0  0  0  0  0  0  0
  153.4795  137.5708  156.5218 C   0  0  0  0  0  0  0  0  0  0  0  0
  151.5177  141.6245  157.7535 N   0  0  0  0  0  0  0  0  0  0  0  0
  150.7616  142.8655  157.9017 C   0  0  0  0  0  0  0  0  0  0  0  0
  151.6544  144.1080  157.7666 C   0  0  0  0  0  0  0  0  0  0  0  0
  151.1956  145.1350  158.6299 O   0  0  0  0  0  0  0  0  0  0  0  0
  151.8738  145.1465  159.8729 C   0  0  0  0  0  0  0  0  0  0  0  0
  153.6909  142.3039  161.5888 H   0  0  0  0  0  0  0  0  0  0  0  0
  154.7172  141.4301  160.4411 H   0  0  0  0  0  0  0  0  0  0  0  0
  153.4437  140.5712  161.3210 H   0  0  0  0  0  0  0  0  0  0  0  0
  152.2634  142.6761  159.9070 H   0  0  0  0  0  0  0  0  0  0  0  0
  153.5647  136.7539  155.8048 H   0  0  0  0  0  0  0  0  0  0  0  0
  153.2131  137.1319  157.4837 H   0  0  0  0  0  0  0  0  0  0  0  0
  154.4686  138.0184  156.6207 H   0  0  0  0  0  0  0  0  0  0  0  0
  149.9736  142.8922  157.1488 H   0  0  0  0  0  0  0  0  0  0  0  0
  150.2418  142.8673  158.8578 H   0  0  0  0  0  0  0  0  0  0  0  0
  152.6858  143.8517  158.0140 H   0  0  0  0  0  0  0  0  0  0  0  0
  151.6445  144.4573  156.7333 H   0  0  0  0  0  0  0  0  0  0  0  0
  151.4854  145.9539  160.4937 H   0  0  0  0  0  0  0  0  0  0  0  0
  152.9434  145.3105  159.7367 H   0  0  0  0  0  0  0  0  0  0  0  0
  151.7282  144.2085  160.4102 H   0  0  0  0  0  0  0  0  0  0  0  0
  1  2  1  0  0  0  0
  1 19  1  0  0  0  0
  1 20  1  0  0  0  0
  1 21  1  0  0  0  0
  2  3  1  0  0  0  0
  2 22  1  0  0  0  0
  3 14  1  0  0  0  0
  3  4  2  0  0  0  0
  4  5  1  0  0  0  0
  5 12  1  0  0  0  0
  5  6  2  0  0  0  0
  6  7  1  0  0  0  0
  6 14  1  0  0  0  0
  7  8  2  0  0  0  0
  7  9  1  0  0  0  0
  9 10  1  0  0  0  0
 10 11  2  0  0  0  0
 10 12  1  0  0  0  0
 12 13  1  0  0  0  0
 13 23  1  0  0  0  0
 13 24  1  0  0  0  0
 13 25  1  0  0  0  0
 14 15  1  0  0  0  0
 15 16  1  0  0  0  0
 15 26  1  0  0  0  0
 15 27  1  0  0  0  0
 16 17  1  0  0  0  0
 16 28  1  0  0  0  0
 16 29  1  0  0  0  0
 17 18  1  0  0  0  0
 18 30  1  0  0  0  0
 18 31  1  0  0  0  0
 18 32  1  0  0  0  0
M  CHG  1   9  -1
M  END
> <s_m_source_file>
AV-unprocessed.smi

> <i_m_source_file_index>
537

> <i_lp_mmshare_version>
43012

> <i_f3d_flags>
0

> <s_epik_input>
W0NIM11PW0NIMl1bQ0gyXW4oYyhuMSlbTkhdW0NIM10pYyhjMTIpYyg9TylbbkhdYyg9TyluMltDSDNd

> <s_epik_cmdline>
J2VwaWtfcHl0aG9uJywgJy1waCcsICc3LjAnLCAnLXRuJywgJzgnLCAnLW1hJywgJzIwMCcsICctbWV0YWxfYmluZGluZycsICctaW1hZScsICc8aW5maWxlLm1hZT4nLCAnLW9tYWUnLCAnPG91dGZpbGUubWFlPic=

> <r_lp_tautomer_probability>
1

> <r_epik_Ionization_Penalty>
6.3083

> <r_epik_Ionization_Penalty_Charging>
1.44173e-08

> <r_epik_Ionization_Penalty_Neutral>
6.3083

> <r_epik_State_Penalty>
6.30819

> <r_epik_Charging_Adjusted_Penalty>
6.30819

> <i_epik_Tot_Q>
-1

> <i_epik_Tot_abs_Q>
1

> <r_epik_Metal_State_Penalty>
2.24297

> <b_epik_Metal_Only>
1

> <s_lp_Force_Field>
OPLS_2005

> <r_lp_Energy>
24.4874

> <b_lp_Chiralities_Consistent>
1

> <s_lp_Variant>
AV-unprocessed.smi:537-2

> <Gold.Version>
5.8.1

> <Gold.Id.Protein>
6NUR|6NUR_protein|mol2

> <Gold.PLP.Fitness>
36.5244

> <Gold.PLP.PLP>
-33.8984

> <Gold.PLP.part.hbond>
-2.9305

> <Gold.PLP.part.metal>
0.0000

> <Gold.PLP.part.buried>
-3.2518

> <Gold.PLP.part.nonpolar>
-28.3242

> <Gold.PLP.part.repulsive>
0.5933

> <Gold.PLP.ligand.clash>
0.0000

> <Gold.PLP.ligand.torsion>
0.5297

> <Gold.PLP.Chemscore.Hbond>
1.2281

> <Gold.PLP.Chemscore.CHOScore>
0.0000

> <Gold.PLP.Chemscore.Metal>
0.0000

> <Gold.Chemscore.Hbonds>
donor molecule, donor type, donor heavy atom, donor atom, acceptor molecule, acceptor atom, score
      P1  H  7989  7998       L1     9  0.20
      P1  H  7997  8008       L1     4  0.31
      P1  H 10752 10765       L1    11  0.57

> <Gold.PLP.Chemscore.Internal.Correction>
0.0010

> <Gold.Rescore>
     Score         DG    S(hbond)    S(metal)    S(lipo)     H(rot)  DE(clash)    DE(int)     intcor
     10.38     -10.79       0.94        0.00      54.48       1.64       0.06       0.35       ----

> <Gold.Chemscore.Fitness>
10.3797

> <Gold.Chemscore.DG>
-10.7949

> <Gold.Chemscore.ZeroCoef>
-5.4800

> <Gold.Chemscore.Hbond>
0.9429

> <Gold.Chemscore.Metal>
0.0000

> <Gold.Chemscore.Lipo>
54.4793

> <Gold.Chemscore.Internal_Hbond>
0.0000

> <Gold.Chemscore.DEClash>
0.0633

> <Gold.Chemscore.DEInternal>
0.3519

> <Gold.Chemscore.Rot>
1.6439

> <Gold.Chemscore.Internal.Correction>
   9.000000E+99

> <Gold.Chemscore.Hbonds>
donor molecule, donor type, donor heavy atom, donor atom, acceptor molecule, acceptor atom, score
      P1  H  7997  8008       L1     4  0.01
      P1  H 10752 10765       L1    11  0.56

> <Gold.Chemscore.Hbond.Weighted>
-3.1493

> <Gold.Chemscore.Metal.Weighted>
-0.0000

> <Gold.Chemscore.Lipo.Weighted>
-6.3741

> <Gold.Chemscore.Internal_Hbond.Weighted>
0.0000

> <Gold.Chemscore.DEClash.Weighted>
0.0633

> <Gold.Chemscore.DEInternal.Weighted>
0.3519

> <Gold.Chemscore.Rot.Weighted>
4.2085

> <Gold.Chemscore.Internal.Correction.Weighted>
   9.000000E+99

> <Gold.Protein.RotatedTorsions>
[ 6907 6896 6895 6894 ] final   53.22 input  -60.11 | X-H torsion
[ 7974 7965 7964 7962 ] final   69.51 input  175.53 | X-H torsion
[ 8008 7997 7996 7995 ] final -104.20 input   59.86 | X-H torsion
[ 10167 10162 10161 10158 ] final  -40.99 input  -65.29 | X-H torsion
[ 10718 10713 10712 10709 ] final  129.35 input   66.30 | X-H torsion
[ 10763 10752 10751 10750 ] final  150.58 input  -60.55 | X-H torsion
[ 11005 11000 10999 10996 ] final  134.97 input  -57.11 | X-H torsion

> <Gold.Protein.ActiveResidues>
 VAL166  LYS551  ARG553  GLY616  TRP617  ASP618  TYR619  PRO620  LYS621  CYS622 
 ASP623  PHE694  ASN695  SER759  ASP760  ASP761  ALA762  ILE779  LEU786  VAL792 
 PHE793  MET794  SER795  GLU796  ALA797  LYS798  CYS799  TRP800  GLU811  SER814 

> <Gold.Protein.RotatedAtoms>
  152.3314  134.7254  160.0288 H   0  0  0  0  0  0  0  0  0  0  0  0  # atno 6907 bound_to 6896
  151.7669  133.3332  159.3441 H   0  0  0  0  0  0  0  0  0  0  0  0  # atno 6908 bound_to 6896
  150.7425  134.5986  159.6069 H   0  0  0  0  0  0  0  0  0  0  0  0  # atno 6909 bound_to 6896
  145.7895  139.2927  143.1218 H   0  0  0  0  0  0  0  0  0  0  0  0  # atno 7974 bound_to 7965
  154.8818  140.0419  157.1787 H   0  0  0  0  0  0  0  0  0  0  0  0  # atno 8008 bound_to 7997
  154.8631  140.2947  155.5506 H   0  0  0  0  0  0  0  0  0  0  0  0  # atno 8009 bound_to 7997
  156.2998  140.2443  156.3608 H   0  0  0  0  0  0  0  0  0  0  0  0  # atno 8010 bound_to 7997
  140.7017  143.3121  151.3003 H   0  0  0  0  0  0  0  0  0  0  0  0  # atno 10167 bound_to 10162
  157.5162  131.1097  150.9221 H   0  0  0  0  0  0  0  0  0  0  0  0  # atno 10718 bound_to 10713
  154.0897  135.2853  155.3274 H   0  0  0  0  0  0  0  0  0  0  0  0  # atno 10763 bound_to 10752
  154.6628  135.5328  153.8043 H   0  0  0  0  0  0  0  0  0  0  0  0  # atno 10764 bound_to 10752
  153.0418  135.6538  154.1067 H   0  0  0  0  0  0  0  0  0  0  0  0  # atno 10765 bound_to 10752
  139.9949  134.9501  156.9941 H   0  0  0  0  0  0  0  0  0  0  0  0  # atno 11005 bound_to 11000
  145.9991  140.8536  143.0028 LP  0  0  0  0  0  0  0  0  0  0  0  0  # atno 17320 bound_to 7965
  144.6784  140.2326  143.7353 LP  0  0  0  0  0  0  0  0  0  0  0  0  # atno 17321 bound_to 7965
  139.6547  144.0298  152.2651 LP  0  0  0  0  0  0  0  0  0  0  0  0  # atno 17342 bound_to 10162
  139.9846  144.6404  150.7869 LP  0  0  0  0  0  0  0  0  0  0  0  0  # atno 17343 bound_to 10162
  156.9846  130.5540  149.5298 LP  0  0  0  0  0  0  0  0  0  0  0  0  # atno 17370 bound_to 10713
  156.0322  130.5412  150.8563 LP  0  0  0  0  0  0  0  0  0  0  0  0  # atno 17371 bound_to 10713
  140.4837  134.1263  155.7221 LP  0  0  0  0  0  0  0  0  0  0  0  0  # atno 17394 bound_to 11000
  141.1596  133.8818  157.1884 LP  0  0  0  0  0  0  0  0  0  0  0  0  # atno 17395 bound_to 11000

$$$$
