AV-unprocessed.smi:109|AV-procd|sdf|1051|dock3
  -GOLD-   2262018103D 1   1.00000     0.00000
 Structure written by MMmdl.
 58 61  0  0  0  0  0  0  0  0  1 V2000
  150.6891  136.9224  159.5434 O   0  0  0  0  0  0  0  0  0  0  0  0
  150.2157  137.1758  158.2383 C   0  0  0  0  0  0  0  0  0  0  0  0
  148.6790  137.1029  158.2159 C   0  0  0  0  0  0  0  0  0  0  0  0
  148.1024  135.7275  158.6334 C   0  0  2  0  0  0  0  0  0  0  0  0
  147.2195  135.2294  157.5758 N   0  0  0  0  0  0  0  0  0  0  0  0
  147.6918  134.7676  156.3961 C   0  0  0  0  0  0  0  0  0  0  0  0
  149.0062  134.4733  156.2226 N   0  0  0  0  0  0  0  0  0  0  0  0
  149.4404  134.0221  155.0425 C   0  0  0  0  0  0  0  0  0  0  0  0
  148.7418  133.7973  153.9282 N   0  0  0  0  0  0  0  0  0  0  0  0
  147.4198  134.0917  154.0939 C   0  0  0  0  0  0  0  0  0  0  0  0
  146.8228  134.5788  155.2905 C   0  0  0  0  0  0  0  0  0  0  0  0
  145.4622  134.7718  155.0937 N   0  0  0  0  0  0  0  0  0  0  0  0
  145.2702  134.4178  153.8516 C   0  0  0  0  0  0  0  0  0  0  0  0
  146.3930  133.9968  153.1740 N   0  0  0  0  0  0  0  0  0  0  0  0
  146.4670  133.5327  151.7498 C   0  0  2  0  0  0  0  0  0  0  0  0
  145.2386  133.7580  151.1238 O   0  0  0  0  0  0  0  0  0  0  0  0
  144.6962  132.5341  150.6351 C   0  0  1  0  0  0  0  0  0  0  0  0
  143.8206  132.7821  149.3945 C   0  0  0  0  0  0  0  0  0  0  0  0
  143.1586  131.5948  149.0134 O   0  0  0  0  0  0  0  0  0  0  0  0
  145.9093  131.6084  150.4618 C   0  0  1  0  0  0  0  0  0  0  0  0
  146.5520  131.8211  149.2185 O   0  0  0  0  0  0  0  0  0  0  0  0
  146.8135  132.0355  151.6072 C   0  0  2  0  0  0  0  0  0  0  0  0
  146.5466  131.2681  152.7680 O   0  0  0  0  0  0  0  0  0  0  0  0
  147.3256  135.7605  159.9812 C   0  0  0  0  0  0  0  0  0  0  0  0
  148.1904  136.2375  161.1752 C   0  0  0  0  0  0  0  0  0  0  0  0
  147.4171  136.2242  162.5042 C   0  0  0  0  0  0  0  0  0  0  0  0
  146.8341  134.8378  162.8024 C   0  0  0  0  0  0  0  0  0  0  0  0
  145.9529  134.3622  161.6414 C   0  0  0  0  0  0  0  0  0  0  0  0
  146.7308  134.3680  160.3161 C   0  0  0  0  0  0  0  0  0  0  0  0
  147.2145  134.1798  151.2888 H   0  0  0  0  0  0  0  0  0  0  0  0
  144.0692  132.1241  151.4274 H   0  0  0  0  0  0  0  0  0  0  0  0
  145.6293  130.5555  150.5197 H   0  0  0  0  0  0  0  0  0  0  0  0
  147.8721  131.9251  151.3687 H   0  0  0  0  0  0  0  0  0  0  0  0
  150.8473  137.7498  159.9717 H   0  0  0  0  0  0  0  0  0  0  0  0
  150.5707  138.1585  157.9279 H   0  0  0  0  0  0  0  0  0  0  0  0
  150.6456  136.4412  157.5569 H   0  0  0  0  0  0  0  0  0  0  0  0
  148.3201  137.8753  158.8939 H   0  0  0  0  0  0  0  0  0  0  0  0
  148.3120  137.3689  157.2236 H   0  0  0  0  0  0  0  0  0  0  0  0
  148.9449  135.0524  158.7818 H   0  0  0  0  0  0  0  0  0  0  0  0
  146.2312  135.2976  157.7724 H   0  0  0  0  0  0  0  0  0  0  0  0
  150.4977  133.8111  154.9822 H   0  0  0  0  0  0  0  0  0  0  0  0
  144.2941  134.4553  153.3903 H   0  0  0  0  0  0  0  0  0  0  0  0
  143.0666  133.5362  149.6206 H   0  0  0  0  0  0  0  0  0  0  0  0
  144.4066  133.1627  148.5579 H   0  0  0  0  0  0  0  0  0  0  0  0
  142.2892  131.6044  149.3837 H   0  0  0  0  0  0  0  0  0  0  0  0
  147.4804  131.6893  149.3385 H   0  0  0  0  0  0  0  0  0  0  0  0
  146.9660  130.4269  152.6731 H   0  0  0  0  0  0  0  0  0  0  0  0
  146.4965  136.4621  159.8744 H   0  0  0  0  0  0  0  0  0  0  0  0
  149.0773  135.6086  161.2622 H   0  0  0  0  0  0  0  0  0  0  0  0
  148.5442  137.2548  161.0167 H   0  0  0  0  0  0  0  0  0  0  0  0
  148.0740  136.5318  163.3186 H   0  0  0  0  0  0  0  0  0  0  0  0
  146.6110  136.9582  162.4642 H   0  0  0  0  0  0  0  0  0  0  0  0
  147.6437  134.1254  162.9660 H   0  0  0  0  0  0  0  0  0  0  0  0
  146.2538  134.8668  163.7250 H   0  0  0  0  0  0  0  0  0  0  0  0
  145.5791  133.3589  161.8478 H   0  0  0  0  0  0  0  0  0  0  0  0
  145.0776  135.0072  161.5554 H   0  0  0  0  0  0  0  0  0  0  0  0
  146.0592  134.0331  159.5254 H   0  0  0  0  0  0  0  0  0  0  0  0
  147.5335  133.6310  160.3651 H   0  0  0  0  0  0  0  0  0  0  0  0
  1  2  1  0  0  0  0
  1 34  1  0  0  0  0
  2  3  1  0  0  0  0
  2 35  1  0  0  0  0
  2 36  1  0  0  0  0
  3  4  1  0  0  0  0
  3 37  1  0  0  0  0
  3 38  1  0  0  0  0
  4  5  1  0  0  0  0
  4 24  1  0  0  0  0
  4 39  1  0  0  0  0
  5  6  1  0  0  0  0
  5 40  1  0  0  0  0
  6 11  1  0  0  0  0
  6  7  2  0  0  0  0
  7  8  1  0  0  0  0
  8  9  2  0  0  0  0
  8 41  1  0  0  0  0
  9 10  1  0  0  0  0
 10 14  1  0  0  0  0
 10 11  2  0  0  0  0
 11 12  1  0  0  0  0
 12 13  2  0  0  0  0
 13 14  1  0  0  0  0
 13 42  1  0  0  0  0
 14 15  1  0  0  0  0
 15 30  1  0  0  0  0
 15 22  1  0  0  0  0
 15 16  1  0  0  0  0
 16 17  1  0  0  0  0
 17 31  1  0  0  0  0
 17 18  1  0  0  0  0
 17 20  1  0  0  0  0
 18 19  1  0  0  0  0
 18 43  1  0  0  0  0
 18 44  1  0  0  0  0
 19 45  1  0  0  0  0
 20 32  1  0  0  0  0
 20 21  1  0  0  0  0
 20 22  1  0  0  0  0
 21 46  1  0  0  0  0
 22 33  1  0  0  0  0
 22 23  1  0  0  0  0
 23 47  1  0  0  0  0
 24 29  1  0  0  0  0
 24 25  1  0  0  0  0
 24 48  1  0  0  0  0
 25 26  1  0  0  0  0
 25 49  1  0  0  0  0
 25 50  1  0  0  0  0
 26 27  1  0  0  0  0
 26 51  1  0  0  0  0
 26 52  1  0  0  0  0
 27 28  1  0  0  0  0
 27 53  1  0  0  0  0
 27 54  1  0  0  0  0
 28 29  1  0  0  0  0
 28 55  1  0  0  0  0
 28 56  1  0  0  0  0
 29 57  1  0  0  0  0
 29 58  1  0  0  0  0
M  END
> <s_m_source_file>
AV-unprocessed.smi

> <i_m_source_file_index>
109

> <i_lp_mmshare_version>
43012

> <i_f3d_flags>
0

> <s_epik_input>
W0NIMl0xW0NIMl1bQ0gyXVtDSDJdW0NIMl1bQ0hdMVtDQEhdKFtDSDJdW0NIMl1bT0hdKVtOSF1jKG5bY0hdbjIpYyhjMjMpbltjSF1uM1tDQEBIXTRPW0NASF0oW0NIMl1bT0hdKVtDQEBIXShbT0hdKVtDQEhdNFtPSF0=

> <s_epik_cmdline>
J2VwaWtfcHl0aG9uJywgJy1waCcsICc3LjAnLCAnLXRuJywgJzgnLCAnLW1hJywgJzIwMCcsICctbWV0YWxfYmluZGluZycsICctaW1hZScsICc8aW5maWxlLm1hZT4nLCAnLW9tYWUnLCAnPG91dGZpbGUubWFlPic=

> <r_lp_tautomer_probability>
1

> <r_epik_Ionization_Penalty>
0.000793976

> <r_epik_Ionization_Penalty_Charging>
0

> <r_epik_Ionization_Penalty_Neutral>
0.000793976

> <r_epik_State_Penalty>
-0

> <r_epik_Charging_Adjusted_Penalty>
0

> <i_epik_Tot_Q>
0

> <i_epik_Tot_abs_Q>
0

> <r_epik_Metal_State_Penalty>
-0

> <b_epik_Metal_Only>
0

> <s_epik_Chemistry_Notes>
This compound contains an acetal/aminal-like group ( X-CH(R)-Y where X, Y are N, S, or O) that may be acid/base labile, releasing an aldehyde.

> <s_lp_Force_Field>
OPLS_2005

> <r_lp_Energy>
55.8609

> <b_lp_Chiralities_Consistent>
1

> <s_lp_Variant>
AV-unprocessed.smi:109-21

> <Gold.Version>
5.8.1

> <Gold.Id.Protein>
6NUR|6NUR_protein|mol2

> <Gold.PLP.Fitness>
49.5265

> <Gold.PLP.PLP>
-40.3861

> <Gold.PLP.part.hbond>
-3.8885

> <Gold.PLP.part.metal>
0.0000

> <Gold.PLP.part.buried>
-4.0069

> <Gold.PLP.part.nonpolar>
-32.1384

> <Gold.PLP.part.repulsive>
0.3412

> <Gold.PLP.ligand.clash>
0.0000

> <Gold.PLP.ligand.torsion>
1.1029

> <Gold.PLP.Chemscore.Hbond>
3.6720

> <Gold.PLP.Chemscore.CHOScore>
0.0000

> <Gold.PLP.Chemscore.Metal>
0.0000

> <Gold.Chemscore.Hbonds>
donor molecule, donor type, donor heavy atom, donor atom, acceptor molecule, acceptor atom, score
      L1  H    19    45       P1 10952  0.74
      L1  H    21    46       P1 10747  1.00
      P1  H  6896  6908       L1     1  1.00
      P1  H 10785 10796       L1    19  0.69

> <Gold.PLP.Chemscore.Internal.Correction>
0.3301

> <Gold.Rescore>
     Score         DG    S(hbond)    S(metal)    S(lipo)     H(rot)  DE(clash)    DE(int)     intcor
     11.90     -13.08       3.28        0.00      90.86       5.47       0.06       1.13       ----

> <Gold.Chemscore.Fitness>
11.8974

> <Gold.Chemscore.DG>
-13.0810

> <Gold.Chemscore.ZeroCoef>
-5.4800

> <Gold.Chemscore.Hbond>
3.2827

> <Gold.Chemscore.Metal>
0.0000

> <Gold.Chemscore.Lipo>
90.8568

> <Gold.Chemscore.Internal_Hbond>
0.0000

> <Gold.Chemscore.DEClash>
0.0551

> <Gold.Chemscore.DEInternal>
1.1286

> <Gold.Chemscore.Rot>
5.4662

> <Gold.Chemscore.Internal.Correction>
   9.000000E+99

> <Gold.Chemscore.Hbonds>
donor molecule, donor type, donor heavy atom, donor atom, acceptor molecule, acceptor atom, score
      L1  H    19    45       P1 10952  0.73
      L1  H    21    46       P1 10747  0.96
      P1  H  6896  6908       L1     1  0.95
      P1  H 10785 10796       L1    19  0.10

> <Gold.Chemscore.Hbond.Weighted>
-10.9643

> <Gold.Chemscore.Metal.Weighted>
-0.0000

> <Gold.Chemscore.Lipo.Weighted>
-10.6302

> <Gold.Chemscore.Internal_Hbond.Weighted>
0.0000

> <Gold.Chemscore.DEClash.Weighted>
0.0551

> <Gold.Chemscore.DEInternal.Weighted>
1.1286

> <Gold.Chemscore.Rot.Weighted>
13.9935

> <Gold.Chemscore.Internal.Correction.Weighted>
   9.000000E+99

> <Gold.Protein.RotatedTorsions>
[ 6907 6896 6895 6894 ] final -128.17 input  -60.11 | X-H torsion
[ 7974 7965 7964 7962 ] final   29.58 input  175.53 | X-H torsion
[ 8008 7997 7996 7995 ] final -147.66 input   59.86 | X-H torsion
[ 10167 10162 10161 10158 ] final -115.42 input  -65.29 | X-H torsion
[ 10718 10713 10712 10709 ] final -102.54 input   66.30 | X-H torsion
[ 10763 10752 10751 10750 ] final   48.94 input  -60.55 | X-H torsion
[ 11005 11000 10999 10996 ] final  -88.68 input  -57.11 | X-H torsion

> <Gold.Protein.ActiveResidues>
 VAL166  LYS551  ARG553  GLY616  TRP617  ASP618  TYR619  PRO620  LYS621  CYS622 
 ASP623  PHE694  ASN695  SER759  ASP760  ASP761  ALA762  ILE779  LEU786  VAL792 
 PHE793  MET794  SER795  GLU796  ALA797  LYS798  CYS799  TRP800  GLU811  SER814 

> <Gold.Protein.RotatedAtoms>
  150.9150  133.6950  159.2845 H   0  0  0  0  0  0  0  0  0  0  0  0  # atno 6907 bound_to 6896
  151.4424  135.1020  159.9683 H   0  0  0  0  0  0  0  0  0  0  0  0  # atno 6908 bound_to 6896
  152.4950  133.8555  159.7279 H   0  0  0  0  0  0  0  0  0  0  0  0  # atno 6909 bound_to 6896
  146.1663  139.6903  142.8999 H   0  0  0  0  0  0  0  0  0  0  0  0  # atno 7974 bound_to 7965
  155.5790  140.0641  157.2788 H   0  0  0  0  0  0  0  0  0  0  0  0  # atno 8008 bound_to 7997
  154.4338  140.1855  156.1004 H   0  0  0  0  0  0  0  0  0  0  0  0  # atno 8009 bound_to 7997
  156.0319  140.3305  155.7152 H   0  0  0  0  0  0  0  0  0  0  0  0  # atno 8010 bound_to 7997
  140.0903  143.4706  152.1874 H   0  0  0  0  0  0  0  0  0  0  0  0  # atno 10167 bound_to 10162
  156.0232  130.5425  150.7123 H   0  0  0  0  0  0  0  0  0  0  0  0  # atno 10718 bound_to 10713
  152.9789  135.5928  154.4008 H   0  0  0  0  0  0  0  0  0  0  0  0  # atno 10763 bound_to 10752
  154.3654  135.2767  155.2298 H   0  0  0  0  0  0  0  0  0  0  0  0  # atno 10764 bound_to 10752
  154.4277  135.6044  153.6104 H   0  0  0  0  0  0  0  0  0  0  0  0  # atno 10765 bound_to 10752
  141.1597  133.7584  156.9486 H   0  0  0  0  0  0  0  0  0  0  0  0  # atno 11005 bound_to 11000
  145.4459  141.0425  143.2832 LP  0  0  0  0  0  0  0  0  0  0  0  0  # atno 17320 bound_to 7965
  144.8097  139.5985  143.7035 LP  0  0  0  0  0  0  0  0  0  0  0  0  # atno 17321 bound_to 7965
  139.5729  144.7472  151.3843 LP  0  0  0  0  0  0  0  0  0  0  0  0  # atno 17342 bound_to 10162
  140.7032  143.7579  150.7438 LP  0  0  0  0  0  0  0  0  0  0  0  0  # atno 17343 bound_to 10162
  157.4758  131.0897  151.0591 LP  0  0  0  0  0  0  0  0  0  0  0  0  # atno 17370 bound_to 10713
  157.1039  130.5993  149.5466 LP  0  0  0  0  0  0  0  0  0  0  0  0  # atno 17371 bound_to 10713
  140.1272  134.9379  157.2287 LP  0  0  0  0  0  0  0  0  0  0  0  0  # atno 17394 bound_to 11000
  140.2998  134.3145  155.7293 LP  0  0  0  0  0  0  0  0  0  0  0  0  # atno 17395 bound_to 11000

$$$$
