AV-unprocessed.smi:534|AV-procd|sdf|2856|dock2
  -GOLD-   2262023343D 1   1.00000     0.00000
 Structure written by MMmdl.
 40 41  0  0  0  0  0  0  0  0  1 V2000
  152.0712  144.1004  160.3291 C   0  0  0  0  0  0  0  0  0  0  0  0
  151.7942  145.0815  159.3459 O   0  0  0  0  0  0  0  0  0  0  0  0
  150.8722  144.6274  158.3686 C   0  0  0  0  0  0  0  0  0  0  0  0
  151.5783  143.6577  157.4130 C   0  0  0  0  0  0  0  0  0  0  0  0
  150.6292  142.9846  156.5470 N   0  0  0  0  0  0  0  0  0  0  0  0
  150.6284  141.7131  155.9877 C   0  0  0  0  0  0  0  0  0  0  0  0
  151.5767  140.7943  156.1885 N   0  0  0  0  0  0  0  0  0  0  0  0
  151.1102  139.7095  155.4587 C   0  0  0  0  0  0  0  0  0  0  0  0
  149.9256  140.0003  154.8618 C   0  0  0  0  0  0  0  0  0  0  0  0
  149.1895  139.0255  154.0485 C   0  0  0  0  0  0  0  0  0  0  0  0
  148.1104  139.2684  153.5124 O   0  0  0  0  0  0  0  0  0  0  0  0
  149.8191  137.8289  153.9569 N   0  0  0  0  0  0  0  0  0  0  0  0
  151.0095  137.4695  154.5281 C   0  0  0  0  0  0  0  0  0  0  0  0
  151.4533  136.3337  154.3606 O   0  0  0  0  0  0  0  0  0  0  0  0
  151.6662  138.4104  155.2801 N   0  0  0  0  0  0  0  0  0  0  0  0
  152.9393  138.0784  155.9223 C   0  0  0  0  0  0  0  0  0  0  0  0
  149.6025  141.3143  155.1961 N   0  0  0  0  0  0  0  0  0  0  0  0
  148.4180  142.0762  154.8137 C   0  0  0  0  0  0  0  0  0  0  0  0
  147.1232  141.3502  155.2068 C   0  0  0  0  0  0  0  0  0  0  0  0
  146.0324  142.2552  155.1408 O   0  0  0  0  0  0  0  0  0  0  0  0
  145.9277  142.8972  153.8832 C   0  0  0  0  0  0  0  0  0  0  0  0
  149.3546  137.1194  153.4089 H   0  0  0  0  0  0  0  0  0  0  0  0
  152.7724  144.5027  161.0601 H   0  0  0  0  0  0  0  0  0  0  0  0
  152.5228  143.2135  159.8827 H   0  0  0  0  0  0  0  0  0  0  0  0
  151.1646  143.8047  160.8586 H   0  0  0  0  0  0  0  0  0  0  0  0
  150.0149  144.1409  158.8379 H   0  0  0  0  0  0  0  0  0  0  0  0
  150.4947  145.4831  157.8074 H   0  0  0  0  0  0  0  0  0  0  0  0
  152.2775  144.2065  156.7824 H   0  0  0  0  0  0  0  0  0  0  0  0
  152.1599  142.9226  157.9700 H   0  0  0  0  0  0  0  0  0  0  0  0
  149.7539  143.4788  156.4518 H   0  0  0  0  0  0  0  0  0  0  0  0
  153.6408  137.6551  155.2018 H   0  0  0  0  0  0  0  0  0  0  0  0
  152.7826  137.3472  156.7165 H   0  0  0  0  0  0  0  0  0  0  0  0
  153.4226  138.9492  156.3658 H   0  0  0  0  0  0  0  0  0  0  0  0
  148.4539  143.0591  155.2839 H   0  0  0  0  0  0  0  0  0  0  0  0
  148.4423  142.2635  153.7409 H   0  0  0  0  0  0  0  0  0  0  0  0
  146.9497  140.5088  154.5348 H   0  0  0  0  0  0  0  0  0  0  0  0
  147.2150  140.9478  156.2169 H   0  0  0  0  0  0  0  0  0  0  0  0
  145.0812  143.5836  153.8939 H   0  0  0  0  0  0  0  0  0  0  0  0
  145.7631  142.1733  153.0842 H   0  0  0  0  0  0  0  0  0  0  0  0
  146.8264  143.4722  153.6570 H   0  0  0  0  0  0  0  0  0  0  0  0
  1  2  1  0  0  0  0
  1 23  1  0  0  0  0
  1 24  1  0  0  0  0
  1 25  1  0  0  0  0
  2  3  1  0  0  0  0
  3  4  1  0  0  0  0
  3 26  1  0  0  0  0
  3 27  1  0  0  0  0
  4  5  1  0  0  0  0
  4 28  1  0  0  0  0
  4 29  1  0  0  0  0
  5  6  1  0  0  0  0
  5 30  1  0  0  0  0
  6 17  1  0  0  0  0
  6  7  2  0  0  0  0
  7  8  1  0  0  0  0
  8 15  1  0  0  0  0
  8  9  2  0  0  0  0
  9 10  1  0  0  0  0
  9 17  1  0  0  0  0
 10 11  2  0  0  0  0
 10 12  1  0  0  0  0
 12 22  1  0  0  0  0
 12 13  1  0  0  0  0
 13 14  2  0  0  0  0
 13 15  1  0  0  0  0
 15 16  1  0  0  0  0
 16 31  1  0  0  0  0
 16 32  1  0  0  0  0
 16 33  1  0  0  0  0
 17 18  1  0  0  0  0
 18 19  1  0  0  0  0
 18 34  1  0  0  0  0
 18 35  1  0  0  0  0
 19 20  1  0  0  0  0
 19 36  1  0  0  0  0
 19 37  1  0  0  0  0
 20 21  1  0  0  0  0
 21 38  1  0  0  0  0
 21 39  1  0  0  0  0
 21 40  1  0  0  0  0
M  END
> <s_m_source_file>
AV-unprocessed.smi

> <i_m_source_file_index>
534

> <i_lp_mmshare_version>
43012

> <i_f3d_flags>
0

> <s_epik_input>
W0NIM11PW0NIMl1bQ0gyXVtOSF1jKG4xKW4oW0NIMl1bQ0gyXU9bQ0gzXSljKGMxMiljKD1PKVtuSF1jKD1PKW4yW0NIM10=

> <s_epik_cmdline>
J2VwaWtfcHl0aG9uJywgJy1waCcsICc3LjAnLCAnLXRuJywgJzgnLCAnLW1hJywgJzIwMCcsICctbWV0YWxfYmluZGluZycsICctaW1hZScsICc8aW5maWxlLm1hZT4nLCAnLW9tYWUnLCAnPG91dGZpbGUubWFlPic=

> <r_lp_tautomer_probability>
1

> <r_epik_Ionization_Penalty>
6.5127e-05

> <r_epik_Ionization_Penalty_Charging>
2.86033e-05

> <r_epik_Ionization_Penalty_Neutral>
3.65237e-05

> <r_epik_State_Penalty>
-0

> <r_epik_Charging_Adjusted_Penalty>
2.86033e-05

> <i_epik_Tot_Q>
0

> <i_epik_Tot_abs_Q>
0

> <r_epik_Metal_State_Penalty>
0.0266758

> <b_epik_Metal_Only>
0

> <s_lp_Force_Field>
OPLS_2005

> <r_lp_Energy>
20.7104

> <b_lp_Chiralities_Consistent>
1

> <s_lp_Variant>
AV-unprocessed.smi:534-1

> <Gold.Version>
5.8.1

> <Gold.Id.Protein>
6NUR|6NUR_protein|mol2

> <Gold.PLP.Fitness>
48.0298

> <Gold.PLP.PLP>
-39.7121

> <Gold.PLP.part.hbond>
-3.0000

> <Gold.PLP.part.metal>
0.0000

> <Gold.PLP.part.buried>
-3.6261

> <Gold.PLP.part.nonpolar>
-35.2331

> <Gold.PLP.part.repulsive>
3.0147

> <Gold.PLP.ligand.clash>
0.0000

> <Gold.PLP.ligand.torsion>
0.3478

> <Gold.PLP.Chemscore.Hbond>
2.9920

> <Gold.PLP.Chemscore.CHOScore>
0.0000

> <Gold.PLP.Chemscore.Metal>
0.0000

> <Gold.Chemscore.Hbonds>
donor molecule, donor type, donor heavy atom, donor atom, acceptor molecule, acceptor atom, score
      L1  H     5    30       P1  8028  0.94
      L1  H    12    22       P1  7948  1.00
      P1  H 10752 10763       L1    14  1.00

> <Gold.PLP.Chemscore.Internal.Correction>
0.0374

> <Gold.Rescore>
     Score         DG    S(hbond)    S(metal)    S(lipo)     H(rot)  DE(clash)    DE(int)     intcor
     13.47     -16.28       2.78        0.00      66.42       2.45       1.40       1.40       ----

> <Gold.Chemscore.Fitness>
13.4726

> <Gold.Chemscore.DG>
-16.2776

> <Gold.Chemscore.ZeroCoef>
-5.4800

> <Gold.Chemscore.Hbond>
2.7814

> <Gold.Chemscore.Metal>
0.0000

> <Gold.Chemscore.Lipo>
66.4225

> <Gold.Chemscore.Internal_Hbond>
0.0000

> <Gold.Chemscore.DEClash>
1.4021

> <Gold.Chemscore.DEInternal>
1.4029

> <Gold.Chemscore.Rot>
2.4468

> <Gold.Chemscore.Internal.Correction>
   9.000000E+99

> <Gold.Chemscore.Hbonds>
donor molecule, donor type, donor heavy atom, donor atom, acceptor molecule, acceptor atom, score
      L1  H     5    30       P1  8028  0.91
      L1  H    12    22       P1  7948  0.93
      P1  H 10752 10763       L1    14  0.97

> <Gold.Chemscore.Hbond.Weighted>
-9.2900

> <Gold.Chemscore.Metal.Weighted>
-0.0000

> <Gold.Chemscore.Lipo.Weighted>
-7.7714

> <Gold.Chemscore.Internal_Hbond.Weighted>
0.0000

> <Gold.Chemscore.DEClash.Weighted>
1.4021

> <Gold.Chemscore.DEInternal.Weighted>
1.4029

> <Gold.Chemscore.Rot.Weighted>
6.2638

> <Gold.Chemscore.Internal.Correction.Weighted>
   9.000000E+99

> <Gold.Protein.RotatedTorsions>
[ 6907 6896 6895 6894 ] final   69.09 input  -60.11 | X-H torsion
[ 7974 7965 7964 7962 ] final  162.11 input  175.53 | X-H torsion
[ 8008 7997 7996 7995 ] final -145.41 input   59.86 | X-H torsion
[ 10167 10162 10161 10158 ] final  -27.98 input  -65.29 | X-H torsion
[ 10718 10713 10712 10709 ] final   48.30 input   66.30 | X-H torsion
[ 10763 10752 10751 10750 ] final   63.82 input  -60.55 | X-H torsion
[ 11005 11000 10999 10996 ] final   -2.60 input  -57.11 | X-H torsion

> <Gold.Protein.ActiveResidues>
 VAL166  LYS551  ARG553  GLY616  TRP617  ASP618  TYR619  PRO620  LYS621  CYS622 
 ASP623  PHE694  ASN695  SER759  ASP760  ASP761  ALA762  ILE779  LEU786  VAL792 
 PHE793  MET794  SER795  GLU796  ALA797  LYS798  CYS799  TRP800  GLU811  SER814 

> <Gold.Protein.RotatedAtoms>
  152.4663  134.5067  159.9741 H   0  0  0  0  0  0  0  0  0  0  0  0  # atno 6907 bound_to 6896
  151.5104  133.3480  159.2892 H   0  0  0  0  0  0  0  0  0  0  0  0  # atno 6908 bound_to 6896
  150.8649  134.8039  159.7173 H   0  0  0  0  0  0  0  0  0  0  0  0  # atno 6909 bound_to 6896
  144.7652  139.7993  143.6318 H   0  0  0  0  0  0  0  0  0  0  0  0  # atno 7974 bound_to 7965
  155.5428  140.0609  157.2866 H   0  0  0  0  0  0  0  0  0  0  0  0  # atno 8008 bound_to 7997
  154.4446  140.1916  156.0652 H   0  0  0  0  0  0  0  0  0  0  0  0  # atno 8009 bound_to 7997
  156.0572  140.3277  155.7423 H   0  0  0  0  0  0  0  0  0  0  0  0  # atno 8010 bound_to 7997
  140.7273  143.4048  151.1204 H   0  0  0  0  0  0  0  0  0  0  0  0  # atno 10167 bound_to 10162
  157.4673  130.8233  149.7950 H   0  0  0  0  0  0  0  0  0  0  0  0  # atno 10718 bound_to 10713
  153.0032  135.5415  154.6412 H   0  0  0  0  0  0  0  0  0  0  0  0  # atno 10763 bound_to 10752
  154.5667  135.2838  155.0869 H   0  0  0  0  0  0  0  0  0  0  0  0  # atno 10764 bound_to 10752
  154.2051  135.6477  153.5151 H   0  0  0  0  0  0  0  0  0  0  0  0  # atno 10765 bound_to 10752
  140.6602  133.9327  155.8431 H   0  0  0  0  0  0  0  0  0  0  0  0  # atno 11005 bound_to 11000
  146.1753  139.4921  142.9901 LP  0  0  0  0  0  0  0  0  0  0  0  0  # atno 17320 bound_to 7965
  145.6491  141.0267  143.1770 LP  0  0  0  0  0  0  0  0  0  0  0  0  # atno 17321 bound_to 7965
  139.7673  143.8546  152.3113 LP  0  0  0  0  0  0  0  0  0  0  0  0  # atno 17342 bound_to 10162
  139.8452  144.7191  150.9281 LP  0  0  0  0  0  0  0  0  0  0  0  0  # atno 17343 bound_to 10162
  156.0056  130.3857  150.2443 LP  0  0  0  0  0  0  0  0  0  0  0  0  # atno 17370 bound_to 10713
  157.0623  131.0093  151.3218 LP  0  0  0  0  0  0  0  0  0  0  0  0  # atno 17371 bound_to 10713
  141.0471  134.0538  157.3830 LP  0  0  0  0  0  0  0  0  0  0  0  0  # atno 17394 bound_to 11000
  139.9016  135.0166  156.7293 LP  0  0  0  0  0  0  0  0  0  0  0  0  # atno 17395 bound_to 11000

$$$$
