#       Name:                AV-unprocessed.smi:1036
#       Creating user name   scv26
#       Creation time:       Fri Mar 27 02:53:02 2020


#       File generated by GOLD software.
#

@<TRIPOS>MOLECULE
AV-unprocessed.smi:1036
    46    48     1
SMALL
NO_CHARGES


@<TRIPOS>ATOM
      1 ****        -4.7442   1.6218   0.3718 O.3            1 S1                 0.0000
      2 ****        -4.3556   1.9152  -0.9531 C.3            1 S1                 0.0000
      3 ****        -2.9164   2.4458  -0.9706 C.3            1 S1                 0.0000
      4 ****        -1.9446   1.3641  -0.9562 N.pl3          1 S1                 0.0000
      5 ****        -0.5831   1.6749  -0.8792 C.cat          1 S1                 0.0000
      6 ****        -0.0398   2.9166  -0.9914 N.pl3          1 S1                 1.0000
      7 ****         1.3466   2.8043  -0.8515 C.ar           1 S1                 0.0000
      8 ****         2.3442   3.7738  -0.8831 C.ar           1 S1                 0.0000
      9 ****         3.6693   3.3256  -0.7028 C.ar           1 S1                 0.0000
     10 ****         3.9637   1.9612  -0.5017 C.ar           1 S1                 0.0000
     11 ****         2.9467   0.9845  -0.4726 C.ar           1 S1                 0.0000
     12 ****         1.6387   1.4336  -0.6510 C.ar           1 S1                 0.0000
     13 ****         0.4075   0.7674  -0.6785 N.pl3          1 S1                 0.0000
     14 ****         0.3647  -0.6908  -0.4944 C.3            1 S1                 0.0000
     15 ****         0.4279  -1.1082   0.9877 C.3            1 S1                 0.0000
     16 ****        -0.6406  -0.5087   1.6966 O.3            1 S1                 0.0000
     17 ****         0.4534  -2.6241   1.1284 C.ar           1 S1                 0.0000
     18 ****        -0.7500  -3.3630   1.1855 C.ar           1 S1                 0.0000
     19 ****        -0.7192  -4.7660   1.3039 C.ar           1 S1                 0.0000
     20 ****        -1.8769  -5.4662   1.3590 F              1 S1                 0.0000
     21 ****         0.5144  -5.4410   1.3624 C.ar           1 S1                 0.0000
     22 ****         1.7172  -4.7125   1.2978 C.ar           1 S1                 0.0000
     23 ****         1.6887  -3.3092   1.1784 C.ar           1 S1                 0.0000
     24 ****         2.8555  -2.6240   1.1062 F              1 S1                 0.0000
     25 ****        -5.6390   1.3175   0.3627 H              1 S1                 0.0000
     26 ****        -4.4735   1.0389  -1.5919 H              1 S1                 0.0000
     27 ****        -5.0330   2.6817  -1.3311 H              1 S1                 0.0000
     28 ****        -2.7609   3.0154  -1.8876 H              1 S1                 0.0000
     29 ****        -2.7443   3.1295  -0.1379 H              1 S1                 0.0000
     30 ****        -2.2586   0.4201  -0.7808 H              1 S1                 0.0000
     31 ****         2.1227   4.8199  -1.0361 H              1 S1                 0.0000
     32 ****         4.4766   4.0435  -0.7184 H              1 S1                 0.0000
     33 ****         4.9915   1.6568  -0.3668 H              1 S1                 0.0000
     34 ****         3.1829  -0.0579  -0.3166 H              1 S1                 0.0000
     35 ****        -0.5529  -1.0592  -0.9550 H              1 S1                 0.0000
     36 ****         1.1879  -1.1307  -1.0587 H              1 S1                 0.0000
     37 ****         1.3417  -0.7102   1.4299 H              1 S1                 0.0000
     38 ****        -0.5344  -0.6975   2.6166 H              1 S1                 0.0000
     39 ****        -1.7039  -2.8588   1.1347 H              1 S1                 0.0000
     40 ****         0.5382  -6.5170   1.4527 H              1 S1                 0.0000
     41 ****         2.6635  -5.2313   1.3368 H              1 S1                 0.0000
     42 ****        -0.5709   3.7638  -1.1453 H              1 S1                 0.0000
     43 ****        -4.6742   2.4459   0.9339 LP             1 S1                 0.0000
     44 ****        -4.1502   0.9106   0.7476 LP             1 S1                 0.0000
     45 ****        -1.5106  -0.8818   1.3741 LP             1 S1                 0.0000
     46 ****        -0.6282   0.4807   1.5519 LP             1 S1                 0.0000
@<TRIPOS>BOND
    1    1    2 1     
    2    1   25 1     
    3    2    3 1     
    4    2   26 1     
    5    2   27 1     
    6    3    4 1     
    7    3   28 1     
    8    3   29 1     
    9    4    5 ar    
   10    4   30 1     
   11    5   13 ar    
   12    5    6 ar    
   13    6    7 1     
   14    6   42 1     
   15    7   12 ar    
   16    7    8 ar    
   17    8    9 ar    
   18    8   31 1     
   19    9   10 ar    
   20    9   32 1     
   21   10   11 ar    
   22   10   33 1     
   23   11   12 ar    
   24   11   34 1     
   25   12   13 1     
   26   13   14 1     
   27   14   15 1     
   28   14   35 1     
   29   14   36 1     
   30   15   16 1     
   31   15   17 1     
   32   15   37 1     
   33   16   38 1     
   34   17   23 ar    
   35   17   18 ar    
   36   18   19 ar    
   37   18   39 1     
   38   19   20 1     
   39   19   21 ar    
   40   21   22 ar    
   41   21   40 1     
   42   22   23 ar    
   43   22   41 1     
   44   23   24 1     
   45    1   43 1     
   46    1   44 1     
   47   16   45 1     
   48   16   46 1     
@<TRIPOS>SUBSTRUCTURE
      1 S1             1
@<TRIPOS>SET
LONE_PAIRS      STATIC     ATOMS    <user>   **** ""
4 43 44 45 46
DONOR_HYDROGENS      STATIC     ATOMS    <user>   **** ""
4 25 30 42 38
ATOM$BLUE        STATIC     ATOMS    COLORGROUP SYSTEM
4 43 44 45 46
ATOM$RED        STATIC     ATOMS    COLORGROUP SYSTEM
4 25 30 42 38
