AV-unprocessed.smi:1056|AV-procd|sdf|4648|dock9
  -GOLD-   22720 3153D 1   1.00000     0.00000
 Structure written by MMmdl.
 45 47  0  0  0  0  0  0  0  0  4 V2000
  152.2792  144.5699  160.8083 C   0  0  0  0  0  0  0  0  0  0  0  0
  152.0888  143.5048  159.7416 C   0  0  0  0  0  0  0  0  0  0  0  0
  151.1457  143.7386  158.7157 C   0  0  0  0  0  0  0  0  0  0  0  0
  150.9938  142.7457  157.7551 C   0  0  0  0  0  0  0  0  0  0  0  0
  150.1593  142.6753  156.6378 N   0  3  0  0  0  0  0  0  0  0  0  0
  150.3655  141.4954  155.9898 C   0  0  0  0  0  0  0  0  0  0  0  0
  151.3203  140.8104  156.6763 N   0  0  0  0  0  0  0  0  0  0  0  0
  151.9120  139.4926  156.3992 C   0  0  0  0  0  0  0  0  0  0  0  0
  151.0463  138.6249  155.4634 C   0  0  2  0  0  0  0  0  0  0  0  0
  151.0258  139.2015  154.1712 O   0  0  0  0  0  0  0  0  0  0  0  0
  149.5983  138.5103  155.9831 C   0  0  0  0  0  0  0  0  0  0  0  0
  149.4097  137.3725  156.9180 N   0  3  1  0  0  0  0  0  0  0  0  0
  150.1457  136.1438  156.5199 C   0  0  0  0  0  0  0  0  0  0  0  0
  149.6583  134.9395  157.3482 C   0  0  0  0  0  0  0  0  0  0  0  0
  149.6038  135.2885  158.7729 N   0  5  0  0  0  0  0  0  0  0  0  0
  149.5094  136.5494  159.2999 C   0  0  0  0  0  0  0  0  0  0  0  0
  149.3316  136.8146  160.4867 O   0  0  0  0  0  0  0  0  0  0  0  0
  149.6912  137.7489  158.3311 C   0  0  0  0  0  0  0  0  0  0  0  0
  151.7420  141.5526  157.7870 C   0  0  0  0  0  0  0  0  0  0  0  0
  152.6754  141.3071  158.7916 C   0  0  0  0  0  0  0  0  0  0  0  0
  152.8438  142.3041  159.7790 C   0  0  0  0  0  0  0  0  0  0  0  0
  153.8543  142.0626  160.8875 C   0  0  0  0  0  0  0  0  0  0  0  0
  151.6035  145.4121  160.6564 H   0  0  0  0  0  0  0  0  0  0  0  0
  153.2996  144.9532  160.7872 H   0  0  0  0  0  0  0  0  0  0  0  0
  152.0827  144.1608  161.7995 H   0  0  0  0  0  0  0  0  0  0  0  0
  150.5675  144.6505  158.6809 H   0  0  0  0  0  0  0  0  0  0  0  0
  149.8636  141.1653  155.0916 H   0  0  0  0  0  0  0  0  0  0  0  0
  152.8846  139.6725  155.9394 H   0  0  0  0  0  0  0  0  0  0  0  0
  152.1129  138.9828  157.3419 H   0  0  0  0  0  0  0  0  0  0  0  0
  151.5061  137.6399  155.3869 H   0  0  0  0  0  0  0  0  0  0  0  0
  150.1521  139.1322  153.8174 H   0  0  0  0  0  0  0  0  0  0  0  0
  149.2952  139.4314  156.4834 H   0  0  0  0  0  0  0  0  0  0  0  0
  148.9314  138.3986  155.1264 H   0  0  0  0  0  0  0  0  0  0  0  0
  150.0043  135.9255  155.4623 H   0  0  0  0  0  0  0  0  0  0  0  0
  151.2161  136.2985  156.6663 H   0  0  0  0  0  0  0  0  0  0  0  0
  148.6729  134.6469  156.9851 H   0  0  0  0  0  0  0  0  0  0  0  0
  150.3097  134.0860  157.1615 H   0  0  0  0  0  0  0  0  0  0  0  0
  150.7131  138.1205  158.4208 H   0  0  0  0  0  0  0  0  0  0  0  0
  149.0228  138.5557  158.6350 H   0  0  0  0  0  0  0  0  0  0  0  0
  153.2468  140.3915  158.8253 H   0  0  0  0  0  0  0  0  0  0  0  0
  154.3639  141.1068  160.7620 H   0  0  0  0  0  0  0  0  0  0  0  0
  153.3607  142.0519  161.8595 H   0  0  0  0  0  0  0  0  0  0  0  0
  154.6128  142.8456  160.8915 H   0  0  0  0  0  0  0  0  0  0  0  0
  148.4292  137.1334  156.8943 H   0  0  0  0  0  0  0  0  0  0  0  0
  149.4986  143.3804  156.3365 H   0  0  0  0  0  0  0  0  0  0  0  0
  1  2  1  0  0  0  0
  1 23  1  0  0  0  0
  1 24  1  0  0  0  0
  1 25  1  0  0  0  0
  2 21  1  0  0  0  0
  2  3  2  0  0  0  0
  3  4  1  0  0  0  0
  3 26  1  0  0  0  0
  4 19  2  0  0  0  0
  4  5  1  0  0  0  0
  5  6  2  0  0  0  0
  5 45  1  0  0  0  0
  6  7  1  0  0  0  0
  6 27  1  0  0  0  0
  7  8  1  0  0  0  0
  7 19  1  0  0  0  0
  8  9  1  0  0  0  0
  8 28  1  0  0  0  0
  8 29  1  0  0  0  0
  9 10  1  0  0  0  0
  9 11  1  0  0  0  0
  9 30  1  0  0  0  0
 10 31  1  0  0  0  0
 11 12  1  0  0  0  0
 11 32  1  0  0  0  0
 11 33  1  0  0  0  0
 12 18  1  0  0  0  0
 12 13  1  0  0  0  0
 12 44  1  0  0  0  0
 13 14  1  0  0  0  0
 13 34  1  0  0  0  0
 13 35  1  0  0  0  0
 14 15  1  0  0  0  0
 14 36  1  0  0  0  0
 14 37  1  0  0  0  0
 15 16  1  0  0  0  0
 16 17  2  0  0  0  0
 16 18  1  0  0  0  0
 18 38  1  0  0  0  0
 18 39  1  0  0  0  0
 19 20  1  0  0  0  0
 20 21  2  0  0  0  0
 20 40  1  0  0  0  0
 21 22  1  0  0  0  0
 22 41  1  0  0  0  0
 22 42  1  0  0  0  0
 22 43  1  0  0  0  0
M  CHG  1   5   1
M  CHG  1  12   1
M  CHG  1  15  -1
M  END
> <s_m_source_file>
AV-unprocessed.smi

> <i_m_source_file_index>
1056

> <i_lp_mmshare_version>
43012

> <i_f3d_flags>
0

> <s_epik_input>
W0NIM11jKFtjSF0xKWMoW0NIM10pW2NIXWMoYzEyKW4oW2NIXW4yKVtDSDJdW0NASF0oW09IXSlbQ0gyXU4zW0NIMl1bQ0gyXVtOSF1DKD1PKVtDSDJdMw==

> <s_epik_cmdline>
J2VwaWtfcHl0aG9uJywgJy1waCcsICc3LjAnLCAnLXRuJywgJzgnLCAnLW1hJywgJzIwMCcsICctbWV0YWxfYmluZGluZycsICctaW1hZScsICc8aW5maWxlLm1hZT4nLCAnLW9tYWUnLCAnPG91dGZpbGUubWFlPic=

> <r_epik_Ionization_Penalty>
6.22415

> <r_epik_Ionization_Penalty_Charging>
6.22415

> <r_epik_Ionization_Penalty_Neutral>
4.02797e-07

> <r_epik_State_Penalty>
6.37716

> <r_epik_Charging_Adjusted_Penalty>
12.6013

> <i_epik_Tot_Q>
1

> <i_epik_Tot_abs_Q>
3

> <r_epik_Metal_State_Penalty>
2.53509

> <b_epik_Metal_Only>
1

> <s_lp_Force_Field>
OPLS_2005

> <r_lp_Energy>
27.8537

> <b_lp_Chiralities_Consistent>
1

> <s_lp_Variant>
AV-unprocessed.smi:1056-19

> <Gold.Version>
5.8.1

> <Gold.Id.Protein>
6NUR|6NUR_protein|mol2

> <Gold.PLP.Fitness>
55.8874

> <Gold.PLP.PLP>
-40.5922

> <Gold.PLP.part.hbond>
-4.0000

> <Gold.PLP.part.metal>
0.0000

> <Gold.PLP.part.buried>
-5.7518

> <Gold.PLP.part.nonpolar>
-31.3453

> <Gold.PLP.part.repulsive>
0.0652

> <Gold.PLP.ligand.clash>
0.0000

> <Gold.PLP.ligand.torsion>
0.9201

> <Gold.PLP.Chemscore.Hbond>
5.7040

> <Gold.PLP.Chemscore.CHOScore>
0.0000

> <Gold.PLP.Chemscore.Metal>
0.0000

> <Gold.Chemscore.Hbonds>
donor molecule, donor type, donor heavy atom, donor atom, acceptor molecule, acceptor atom, score
      L1  H     5    45       P1  8028  2.00
      P1  H  6896  6907       L1    15  2.00
      P1  H  6931  6943       L1    17  0.66
      P1  H  7989  7998       L1    10  1.00

> <Gold.PLP.Chemscore.Internal.Correction>
0.0234

> <Gold.Rescore>
     Score         DG    S(hbond)    S(metal)    S(lipo)     H(rot)  DE(clash)    DE(int)     intcor
     18.96     -21.11       2.97        0.00     100.73       2.37       0.06       2.10       ----

> <Gold.Chemscore.Fitness>
18.9552

> <Gold.Chemscore.DG>
-21.1148

> <Gold.Chemscore.ZeroCoef>
-5.4800

> <Gold.Chemscore.Hbond>
2.9708

> <Gold.Chemscore.Metal>
0.0000

> <Gold.Chemscore.Lipo>
100.7326

> <Gold.Chemscore.Internal_Hbond>
0.0000

> <Gold.Chemscore.DEClash>
0.0609

> <Gold.Chemscore.DEInternal>
2.0987

> <Gold.Chemscore.Rot>
2.3724

> <Gold.Chemscore.Internal.Correction>
   9.000000E+99

> <Gold.Chemscore.Hbonds>
donor molecule, donor type, donor heavy atom, donor atom, acceptor molecule, acceptor atom, score
      L1  H     5    45       P1  8028  0.99
      P1  H  6896  6907       L1    15  0.45
      P1  H  6931  6943       L1    17  0.62
      P1  H  7989  7998       L1    10  0.39

> <Gold.Chemscore.Hbond.Weighted>
-9.9224

> <Gold.Chemscore.Metal.Weighted>
-0.0000

> <Gold.Chemscore.Lipo.Weighted>
-11.7857

> <Gold.Chemscore.Internal_Hbond.Weighted>
0.0000

> <Gold.Chemscore.DEClash.Weighted>
0.0609

> <Gold.Chemscore.DEInternal.Weighted>
2.0987

> <Gold.Chemscore.Rot.Weighted>
6.0734

> <Gold.Chemscore.Internal.Correction.Weighted>
   9.000000E+99

> <Gold.Protein.RotatedTorsions>
[ 6907 6896 6895 6894 ] final  -83.68 input  -60.11 | X-H torsion
[ 7974 7965 7964 7962 ] final  156.71 input  175.53 | X-H torsion
[ 8008 7997 7996 7995 ] final   54.59 input   59.86 | X-H torsion
[ 10167 10162 10161 10158 ] final   48.99 input  -65.29 | X-H torsion
[ 10718 10713 10712 10709 ] final   93.54 input   66.30 | X-H torsion
[ 10763 10752 10751 10750 ] final    5.30 input  -60.55 | X-H torsion
[ 11005 11000 10999 10996 ] final -124.08 input  -57.11 | X-H torsion

> <Gold.Protein.ActiveResidues>
 VAL166  LYS551  ARG553  GLY616  TRP617  ASP618  TYR619  PRO620  LYS621  CYS622 
 ASP623  PHE694  ASN695  SER759  ASP760  ASP761  ALA762  ILE779  LEU786  VAL792 
 PHE793  MET794  SER795  GLU796  ALA797  LYS798  CYS799  TRP800  GLU811  SER814 

> <Gold.Protein.RotatedAtoms>
  150.6883  134.3474  159.4893 H   0  0  0  0  0  0  0  0  0  0  0  0  # atno 6907 bound_to 6896
  152.1320  134.9125  160.0567 H   0  0  0  0  0  0  0  0  0  0  0  0  # atno 6908 bound_to 6896
  152.0292  133.3895  159.4327 H   0  0  0  0  0  0  0  0  0  0  0  0  # atno 6909 bound_to 6896
  144.7947  139.7241  143.6207 H   0  0  0  0  0  0  0  0  0  0  0  0  # atno 7974 bound_to 7965
  155.4872  140.3470  155.4349 H   0  0  0  0  0  0  0  0  0  0  0  0  # atno 8008 bound_to 7997
  156.1001  140.1433  156.9508 H   0  0  0  0  0  0  0  0  0  0  0  0  # atno 8009 bound_to 7997
  154.4688  140.0908  156.7068 H   0  0  0  0  0  0  0  0  0  0  0  0  # atno 8010 bound_to 7997
  140.2876  144.3084  150.6248 H   0  0  0  0  0  0  0  0  0  0  0  0  # atno 10167 bound_to 10162
  157.6954  131.0482  150.4050 H   0  0  0  0  0  0  0  0  0  0  0  0  # atno 10718 bound_to 10713
  153.2611  135.6923  153.7578 H   0  0  0  0  0  0  0  0  0  0  0  0  # atno 10763 bound_to 10752
  153.6637  135.3356  155.3135 H   0  0  0  0  0  0  0  0  0  0  0  0  # atno 10764 bound_to 10752
  154.8430  135.4483  154.1601 H   0  0  0  0  0  0  0  0  0  0  0  0  # atno 10765 bound_to 10752
  140.9869  134.0594  157.3700 H   0  0  0  0  0  0  0  0  0  0  0  0  # atno 11005 bound_to 11000
  146.2211  139.5637  142.9618 LP  0  0  0  0  0  0  0  0  0  0  0  0  # atno 17320 bound_to 7965
  145.5705  141.0394  143.2177 LP  0  0  0  0  0  0  0  0  0  0  0  0  # atno 17321 bound_to 7965
  140.5760  143.2176  151.7515 LP  0  0  0  0  0  0  0  0  0  0  0  0  # atno 17342 bound_to 10162
  139.4946  144.4149  152.0040 LP  0  0  0  0  0  0  0  0  0  0  0  0  # atno 17343 bound_to 10162
  156.4439  130.3997  149.6679 LP  0  0  0  0  0  0  0  0  0  0  0  0  # atno 17370 bound_to 10713
  156.3852  130.7599  151.2596 LP  0  0  0  0  0  0  0  0  0  0  0  0  # atno 17371 bound_to 10713
  139.8974  135.0150  156.7101 LP  0  0  0  0  0  0  0  0  0  0  0  0  # atno 17394 bound_to 11000
  140.7100  133.9231  155.8078 LP  0  0  0  0  0  0  0  0  0  0  0  0  # atno 17395 bound_to 11000

$$$$
