AV-unprocessed.smi:1836|AV-procd|sdf|7477|dock5
  -GOLD-   22720 9173D 1   1.00000     0.00000
 Structure written by MMmdl.
 33 34  0  0  0  0  0  0  0  0  1 V2000
  149.9094  137.3381  156.5060 C   0  0  0  0  0  0  0  0  0  0  0  0
  150.8258  136.7627  155.4170 C   0  0  2  0  0  0  0  0  0  0  0  0
  151.4475  137.8884  154.5613 C   0  0  0  0  0  0  0  0  0  0  0  0
  151.2713  139.2060  155.1702 N   0  0  0  0  0  0  0  0  0  0  0  0
  150.2420  140.1118  154.6884 C   0  0  0  0  0  0  0  0  0  0  0  0
  150.2308  141.2709  155.6947 C   0  0  0  0  0  0  0  0  0  0  0  0
  151.5315  141.1391  156.4942 C   0  0  0  0  0  0  0  0  0  0  0  0
  152.0257  139.7485  156.1340 C   0  0  0  0  0  0  0  0  0  0  0  0
  152.9943  139.2230  156.6808 O   0  0  0  0  0  0  0  0  0  0  0  0
  150.0306  135.8621  154.5845 N   0  0  0  0  0  0  0  0  0  0  0  0
  149.6523  134.6196  154.9195 C   0  0  0  0  0  0  0  0  0  0  0  0
  149.9279  134.0912  155.9967 O   0  0  0  0  0  0  0  0  0  0  0  0
  148.9526  134.0436  153.9291 N   0  0  0  0  0  0  0  0  0  0  0  0
  148.4296  132.7274  153.8833 C   0  0  0  0  0  0  0  0  0  0  0  0
  148.9809  131.8042  154.6800 N   0  0  0  0  0  0  0  0  0  0  0  0
  148.3738  130.5627  154.5358 N   0  0  0  0  0  0  0  0  0  0  0  0
  147.3852  130.5992  153.6372 C   0  0  0  0  0  0  0  0  0  0  0  0
  147.0953  132.1543  152.8780 S   0  0  0  0  0  0  0  0  0  0  0  0
  150.4628  137.9956  157.1773 H   0  0  0  0  0  0  0  0  0  0  0  0
  149.4735  136.5440  157.1134 H   0  0  0  0  0  0  0  0  0  0  0  0
  149.0910  137.9156  156.0745 H   0  0  0  0  0  0  0  0  0  0  0  0
  151.6221  136.2156  155.9251 H   0  0  0  0  0  0  0  0  0  0  0  0
  152.5028  137.6908  154.3635 H   0  0  0  0  0  0  0  0  0  0  0  0
  150.9633  137.9139  153.5840 H   0  0  0  0  0  0  0  0  0  0  0  0
  150.5093  140.4624  153.6905 H   0  0  0  0  0  0  0  0  0  0  0  0
  149.2716  139.6176  154.6295 H   0  0  0  0  0  0  0  0  0  0  0  0
  150.1519  142.2376  155.1963 H   0  0  0  0  0  0  0  0  0  0  0  0
  149.3748  141.1761  156.3642 H   0  0  0  0  0  0  0  0  0  0  0  0
  152.2686  141.8796  156.1825 H   0  0  0  0  0  0  0  0  0  0  0  0
  151.3663  141.2368  157.5676 H   0  0  0  0  0  0  0  0  0  0  0  0
  149.7615  136.2083  153.6751 H   0  0  0  0  0  0  0  0  0  0  0  0
  148.7867  134.6047  153.1068 H   0  0  0  0  0  0  0  0  0  0  0  0
  146.8220  129.7033  153.4212 H   0  0  0  0  0  0  0  0  0  0  0  0
  1  2  1  0  0  0  0
  1 19  1  0  0  0  0
  1 20  1  0  0  0  0
  1 21  1  0  0  0  0
  2  3  1  0  0  0  0
  2 10  1  0  0  0  0
  2 22  1  0  0  0  0
  3  4  1  0  0  0  0
  3 23  1  0  0  0  0
  3 24  1  0  0  0  0
  4  8  1  0  0  0  0
  4  5  1  0  0  0  0
  5  6  1  0  0  0  0
  5 25  1  0  0  0  0
  5 26  1  0  0  0  0
  6  7  1  0  0  0  0
  6 27  1  0  0  0  0
  6 28  1  0  0  0  0
  7  8  1  0  0  0  0
  7 29  1  0  0  0  0
  7 30  1  0  0  0  0
  8  9  2  0  0  0  0
 10 11  1  0  0  0  0
 10 31  1  0  0  0  0
 11 12  2  0  0  0  0
 11 13  1  0  0  0  0
 13 14  1  0  0  0  0
 13 32  1  0  0  0  0
 14 18  1  0  0  0  0
 14 15  2  0  0  0  0
 15 16  1  0  0  0  0
 16 17  2  0  0  0  0
 17 18  1  0  0  0  0
 17 33  1  0  0  0  0
M  END
> <s_m_source_file>
AV-unprocessed.smi

> <i_m_source_file_index>
1836

> <i_lp_mmshare_version>
43012

> <i_f3d_flags>
0

> <s_epik_input>
Tz1DMVtDSDJdW0NIMl1bQ0gyXU4xW0NIMl1bQ0BASF0oW0NIM10pW05IXUMoPU8pW05IXWMybm5bY0hdczI=

> <s_epik_cmdline>
J2VwaWtfcHl0aG9uJywgJy1waCcsICc3LjAnLCAnLXRuJywgJzgnLCAnLW1hJywgJzIwMCcsICctbWV0YWxfYmluZGluZycsICctaW1hZScsICc8aW5maWxlLm1hZT4nLCAnLW9tYWUnLCAnPG91dGZpbGUubWFlPic=

> <r_lp_tautomer_probability>
1

> <r_epik_Ionization_Penalty>
0.00192022

> <r_epik_Ionization_Penalty_Charging>
0

> <r_epik_Ionization_Penalty_Neutral>
0.00192022

> <r_epik_State_Penalty>
-0

> <r_epik_Charging_Adjusted_Penalty>
0

> <i_epik_Tot_Q>
0

> <i_epik_Tot_abs_Q>
0

> <r_epik_Metal_State_Penalty>
0.336618

> <b_epik_Metal_Only>
0

> <s_lp_Force_Field>
OPLS_2005

> <r_lp_Energy>
16.7835

> <b_lp_Chiralities_Consistent>
1

> <s_lp_Variant>
AV-unprocessed.smi:1836-1

> <Gold.Version>
5.8.1

> <Gold.Id.Protein>
6NUR|6NUR_protein|mol2

> <Gold.PLP.Fitness>
37.3958

> <Gold.PLP.PLP>
-31.8099

> <Gold.PLP.part.hbond>
-3.5589

> <Gold.PLP.part.metal>
0.0000

> <Gold.PLP.part.buried>
-1.9969

> <Gold.PLP.part.nonpolar>
-26.2896

> <Gold.PLP.part.repulsive>
0.1538

> <Gold.PLP.ligand.clash>
0.0000

> <Gold.PLP.ligand.torsion>
1.2904

> <Gold.PLP.Chemscore.Hbond>
2.7140

> <Gold.PLP.Chemscore.CHOScore>
0.0000

> <Gold.PLP.Chemscore.Metal>
0.0000

> <Gold.Chemscore.Hbonds>
donor molecule, donor type, donor heavy atom, donor atom, acceptor molecule, acceptor atom, score
      L1  H    10    31       P1  7948  1.00
      L1  H    13    32       P1  7948  0.85
      P1  H  7997  8008       L1     9  1.00

> <Gold.PLP.Chemscore.Internal.Correction>
0.0246

> <Gold.Rescore>
     Score         DG    S(hbond)    S(metal)    S(lipo)     H(rot)  DE(clash)    DE(int)     intcor
     12.15     -14.64       2.65        0.00      41.19       1.76       0.00       2.50       ----

> <Gold.Chemscore.Fitness>
12.1459

> <Gold.Chemscore.DG>
-14.6440

> <Gold.Chemscore.ZeroCoef>
-5.4800

> <Gold.Chemscore.Hbond>
2.6476

> <Gold.Chemscore.Metal>
0.0000

> <Gold.Chemscore.Lipo>
41.1912

> <Gold.Chemscore.Internal_Hbond>
0.0000

> <Gold.Chemscore.DEClash>
0.0000

> <Gold.Chemscore.DEInternal>
2.4981

> <Gold.Chemscore.Rot>
1.7571

> <Gold.Chemscore.Internal.Correction>
   9.000000E+99

> <Gold.Chemscore.Hbonds>
donor molecule, donor type, donor heavy atom, donor atom, acceptor molecule, acceptor atom, score
      L1  H    10    31       P1  7948  0.29
      L1  H    13    32       P1  7948  0.14
      P1  H  7997  8008       L1     9  0.95

> <Gold.Chemscore.Hbond.Weighted>
-8.8429

> <Gold.Chemscore.Metal.Weighted>
-0.0000

> <Gold.Chemscore.Lipo.Weighted>
-4.8194

> <Gold.Chemscore.Internal_Hbond.Weighted>
0.0000

> <Gold.Chemscore.DEClash.Weighted>
0.0000

> <Gold.Chemscore.DEInternal.Weighted>
2.4981

> <Gold.Chemscore.Rot.Weighted>
4.4983

> <Gold.Chemscore.Internal.Correction.Weighted>
   9.000000E+99

> <Gold.Protein.RotatedTorsions>
[ 6907 6896 6895 6894 ] final  169.24 input  -60.11 | X-H torsion
[ 7974 7965 7964 7962 ] final -119.51 input  175.53 | X-H torsion
[ 8008 7997 7996 7995 ] final  -71.32 input   59.86 | X-H torsion
[ 10167 10162 10161 10158 ] final   -2.62 input  -65.29 | X-H torsion
[ 10718 10713 10712 10709 ] final  156.94 input   66.30 | X-H torsion
[ 10763 10752 10751 10750 ] final  104.03 input  -60.55 | X-H torsion
[ 11005 11000 10999 10996 ] final   -0.61 input  -57.11 | X-H torsion

> <Gold.Protein.ActiveResidues>
 VAL166  LYS551  ARG553  GLY616  TRP617  ASP618  TYR619  PRO620  LYS621  CYS622 
 ASP623  PHE694  ASN695  SER759  ASP760  ASP761  ALA762  ILE779  LEU786  VAL792 
 PHE793  MET794  SER795  GLU796  ALA797  LYS798  CYS799  TRP800  GLU811  SER814 

> <Gold.Protein.RotatedAtoms>
  151.8350  133.3414  159.3624 H   0  0  0  0  0  0  0  0  0  0  0  0  # atno 6907 bound_to 6896
  150.7252  134.5447  159.5774 H   0  0  0  0  0  0  0  0  0  0  0  0  # atno 6908 bound_to 6896
  152.2908  134.7724  160.0429 H   0  0  0  0  0  0  0  0  0  0  0  0  # atno 6909 bound_to 6896
  145.0617  140.8295  143.4148 H   0  0  0  0  0  0  0  0  0  0  0  0  # atno 7974 bound_to 7965
  154.5079  140.0818  156.7930 H   0  0  0  0  0  0  0  0  0  0  0  0  # atno 8008 bound_to 7997
  155.3853  140.3430  155.4230 H   0  0  0  0  0  0  0  0  0  0  0  0  # atno 8009 bound_to 7997
  156.1537  140.1566  156.8715 H   0  0  0  0  0  0  0  0  0  0  0  0  # atno 8010 bound_to 7997
  140.6858  143.6635  150.8246 H   0  0  0  0  0  0  0  0  0  0  0  0  # atno 10167 bound_to 10162
  157.1982  131.0670  151.2040 H   0  0  0  0  0  0  0  0  0  0  0  0  # atno 10718 bound_to 10713
  153.3605  135.3957  155.1714 H   0  0  0  0  0  0  0  0  0  0  0  0  # atno 10763 bound_to 10752
  154.8678  135.3678  154.5106 H   0  0  0  0  0  0  0  0  0  0  0  0  # atno 10764 bound_to 10752
  153.5565  135.7082  153.5627 H   0  0  0  0  0  0  0  0  0  0  0  0  # atno 10765 bound_to 10752
  140.6382  133.9513  155.8311 H   0  0  0  0  0  0  0  0  0  0  0  0  # atno 11005 bound_to 11000
  145.1401  139.2578  143.5495 LP  0  0  0  0  0  0  0  0  0  0  0  0  # atno 17320 bound_to 7965
  146.3524  140.1076  142.8605 LP  0  0  0  0  0  0  0  0  0  0  0  0  # atno 17321 bound_to 7965
  140.0342  143.5412  152.2747 LP  0  0  0  0  0  0  0  0  0  0  0  0  # atno 17342 bound_to 10162
  139.6216  144.7630  151.2728 LP  0  0  0  0  0  0  0  0  0  0  0  0  # atno 17343 bound_to 10162
  157.3793  130.7223  149.6619 LP  0  0  0  0  0  0  0  0  0  0  0  0  # atno 17370 bound_to 10713
  155.9703  130.4177  150.4291 LP  0  0  0  0  0  0  0  0  0  0  0  0  # atno 17371 bound_to 10713
  141.0626  134.0324  157.3638 LP  0  0  0  0  0  0  0  0  0  0  0  0  # atno 17394 bound_to 11000
  139.9090  135.0186  156.7610 LP  0  0  0  0  0  0  0  0  0  0  0  0  # atno 17395 bound_to 11000

$$$$
