AV-unprocessed.smi:529|AV-procd|sdf|2839|dock2
  -GOLD-   2262023333D 1   1.00000     0.00000
 Structure written by MMmdl.
 31 32  0  0  0  0  0  0  0  0  2 V2000
  149.1963  138.3446  153.6842 N   0  0  0  0  0  0  0  0  0  0  0  0
  148.5981  139.5263  153.8539 C   0  0  0  0  0  0  0  0  0  0  0  0
  147.0596  139.9605  153.1712 S   0  0  0  0  0  0  0  0  0  0  0  0
  147.1709  141.5351  153.8980 C   0  0  0  0  0  0  0  0  0  0  0  0
  148.3321  141.6773  154.6109 C   0  0  0  0  0  0  0  0  0  0  0  0
  149.1280  140.5338  154.5788 N   0  3  0  0  0  0  0  0  0  0  0  0
  150.4304  140.4457  155.2652 C   0  0  0  0  0  0  0  0  0  0  0  0
  150.3330  140.8988  156.7245 C   0  0  0  0  0  0  0  0  0  0  0  0
  149.5450  140.3452  157.4914 O   0  0  0  0  0  0  0  0  0  0  0  0
  151.1305  141.9141  157.0891 N   0  0  0  0  0  0  0  0  0  0  0  0
  151.1671  142.5163  158.4190 C   0  0  0  0  0  0  0  0  0  0  0  0
  151.0268  144.0477  158.3302 C   0  0  0  0  0  0  0  0  0  0  0  0
  152.1185  144.6240  159.2328 C   0  0  0  0  0  0  0  0  0  0  0  0
  153.2401  143.5919  159.1711 C   0  0  0  0  0  0  0  0  0  0  0  0
  152.5108  142.2482  159.1262 C   0  0  0  0  0  0  0  0  0  0  0  0
  150.0939  138.1294  154.0934 H   0  0  0  0  0  0  0  0  0  0  0  0
  146.3807  142.2575  153.7546 H   0  0  0  0  0  0  0  0  0  0  0  0
  148.6838  142.5367  155.1638 H   0  0  0  0  0  0  0  0  0  0  0  0
  150.7660  139.4082  155.2356 H   0  0  0  0  0  0  0  0  0  0  0  0
  151.1666  141.0298  154.7103 H   0  0  0  0  0  0  0  0  0  0  0  0
  151.7565  142.3016  156.3979 H   0  0  0  0  0  0  0  0  0  0  0  0
  150.3530  142.1154  159.0260 H   0  0  0  0  0  0  0  0  0  0  0  0
  151.1965  144.3917  157.3086 H   0  0  0  0  0  0  0  0  0  0  0  0
  150.0332  144.3889  158.6227 H   0  0  0  0  0  0  0  0  0  0  0  0
  152.4422  145.6170  158.9196 H   0  0  0  0  0  0  0  0  0  0  0  0
  151.7479  144.7012  160.2561 H   0  0  0  0  0  0  0  0  0  0  0  0
  153.8158  143.7296  158.2548 H   0  0  0  0  0  0  0  0  0  0  0  0
  153.9289  143.6683  160.0128 H   0  0  0  0  0  0  0  0  0  0  0  0
  152.3168  141.9102  160.1450 H   0  0  0  0  0  0  0  0  0  0  0  0
  153.1110  141.4754  158.6438 H   0  0  0  0  0  0  0  0  0  0  0  0
  148.7967  137.6142  153.1122 H   0  0  0  0  0  0  0  0  0  0  0  0
  1  2  1  0  0  0  0
  1 16  1  0  0  0  0
  1 31  1  0  0  0  0
  2  6  2  0  0  0  0
  2  3  1  0  0  0  0
  3  4  1  0  0  0  0
  4  5  2  0  0  0  0
  4 17  1  0  0  0  0
  5  6  1  0  0  0  0
  5 18  1  0  0  0  0
  6  7  1  0  0  0  0
  7  8  1  0  0  0  0
  7 19  1  0  0  0  0
  7 20  1  0  0  0  0
  8  9  2  0  0  0  0
  8 10  1  0  0  0  0
 10 11  1  0  0  0  0
 10 21  1  0  0  0  0
 11 15  1  0  0  0  0
 11 12  1  0  0  0  0
 11 22  1  0  0  0  0
 12 13  1  0  0  0  0
 12 23  1  0  0  0  0
 12 24  1  0  0  0  0
 13 14  1  0  0  0  0
 13 25  1  0  0  0  0
 13 26  1  0  0  0  0
 14 15  1  0  0  0  0
 14 27  1  0  0  0  0
 14 28  1  0  0  0  0
 15 29  1  0  0  0  0
 15 30  1  0  0  0  0
M  CHG  1   6   1
M  END
> <s_m_source_file>
AV-unprocessed.smi

> <i_m_source_file_index>
529

> <i_lp_mmshare_version>
43012

> <i_f3d_flags>
0

> <s_epik_input>
W0hdL049YzFcc1tjSF1bY0hdbjFbQ0gyXUMoPU8pW05IXVtDSF0yW0NIMl1bQ0gyXVtDSDJdW0NIMl0y

> <s_epik_cmdline>
J2VwaWtfcHl0aG9uJywgJy1waCcsICc3LjAnLCAnLXRuJywgJzgnLCAnLW1hJywgJzIwMCcsICctbWV0YWxfYmluZGluZycsICctaW1hZScsICc8aW5maWxlLm1hZT4nLCAnLW9tYWUnLCAnPG91dGZpbGUubWFlPic=

> <r_lp_tautomer_probability>
1

> <r_epik_Ionization_Penalty>
0.0151346

> <r_epik_Ionization_Penalty_Charging>
0

> <r_epik_Ionization_Penalty_Neutral>
0.0151346

> <r_epik_State_Penalty>
0.0235202

> <r_epik_Charging_Adjusted_Penalty>
0.0235202

> <i_epik_Tot_Q>
1

> <i_epik_Tot_abs_Q>
1

> <r_epik_Metal_State_Penalty>
0.0235202

> <b_epik_Metal_Only>
0

> <s_lp_Force_Field>
OPLS_2005

> <r_lp_Energy>
21.8229

> <b_lp_Chiralities_Consistent>
1

> <s_lp_Variant>
AV-unprocessed.smi:529-1

> <Gold.Version>
5.8.1

> <Gold.Id.Protein>
6NUR|6NUR_protein|mol2

> <Gold.PLP.Fitness>
40.2997

> <Gold.PLP.PLP>
-34.6204

> <Gold.PLP.part.hbond>
-2.0000

> <Gold.PLP.part.metal>
0.0000

> <Gold.PLP.part.buried>
-0.0846

> <Gold.PLP.part.nonpolar>
-32.7867

> <Gold.PLP.part.repulsive>
0.1267

> <Gold.PLP.ligand.clash>
0.0000

> <Gold.PLP.ligand.torsion>
0.1632

> <Gold.PLP.Chemscore.Hbond>
2.0000

> <Gold.PLP.Chemscore.CHOScore>
0.0000

> <Gold.PLP.Chemscore.Metal>
0.0000

> <Gold.Chemscore.Hbonds>
donor molecule, donor type, donor heavy atom, donor atom, acceptor molecule, acceptor atom, score
      L1  H     1    31       P1  7948  2.00

> <Gold.PLP.Chemscore.Internal.Correction>
0.0058

> <Gold.Rescore>
     Score         DG    S(hbond)    S(metal)    S(lipo)     H(rot)  DE(clash)    DE(int)     intcor
     14.22     -14.60       0.95        0.00      85.92       1.61       0.28       0.10       ----

> <Gold.Chemscore.Fitness>
14.2154

> <Gold.Chemscore.DG>
-14.5987

> <Gold.Chemscore.ZeroCoef>
-5.4800

> <Gold.Chemscore.Hbond>
0.9537

> <Gold.Chemscore.Metal>
0.0000

> <Gold.Chemscore.Lipo>
85.9158

> <Gold.Chemscore.Internal_Hbond>
0.0000

> <Gold.Chemscore.DEClash>
0.2788

> <Gold.Chemscore.DEInternal>
0.1045

> <Gold.Chemscore.Rot>
1.6089

> <Gold.Chemscore.Internal.Correction>
   9.000000E+99

> <Gold.Chemscore.Hbonds>
donor molecule, donor type, donor heavy atom, donor atom, acceptor molecule, acceptor atom, score
      L1  H     1    31       P1  7948  0.94

> <Gold.Chemscore.Hbond.Weighted>
-3.1854

> <Gold.Chemscore.Metal.Weighted>
-0.0000

> <Gold.Chemscore.Lipo.Weighted>
-10.0521

> <Gold.Chemscore.Internal_Hbond.Weighted>
0.0000

> <Gold.Chemscore.DEClash.Weighted>
0.2788

> <Gold.Chemscore.DEInternal.Weighted>
0.1045

> <Gold.Chemscore.Rot.Weighted>
4.1188

> <Gold.Chemscore.Internal.Correction.Weighted>
   9.000000E+99

> <Gold.Protein.RotatedTorsions>
[ 6907 6896 6895 6894 ] final   43.72 input  -60.11 | X-H torsion
[ 7974 7965 7964 7962 ] final -165.35 input  175.53 | X-H torsion
[ 8008 7997 7996 7995 ] final  146.69 input   59.86 | X-H torsion
[ 10167 10162 10161 10158 ] final  -84.99 input  -65.29 | X-H torsion
[ 10718 10713 10712 10709 ] final  -69.81 input   66.30 | X-H torsion
[ 10763 10752 10751 10750 ] final -162.15 input  -60.55 | X-H torsion
[ 11005 11000 10999 10996 ] final  -62.74 input  -57.11 | X-H torsion

> <Gold.Protein.ActiveResidues>
 VAL166  LYS551  ARG553  GLY616  TRP617  ASP618  TYR619  PRO620  LYS621  CYS622 
 ASP623  PHE694  ASN695  SER759  ASP760  ASP761  ALA762  ILE779  LEU786  VAL792 
 PHE793  MET794  SER795  GLU796  ALA797  LYS798  CYS799  TRP800  GLU811  SER814 

> <Gold.Protein.RotatedAtoms>
  152.2238  134.8388  160.0482 H   0  0  0  0  0  0  0  0  0  0  0  0  # atno 6907 bound_to 6896
  151.9161  133.3568  159.3889 H   0  0  0  0  0  0  0  0  0  0  0  0  # atno 6908 bound_to 6896
  150.7007  134.4607  159.5423 H   0  0  0  0  0  0  0  0  0  0  0  0  # atno 6909 bound_to 6896
  144.7272  140.2827  143.6233 H   0  0  0  0  0  0  0  0  0  0  0  0  # atno 7974 bound_to 7965
  156.2848  140.2175  156.5418 H   0  0  0  0  0  0  0  0  0  0  0  0  # atno 8008 bound_to 7997
  154.7364  140.0491  157.0794 H   0  0  0  0  0  0  0  0  0  0  0  0  # atno 8009 bound_to 7997
  155.0288  140.3132  155.4769 H   0  0  0  0  0  0  0  0  0  0  0  0  # atno 8010 bound_to 7997
  140.4080  143.2634  151.9055 H   0  0  0  0  0  0  0  0  0  0  0  0  # atno 10167 bound_to 10162
  156.0437  130.4319  150.2202 H   0  0  0  0  0  0  0  0  0  0  0  0  # atno 10718 bound_to 10713
  154.7240  135.3032  154.9002 H   0  0  0  0  0  0  0  0  0  0  0  0  # atno 10763 bound_to 10752
  153.9865  135.6724  153.4756 H   0  0  0  0  0  0  0  0  0  0  0  0  # atno 10764 bound_to 10752
  153.0858  135.4985  154.8513 H   0  0  0  0  0  0  0  0  0  0  0  0  # atno 10765 bound_to 10752
  141.1370  133.6643  156.5574 H   0  0  0  0  0  0  0  0  0  0  0  0  # atno 11005 bound_to 11000
  145.7934  139.1936  143.2090 LP  0  0  0  0  0  0  0  0  0  0  0  0  # atno 17320 bound_to 7965
  146.0737  140.7841  142.9675 LP  0  0  0  0  0  0  0  0  0  0  0  0  # atno 17321 bound_to 7965
  139.4783  144.5566  151.8304 LP  0  0  0  0  0  0  0  0  0  0  0  0  # atno 17342 bound_to 10162
  140.4669  144.1643  150.5913 LP  0  0  0  0  0  0  0  0  0  0  0  0  # atno 17343 bound_to 10162
  157.0295  131.0003  151.3316 LP  0  0  0  0  0  0  0  0  0  0  0  0  # atno 17370 bound_to 10713
  157.5288  130.8045  149.7892 LP  0  0  0  0  0  0  0  0  0  0  0  0  # atno 17371 bound_to 10713
  140.4015  134.7352  157.4782 LP  0  0  0  0  0  0  0  0  0  0  0  0  # atno 17394 bound_to 11000
  140.0492  134.6154  155.8882 LP  0  0  0  0  0  0  0  0  0  0  0  0  # atno 17395 bound_to 11000

$$$$
