AV-unprocessed.smi:240|AV-procd|sdf|1829|dock4
  -GOLD-   2262020433D 1   1.00000     0.00000
 Structure written by MMmdl.
 55 59  0  0  0  0  0  0  0  0  1 V2000
  150.3132  139.8852  153.7404 O   0  0  0  0  0  0  0  0  0  0  0  0
  149.3515  139.8183  154.7787 C   0  0  1  0  0  0  0  0  0  0  0  0
  148.1482  140.6763  154.3843 C   0  0  0  0  0  0  0  0  0  0  0  0
  147.2693  139.7706  153.5166 C   0  0  0  0  0  0  0  0  0  0  0  0
  147.7671  138.3369  153.7495 C   0  0  0  0  0  0  0  0  0  0  0  0
  148.7711  138.3953  154.9201 C   0  0  1  0  0  0  0  0  0  0  0  0
  149.8238  137.2399  155.0176 C   0  0  1  0  0  0  0  0  0  0  0  0
  151.0851  137.7280  155.7803 C   0  0  0  0  0  0  0  0  0  0  0  0
  152.0425  136.6867  155.9229 O   0  0  0  0  0  0  0  0  0  0  0  0
  151.5299  135.6058  156.6850 C   0  0  0  0  0  0  0  0  0  0  0  0
  150.3349  135.0121  155.9342 C   0  0  0  0  0  0  0  0  0  0  0  0
  149.3185  136.0337  155.6981 N   0  0  0  0  0  0  0  0  0  0  0  0
  148.2084  135.4487  155.1984 C   0  0  0  0  0  0  0  0  0  0  0  0
  147.0149  135.9183  155.6377 N   0  0  0  0  0  0  0  0  0  0  0  0
  145.8789  135.3770  155.1876 C   0  0  0  0  0  0  0  0  0  0  0  0
  145.7172  134.3740  154.3217 N   0  0  0  0  0  0  0  0  0  0  0  0
  146.9176  133.8904  153.8906 C   0  0  0  0  0  0  0  0  0  0  0  0
  148.2029  134.3640  154.2758 C   0  0  0  0  0  0  0  0  0  0  0  0
  149.1918  133.6292  153.6333 N   0  0  0  0  0  0  0  0  0  0  0  0
  148.5283  132.7715  152.9070 C   0  0  0  0  0  0  0  0  0  0  0  0
  147.1575  132.8520  153.0078 N   0  0  0  0  0  0  0  0  0  0  0  0
  146.1825  132.0185  152.3210 C   0  0  0  0  0  0  0  0  0  0  0  0
  145.7599  132.5791  150.9431 C   0  0  1  0  0  0  0  0  0  0  0  0
  146.8571  132.4782  150.0514 O   0  0  0  0  0  0  0  0  0  0  0  0
  144.5617  131.8699  150.3187 C   0  0  0  0  0  0  0  0  0  0  0  0
  143.8892  132.9785  149.5218 C   0  0  0  0  0  0  0  0  0  0  0  0
  144.0220  134.0991  150.3794 O   0  0  0  0  0  0  0  0  0  0  0  0
  145.3070  134.0521  150.9920 C   0  0  0  0  0  0  0  0  0  0  0  0
  149.8685  139.7982  152.9112 H   0  0  0  0  0  0  0  0  0  0  0  0
  149.8011  140.1779  155.7048 H   0  0  0  0  0  0  0  0  0  0  0  0
  147.5959  140.9521  155.2836 H   0  0  0  0  0  0  0  0  0  0  0  0
  148.4275  141.6029  153.8811 H   0  0  0  0  0  0  0  0  0  0  0  0
  146.2187  139.8781  153.7883 H   0  0  0  0  0  0  0  0  0  0  0  0
  147.3628  140.0336  152.4624 H   0  0  0  0  0  0  0  0  0  0  0  0
  146.9296  137.6700  153.9498 H   0  0  0  0  0  0  0  0  0  0  0  0
  148.2646  137.9807  152.8469 H   0  0  0  0  0  0  0  0  0  0  0  0
  148.1906  138.3880  155.8444 H   0  0  0  0  0  0  0  0  0  0  0  0
  150.1341  136.9596  154.0106 H   0  0  0  0  0  0  0  0  0  0  0  0
  151.5803  138.5362  155.2441 H   0  0  0  0  0  0  0  0  0  0  0  0
  150.8178  138.1198  156.7632 H   0  0  0  0  0  0  0  0  0  0  0  0
  152.3092  134.8540  156.8093 H   0  0  0  0  0  0  0  0  0  0  0  0
  151.2428  135.9414  157.6829 H   0  0  0  0  0  0  0  0  0  0  0  0
  150.6716  134.5969  154.9832 H   0  0  0  0  0  0  0  0  0  0  0  0
  149.9127  134.1889  156.5128 H   0  0  0  0  0  0  0  0  0  0  0  0
  144.9692  135.8088  155.5780 H   0  0  0  0  0  0  0  0  0  0  0  0
  149.0240  132.0458  152.2786 H   0  0  0  0  0  0  0  0  0  0  0  0
  146.6098  131.0218  152.2036 H   0  0  0  0  0  0  0  0  0  0  0  0
  145.3118  131.9023  152.9677 H   0  0  0  0  0  0  0  0  0  0  0  0
  147.4021  131.7577  150.3288 H   0  0  0  0  0  0  0  0  0  0  0  0
  144.8273  131.0016  149.7137 H   0  0  0  0  0  0  0  0  0  0  0  0
  143.8745  131.5354  151.0964 H   0  0  0  0  0  0  0  0  0  0  0  0
  144.4155  133.1651  148.5845 H   0  0  0  0  0  0  0  0  0  0  0  0
  142.8442  132.7641  149.2973 H   0  0  0  0  0  0  0  0  0  0  0  0
  145.2258  134.4276  152.0125 H   0  0  0  0  0  0  0  0  0  0  0  0
  145.9919  134.7119  150.4568 H   0  0  0  0  0  0  0  0  0  0  0  0
  1  2  1  0  0  0  0
  1 29  1  0  0  0  0
  2  6  1  0  0  0  0
  2  3  1  0  0  0  0
  2 30  1  0  0  0  0
  3  4  1  0  0  0  0
  3 31  1  0  0  0  0
  3 32  1  0  0  0  0
  4  5  1  0  0  0  0
  4 33  1  0  0  0  0
  4 34  1  0  0  0  0
  5  6  1  0  0  0  0
  5 35  1  0  0  0  0
  5 36  1  0  0  0  0
  6  7  1  0  0  0  0
  6 37  1  0  0  0  0
  7 12  1  0  0  0  0
  7  8  1  0  0  0  0
  7 38  1  0  0  0  0
  8  9  1  0  0  0  0
  8 39  1  0  0  0  0
  8 40  1  0  0  0  0
  9 10  1  0  0  0  0
 10 11  1  0  0  0  0
 10 41  1  0  0  0  0
 10 42  1  0  0  0  0
 11 12  1  0  0  0  0
 11 43  1  0  0  0  0
 11 44  1  0  0  0  0
 12 13  1  0  0  0  0
 13 18  1  0  0  0  0
 13 14  2  0  0  0  0
 14 15  1  0  0  0  0
 15 16  2  0  0  0  0
 15 45  1  0  0  0  0
 16 17  1  0  0  0  0
 17 21  1  0  0  0  0
 17 18  2  0  0  0  0
 18 19  1  0  0  0  0
 19 20  2  0  0  0  0
 20 21  1  0  0  0  0
 20 46  1  0  0  0  0
 21 22  1  0  0  0  0
 22 23  1  0  0  0  0
 22 47  1  0  0  0  0
 22 48  1  0  0  0  0
 23 28  1  0  0  0  0
 23 24  1  0  0  0  0
 23 25  1  0  0  0  0
 24 49  1  0  0  0  0
 25 26  1  0  0  0  0
 25 50  1  0  0  0  0
 25 51  1  0  0  0  0
 26 27  1  0  0  0  0
 26 52  1  0  0  0  0
 26 53  1  0  0  0  0
 27 28  1  0  0  0  0
 28 54  1  0  0  0  0
 28 55  1  0  0  0  0
M  END
> <s_m_source_file>
AV-unprocessed.smi

> <i_m_source_file_index>
240

> <i_lp_mmshare_version>
43012

> <i_f3d_flags>
0

> <s_epik_input>
W09IXVtDQEBIXTFbQ0gyXVtDSDJdW0NIMl1bQ0BIXTFbQ0BASF0yW0NIMl1PW0NIMl1bQ0gyXU4yYyhuW2NIXW4zKWMoYzM0KW5bY0hdbjRbQ0gyXVtDQEBdNShbT0hdKVtDSDJdW0NIMl1PW0NIMl01

> <s_epik_cmdline>
J2VwaWtfcHl0aG9uJywgJy1waCcsICc3LjAnLCAnLXRuJywgJzgnLCAnLW1hJywgJzIwMCcsICctbWV0YWxfYmluZGluZycsICctaW1hZScsICc8aW5maWxlLm1hZT4nLCAnLW9tYWUnLCAnPG91dGZpbGUubWFlPic=

> <r_lp_tautomer_probability>
1

> <r_epik_Ionization_Penalty>
0.000130618

> <r_epik_Ionization_Penalty_Charging>
0

> <r_epik_Ionization_Penalty_Neutral>
0.000130618

> <r_epik_State_Penalty>
-0

> <r_epik_Charging_Adjusted_Penalty>
0

> <i_epik_Tot_Q>
0

> <i_epik_Tot_abs_Q>
0

> <r_epik_Metal_State_Penalty>
-0

> <b_epik_Metal_Only>
0

> <s_lp_Force_Field>
OPLS_2005

> <r_lp_Energy>
62.2831

> <b_lp_Chiralities_Consistent>
1

> <s_lp_Variant>
AV-unprocessed.smi:240-6

> <Gold.Version>
5.8.1

> <Gold.Id.Protein>
6NUR|6NUR_protein|mol2

> <Gold.PLP.Fitness>
47.4502

> <Gold.PLP.PLP>
-35.8615

> <Gold.PLP.part.hbond>
-4.2125

> <Gold.PLP.part.metal>
0.0000

> <Gold.PLP.part.buried>
-2.3854

> <Gold.PLP.part.nonpolar>
-29.6980

> <Gold.PLP.part.repulsive>
0.6117

> <Gold.PLP.ligand.clash>
0.0000

> <Gold.PLP.ligand.torsion>
1.6578

> <Gold.PLP.Chemscore.Hbond>
3.8680

> <Gold.PLP.Chemscore.CHOScore>
1.0000

> <Gold.PLP.Chemscore.Metal>
0.0000

> <Gold.Chemscore.Hbonds>
donor molecule, donor type, donor heavy atom, donor atom, acceptor molecule, acceptor atom, score
      L1  H     1    29       P1  7957  1.00
      L1  H    24    49       P1 10747  0.99
      P1  H  7989  7998       L1     1  0.90
      P1  H 10752 10763       L1     9  0.70
      L1  C    20    46       P1 10747  1.00

> <Gold.PLP.Chemscore.Internal.Correction>
0.3002

> <Gold.Rescore>
     Score         DG    S(hbond)    S(metal)    S(lipo)     H(rot)  DE(clash)    DE(int)     intcor
     14.40     -17.41       2.79        0.00      87.95       3.00       0.35       2.66       ----

> <Gold.Chemscore.Fitness>
14.4043

> <Gold.Chemscore.DG>
-17.4074

> <Gold.Chemscore.ZeroCoef>
-5.4800

> <Gold.Chemscore.Hbond>
2.7926

> <Gold.Chemscore.Metal>
0.0000

> <Gold.Chemscore.Lipo>
87.9488

> <Gold.Chemscore.Internal_Hbond>
0.0000

> <Gold.Chemscore.DEClash>
0.3481

> <Gold.Chemscore.DEInternal>
2.6551

> <Gold.Chemscore.Rot>
3.0039

> <Gold.Chemscore.Internal.Correction>
   9.000000E+99

> <Gold.Chemscore.Hbonds>
donor molecule, donor type, donor heavy atom, donor atom, acceptor molecule, acceptor atom, score
      L1  H     1    29       P1  7957  0.99
      L1  H    24    49       P1 10747  0.94
      P1  H  7989  7998       L1     1  0.48
      P1  H 10752 10763       L1     9  0.07

> <Gold.Chemscore.Hbond.Weighted>
-9.3273

> <Gold.Chemscore.Metal.Weighted>
-0.0000

> <Gold.Chemscore.Lipo.Weighted>
-10.2900

> <Gold.Chemscore.Internal_Hbond.Weighted>
0.0000

> <Gold.Chemscore.DEClash.Weighted>
0.3481

> <Gold.Chemscore.DEInternal.Weighted>
2.6551

> <Gold.Chemscore.Rot.Weighted>
7.6899

> <Gold.Chemscore.Internal.Correction.Weighted>
   9.000000E+99

> <Gold.Protein.RotatedTorsions>
[ 6907 6896 6895 6894 ] final  -73.82 input  -60.11 | X-H torsion
[ 7974 7965 7964 7962 ] final    1.14 input  175.53 | X-H torsion
[ 8008 7997 7996 7995 ] final  148.31 input   59.86 | X-H torsion
[ 10167 10162 10161 10158 ] final -143.28 input  -65.29 | X-H torsion
[ 10718 10713 10712 10709 ] final  153.74 input   66.30 | X-H torsion
[ 10763 10752 10751 10750 ] final   68.11 input  -60.55 | X-H torsion
[ 11005 11000 10999 10996 ] final  -39.14 input  -57.11 | X-H torsion

> <Gold.Protein.ActiveResidues>
 VAL166  LYS551  ARG553  GLY616  TRP617  ASP618  TYR619  PRO620  LYS621  CYS622 
 ASP623  PHE694  ASN695  SER759  ASP760  ASP761  ALA762  ILE779  LEU786  VAL792 
 PHE793  MET794  SER795  GLU796  ALA797  LYS798  CYS799  TRP800  GLU811  SER814 

> <Gold.Protein.RotatedAtoms>
  150.7116  134.4960  159.5538 H   0  0  0  0  0  0  0  0  0  0  0  0  # atno 6907 bound_to 6896
  152.2568  134.8073  160.0446 H   0  0  0  0  0  0  0  0  0  0  0  0  # atno 6908 bound_to 6896
  151.8801  133.3458  159.3800 H   0  0  0  0  0  0  0  0  0  0  0  0  # atno 6909 bound_to 6896
  146.2438  140.1031  142.8347 H   0  0  0  0  0  0  0  0  0  0  0  0  # atno 7974 bound_to 7965
  156.2795  140.2132  156.5678 H   0  0  0  0  0  0  0  0  0  0  0  0  # atno 8008 bound_to 7997
  154.7160  140.0508  157.0618 H   0  0  0  0  0  0  0  0  0  0  0  0  # atno 8009 bound_to 7997
  155.0542  140.3159  155.4685 H   0  0  0  0  0  0  0  0  0  0  0  0  # atno 8010 bound_to 7997
  139.8008  143.7836  152.2658 H   0  0  0  0  0  0  0  0  0  0  0  0  # atno 10167 bound_to 10162
  157.2408  131.0759  151.1793 H   0  0  0  0  0  0  0  0  0  0  0  0  # atno 10718 bound_to 10713
  153.0219  135.5259  154.7083 H   0  0  0  0  0  0  0  0  0  0  0  0  # atno 10763 bound_to 10752
  154.6173  135.2885  155.0368 H   0  0  0  0  0  0  0  0  0  0  0  0  # atno 10764 bound_to 10752
  154.1367  135.6584  153.4986 H   0  0  0  0  0  0  0  0  0  0  0  0  # atno 10765 bound_to 10752
  141.0080  133.6922  156.2147 H   0  0  0  0  0  0  0  0  0  0  0  0  # atno 11005 bound_to 11000
  145.0551  140.9046  143.4972 LP  0  0  0  0  0  0  0  0  0  0  0  0  # atno 17320 bound_to 7965
  145.1136  139.2740  143.5624 LP  0  0  0  0  0  0  0  0  0  0  0  0  # atno 17321 bound_to 7965
  139.7955  144.7394  150.9896 LP  0  0  0  0  0  0  0  0  0  0  0  0  # atno 17342 bound_to 10162
  140.7820  143.4398  151.0569 LP  0  0  0  0  0  0  0  0  0  0  0  0  # atno 17343 bound_to 10162
  157.3381  130.7019  149.6364 LP  0  0  0  0  0  0  0  0  0  0  0  0  # atno 17370 bound_to 10713
  155.9670  130.4288  150.4804 LP  0  0  0  0  0  0  0  0  0  0  0  0  # atno 17371 bound_to 10713
  140.6781  134.4797  157.5588 LP  0  0  0  0  0  0  0  0  0  0  0  0  # atno 17394 bound_to 11000
  139.9074  134.8419  156.1655 LP  0  0  0  0  0  0  0  0  0  0  0  0  # atno 17395 bound_to 11000

$$$$
