AV-unprocessed.smi:3214|AV-procd|sdf|12283|dock1
  -GOLD-   2272018123D 1   1.00000     0.00000
 Structure written by MMmdl.
 37 37  0  0  0  0  0  0  0  0  2 V2000
  146.8790  133.5965  151.1980 C   0  0  0  0  0  0  0  0  0  0  0  0
  146.1708  134.4568  152.2527 C   0  0  0  0  0  0  0  0  0  0  0  0
  146.5297  135.8645  152.1228 N   0  0  0  0  0  0  0  0  0  0  0  0
  145.6680  136.8604  151.8642 C   0  0  0  0  0  0  0  0  0  0  0  0
  144.4592  136.6846  151.7102 O   0  0  0  0  0  0  0  0  0  0  0  0
  146.2714  138.2649  151.7587 C   0  0  0  0  0  0  0  0  0  0  0  0
  146.9796  138.7184  153.0474 C   0  0  0  0  0  0  0  0  0  0  0  0
  148.4475  138.6198  152.9022 N   0  3  0  0  0  0  0  0  0  0  0  0
  149.2287  138.8783  154.1329 C   0  0  2  0  0  0  0  0  0  0  0  0
  148.6410  138.0493  155.2876 C   0  0  0  0  0  0  0  0  0  0  0  0
  149.2792  140.3907  154.4557 C   0  0  0  0  0  0  0  0  0  0  0  0
  150.0542  140.6951  155.6454 N   0  0  0  0  0  0  0  0  0  0  0  0
  149.8217  141.6659  156.5973 C   0  0  0  0  0  0  0  0  0  0  0  0
  150.8250  141.5788  157.5192 C   0  0  0  0  0  0  0  0  0  0  0  0
  151.6383  140.5163  157.0350 C   0  0  0  0  0  0  0  0  0  0  0  0
  151.1764  139.9924  155.9110 N   0  0  0  0  0  0  0  0  0  0  0  0
  146.6237  132.5442  151.3231 H   0  0  0  0  0  0  0  0  0  0  0  0
  147.9629  133.6862  151.2790 H   0  0  0  0  0  0  0  0  0  0  0  0
  146.5921  133.8888  150.1871 H   0  0  0  0  0  0  0  0  0  0  0  0
  145.0892  134.3306  152.1816 H   0  0  0  0  0  0  0  0  0  0  0  0
  146.4562  134.1233  153.2507 H   0  0  0  0  0  0  0  0  0  0  0  0
  147.5067  136.0957  152.2316 H   0  0  0  0  0  0  0  0  0  0  0  0
  146.9787  138.2832  150.9281 H   0  0  0  0  0  0  0  0  0  0  0  0
  145.4721  138.9627  151.5066 H   0  0  0  0  0  0  0  0  0  0  0  0
  146.7151  139.7515  153.2784 H   0  0  0  0  0  0  0  0  0  0  0  0
  146.6501  138.1038  153.8854 H   0  0  0  0  0  0  0  0  0  0  0  0
  148.6874  137.7047  152.5484 H   0  0  0  0  0  0  0  0  0  0  0  0
  150.2448  138.5189  153.9626 H   0  0  0  0  0  0  0  0  0  0  0  0
  149.2457  138.1310  156.1912 H   0  0  0  0  0  0  0  0  0  0  0  0
  148.5971  136.9911  155.0276 H   0  0  0  0  0  0  0  0  0  0  0  0
  147.6295  138.3736  155.5341 H   0  0  0  0  0  0  0  0  0  0  0  0
  149.7121  140.9529  153.6283 H   0  0  0  0  0  0  0  0  0  0  0  0
  148.2688  140.7766  154.5991 H   0  0  0  0  0  0  0  0  0  0  0  0
  148.9713  142.3296  156.5420 H   0  0  0  0  0  0  0  0  0  0  0  0
  150.9593  142.1837  158.4038 H   0  0  0  0  0  0  0  0  0  0  0  0
  152.5447  140.1143  157.4631 H   0  0  0  0  0  0  0  0  0  0  0  0
  148.7250  139.3092  152.2182 H   0  0  0  0  0  0  0  0  0  0  0  0
  1  2  1  0  0  0  0
  1 17  1  0  0  0  0
  1 18  1  0  0  0  0
  1 19  1  0  0  0  0
  2  3  1  0  0  0  0
  2 20  1  0  0  0  0
  2 21  1  0  0  0  0
  3  4  1  0  0  0  0
  3 22  1  0  0  0  0
  4  5  2  0  0  0  0
  4  6  1  0  0  0  0
  6  7  1  0  0  0  0
  6 23  1  0  0  0  0
  6 24  1  0  0  0  0
  7  8  1  0  0  0  0
  7 25  1  0  0  0  0
  7 26  1  0  0  0  0
  8  9  1  0  0  0  0
  8 27  1  0  0  0  0
  8 37  1  0  0  0  0
  9 10  1  0  0  0  0
  9 11  1  0  0  0  0
  9 28  1  0  0  0  0
 10 29  1  0  0  0  0
 10 30  1  0  0  0  0
 10 31  1  0  0  0  0
 11 12  1  0  0  0  0
 11 32  1  0  0  0  0
 11 33  1  0  0  0  0
 12 16  1  0  0  0  0
 12 13  1  0  0  0  0
 13 14  2  0  0  0  0
 13 34  1  0  0  0  0
 14 15  1  0  0  0  0
 14 35  1  0  0  0  0
 15 16  2  0  0  0  0
 15 36  1  0  0  0  0
M  CHG  1   8   1
M  END
> <s_m_source_file>
AV-unprocessed.smi

> <i_m_source_file_index>
3214

> <i_lp_mmshare_version>
43012

> <i_f3d_flags>
0

> <s_epik_input>
W0NIM11bQ0gyXVtOSF1DKD1PKVtDSDJdW0NIMl1bTkhdW0NASF0oW0NIM10pW0NIMl1uMVtjSF1bY0hdW2NIXW4x

> <s_epik_cmdline>
J2VwaWtfcHl0aG9uJywgJy1waCcsICc3LjAnLCAnLXRuJywgJzgnLCAnLW1hJywgJzIwMCcsICctbWV0YWxfYmluZGluZycsICctaW1hZScsICc8aW5maWxlLm1hZT4nLCAnLW9tYWUnLCAnPG91dGZpbGUubWFlPic=

> <r_lp_tautomer_probability>
1

> <r_epik_Ionization_Penalty>
0.00598156

> <r_epik_Ionization_Penalty_Charging>
0.00597743

> <r_epik_Ionization_Penalty_Neutral>
4.12922e-06

> <r_epik_State_Penalty>
0.00439883

> <r_epik_Charging_Adjusted_Penalty>
0.0103763

> <i_epik_Tot_Q>
1

> <i_epik_Tot_abs_Q>
1

> <r_epik_Metal_State_Penalty>
-0

> <b_epik_Metal_Only>
0

> <s_lp_Force_Field>
OPLS_2005

> <r_lp_Energy>
5.54296

> <b_lp_Chiralities_Consistent>
1

> <s_lp_Variant>
AV-unprocessed.smi:3214-1

> <Gold.Version>
5.8.1

> <Gold.Id.Protein>
6NUR|6NUR_protein|mol2

> <Gold.PLP.Fitness>
42.7195

> <Gold.PLP.PLP>
-28.9483

> <Gold.PLP.part.hbond>
-2.9844

> <Gold.PLP.part.metal>
0.0000

> <Gold.PLP.part.buried>
-3.4242

> <Gold.PLP.part.nonpolar>
-23.5107

> <Gold.PLP.part.repulsive>
1.1230

> <Gold.PLP.ligand.clash>
0.0000

> <Gold.PLP.ligand.torsion>
0.7421

> <Gold.PLP.Chemscore.Hbond>
4.0000

> <Gold.PLP.Chemscore.CHOScore>
1.0000

> <Gold.PLP.Chemscore.Metal>
0.0000

> <Gold.Chemscore.Hbonds>
donor molecule, donor type, donor heavy atom, donor atom, acceptor molecule, acceptor atom, score
      L1  H     3    22       P1  7948  0.88
      L1  H     8    27       P1  7948  2.00
      L1  H     8    37       P1  7957  1.00
      L1  C    13    34       P1  8028  0.94

> <Gold.PLP.Chemscore.Internal.Correction>
0.2554

> <Gold.Rescore>
     Score         DG    S(hbond)    S(metal)    S(lipo)     H(rot)  DE(clash)    DE(int)     intcor
     15.41     -16.13       2.96        0.00      59.03       2.39       0.01       0.72       ----

> <Gold.Chemscore.Fitness>
15.4118

> <Gold.Chemscore.DG>
-16.1326

> <Gold.Chemscore.ZeroCoef>
-5.4800

> <Gold.Chemscore.Hbond>
2.9571

> <Gold.Chemscore.Metal>
0.0000

> <Gold.Chemscore.Lipo>
59.0306

> <Gold.Chemscore.Internal_Hbond>
0.0000

> <Gold.Chemscore.DEClash>
0.0050

> <Gold.Chemscore.DEInternal>
0.7158

> <Gold.Chemscore.Rot>
2.3948

> <Gold.Chemscore.Internal.Correction>
   9.000000E+99

> <Gold.Chemscore.Hbonds>
donor molecule, donor type, donor heavy atom, donor atom, acceptor molecule, acceptor atom, score
      L1  H     3    22       P1  7948  0.84
      L1  H     8    27       P1  7948  0.99
      L1  H     8    37       P1  7957  0.94

> <Gold.Chemscore.Hbond.Weighted>
-9.8766

> <Gold.Chemscore.Metal.Weighted>
-0.0000

> <Gold.Chemscore.Lipo.Weighted>
-6.9066

> <Gold.Chemscore.Internal_Hbond.Weighted>
0.0000

> <Gold.Chemscore.DEClash.Weighted>
0.0050

> <Gold.Chemscore.DEInternal.Weighted>
0.7158

> <Gold.Chemscore.Rot.Weighted>
6.1306

> <Gold.Chemscore.Internal.Correction.Weighted>
   9.000000E+99

> <Gold.Protein.RotatedTorsions>
[ 6907 6896 6895 6894 ] final  -31.57 input  -60.11 | X-H torsion
[ 7974 7965 7964 7962 ] final  -24.38 input  175.53 | X-H torsion
[ 8008 7997 7996 7995 ] final   70.08 input   59.86 | X-H torsion
[ 10167 10162 10161 10158 ] final  -24.19 input  -65.29 | X-H torsion
[ 10718 10713 10712 10709 ] final    7.96 input   66.30 | X-H torsion
[ 10763 10752 10751 10750 ] final   -7.77 input  -60.55 | X-H torsion
[ 11005 11000 10999 10996 ] final   55.15 input  -57.11 | X-H torsion

> <Gold.Protein.ActiveResidues>
 VAL166  LYS551  ARG553  GLY616  TRP617  ASP618  TYR619  PRO620  LYS621  CYS622 
 ASP623  PHE694  ASN695  SER759  ASP760  ASP761  ALA762  ILE779  LEU786  VAL792 
 PHE793  MET794  SER795  GLU796  ALA797  LYS798  CYS799  TRP800  GLU811  SER814 

> <Gold.Protein.RotatedAtoms>
  151.0903  134.9912  159.8399 H   0  0  0  0  0  0  0  0  0  0  0  0  # atno 6907 bound_to 6896
  152.5428  134.2073  159.8746 H   0  0  0  0  0  0  0  0  0  0  0  0  # atno 6908 bound_to 6896
  151.2109  133.4512  159.2631 H   0  0  0  0  0  0  0  0  0  0  0  0  # atno 6909 bound_to 6896
  146.1558  140.4743  142.8592 H   0  0  0  0  0  0  0  0  0  0  0  0  # atno 7974 bound_to 7965
  155.7334  140.3491  155.5070 H   0  0  0  0  0  0  0  0  0  0  0  0  # atno 8008 bound_to 7997
  155.9161  140.1059  157.1264 H   0  0  0  0  0  0  0  0  0  0  0  0  # atno 8009 bound_to 7997
  154.4063  140.1258  156.4606 H   0  0  0  0  0  0  0  0  0  0  0  0  # atno 8010 bound_to 7997
  140.7288  143.4375  151.0707 H   0  0  0  0  0  0  0  0  0  0  0  0  # atno 10167 bound_to 10162
  156.9446  130.5874  149.5654 H   0  0  0  0  0  0  0  0  0  0  0  0  # atno 10718 bound_to 10713
  153.4310  135.7012  153.6231 H   0  0  0  0  0  0  0  0  0  0  0  0  # atno 10763 bound_to 10752
  153.4645  135.3728  155.2357 H   0  0  0  0  0  0  0  0  0  0  0  0  # atno 10764 bound_to 10752
  154.8725  135.4028  154.3694 H   0  0  0  0  0  0  0  0  0  0  0  0  # atno 10765 bound_to 10752
  140.0630  134.5576  155.9131 H   0  0  0  0  0  0  0  0  0  0  0  0  # atno 11005 bound_to 11000
  144.7962  140.6127  143.6508 LP  0  0  0  0  0  0  0  0  0  0  0  0  # atno 17320 bound_to 7965
  145.4711  139.1503  143.3813 LP  0  0  0  0  0  0  0  0  0  0  0  0  # atno 17321 bound_to 7965
  139.8039  143.8046  152.3165 LP  0  0  0  0  0  0  0  0  0  0  0  0  # atno 17342 bound_to 10162
  139.8072  144.7350  150.9746 LP  0  0  0  0  0  0  0  0  0  0  0  0  # atno 17343 bound_to 10162
  156.0389  130.5474  150.8722 LP  0  0  0  0  0  0  0  0  0  0  0  0  # atno 17370 bound_to 10713
  157.5762  131.0946  150.9342 LP  0  0  0  0  0  0  0  0  0  0  0  0  # atno 17371 bound_to 10713
  141.1981  133.6599  156.5775 LP  0  0  0  0  0  0  0  0  0  0  0  0  # atno 17394 bound_to 11000
  140.3741  134.7580  157.4618 LP  0  0  0  0  0  0  0  0  0  0  0  0  # atno 17395 bound_to 11000

$$$$
