#       Name:                AV-unprocessed.smi:2163
#       Creating user name   scv26
#       Creation time:       Fri Mar 27 11:59:20 2020


#       File generated by GOLD software.
#

@<TRIPOS>MOLECULE
AV-unprocessed.smi:2163
    49    51     1
SMALL
NO_CHARGES


@<TRIPOS>ATOM
      1 ****        -3.0602   0.5006  -3.3211 C.3            1 S1                 0.0000
      2 ****        -3.5208   0.4815  -1.9024 C.2            1 S1                 0.0000
      3 ****        -4.8153   0.5261  -1.4794 N.pl3          1 S1                 1.0000
      4 ****        -4.8580   0.4871  -0.0852 C.ar           1 S1                 0.0000
      5 ****        -5.9370   0.5071   0.7930 C.ar           1 S1                 0.0000
      6 ****        -5.6340   0.4497   2.1690 C.ar           1 S1                 0.0000
      7 ****        -4.3018   0.3768   2.6249 C.ar           1 S1                 0.0000
      8 ****        -3.2158   0.3592   1.7249 C.ar           1 S1                 0.0000
      9 ****        -3.5234   0.4159   0.3654 C.ar           1 S1                 0.0000
     10 ****        -2.7336   0.4154  -0.7910 N.pl3          1 S1                 0.0000
     11 ****        -1.2686   0.3438  -0.6767 C.3            1 S1                 0.0000
     12 ****        -0.7344  -1.0984  -0.7920 C.3            1 S1                 0.0000
     13 ****        -1.2474  -1.9325   0.2273 O.3            1 S1                 0.0000
     14 ****         0.8000  -1.1898  -0.7970 C.3            1 S1                 0.0000
     15 ****         1.3356  -0.4164   0.2701 O.3            1 S1                 0.0000
     16 ****         2.7059  -0.3477   0.4036 C.ar           1 S1                 0.0000
     17 ****         3.6245  -1.0224  -0.4399 C.ar           1 S1                 0.0000
     18 ****         5.0116  -0.8953  -0.2306 C.ar           1 S1                 0.0000
     19 ****         5.5011  -0.0952   0.8203 C.ar           1 S1                 0.0000
     20 ****         6.9932   0.0418   1.0427 C.3            1 S1                 0.0000
     21 ****         7.5514   1.2087   0.3427 C.1            1 S1                 0.0000
     22 ****         7.9908   2.1266  -0.2078 N.1            1 S1                 0.0000
     23 ****         4.5944   0.5785   1.6618 C.ar           1 S1                 0.0000
     24 ****         3.2078   0.4504   1.4522 C.ar           1 S1                 0.0000
     25 ****        -3.9118   0.5478  -4.0002 H              1 S1                 0.0000
     26 ****        -2.4890  -0.4006  -3.5441 H              1 S1                 0.0000
     27 ****        -2.4260   1.3692  -3.4993 H              1 S1                 0.0000
     28 ****        -6.9584   0.5616   0.4459 H              1 S1                 0.0000
     29 ****        -6.4395   0.4605   2.8891 H              1 S1                 0.0000
     30 ****        -4.1084   0.3324   3.6869 H              1 S1                 0.0000
     31 ****        -2.2002   0.2996   2.0868 H              1 S1                 0.0000
     32 ****        -0.8523   0.9563  -1.4771 H              1 S1                 0.0000
     33 ****        -0.9582   0.8157   0.2556 H              1 S1                 0.0000
     34 ****        -1.0913  -1.5229  -1.7310 H              1 S1                 0.0000
     35 ****        -0.8940  -1.6449   1.0553 H              1 S1                 0.0000
     36 ****         1.1184  -2.2315  -0.7270 H              1 S1                 0.0000
     37 ****         1.1699  -0.7926  -1.7438 H              1 S1                 0.0000
     38 ****         3.2912  -1.6451  -1.2561 H              1 S1                 0.0000
     39 ****         5.6998  -1.4143  -0.8816 H              1 S1                 0.0000
     40 ****         7.2049   0.1438   2.1073 H              1 S1                 0.0000
     41 ****         7.5098  -0.8512   0.6901 H              1 S1                 0.0000
     42 ****         4.9600   1.1959   2.4691 H              1 S1                 0.0000
     43 ****         2.5213   0.9719   2.1030 H              1 S1                 0.0000
     44 ****        -5.6110   0.5774  -2.1024 H              1 S1                 0.0000
     45 ****        -0.9774  -2.8800   0.0559 LP             1 S1                 0.0000
     46 ****        -2.2452  -1.8684   0.2456 LP             1 S1                 0.0000
     47 ****         0.9738  -0.7961   1.1215 LP             1 S1                 0.0000
     48 ****         1.0021   0.5192   0.1541 LP             1 S1                 0.0000
     49 ****         8.3705   2.9199  -0.6836 LP             1 S1                 0.0000
@<TRIPOS>BOND
    1    1    2 1     
    2    1   25 1     
    3    1   26 1     
    4    1   27 1     
    5    2   10 1     
    6    2    3 2     
    7    3    4 1     
    8    3   44 1     
    9    4    9 ar    
   10    4    5 ar    
   11    5    6 ar    
   12    5   28 1     
   13    6    7 ar    
   14    6   29 1     
   15    7    8 ar    
   16    7   30 1     
   17    8    9 ar    
   18    8   31 1     
   19    9   10 1     
   20   10   11 1     
   21   11   12 1     
   22   11   32 1     
   23   11   33 1     
   24   12   13 1     
   25   12   14 1     
   26   12   34 1     
   27   13   35 1     
   28   14   15 1     
   29   14   36 1     
   30   14   37 1     
   31   15   16 1     
   32   16   24 ar    
   33   16   17 ar    
   34   17   18 ar    
   35   17   38 1     
   36   18   19 ar    
   37   18   39 1     
   38   19   20 1     
   39   19   23 ar    
   40   20   21 1     
   41   20   40 1     
   42   20   41 1     
   43   21   22 3     
   44   23   24 ar    
   45   23   42 1     
   46   24   43 1     
   47   13   45 1     
   48   13   46 1     
   49   15   47 1     
   50   15   48 1     
   51   22   49 1     
@<TRIPOS>SUBSTRUCTURE
      1 S1             1
@<TRIPOS>SET
LONE_PAIRS      STATIC     ATOMS    <user>   **** ""
5 45 46 47 48 49
DONOR_HYDROGENS      STATIC     ATOMS    <user>   **** ""
2 44 35
ATOM$BLUE        STATIC     ATOMS    COLORGROUP SYSTEM
5 45 46 47 48 49
ATOM$RED        STATIC     ATOMS    COLORGROUP SYSTEM
2 44 35
