#       Name:                AV-unprocessed.smi:1525
#       Creating user name   scv26
#       Creation time:       Fri Mar 27 06:28:53 2020


#       File generated by GOLD software.
#

@<TRIPOS>MOLECULE
AV-unprocessed.smi:1525
    55    57     1
SMALL
NO_CHARGES


@<TRIPOS>ATOM
      1 ****         0.6601   1.7353   0.9763 O.2            1 S1                 0.0000
      2 ****         0.1668   0.6081   1.0122 C.2            1 S1                 0.0000
      3 ****         0.8917  -0.5175   1.0748 N.am           1 S1                 0.0000
      4 ****         2.3483  -0.5723   1.0926 C.3            1 S1                 0.0000
      5 ****         2.9251  -0.4399  -0.3292 C.3            1 S1                 0.0000
      6 ****         4.3737  -0.6072  -0.4252 N.3            1 S1                 0.0000
      7 ****         4.7956  -0.7009  -1.8191 C.3            1 S1                 0.0000
      8 ****         6.3186  -0.8745  -1.9508 C.3            1 S1                 0.0000
      9 ****         6.9782   0.2053  -1.2984 O.3            1 S1                 0.0000
     10 ****         6.6310   0.3074   0.0786 C.3            1 S1                 0.0000
     11 ****         5.1081   0.4801   0.2189 C.3            1 S1                 0.0000
     12 ****        -1.1489   0.3395   0.9699 N.am           1 S1                 0.0000
     13 ****        -2.2289   1.2638   0.8849 C.ar           1 S1                 0.0000
     14 ****        -2.1600   2.5536   1.4712 C.ar           1 S1                 0.0000
     15 ****        -3.2574   3.4299   1.3669 C.ar           1 S1                 0.0000
     16 ****        -4.4108   3.0009   0.6867 C.ar           1 S1                 0.0000
     17 ****        -4.4513   1.7618   0.1546 N.pl3          1 S1                 1.0000
     18 ****        -3.4261   0.8766   0.2224 C.ar           1 S1                 0.0000
     19 ****        -3.5913  -0.4032  -0.3490 N.3            1 S1                 0.0000
     20 ****        -3.7178  -1.4800   0.6301 C.3            1 S1                 0.0000
     21 ****        -4.7573  -2.4564   0.0739 C.3            1 S1                 0.0000
     22 ****        -5.6111  -1.5783  -0.8326 C.3            1 S1                 0.0000
     23 ****        -4.5855  -0.6012  -1.4026 C.3            1 S1                 0.0000
     24 ****         0.4047  -1.4012   1.0998 H              1 S1                 0.0000
     25 ****         2.7329   0.2046   1.7544 H              1 S1                 0.0000
     26 ****         2.6459  -1.5270   1.5266 H              1 S1                 0.0000
     27 ****         2.4447  -1.1965  -0.9513 H              1 S1                 0.0000
     28 ****         2.6390   0.5229  -0.7557 H              1 S1                 0.0000
     29 ****         4.2956  -1.5414  -2.3017 H              1 S1                 0.0000
     30 ****         4.4886   0.1962  -2.3592 H              1 S1                 0.0000
     31 ****         6.6392  -1.8227  -1.5166 H              1 S1                 0.0000
     32 ****         6.6098  -0.8878  -3.0011 H              1 S1                 0.0000
     33 ****         6.9691  -0.5823   0.6121 H              1 S1                 0.0000
     34 ****         7.1512   1.1597   0.5155 H              1 S1                 0.0000
     35 ****         4.8119   1.4357  -0.2167 H              1 S1                 0.0000
     36 ****         4.8616   0.5294   1.2789 H              1 S1                 0.0000
     37 ****        -1.4014  -0.6352   0.8999 H              1 S1                 0.0000
     38 ****        -1.2853   2.8817   2.0118 H              1 S1                 0.0000
     39 ****        -3.2154   4.4154   1.8075 H              1 S1                 0.0000
     40 ****        -5.2993   3.6025   0.5604 H              1 S1                 0.0000
     41 ****        -2.7608  -1.9756   0.7948 H              1 S1                 0.0000
     42 ****        -4.0574  -1.0814   1.5876 H              1 S1                 0.0000
     43 ****        -4.2624  -3.2260  -0.5202 H              1 S1                 0.0000
     44 ****        -5.3336  -2.9525   0.8553 H              1 S1                 0.0000
     45 ****        -6.1365  -2.1418  -1.6044 H              1 S1                 0.0000
     46 ****        -6.3518  -1.0398  -0.2400 H              1 S1                 0.0000
     47 ****        -5.0549   0.3137  -1.7641 H              1 S1                 0.0000
     48 ****        -4.0783  -1.0523  -2.2559 H              1 S1                 0.0000
     49 ****        -5.3056   1.4732  -0.3224 H              1 S1                 0.0000
     50 ****         1.6536   1.8470   0.9934 LP             1 S1                 0.0000
     51 ****         0.0672   2.5392   0.9299 LP             1 S1                 0.0000
     52 ****         4.5875  -1.4577   0.0554 LP             1 S1                 0.0000
     53 ****         6.7264   1.0579  -1.7563 LP             1 S1                 0.0000
     54 ****         7.9660   0.0675  -1.3703 LP             1 S1                 0.0000
     55 ****        -2.7145  -0.4496  -0.8276 LP             1 S1                 0.0000
@<TRIPOS>BOND
    1    1    2 2     
    2    2    3 am    
    3    2   12 am    
    4    3    4 1     
    5    3   24 1     
    6    4    5 1     
    7    4   25 1     
    8    4   26 1     
    9    5    6 1     
   10    5   27 1     
   11    5   28 1     
   12    6   11 1     
   13    6    7 1     
   14    7    8 1     
   15    7   29 1     
   16    7   30 1     
   17    8    9 1     
   18    8   31 1     
   19    8   32 1     
   20    9   10 1     
   21   10   11 1     
   22   10   33 1     
   23   10   34 1     
   24   11   35 1     
   25   11   36 1     
   26   12   13 1     
   27   12   37 1     
   28   13   18 ar    
   29   13   14 ar    
   30   14   15 ar    
   31   14   38 1     
   32   15   16 ar    
   33   15   39 1     
   34   16   17 ar    
   35   16   40 1     
   36   17   18 ar    
   37   17   49 1     
   38   18   19 1     
   39   19   23 1     
   40   19   20 1     
   41   20   21 1     
   42   20   41 1     
   43   20   42 1     
   44   21   22 1     
   45   21   43 1     
   46   21   44 1     
   47   22   23 1     
   48   22   45 1     
   49   22   46 1     
   50   23   47 1     
   51   23   48 1     
   52    1   50 1     
   53    1   51 1     
   54    6   52 1     
   55    9   53 1     
   56    9   54 1     
   57   19   55 1     
@<TRIPOS>SUBSTRUCTURE
      1 S1             1
@<TRIPOS>SET
LONE_PAIRS      STATIC     ATOMS    <user>   **** ""
6 50 51 52 53 54 55
DONOR_HYDROGENS      STATIC     ATOMS    <user>   **** ""
3 24 37 49
ATOM$BLUE        STATIC     ATOMS    COLORGROUP SYSTEM
6 50 51 52 53 54 55
ATOM$RED        STATIC     ATOMS    COLORGROUP SYSTEM
3 24 37 49
