AV-unprocessed.smi:3091|AV-procd|sdf|11780|dock5
  -GOLD-   2272017163D 1   1.00000     0.00000
 Structure written by MMmdl.
 28 29  0  0  0  0  0  0  0  0  1 V2000
  149.1912  141.3654  153.2982 N   0  0  0  0  0  0  0  0  0  0  0  0
  149.2795  140.8984  154.6666 C   0  0  0  0  0  0  0  0  0  0  0  0
  150.4293  139.9342  154.8684 C   0  0  0  0  0  0  0  0  0  0  0  0
  150.7076  138.9399  153.9097 C   0  0  0  0  0  0  0  0  0  0  0  0
  151.7819  138.0615  154.1491 C   0  0  0  0  0  0  0  0  0  0  0  0
  152.5573  138.1232  155.2524 N   0  0  0  0  0  0  0  0  0  0  0  0
  152.2854  139.0776  156.1776 C   0  0  0  0  0  0  0  0  0  0  0  0
  153.0668  139.1546  157.3136 O   0  0  0  0  0  0  0  0  0  0  0  0
  152.4656  138.9758  158.5979 C   0  0  2  0  0  0  0  0  0  0  0  0
  153.5192  138.6909  159.6606 C   0  0  0  0  0  0  0  0  0  0  0  0
  153.6717  137.1800  159.5724 C   0  0  0  0  0  0  0  0  0  0  0  0
  152.3375  136.7372  159.3913 O   0  0  0  0  0  0  0  0  0  0  0  0
  151.6531  137.6726  158.5628 C   0  0  0  0  0  0  0  0  0  0  0  0
  151.2315  140.0017  156.0256 C   0  0  0  0  0  0  0  0  0  0  0  0
  149.5971  140.6770  152.6805 H   0  0  0  0  0  0  0  0  0  0  0  0
  148.2217  141.4600  153.0316 H   0  0  0  0  0  0  0  0  0  0  0  0
  149.3940  141.7549  155.3316 H   0  0  0  0  0  0  0  0  0  0  0  0
  148.3429  140.4093  154.9357 H   0  0  0  0  0  0  0  0  0  0  0  0
  150.1126  138.8507  153.0127 H   0  0  0  0  0  0  0  0  0  0  0  0
  152.0244  137.2879  153.4358 H   0  0  0  0  0  0  0  0  0  0  0  0
  151.8219  139.8165  158.8618 H   0  0  0  0  0  0  0  0  0  0  0  0
  154.4588  139.2218  159.5081 H   0  0  0  0  0  0  0  0  0  0  0  0
  153.1348  138.9629  160.6443 H   0  0  0  0  0  0  0  0  0  0  0  0
  154.2726  136.8990  158.7060 H   0  0  0  0  0  0  0  0  0  0  0  0
  154.1235  136.7458  160.4642 H   0  0  0  0  0  0  0  0  0  0  0  0
  150.6440  137.8195  158.9482 H   0  0  0  0  0  0  0  0  0  0  0  0
  151.5668  137.2798  157.5489 H   0  0  0  0  0  0  0  0  0  0  0  0
  151.0440  140.7463  156.7854 H   0  0  0  0  0  0  0  0  0  0  0  0
  1  2  1  0  0  0  0
  1 15  1  0  0  0  0
  1 16  1  0  0  0  0
  2  3  1  0  0  0  0
  2 17  1  0  0  0  0
  2 18  1  0  0  0  0
  3 14  1  0  0  0  0
  3  4  2  0  0  0  0
  4  5  1  0  0  0  0
  4 19  1  0  0  0  0
  5  6  2  0  0  0  0
  5 20  1  0  0  0  0
  6  7  1  0  0  0  0
  7  8  1  0  0  0  0
  7 14  2  0  0  0  0
  8  9  1  0  0  0  0
  9 13  1  0  0  0  0
  9 10  1  0  0  0  0
  9 21  1  0  0  0  0
 10 11  1  0  0  0  0
 10 22  1  0  0  0  0
 10 23  1  0  0  0  0
 11 12  1  0  0  0  0
 11 24  1  0  0  0  0
 11 25  1  0  0  0  0
 12 13  1  0  0  0  0
 13 26  1  0  0  0  0
 13 27  1  0  0  0  0
 14 28  1  0  0  0  0
M  END
> <s_m_source_file>
AV-unprocessed.smi

> <i_m_source_file_index>
3091

> <i_lp_mmshare_version>
43012

> <i_f3d_flags>
0

> <s_epik_input>
W05IMl1bQ0gyXWMxW2NIXVtjSF1uYyhbY0hdMSlPW0NAQEhdMltDSDJdW0NIMl1PW0NIMl0y

> <s_epik_cmdline>
J2VwaWtfcHl0aG9uJywgJy1waCcsICc3LjAnLCAnLXRuJywgJzgnLCAnLW1hJywgJzIwMCcsICctbWV0YWxfYmluZGluZycsICctaW1hZScsICc8aW5maWxlLm1hZT4nLCAnLW9tYWUnLCAnPG91dGZpbGUubWFlPic=

> <r_lp_tautomer_probability>
1

> <r_epik_Ionization_Penalty>
1.24495

> <r_epik_Ionization_Penalty_Charging>
0

> <r_epik_Ionization_Penalty_Neutral>
1.24495

> <r_epik_State_Penalty>
1.3141

> <r_epik_Charging_Adjusted_Penalty>
1.3141

> <i_epik_Tot_Q>
0

> <i_epik_Tot_abs_Q>
0

> <r_epik_Metal_State_Penalty>
1.31398

> <b_epik_Metal_Only>
0

> <s_lp_Force_Field>
OPLS_2005

> <r_lp_Energy>
14.7712

> <b_lp_Chiralities_Consistent>
1

> <s_lp_Variant>
AV-unprocessed.smi:3091-3

> <Gold.Version>
5.8.1

> <Gold.Id.Protein>
6NUR|6NUR_protein|mol2

> <Gold.PLP.Fitness>
41.3856

> <Gold.PLP.PLP>
-27.9513

> <Gold.PLP.part.hbond>
-4.7377

> <Gold.PLP.part.metal>
0.0000

> <Gold.PLP.part.buried>
-3.5786

> <Gold.PLP.part.nonpolar>
-19.8226

> <Gold.PLP.part.repulsive>
0.0218

> <Gold.PLP.ligand.clash>
0.0000

> <Gold.PLP.ligand.torsion>
0.3476

> <Gold.PLP.Chemscore.Hbond>
3.7040

> <Gold.PLP.Chemscore.CHOScore>
1.0000

> <Gold.PLP.Chemscore.Metal>
0.0000

> <Gold.Chemscore.Hbonds>
donor molecule, donor type, donor heavy atom, donor atom, acceptor molecule, acceptor atom, score
      L1  H     1    15       P1  7957  0.91
      P1  H  6896  6909       L1    12  1.00
      P1  H  7997  8008       L1     8  1.00
      P1  H  8011  8017       L1     1  0.27
      L1  C     5    20       P1  7949  1.00

> <Gold.PLP.Chemscore.Internal.Correction>
0.0174

> <Gold.Rescore>
     Score         DG    S(hbond)    S(metal)    S(lipo)     H(rot)  DE(clash)    DE(int)     intcor
     17.74     -17.83       2.89        0.00      56.73       1.54       0.01       0.07       ----

> <Gold.Chemscore.Fitness>
17.7428

> <Gold.Chemscore.DG>
-17.8283

> <Gold.Chemscore.ZeroCoef>
-5.4800

> <Gold.Chemscore.Hbond>
2.8920

> <Gold.Chemscore.Metal>
0.0000

> <Gold.Chemscore.Lipo>
56.7328

> <Gold.Chemscore.Internal_Hbond>
0.0000

> <Gold.Chemscore.DEClash>
0.0106

> <Gold.Chemscore.DEInternal>
0.0749

> <Gold.Chemscore.Rot>
1.5424

> <Gold.Chemscore.Internal.Correction>
   9.000000E+99

> <Gold.Chemscore.Hbonds>
donor molecule, donor type, donor heavy atom, donor atom, acceptor molecule, acceptor atom, score
      L1  H     1    15       P1  7957  0.89
      P1  H  6896  6909       L1    12  0.97
      P1  H  7997  8008       L1     8  0.55

> <Gold.Chemscore.Hbond.Weighted>
-9.6592

> <Gold.Chemscore.Metal.Weighted>
-0.0000

> <Gold.Chemscore.Lipo.Weighted>
-6.6377

> <Gold.Chemscore.Internal_Hbond.Weighted>
0.0000

> <Gold.Chemscore.DEClash.Weighted>
0.0106

> <Gold.Chemscore.DEInternal.Weighted>
0.0749

> <Gold.Chemscore.Rot.Weighted>
3.9487

> <Gold.Chemscore.Internal.Correction.Weighted>
   9.000000E+99

> <Gold.Protein.RotatedTorsions>
[ 6907 6896 6895 6894 ] final  129.42 input  -60.11 | X-H torsion
[ 7974 7965 7964 7962 ] final -174.67 input  175.53 | X-H torsion
[ 8008 7997 7996 7995 ] final  -74.86 input   59.86 | X-H torsion
[ 10167 10162 10161 10158 ] final  135.52 input  -65.29 | X-H torsion
[ 10718 10713 10712 10709 ] final   44.24 input   66.30 | X-H torsion
[ 10763 10752 10751 10750 ] final  145.13 input  -60.55 | X-H torsion
[ 11005 11000 10999 10996 ] final   -8.41 input  -57.11 | X-H torsion

> <Gold.Protein.ActiveResidues>
 VAL166  LYS551  ARG553  GLY616  TRP617  ASP618  TYR619  PRO620  LYS621  CYS622 
 ASP623  PHE694  ASN695  SER759  ASP760  ASP761  ALA762  ILE779  LEU786  VAL792 
 PHE793  MET794  SER795  GLU796  ALA797  LYS798  CYS799  TRP800  GLU811  SER814 

> <Gold.Protein.RotatedAtoms>
  152.3625  133.6315  159.6025 H   0  0  0  0  0  0  0  0  0  0  0  0  # atno 6907 bound_to 6896
  150.7611  133.9400  159.3462 H   0  0  0  0  0  0  0  0  0  0  0  0  # atno 6908 bound_to 6896
  151.7236  135.0890  160.0339 H   0  0  0  0  0  0  0  0  0  0  0  0  # atno 6909 bound_to 6896
  144.7131  140.1437  143.6389 H   0  0  0  0  0  0  0  0  0  0  0  0  # atno 7974 bound_to 7965
  154.5367  140.0754  156.8439 H   0  0  0  0  0  0  0  0  0  0  0  0  # atno 8008 bound_to 7997
  155.3264  140.3399  155.4222 H   0  0  0  0  0  0  0  0  0  0  0  0  # atno 8009 bound_to 7997
  156.1835  140.1660  156.8216 H   0  0  0  0  0  0  0  0  0  0  0  0  # atno 8010 bound_to 7997
  139.5214  144.6512  151.5295 H   0  0  0  0  0  0  0  0  0  0  0  0  # atno 10167 bound_to 10162
  157.4247  130.7989  149.7547 H   0  0  0  0  0  0  0  0  0  0  0  0  # atno 10718 bound_to 10713
  154.0004  135.2924  155.3403 H   0  0  0  0  0  0  0  0  0  0  0  0  # atno 10763 bound_to 10752
  154.7163  135.5128  153.8746 H   0  0  0  0  0  0  0  0  0  0  0  0  # atno 10764 bound_to 10752
  153.0769  135.6666  154.0246 H   0  0  0  0  0  0  0  0  0  0  0  0  # atno 10765 bound_to 10752
  140.7232  133.8811  155.8836 H   0  0  0  0  0  0  0  0  0  0  0  0  # atno 11005 bound_to 11000
  145.9179  139.2527  143.1399 LP  0  0  0  0  0  0  0  0  0  0  0  0  # atno 17320 bound_to 7965
  145.9650  140.8805  143.0191 LP  0  0  0  0  0  0  0  0  0  0  0  0  # atno 17321 bound_to 7965
  140.6318  143.9060  150.6612 LP  0  0  0  0  0  0  0  0  0  0  0  0  # atno 17342 bound_to 10162
  140.2367  143.3694  152.1521 LP  0  0  0  0  0  0  0  0  0  0  0  0  # atno 17343 bound_to 10162
  155.9892  130.3953  150.3083 LP  0  0  0  0  0  0  0  0  0  0  0  0  # atno 17370 bound_to 10713
  157.1234  131.0252  151.3000 LP  0  0  0  0  0  0  0  0  0  0  0  0  # atno 17371 bound_to 10713
  140.9985  134.1182  157.4340 LP  0  0  0  0  0  0  0  0  0  0  0  0  # atno 17394 bound_to 11000
  139.8843  135.0061  156.6361 LP  0  0  0  0  0  0  0  0  0  0  0  0  # atno 17395 bound_to 11000

$$$$
