#       Name:                AV-unprocessed.smi:658
#       Creating user name   scv26
#       Creation time:       Fri Mar 27 00:18:15 2020


#       File generated by GOLD software.
#

@<TRIPOS>MOLECULE
AV-unprocessed.smi:658
    39    39     1
SMALL
NO_CHARGES


@<TRIPOS>ATOM
      1 ****        -1.5122  -0.7104   2.0741 C.3            1 S1                 0.0000
      2 ****        -0.9524  -0.0426   0.8051 C.3            1 S1                 0.0000
      3 ****         0.5257  -0.0570   0.8674 N.4            1 S1                 1.0000
      4 ****         1.1628   1.2746   0.8208 C.3            1 S1                 0.0000
      5 ****         2.6891   1.1521   0.7573 C.3            1 S1                 0.0000
      6 ****         3.1793   0.5726  -0.5798 C.3            1 S1                 0.0000
      7 ****         5.0197   0.5083  -0.6653 S.o2           1 S1                 0.0000
      8 ****         5.3580   2.0435  -1.0282 N.pl3          1 S1                -1.0000
      9 ****         5.4846   0.1337   0.6792 O.2            1 S1                 0.0000
     10 ****         5.3341  -0.4003  -1.7775 O.2            1 S1                 0.0000
     11 ****        -1.4417  -0.7161  -0.5051 C.3            1 S1                 0.0000
     12 ****        -0.9663   0.0239  -1.7705 C.3            1 S1                 0.0000
     13 ****        -2.8909  -0.8680  -0.5322 N.pl3          1 S1                 0.0000
     14 ****        -3.6289  -2.0323  -0.5980 C.2            1 S1                 0.0000
     15 ****        -4.9482  -1.6805  -0.5964 C.2            1 S1                 0.0000
     16 ****        -4.9194  -0.2596  -0.5317 C.2            1 S1                 0.0000
     17 ****        -3.6883   0.2236  -0.4944 N.2            1 S1                 0.0000
     18 ****        -2.5985  -0.6351   2.1268 H              1 S1                 0.0000
     19 ****        -1.1175  -0.2350   2.9726 H              1 S1                 0.0000
     20 ****        -1.2492  -1.7680   2.1138 H              1 S1                 0.0000
     21 ****        -1.2978   0.9930   0.8100 H              1 S1                 0.0000
     22 ****         0.8101  -0.5148   1.7214 H              1 S1                 0.0000
     23 ****         0.7983   1.8343  -0.0419 H              1 S1                 0.0000
     24 ****         0.8729   1.8328   1.7119 H              1 S1                 0.0000
     25 ****         3.1259   2.1416   0.8959 H              1 S1                 0.0000
     26 ****         3.0446   0.5426   1.5889 H              1 S1                 0.0000
     27 ****         2.8196  -0.4485  -0.7034 H              1 S1                 0.0000
     28 ****         2.8176   1.1510  -1.4304 H              1 S1                 0.0000
     29 ****         5.5727   2.5393  -0.1548 H              1 S1                 0.0000
     30 ****        -1.0235  -1.7236  -0.5395 H              1 S1                 0.0000
     31 ****         0.1209   0.0272  -1.8492 H              1 S1                 0.0000
     32 ****        -1.3016   1.0616  -1.7776 H              1 S1                 0.0000
     33 ****        -1.3524  -0.4552  -2.6711 H              1 S1                 0.0000
     34 ****        -3.1608  -3.0048  -0.6384 H              1 S1                 0.0000
     35 ****        -5.8042  -2.3377  -0.6367 H              1 S1                 0.0000
     36 ****        -5.7502   0.4301  -0.5106 H              1 S1                 0.0000
     37 ****         0.8693  -0.5978   0.0865 H              1 S1                 0.0000
     38 ****         5.3585   2.4431  -1.9449 LP             1 S1                 0.0000
     39 ****        -3.4095   1.1829  -0.4484 LP             1 S1                 0.0000
@<TRIPOS>BOND
    1    1    2 1     
    2    1   18 1     
    3    1   19 1     
    4    1   20 1     
    5    2    3 1     
    6    2   11 1     
    7    2   21 1     
    8    3    4 1     
    9    3   22 1     
   10    3   37 1     
   11    4    5 1     
   12    4   23 1     
   13    4   24 1     
   14    5    6 1     
   15    5   25 1     
   16    5   26 1     
   17    6    7 1     
   18    6   27 1     
   19    6   28 1     
   20    7    8 1     
   21    7    9 2     
   22    7   10 2     
   23    8   29 1     
   24   11   12 1     
   25   11   13 1     
   26   11   30 1     
   27   12   31 1     
   28   12   32 1     
   29   12   33 1     
   30   13   17 1     
   31   13   14 1     
   32   14   15 2     
   33   14   34 1     
   34   15   16 1     
   35   15   35 1     
   36   16   17 2     
   37   16   36 1     
   38    8   38 1     
   39   17   39 1     
@<TRIPOS>SUBSTRUCTURE
      1 S1             1
@<TRIPOS>SET
LONE_PAIRS      STATIC     ATOMS    <user>   **** ""
4 38 9 10 39
DONOR_HYDROGENS      STATIC     ATOMS    <user>   **** ""
3 22 37 29
ATOM$BLUE        STATIC     ATOMS    COLORGROUP SYSTEM
4 38 9 10 39
ATOM$RED        STATIC     ATOMS    COLORGROUP SYSTEM
3 22 37 29
