AV-unprocessed.smi:1445|AV-procd|sdf|5887|dock2
  -GOLD-   22720 5563D 1   1.00000     0.00000
 Structure written by MMmdl.
 46 47  0  0  0  0  0  0  0  0  2 V2000
  151.6251  138.1094  155.0328 C   0  0  0  0  0  0  0  0  0  0  0  0
  150.4158  138.2508  154.2948 O   0  0  0  0  0  0  0  0  0  0  0  0
  149.6654  139.3979  154.4717 C   0  0  0  0  0  0  0  0  0  0  0  0
  150.2667  140.4820  155.0230 N   0  0  0  0  0  0  0  0  0  0  0  0
  149.5394  141.6050  155.1907 C   0  0  0  0  0  0  0  0  0  0  0  0
  148.1875  141.7090  154.8169 C   0  0  0  0  0  0  0  0  0  0  0  0
  147.5611  140.5864  154.2451 C   0  0  0  0  0  0  0  0  0  0  0  0
  148.3075  139.3944  154.0731 C   0  0  0  0  0  0  0  0  0  0  0  0
  147.7870  138.2016  153.4951 N   0  0  0  0  0  0  0  0  0  0  0  0
  146.5126  137.7833  153.4071 C   0  0  0  0  0  0  0  0  0  0  0  0
  145.5296  138.3784  153.8475 O   0  0  0  0  0  0  0  0  0  0  0  0
  146.4333  136.6016  152.7787 N   0  0  0  0  0  0  0  0  0  0  0  0
  145.1923  135.8878  152.5007 C   0  0  0  0  0  0  0  0  0  0  0  0
  144.8678  135.8719  150.9937 C   0  0  0  0  0  0  0  0  0  0  0  0
  145.0325  134.5236  150.3950 N   0  3  1  0  0  0  0  0  0  0  0  0
  146.2872  133.8614  150.8357 C   0  0  0  0  0  0  0  0  0  0  0  0
  146.5128  132.5438  150.0774 C   0  0  0  0  0  0  0  0  0  0  0  0
  145.3095  131.6031  150.2340 C   0  0  0  0  0  0  0  0  0  0  0  0
  143.9956  132.3052  149.8438 C   0  0  2  0  0  0  0  0  0  0  0  0
  143.8403  132.4805  148.3227 C   0  0  0  0  0  0  0  0  0  0  0  0
  143.8509  133.6416  150.6011 C   0  0  0  0  0  0  0  0  0  0  0  0
  152.0950  137.1600  154.7773 H   0  0  0  0  0  0  0  0  0  0  0  0
  151.4384  138.1069  156.1076 H   0  0  0  0  0  0  0  0  0  0  0  0
  152.3343  138.9035  154.7943 H   0  0  0  0  0  0  0  0  0  0  0  0
  150.0519  142.4474  155.6309 H   0  0  0  0  0  0  0  0  0  0  0  0
  147.6440  142.6309  154.9615 H   0  0  0  0  0  0  0  0  0  0  0  0
  146.5300  140.6730  153.9423 H   0  0  0  0  0  0  0  0  0  0  0  0
  148.4847  137.5662  153.1360 H   0  0  0  0  0  0  0  0  0  0  0  0
  147.2894  136.1771  152.4518 H   0  0  0  0  0  0  0  0  0  0  0  0
  145.2680  134.8789  152.9069 H   0  0  0  0  0  0  0  0  0  0  0  0
  144.3886  136.3816  153.0477 H   0  0  0  0  0  0  0  0  0  0  0  0
  143.8338  136.1978  150.8712 H   0  0  0  0  0  0  0  0  0  0  0  0
  145.4820  136.5891  150.4471 H   0  0  0  0  0  0  0  0  0  0  0  0
  147.1371  134.5220  150.6598 H   0  0  0  0  0  0  0  0  0  0  0  0
  146.2456  133.6773  151.9106 H   0  0  0  0  0  0  0  0  0  0  0  0
  146.6882  132.7528  149.0218 H   0  0  0  0  0  0  0  0  0  0  0  0
  147.4151  132.0541  150.4449 H   0  0  0  0  0  0  0  0  0  0  0  0
  145.4537  130.6997  149.6403 H   0  0  0  0  0  0  0  0  0  0  0  0
  145.2463  131.2776  151.2734 H   0  0  0  0  0  0  0  0  0  0  0  0
  143.1766  131.6588  150.1624 H   0  0  0  0  0  0  0  0  0  0  0  0
  144.6074  133.1332  147.9063 H   0  0  0  0  0  0  0  0  0  0  0  0
  142.8708  132.9150  148.0771 H   0  0  0  0  0  0  0  0  0  0  0  0
  143.9066  131.5209  147.8092 H   0  0  0  0  0  0  0  0  0  0  0  0
  143.7351  133.4486  151.6688 H   0  0  0  0  0  0  0  0  0  0  0  0
  142.9363  134.1376  150.2788 H   0  0  0  0  0  0  0  0  0  0  0  0
  145.1256  134.6641  149.3992 H   0  0  0  0  0  0  0  0  0  0  0  0
  1  2  1  0  0  0  0
  1 22  1  0  0  0  0
  1 23  1  0  0  0  0
  1 24  1  0  0  0  0
  2  3  1  0  0  0  0
  3  8  1  0  0  0  0
  3  4  2  0  0  0  0
  4  5  1  0  0  0  0
  5  6  2  0  0  0  0
  5 25  1  0  0  0  0
  6  7  1  0  0  0  0
  6 26  1  0  0  0  0
  7  8  2  0  0  0  0
  7 27  1  0  0  0  0
  8  9  1  0  0  0  0
  9 10  1  0  0  0  0
  9 28  1  0  0  0  0
 10 11  2  0  0  0  0
 10 12  1  0  0  0  0
 12 13  1  0  0  0  0
 12 29  1  0  0  0  0
 13 14  1  0  0  0  0
 13 30  1  0  0  0  0
 13 31  1  0  0  0  0
 14 15  1  0  0  0  0
 14 32  1  0  0  0  0
 14 33  1  0  0  0  0
 15 21  1  0  0  0  0
 15 16  1  0  0  0  0
 15 46  1  0  0  0  0
 16 17  1  0  0  0  0
 16 34  1  0  0  0  0
 16 35  1  0  0  0  0
 17 18  1  0  0  0  0
 17 36  1  0  0  0  0
 17 37  1  0  0  0  0
 18 19  1  0  0  0  0
 18 38  1  0  0  0  0
 18 39  1  0  0  0  0
 19 20  1  0  0  0  0
 19 21  1  0  0  0  0
 19 40  1  0  0  0  0
 20 41  1  0  0  0  0
 20 42  1  0  0  0  0
 20 43  1  0  0  0  0
 21 44  1  0  0  0  0
 21 45  1  0  0  0  0
M  CHG  1  15   1
M  END
> <s_m_source_file>
AV-unprocessed.smi

> <i_m_source_file_index>
1445

> <i_lp_mmshare_version>
43012

> <i_f3d_flags>
0

> <s_epik_input>
W0NIM11PYzFuW2NIXVtjSF1bY0hdYzFbTkhdQyg9TylbTkhdW0NIMl1bQ0gyXU4yW0NIMl1bQ0gyXVtDSDJdW0NAQEhdKFtDSDNdKVtDSDJdMg==

> <s_epik_cmdline>
J2VwaWtfcHl0aG9uJywgJy1waCcsICc3LjAnLCAnLXRuJywgJzgnLCAnLW1hJywgJzIwMCcsICctbWV0YWxfYmluZGluZycsICctaW1hZScsICc8aW5maWxlLm1hZT4nLCAnLW9tYWUnLCAnPG91dGZpbGUubWFlPic=

> <r_lp_tautomer_probability>
1

> <r_epik_Ionization_Penalty>
0.00179544

> <r_epik_Ionization_Penalty_Charging>
0.00171832

> <r_epik_Ionization_Penalty_Neutral>
7.71118e-05

> <r_epik_State_Penalty>
0.0011618

> <r_epik_Charging_Adjusted_Penalty>
0.00288012

> <i_epik_Tot_Q>
1

> <i_epik_Tot_abs_Q>
1

> <r_epik_Metal_State_Penalty>
-0

> <b_epik_Metal_Only>
0

> <s_lp_Force_Field>
OPLS_2005

> <r_lp_Energy>
21.8859

> <b_lp_Chiralities_Consistent>
1

> <s_lp_Variant>
AV-unprocessed.smi:1445-3

> <Gold.Version>
5.8.1

> <Gold.Id.Protein>
6NUR|6NUR_protein|mol2

> <Gold.PLP.Fitness>
50.4928

> <Gold.PLP.PLP>
-38.2233

> <Gold.PLP.part.hbond>
-4.0000

> <Gold.PLP.part.metal>
0.0000

> <Gold.PLP.part.buried>
0.6082

> <Gold.PLP.part.nonpolar>
-35.5726

> <Gold.PLP.part.repulsive>
0.7250

> <Gold.PLP.ligand.clash>
0.0000

> <Gold.PLP.ligand.torsion>
0.9270

> <Gold.PLP.Chemscore.Hbond>
3.9593

> <Gold.PLP.Chemscore.CHOScore>
0.7225

> <Gold.PLP.Chemscore.Metal>
0.0000

> <Gold.Chemscore.Hbonds>
donor molecule, donor type, donor heavy atom, donor atom, acceptor molecule, acceptor atom, score
      L1  H     9    28       P1  7948  0.98
      L1  H    12    29       P1  7948  1.00
      L1  H    15    46       P1  7921  0.98
      P1  H  7989  7998       L1     4  0.77
      L1  C     5    25       P1  8028  0.73

> <Gold.PLP.Chemscore.Internal.Correction>
0.0782

> <Gold.Rescore>
     Score         DG    S(hbond)    S(metal)    S(lipo)     H(rot)  DE(clash)    DE(int)     intcor
     21.37     -23.78       3.07        0.00     106.11       1.71       0.47       1.93       ----

> <Gold.Chemscore.Fitness>
21.3738

> <Gold.Chemscore.DG>
-23.7803

> <Gold.Chemscore.ZeroCoef>
-5.4800

> <Gold.Chemscore.Hbond>
3.0734

> <Gold.Chemscore.Metal>
0.0000

> <Gold.Chemscore.Lipo>
106.1082

> <Gold.Chemscore.Internal_Hbond>
0.0000

> <Gold.Chemscore.DEClash>
0.4742

> <Gold.Chemscore.DEInternal>
1.9323

> <Gold.Chemscore.Rot>
1.7107

> <Gold.Chemscore.Internal.Correction>
   9.000000E+99

> <Gold.Chemscore.Hbonds>
donor molecule, donor type, donor heavy atom, donor atom, acceptor molecule, acceptor atom, score
      L1  H     9    28       P1  7948  0.93
      L1  H    12    29       P1  7948  0.98
      L1  H    15    46       P1  7921  0.91
      P1  H  7989  7998       L1     4  0.08

> <Gold.Chemscore.Hbond.Weighted>
-10.2651

> <Gold.Chemscore.Metal.Weighted>
-0.0000

> <Gold.Chemscore.Lipo.Weighted>
-12.4147

> <Gold.Chemscore.Internal_Hbond.Weighted>
0.0000

> <Gold.Chemscore.DEClash.Weighted>
0.4742

> <Gold.Chemscore.DEInternal.Weighted>
1.9323

> <Gold.Chemscore.Rot.Weighted>
4.3794

> <Gold.Chemscore.Internal.Correction.Weighted>
   9.000000E+99

> <Gold.Protein.RotatedTorsions>
[ 6907 6896 6895 6894 ] final -131.63 input  -60.11 | X-H torsion
[ 7974 7965 7964 7962 ] final   69.82 input  175.53 | X-H torsion
[ 8008 7997 7996 7995 ] final   48.14 input   59.86 | X-H torsion
[ 10167 10162 10161 10158 ] final -116.21 input  -65.29 | X-H torsion
[ 10718 10713 10712 10709 ] final  -93.99 input   66.30 | X-H torsion
[ 10763 10752 10751 10750 ] final -132.53 input  -60.55 | X-H torsion
[ 11005 11000 10999 10996 ] final  -69.46 input  -57.11 | X-H torsion

> <Gold.Protein.ActiveResidues>
 VAL166  LYS551  ARG553  GLY616  TRP617  ASP618  TYR619  PRO620  LYS621  CYS622 
 ASP623  PHE694  ASN695  SER759  ASP760  ASP761  ALA762  ILE779  LEU786  VAL792 
 PHE793  MET794  SER795  GLU796  ALA797  LYS798  CYS799  TRP800  GLU811  SER814 

> <Gold.Protein.RotatedAtoms>
  150.9531  133.6527  159.2767 H   0  0  0  0  0  0  0  0  0  0  0  0  # atno 6907 bound_to 6896
  151.3876  135.0949  159.9525 H   0  0  0  0  0  0  0  0  0  0  0  0  # atno 6908 bound_to 6896
  152.5118  133.9052  159.7515 H   0  0  0  0  0  0  0  0  0  0  0  0  # atno 6909 bound_to 6896
  145.7858  139.2909  143.1239 H   0  0  0  0  0  0  0  0  0  0  0  0  # atno 7974 bound_to 7965
  155.3807  140.3428  155.4246 H   0  0  0  0  0  0  0  0  0  0  0  0  # atno 8008 bound_to 7997
  156.1612  140.1601  156.8643 H   0  0  0  0  0  0  0  0  0  0  0  0  # atno 8009 bound_to 7997
  154.5141  140.0783  156.8029 H   0  0  0  0  0  0  0  0  0  0  0  0  # atno 8010 bound_to 7997
  140.0816  143.4782  152.1922 H   0  0  0  0  0  0  0  0  0  0  0  0  # atno 10167 bound_to 10162
  156.0021  130.5049  150.5859 H   0  0  0  0  0  0  0  0  0  0  0  0  # atno 10718 bound_to 10713
  154.8742  135.3795  154.4425 H   0  0  0  0  0  0  0  0  0  0  0  0  # atno 10763 bound_to 10752
  153.5109  135.7029  153.5786 H   0  0  0  0  0  0  0  0  0  0  0  0  # atno 10764 bound_to 10752
  153.4077  135.3932  155.1995 H   0  0  0  0  0  0  0  0  0  0  0  0  # atno 10765 bound_to 10752
  141.1554  133.6765  156.6603 H   0  0  0  0  0  0  0  0  0  0  0  0  # atno 11005 bound_to 11000
  146.0027  140.8505  143.0010 LP  0  0  0  0  0  0  0  0  0  0  0  0  # atno 17320 bound_to 7965
  144.6789  140.2376  143.7347 LP  0  0  0  0  0  0  0  0  0  0  0  0  # atno 17321 bound_to 7965
  139.5776  144.7495  151.3724 LP  0  0  0  0  0  0  0  0  0  0  0  0  # atno 17342 bound_to 10162
  140.7074  143.7477  150.7507 LP  0  0  0  0  0  0  0  0  0  0  0  0  # atno 17343 bound_to 10162
  157.3732  131.0769  151.1540 LP  0  0  0  0  0  0  0  0  0  0  0  0  # atno 17370 bound_to 10713
  157.2287  130.6515  149.5841 LP  0  0  0  0  0  0  0  0  0  0  0  0  # atno 17371 bound_to 10713
  140.3253  134.7974  157.4284 LP  0  0  0  0  0  0  0  0  0  0  0  0  # atno 17394 bound_to 11000
  140.1062  134.5406  155.8307 LP  0  0  0  0  0  0  0  0  0  0  0  0  # atno 17395 bound_to 11000

$$$$
