AV-unprocessed.smi:249|AV-procd|sdf|1917|dock3
  -GOLD-   2262021 13D 1   1.00000     0.00000
 Structure written by MMmdl.
 64 67  0  0  0  0  0  0  0  0  2 V2000
  151.6943  144.9082  160.1884 C   0  0  0  0  0  0  0  0  0  0  0  0
  151.0105  145.2418  158.8521 C   0  0  0  0  0  0  0  0  0  0  0  0
  150.6435  144.0357  158.0543 N   0  3  1  0  0  0  0  0  0  0  0  0
  151.8471  143.2505  157.6531 C   0  0  0  0  0  0  0  0  0  0  0  0
  151.4938  142.0826  156.7223 C   0  0  0  0  0  0  0  0  0  0  0  0
  150.4722  141.1535  157.3925 C   0  0  2  0  0  0  0  0  0  0  0  0
  150.1238  139.9968  156.5560 N   0  0  0  0  0  0  0  0  0  0  0  0
  150.3161  140.0511  155.1083 C   0  0  0  0  0  0  0  0  0  0  0  0
  150.0292  138.7573  157.1146 C   0  0  0  0  0  0  0  0  0  0  0  0
  149.7678  138.6425  158.4449 N   0  0  0  0  0  0  0  0  0  0  0  0
  149.6808  137.4413  159.0227 C   0  0  0  0  0  0  0  0  0  0  0  0
  149.8135  136.2374  158.4658 N   0  0  0  0  0  0  0  0  0  0  0  0
  150.0631  136.3374  157.1299 C   0  0  0  0  0  0  0  0  0  0  0  0
  150.1893  137.5432  156.3812 C   0  0  0  0  0  0  0  0  0  0  0  0
  150.4384  137.2382  155.0469 N   0  0  0  0  0  0  0  0  0  0  0  0
  150.4687  135.9345  155.0119 C   0  0  0  0  0  0  0  0  0  0  0  0
  150.2321  135.3120  156.2158 N   0  0  0  0  0  0  0  0  0  0  0  0
  150.2097  133.8809  156.4631 C   0  0  0  0  0  0  0  0  0  0  0  0
  149.8651  133.0063  155.2244 C   0  0  2  0  0  0  0  0  0  0  0  0
  148.5869  133.5630  154.5512 C   0  0  0  0  0  0  0  0  0  0  0  0
  147.5124  133.6382  155.4656 O   0  0  0  0  0  0  0  0  0  0  0  0
  149.7161  131.4929  155.5661 C   0  0  2  0  0  0  0  0  0  0  0  0
  150.9969  130.7804  156.0069 C   0  0  0  0  0  0  0  0  0  0  0  0
  150.8849  129.3616  155.4422 C   0  0  0  0  0  0  0  0  0  0  0  0
  149.6029  129.2960  154.8396 O   0  0  0  0  0  0  0  0  0  0  0  0
  149.2773  130.6011  154.4000 C   0  0  0  0  0  0  0  0  0  0  0  0
  149.2386  141.9763  157.7933 C   0  0  0  0  0  0  0  0  0  0  0  0
  149.6118  143.1637  158.7078 C   0  0  2  0  0  0  0  0  0  0  0  0
  148.3199  143.9197  159.0829 C   0  0  0  0  0  0  0  0  0  0  0  0
  152.0840  145.8155  160.6508 H   0  0  0  0  0  0  0  0  0  0  0  0
  152.5336  144.2270  160.0448 H   0  0  0  0  0  0  0  0  0  0  0  0
  151.0089  144.4607  160.9074 H   0  0  0  0  0  0  0  0  0  0  0  0
  150.1280  145.8608  159.0201 H   0  0  0  0  0  0  0  0  0  0  0  0
  151.7216  145.8570  158.3057 H   0  0  0  0  0  0  0  0  0  0  0  0
  152.5637  143.8809  157.1296 H   0  0  0  0  0  0  0  0  0  0  0  0
  152.3511  142.8767  158.5459 H   0  0  0  0  0  0  0  0  0  0  0  0
  151.1019  142.4738  155.7831 H   0  0  0  0  0  0  0  0  0  0  0  0
  152.4000  141.5303  156.4719 H   0  0  0  0  0  0  0  0  0  0  0  0
  150.9035  140.7879  158.3254 H   0  0  0  0  0  0  0  0  0  0  0  0
  149.3512  140.0873  154.6025 H   0  0  0  0  0  0  0  0  0  0  0  0
  150.8630  139.1792  154.7471 H   0  0  0  0  0  0  0  0  0  0  0  0
  150.8815  140.9321  154.8071 H   0  0  0  0  0  0  0  0  0  0  0  0
  149.4752  137.4450  160.0830 H   0  0  0  0  0  0  0  0  0  0  0  0
  150.6508  135.3882  154.0977 H   0  0  0  0  0  0  0  0  0  0  0  0
  151.1789  133.5846  156.8663 H   0  0  0  0  0  0  0  0  0  0  0  0
  149.4870  133.7146  157.2625 H   0  0  0  0  0  0  0  0  0  0  0  0
  150.6714  133.1009  154.4961 H   0  0  0  0  0  0  0  0  0  0  0  0
  148.7392  134.5745  154.1768 H   0  0  0  0  0  0  0  0  0  0  0  0
  148.2959  132.9461  153.7003 H   0  0  0  0  0  0  0  0  0  0  0  0
  147.8057  134.0983  156.2374 H   0  0  0  0  0  0  0  0  0  0  0  0
  148.9731  131.3800  156.3574 H   0  0  0  0  0  0  0  0  0  0  0  0
  151.8869  131.2623  155.6013 H   0  0  0  0  0  0  0  0  0  0  0  0
  151.0904  130.7626  157.0923 H   0  0  0  0  0  0  0  0  0  0  0  0
  151.6508  129.1881  154.6849 H   0  0  0  0  0  0  0  0  0  0  0  0
  150.9873  128.5965  156.2122 H   0  0  0  0  0  0  0  0  0  0  0  0
  148.2113  130.6775  154.1845 H   0  0  0  0  0  0  0  0  0  0  0  0
  149.8343  130.8308  153.4898 H   0  0  0  0  0  0  0  0  0  0  0  0
  148.7274  142.3558  156.9077 H   0  0  0  0  0  0  0  0  0  0  0  0
  148.5262  141.3265  158.3038 H   0  0  0  0  0  0  0  0  0  0  0  0
  150.0453  142.7629  159.6259 H   0  0  0  0  0  0  0  0  0  0  0  0
  147.5403  143.2251  159.3978 H   0  0  0  0  0  0  0  0  0  0  0  0
  147.9297  144.4877  158.2378 H   0  0  0  0  0  0  0  0  0  0  0  0
  148.4656  144.6026  159.9189 H   0  0  0  0  0  0  0  0  0  0  0  0
  150.2228  144.3772  157.2018 H   0  0  0  0  0  0  0  0  0  0  0  0
  1  2  1  0  0  0  0
  1 30  1  0  0  0  0
  1 31  1  0  0  0  0
  1 32  1  0  0  0  0
  2  3  1  0  0  0  0
  2 33  1  0  0  0  0
  2 34  1  0  0  0  0
  3 28  1  0  0  0  0
  3  4  1  0  0  0  0
  3 64  1  0  0  0  0
  4  5  1  0  0  0  0
  4 35  1  0  0  0  0
  4 36  1  0  0  0  0
  5  6  1  0  0  0  0
  5 37  1  0  0  0  0
  5 38  1  0  0  0  0
  6  7  1  0  0  0  0
  6 27  1  0  0  0  0
  6 39  1  0  0  0  0
  7  8  1  0  0  0  0
  7  9  1  0  0  0  0
  8 40  1  0  0  0  0
  8 41  1  0  0  0  0
  8 42  1  0  0  0  0
  9 14  1  0  0  0  0
  9 10  2  0  0  0  0
 10 11  1  0  0  0  0
 11 12  2  0  0  0  0
 11 43  1  0  0  0  0
 12 13  1  0  0  0  0
 13 17  1  0  0  0  0
 13 14  2  0  0  0  0
 14 15  1  0  0  0  0
 15 16  2  0  0  0  0
 16 17  1  0  0  0  0
 16 44  1  0  0  0  0
 17 18  1  0  0  0  0
 18 19  1  0  0  0  0
 18 45  1  0  0  0  0
 18 46  1  0  0  0  0
 19 20  1  0  0  0  0
 19 22  1  0  0  0  0
 19 47  1  0  0  0  0
 20 21  1  0  0  0  0
 20 48  1  0  0  0  0
 20 49  1  0  0  0  0
 21 50  1  0  0  0  0
 22 26  1  0  0  0  0
 22 23  1  0  0  0  0
 22 51  1  0  0  0  0
 23 24  1  0  0  0  0
 23 52  1  0  0  0  0
 23 53  1  0  0  0  0
 24 25  1  0  0  0  0
 24 54  1  0  0  0  0
 24 55  1  0  0  0  0
 25 26  1  0  0  0  0
 26 56  1  0  0  0  0
 26 57  1  0  0  0  0
 27 28  1  0  0  0  0
 27 58  1  0  0  0  0
 27 59  1  0  0  0  0
 28 29  1  0  0  0  0
 28 60  1  0  0  0  0
 29 61  1  0  0  0  0
 29 62  1  0  0  0  0
 29 63  1  0  0  0  0
M  CHG  1   3   1
M  END
> <s_m_source_file>
AV-unprocessed.smi

> <i_m_source_file_index>
249

> <i_lp_mmshare_version>
43012

> <i_f3d_flags>
0

> <s_epik_input>
W0NIM11bQ0gyXU4xW0NIMl1bQ0gyXVtDQEhdKFtDSDJdW0NASF0xW0NIM10pTihbQ0gzXSljKG5bY0hdbjIpYyhjMjMpbltjSF1uM1tDSDJdW0NASF0oW0NIMl1bT0hdKVtDQEBIXTRbQ0gyXVtDSDJdT1tDSDJdNA==

> <s_epik_cmdline>
J2VwaWtfcHl0aG9uJywgJy1waCcsICc3LjAnLCAnLXRuJywgJzgnLCAnLW1hJywgJzIwMCcsICctbWV0YWxfYmluZGluZycsICctaW1hZScsICc8aW5maWxlLm1hZT4nLCAnLW9tYWUnLCAnPG91dGZpbGUubWFlPic=

> <r_lp_tautomer_probability>
1

> <r_epik_Ionization_Penalty>
0.00294688

> <r_epik_Ionization_Penalty_Charging>
0.00169971

> <r_epik_Ionization_Penalty_Neutral>
0.00124717

> <r_epik_State_Penalty>
-0

> <r_epik_Charging_Adjusted_Penalty>
0.00169971

> <i_epik_Tot_Q>
1

> <i_epik_Tot_abs_Q>
1

> <r_epik_Metal_State_Penalty>
-0

> <b_epik_Metal_Only>
0

> <s_lp_Force_Field>
OPLS_2005

> <r_lp_Energy>
53.9477

> <b_lp_Chiralities_Consistent>
1

> <s_lp_Variant>
AV-unprocessed.smi:249-20

> <Gold.Version>
5.8.1

> <Gold.Id.Protein>
6NUR|6NUR_protein|mol2

> <Gold.PLP.Fitness>
50.1565

> <Gold.PLP.PLP>
-40.8608

> <Gold.PLP.part.hbond>
-2.3447

> <Gold.PLP.part.metal>
0.0000

> <Gold.PLP.part.buried>
-5.3748

> <Gold.PLP.part.nonpolar>
-32.5822

> <Gold.PLP.part.repulsive>
0.2880

> <Gold.PLP.ligand.clash>
0.0000

> <Gold.PLP.ligand.torsion>
1.1478

> <Gold.PLP.Chemscore.Hbond>
2.9280

> <Gold.PLP.Chemscore.CHOScore>
0.6744

> <Gold.PLP.Chemscore.Metal>
0.0000

> <Gold.Chemscore.Hbonds>
donor molecule, donor type, donor heavy atom, donor atom, acceptor molecule, acceptor atom, score
      L1  H     3    64       P1  8028  1.95
      P1  H  6896  6907       L1    12  0.80
      L1  C    16    44       P1  7948  0.01
      L1  C    16    44       P1  7949  0.27

> <Gold.PLP.Chemscore.Internal.Correction>
0.7840

> <Gold.Rescore>
     Score         DG    S(hbond)    S(metal)    S(lipo)     H(rot)  DE(clash)    DE(int)     intcor
     10.76     -14.27       1.13        0.00     100.95       2.65       0.12       3.39       ----

> <Gold.Chemscore.Fitness>
10.7617

> <Gold.Chemscore.DG>
-14.2715

> <Gold.Chemscore.ZeroCoef>
-5.4800

> <Gold.Chemscore.Hbond>
1.1281

> <Gold.Chemscore.Metal>
0.0000

> <Gold.Chemscore.Lipo>
100.9538

> <Gold.Chemscore.Internal_Hbond>
0.0000

> <Gold.Chemscore.DEClash>
0.1195

> <Gold.Chemscore.DEInternal>
3.3902

> <Gold.Chemscore.Rot>
2.6515

> <Gold.Chemscore.Internal.Correction>
   9.000000E+99

> <Gold.Chemscore.Hbonds>
donor molecule, donor type, donor heavy atom, donor atom, acceptor molecule, acceptor atom, score
      L1  H     3    64       P1  8028  0.65
      P1  H  6896  6907       L1    12  0.72

> <Gold.Chemscore.Hbond.Weighted>
-3.7678

> <Gold.Chemscore.Metal.Weighted>
-0.0000

> <Gold.Chemscore.Lipo.Weighted>
-11.8116

> <Gold.Chemscore.Internal_Hbond.Weighted>
0.0000

> <Gold.Chemscore.DEClash.Weighted>
0.1195

> <Gold.Chemscore.DEInternal.Weighted>
3.3902

> <Gold.Chemscore.Rot.Weighted>
6.7880

> <Gold.Chemscore.Internal.Correction.Weighted>
   9.000000E+99

> <Gold.Protein.RotatedTorsions>
[ 6907 6896 6895 6894 ] final  -61.59 input  -60.11 | X-H torsion
[ 7974 7965 7964 7962 ] final   74.99 input  175.53 | X-H torsion
[ 8008 7997 7996 7995 ] final  -99.28 input   59.86 | X-H torsion
[ 10167 10162 10161 10158 ] final   51.25 input  -65.29 | X-H torsion
[ 10718 10713 10712 10709 ] final  -33.03 input   66.30 | X-H torsion
[ 10763 10752 10751 10750 ] final  -14.29 input  -60.55 | X-H torsion
[ 11005 11000 10999 10996 ] final  159.76 input  -57.11 | X-H torsion

> <Gold.Protein.ActiveResidues>
 VAL166  LYS551  ARG553  GLY616  TRP617  ASP618  TYR619  PRO620  LYS621  CYS622 
 ASP623  PHE694  ASN695  SER759  ASP760  ASP761  ALA762  ILE779  LEU786  VAL792 
 PHE793  MET794  SER795  GLU796  ALA797  LYS798  CYS799  TRP800  GLU811  SER814 

> <Gold.Protein.RotatedAtoms>
  150.7774  134.6684  159.6377 H   0  0  0  0  0  0  0  0  0  0  0  0  # atno 6907 bound_to 6896
  152.3848  134.6531  160.0138 H   0  0  0  0  0  0  0  0  0  0  0  0  # atno 6908 bound_to 6896
  151.6849  133.3275  159.3265 H   0  0  0  0  0  0  0  0  0  0  0  0  # atno 6909 bound_to 6896
  145.7213  139.2649  143.1594 H   0  0  0  0  0  0  0  0  0  0  0  0  # atno 7974 bound_to 7965
  154.8127  140.0449  157.1354 H   0  0  0  0  0  0  0  0  0  0  0  0  # atno 8008 bound_to 7997
  154.9349  140.3045  155.5129 H   0  0  0  0  0  0  0  0  0  0  0  0  # atno 8009 bound_to 7997
  156.2973  140.2316  156.4413 H   0  0  0  0  0  0  0  0  0  0  0  0  # atno 8010 bound_to 7997
  140.2639  144.3342  150.6310 H   0  0  0  0  0  0  0  0  0  0  0  0  # atno 10167 bound_to 10162
  156.3677  130.4334  149.7571 H   0  0  0  0  0  0  0  0  0  0  0  0  # atno 10718 bound_to 10713
  153.5261  135.7015  153.5707 H   0  0  0  0  0  0  0  0  0  0  0  0  # atno 10763 bound_to 10752
  153.3735  135.3938  155.1805 H   0  0  0  0  0  0  0  0  0  0  0  0  # atno 10764 bound_to 10752
  154.8689  135.3817  154.4754 H   0  0  0  0  0  0  0  0  0  0  0  0  # atno 10765 bound_to 10752
  140.1993  134.8350  157.3000 H   0  0  0  0  0  0  0  0  0  0  0  0  # atno 11005 bound_to 11000
  146.0623  140.7958  142.9729 LP  0  0  0  0  0  0  0  0  0  0  0  0  # atno 17320 bound_to 7965
  144.6916  140.3215  143.7231 LP  0  0  0  0  0  0  0  0  0  0  0  0  # atno 17321 bound_to 7965
  140.5944  143.2167  151.7192 LP  0  0  0  0  0  0  0  0  0  0  0  0  # atno 17342 bound_to 10162
  139.5008  144.3890  152.0299 LP  0  0  0  0  0  0  0  0  0  0  0  0  # atno 17343 bound_to 10162
  156.4711  130.7997  151.3015 LP  0  0  0  0  0  0  0  0  0  0  0  0  # atno 17370 bound_to 10713
  157.7480  131.0035  150.3042 LP  0  0  0  0  0  0  0  0  0  0  0  0  # atno 17371 bound_to 10713
  140.2072  134.4183  155.7631 LP  0  0  0  0  0  0  0  0  0  0  0  0  # atno 17394 bound_to 11000
  141.2227  133.7100  156.8279 LP  0  0  0  0  0  0  0  0  0  0  0  0  # atno 17395 bound_to 11000

$$$$
