#       Name:                AV-unprocessed.smi:3169
#       Creating user name   scv26
#       Creation time:       Fri Mar 27 17:53:59 2020


#       File generated by GOLD software.
#

@<TRIPOS>MOLECULE
AV-unprocessed.smi:3169
    40    41     1
SMALL
NO_CHARGES


@<TRIPOS>ATOM
      1 ****        -0.2458   0.8512   1.2825 O.2            1 S1                 0.0000
      2 ****        -0.5317  -0.3461   1.3091 C.2            1 S1                 0.0000
      3 ****         0.3766  -1.3313   1.3281 N.am           1 S1                 0.0000
      4 ****         1.8204  -1.1299   1.3158 C.3            1 S1                 0.0000
      5 ****         2.3321  -0.7983  -0.0962 C.3            1 S1                 0.0000
      6 ****         3.7798  -0.5862  -0.1114 N.pl3          1 S1                 0.0000
      7 ****         4.7535  -1.5047  -0.4081 C.2            1 S1                 0.0000
      8 ****         5.9539  -0.8525  -0.2895 C.2            1 S1                 0.0000
      9 ****         5.6617   0.4348   0.0750 N.pl3          1 S1                 1.0000
     10 ****         4.3386   0.5947   0.1826 C.2            1 S1                 0.0000
     11 ****        -1.7837  -0.8233   1.3122 N.am           1 S1                 0.0000
     12 ****        -2.9968  -0.0127   1.2775 C.3            1 S1                 0.0000
     13 ****        -3.5279   0.1635  -0.1556 C.3            1 S1                 0.0000
     14 ****        -2.6413   0.9986  -1.0806 C.3            1 S1                 0.0000
     15 ****        -3.6425   1.4817  -2.1041 C.3            1 S1                 0.0000
     16 ****        -4.8702   1.7468  -1.2372 C.3            1 S1                 0.0000
     17 ****        -4.7786   0.8462  -0.1355 O.3            1 S1                 0.0000
     18 ****         0.0465  -2.2852   1.3516 H              1 S1                 0.0000
     19 ****         2.0894  -0.3391   2.0185 H              1 S1                 0.0000
     20 ****         2.2939  -2.0424   1.6791 H              1 S1                 0.0000
     21 ****         2.1032  -1.6085  -0.7900 H              1 S1                 0.0000
     22 ****         1.8567   0.1028  -0.4871 H              1 S1                 0.0000
     23 ****         4.5260  -2.5269  -0.6744 H              1 S1                 0.0000
     24 ****         6.9670  -1.1988  -0.4331 H              1 S1                 0.0000
     25 ****         3.8230   1.4987   0.4549 H              1 S1                 0.0000
     26 ****        -1.9108  -1.8245   1.3349 H              1 S1                 0.0000
     27 ****        -3.7487  -0.5220   1.8807 H              1 S1                 0.0000
     28 ****        -2.8352   0.9579   1.7497 H              1 S1                 0.0000
     29 ****        -3.7006  -0.8132  -0.6109 H              1 S1                 0.0000
     30 ****        -2.2184   1.8497  -0.5448 H              1 S1                 0.0000
     31 ****        -1.8227   0.4272  -1.5189 H              1 S1                 0.0000
     32 ****        -3.3081   2.3629  -2.6522 H              1 S1                 0.0000
     33 ****        -3.8531   0.6894  -2.8238 H              1 S1                 0.0000
     34 ****        -4.8509   2.7662  -0.8508 H              1 S1                 0.0000
     35 ****        -5.8020   1.6104  -1.7862 H              1 S1                 0.0000
     36 ****         6.3459   1.1627   0.2396 H              1 S1                 0.0000
     37 ****         0.7127   1.1363   1.2739 LP             1 S1                 0.0000
     38 ****        -0.9720   1.5385   1.2694 LP             1 S1                 0.0000
     39 ****        -4.8597   1.3605   0.7182 LP             1 S1                 0.0000
     40 ****        -5.5200   0.1777  -0.1937 LP             1 S1                 0.0000
@<TRIPOS>BOND
    1    1    2 2     
    2    2    3 am    
    3    2   11 am    
    4    3    4 1     
    5    3   18 1     
    6    4    5 1     
    7    4   19 1     
    8    4   20 1     
    9    5    6 1     
   10    5   21 1     
   11    5   22 1     
   12    6   10 1     
   13    6    7 1     
   14    7    8 2     
   15    7   23 1     
   16    8    9 1     
   17    8   24 1     
   18    9   10 2     
   19    9   36 1     
   20   10   25 1     
   21   11   12 1     
   22   11   26 1     
   23   12   13 1     
   24   12   27 1     
   25   12   28 1     
   26   13   17 1     
   27   13   14 1     
   28   13   29 1     
   29   14   15 1     
   30   14   30 1     
   31   14   31 1     
   32   15   16 1     
   33   15   32 1     
   34   15   33 1     
   35   16   17 1     
   36   16   34 1     
   37   16   35 1     
   38    1   37 1     
   39    1   38 1     
   40   17   39 1     
   41   17   40 1     
@<TRIPOS>SUBSTRUCTURE
      1 S1             1
@<TRIPOS>SET
LONE_PAIRS      STATIC     ATOMS    <user>   **** ""
4 37 38 39 40
DONOR_HYDROGENS      STATIC     ATOMS    <user>   **** ""
3 18 36 26
ATOM$BLUE        STATIC     ATOMS    COLORGROUP SYSTEM
4 37 38 39 40
ATOM$RED        STATIC     ATOMS    COLORGROUP SYSTEM
3 18 36 26
