AV-unprocessed.smi:282|AV-procd|sdf|2124|dock2
  -GOLD-   2262021423D 1   1.00000     0.00000
 Structure written by MMmdl.
 65 69  0  0  0  0  0  0  0  0  2 V2000
  150.7281  143.2990  158.7497 C   0  0  0  0  0  0  0  0  0  0  0  0
  150.9920  142.7697  157.3336 C   0  0  0  0  0  0  0  0  0  0  0  0
  150.4061  141.3623  157.0911 C   0  0  1  0  0  0  0  0  0  0  0  0
  148.9217  141.2809  157.5112 C   0  0  0  0  0  0  0  0  0  0  0  0
  148.0299  141.9818  156.5509 N   0  3  2  0  0  0  0  0  0  0  0  0
  146.6088  141.9316  156.9800 C   0  0  0  0  0  0  0  0  0  0  0  0
  145.7140  142.7638  156.0487 C   0  0  0  0  0  0  0  0  0  0  0  0
  145.8577  142.2951  154.5961 C   0  0  0  0  0  0  0  0  0  0  0  0
  147.3328  142.3364  154.1781 C   0  0  0  0  0  0  0  0  0  0  0  0
  148.2171  141.5214  155.1433 C   0  0  1  0  0  0  0  0  0  0  0  0
  149.6991  141.6122  154.7272 C   0  0  0  0  0  0  0  0  0  0  0  0
  150.5603  140.9382  155.6953 N   0  0  0  0  0  0  0  0  0  0  0  0
  150.8488  139.6388  155.4220 C   0  0  0  0  0  0  0  0  0  0  0  0
  151.1699  139.2658  154.1546 N   0  0  0  0  0  0  0  0  0  0  0  0
  151.4641  137.9921  153.8790 C   0  0  0  0  0  0  0  0  0  0  0  0
  151.4942  136.9460  154.7060 N   0  0  0  0  0  0  0  0  0  0  0  0
  151.1635  137.3096  155.9779 C   0  0  0  0  0  0  0  0  0  0  0  0
  150.8347  138.6227  156.4188 C   0  0  0  0  0  0  0  0  0  0  0  0
  150.5543  138.6077  157.7797 N   0  0  0  0  0  0  0  0  0  0  0  0
  150.7195  137.3602  158.1255 C   0  0  0  0  0  0  0  0  0  0  0  0
  151.0682  136.5072  157.1024 N   0  0  0  0  0  0  0  0  0  0  0  0
  151.3108  135.0751  157.2054 C   0  0  0  0  0  0  0  0  0  0  0  0
  150.2238  134.1762  156.5439 C   0  0  0  0  0  0  0  0  0  0  0  0
  148.8820  134.2583  157.3277 C   0  0  0  0  0  0  0  0  0  0  0  0
  149.0443  133.9594  158.6998 O   0  0  0  0  0  0  0  0  0  0  0  0
  149.9941  134.6231  155.0781 C   0  0  0  0  0  0  0  0  0  0  0  0
  149.1849  133.6032  154.2560 C   0  0  0  0  0  0  0  0  0  0  0  0
  149.8188  132.3314  154.2938 O   0  0  0  0  0  0  0  0  0  0  0  0
  149.9058  131.7973  155.6085 C   0  0  0  0  0  0  0  0  0  0  0  0
  150.7585  132.7229  156.4945 C   0  0  0  0  0  0  0  0  0  0  0  0
  151.1225  144.3089  158.8647 H   0  0  0  0  0  0  0  0  0  0  0  0
  151.2028  142.6726  159.5053 H   0  0  0  0  0  0  0  0  0  0  0  0
  149.6597  143.3331  158.9652 H   0  0  0  0  0  0  0  0  0  0  0  0
  150.5468  143.4665  156.6225 H   0  0  0  0  0  0  0  0  0  0  0  0
  152.0632  142.7849  157.1323 H   0  0  0  0  0  0  0  0  0  0  0  0
  150.9704  140.6866  157.7356 H   0  0  0  0  0  0  0  0  0  0  0  0
  148.6128  140.2366  157.5736 H   0  0  0  0  0  0  0  0  0  0  0  0
  148.7925  141.6984  158.5105 H   0  0  0  0  0  0  0  0  0  0  0  0
  146.2696  140.8944  156.9971 H   0  0  0  0  0  0  0  0  0  0  0  0
  146.5217  142.3104  157.9990 H   0  0  0  0  0  0  0  0  0  0  0  0
  144.6732  142.6870  156.3640 H   0  0  0  0  0  0  0  0  0  0  0  0
  145.9843  143.8178  156.1243 H   0  0  0  0  0  0  0  0  0  0  0  0
  145.4722  141.2799  154.4939 H   0  0  0  0  0  0  0  0  0  0  0  0
  145.2607  142.9248  153.9356 H   0  0  0  0  0  0  0  0  0  0  0  0
  147.4367  141.9533  153.1622 H   0  0  0  0  0  0  0  0  0  0  0  0
  147.6725  143.3728  154.1523 H   0  0  0  0  0  0  0  0  0  0  0  0
  147.9108  140.4745  155.0939 H   0  0  0  0  0  0  0  0  0  0  0  0
  149.8178  141.1960  153.7272 H   0  0  0  0  0  0  0  0  0  0  0  0
  150.0075  142.6552  154.6540 H   0  0  0  0  0  0  0  0  0  0  0  0
  151.7096  137.7805  152.8486 H   0  0  0  0  0  0  0  0  0  0  0  0
  150.5817  137.0236  159.1427 H   0  0  0  0  0  0  0  0  0  0  0  0
  152.2865  134.8711  156.7624 H   0  0  0  0  0  0  0  0  0  0  0  0
  151.4149  134.8282  158.2627 H   0  0  0  0  0  0  0  0  0  0  0  0
  148.4400  135.2508  157.2401 H   0  0  0  0  0  0  0  0  0  0  0  0
  148.1397  133.5691  156.9290 H   0  0  0  0  0  0  0  0  0  0  0  0
  149.0916  133.0207  158.7996 H   0  0  0  0  0  0  0  0  0  0  0  0
  149.4961  135.5926  155.0443 H   0  0  0  0  0  0  0  0  0  0  0  0
  150.9582  134.7599  154.5868 H   0  0  0  0  0  0  0  0  0  0  0  0
  148.1575  133.5230  154.6119 H   0  0  0  0  0  0  0  0  0  0  0  0
  149.1273  133.9300  153.2175 H   0  0  0  0  0  0  0  0  0  0  0  0
  148.9090  131.6470  156.0240 H   0  0  0  0  0  0  0  0  0  0  0  0
  150.3693  130.8123  155.5520 H   0  0  0  0  0  0  0  0  0  0  0  0
  151.7735  132.7251  156.0946 H   0  0  0  0  0  0  0  0  0  0  0  0
  150.8378  132.3051  157.4985 H   0  0  0  0  0  0  0  0  0  0  0  0
  148.3027  142.9541  156.5693 H   0  0  0  0  0  0  0  0  0  0  0  0
  1  2  1  0  0  0  0
  1 31  1  0  0  0  0
  1 32  1  0  0  0  0
  1 33  1  0  0  0  0
  2  3  1  0  0  0  0
  2 34  1  0  0  0  0
  2 35  1  0  0  0  0
  3 12  1  0  0  0  0
  3  4  1  0  0  0  0
  3 36  1  0  0  0  0
  4  5  1  0  0  0  0
  4 37  1  0  0  0  0
  4 38  1  0  0  0  0
  5 10  1  0  0  0  0
  5  6  1  0  0  0  0
  5 65  1  0  0  0  0
  6  7  1  0  0  0  0
  6 39  1  0  0  0  0
  6 40  1  0  0  0  0
  7  8  1  0  0  0  0
  7 41  1  0  0  0  0
  7 42  1  0  0  0  0
  8  9  1  0  0  0  0
  8 43  1  0  0  0  0
  8 44  1  0  0  0  0
  9 10  1  0  0  0  0
  9 45  1  0  0  0  0
  9 46  1  0  0  0  0
 10 11  1  0  0  0  0
 10 47  1  0  0  0  0
 11 12  1  0  0  0  0
 11 48  1  0  0  0  0
 11 49  1  0  0  0  0
 12 13  1  0  0  0  0
 13 18  1  0  0  0  0
 13 14  2  0  0  0  0
 14 15  1  0  0  0  0
 15 16  2  0  0  0  0
 15 50  1  0  0  0  0
 16 17  1  0  0  0  0
 17 21  1  0  0  0  0
 17 18  2  0  0  0  0
 18 19  1  0  0  0  0
 19 20  2  0  0  0  0
 20 21  1  0  0  0  0
 20 51  1  0  0  0  0
 21 22  1  0  0  0  0
 22 23  1  0  0  0  0
 22 52  1  0  0  0  0
 22 53  1  0  0  0  0
 23 30  1  0  0  0  0
 23 24  1  0  0  0  0
 23 26  1  0  0  0  0
 24 25  1  0  0  0  0
 24 54  1  0  0  0  0
 24 55  1  0  0  0  0
 25 56  1  0  0  0  0
 26 27  1  0  0  0  0
 26 57  1  0  0  0  0
 26 58  1  0  0  0  0
 27 28  1  0  0  0  0
 27 59  1  0  0  0  0
 27 60  1  0  0  0  0
 28 29  1  0  0  0  0
 29 30  1  0  0  0  0
 29 61  1  0  0  0  0
 29 62  1  0  0  0  0
 30 63  1  0  0  0  0
 30 64  1  0  0  0  0
M  CHG  1   5   1
M  END
> <s_m_source_file>
AV-unprocessed.smi

> <i_m_source_file_index>
282

> <i_lp_mmshare_version>
43012

> <i_f3d_flags>
0

> <s_epik_input>
W0NIMl0xW0NIMl1bQ0gyXVtDSDJdW0NAQEhdKE4xMilbQ0gyXU4oW0NAQEhdKFtDSDJdMilbQ0gyXVtDSDNdKWMobltjSF1uMyljKGMzNCluW2NIXW40W0NIMl1DNShbQ0gyXVtPSF0pW0NIMl1bQ0gyXU9bQ0gyXVtDSDJdNQ==

> <s_epik_cmdline>
J2VwaWtfcHl0aG9uJywgJy1waCcsICc3LjAnLCAnLXRuJywgJzgnLCAnLW1hJywgJzIwMCcsICctbWV0YWxfYmluZGluZycsICctaW1hZScsICc8aW5maWxlLm1hZT4nLCAnLW9tYWUnLCAnPG91dGZpbGUubWFlPic=

> <r_lp_tautomer_probability>
1

> <r_epik_Ionization_Penalty>
0.00308583

> <r_epik_Ionization_Penalty_Charging>
0.00300384

> <r_epik_Ionization_Penalty_Neutral>
8.19894e-05

> <r_epik_State_Penalty>
-0

> <r_epik_Charging_Adjusted_Penalty>
0.00300384

> <i_epik_Tot_Q>
1

> <i_epik_Tot_abs_Q>
1

> <r_epik_Metal_State_Penalty>
-0

> <b_epik_Metal_Only>
0

> <s_lp_Force_Field>
OPLS_2005

> <r_lp_Energy>
57.1852

> <b_lp_Chiralities_Consistent>
1

> <s_lp_Variant>
AV-unprocessed.smi:282-8

> <Gold.Version>
5.8.1

> <Gold.Id.Protein>
6NUR|6NUR_protein|mol2

> <Gold.PLP.Fitness>
57.0566

> <Gold.PLP.PLP>
-40.1305

> <Gold.PLP.part.hbond>
-4.0000

> <Gold.PLP.part.metal>
0.0000

> <Gold.PLP.part.buried>
2.6587

> <Gold.PLP.part.nonpolar>
-36.9667

> <Gold.PLP.part.repulsive>
0.3955

> <Gold.PLP.ligand.clash>
0.0000

> <Gold.PLP.ligand.torsion>
0.6003

> <Gold.PLP.Chemscore.Hbond>
4.9120

> <Gold.PLP.Chemscore.CHOScore>
1.0000

> <Gold.PLP.Chemscore.Metal>
0.0000

> <Gold.Chemscore.Hbonds>
donor molecule, donor type, donor heavy atom, donor atom, acceptor molecule, acceptor atom, score
      L1  H     5    65       P1  8028  1.89
      P1  H  6896  6909       L1    25  0.90
      P1  H  7989  7998       L1    14  1.00
      P1  H 10752 10763       L1    16  1.00
      L1  C    15    50       P1  7949  1.00

> <Gold.PLP.Chemscore.Internal.Correction>
0.3906

> <Gold.Rescore>
     Score         DG    S(hbond)    S(metal)    S(lipo)     H(rot)  DE(clash)    DE(int)     intcor
     11.00     -16.24       1.75        0.00      90.11       2.20       1.99       3.24       ----

> <Gold.Chemscore.Fitness>
11.0021

> <Gold.Chemscore.DG>
-16.2410

> <Gold.Chemscore.ZeroCoef>
-5.4800

> <Gold.Chemscore.Hbond>
1.7547

> <Gold.Chemscore.Metal>
0.0000

> <Gold.Chemscore.Lipo>
90.1135

> <Gold.Chemscore.Internal_Hbond>
0.0000

> <Gold.Chemscore.DEClash>
1.9944

> <Gold.Chemscore.DEInternal>
3.2446

> <Gold.Chemscore.Rot>
2.2042

> <Gold.Chemscore.Internal.Correction>
   9.000000E+99

> <Gold.Chemscore.Hbonds>
donor molecule, donor type, donor heavy atom, donor atom, acceptor molecule, acceptor atom, score
      L1  H     5    65       P1  8028  0.53
      P1  H  6896  6909       L1    25  0.19
      P1  H  7989  7998       L1    14  0.25
      P1  H 10752 10763       L1    16  0.82

> <Gold.Chemscore.Hbond.Weighted>
-5.8606

> <Gold.Chemscore.Metal.Weighted>
-0.0000

> <Gold.Chemscore.Lipo.Weighted>
-10.5433

> <Gold.Chemscore.Internal_Hbond.Weighted>
0.0000

> <Gold.Chemscore.DEClash.Weighted>
1.9944

> <Gold.Chemscore.DEInternal.Weighted>
3.2446

> <Gold.Chemscore.Rot.Weighted>
5.6429

> <Gold.Chemscore.Internal.Correction.Weighted>
   9.000000E+99

> <Gold.Protein.RotatedTorsions>
[ 6907 6896 6895 6894 ] final   41.23 input  -60.11 | X-H torsion
[ 7974 7965 7964 7962 ] final   50.60 input  175.53 | X-H torsion
[ 8008 7997 7996 7995 ] final  137.87 input   59.86 | X-H torsion
[ 10167 10162 10161 10158 ] final  -72.40 input  -65.29 | X-H torsion
[ 10718 10713 10712 10709 ] final  136.53 input   66.30 | X-H torsion
[ 10763 10752 10751 10750 ] final   40.73 input  -60.55 | X-H torsion
[ 11005 11000 10999 10996 ] final -121.23 input  -57.11 | X-H torsion

> <Gold.Protein.ActiveResidues>
 VAL166  LYS551  ARG553  GLY616  TRP617  ASP618  TYR619  PRO620  LYS621  CYS622 
 ASP623  PHE694  ASN695  SER759  ASP760  ASP761  ALA762  ILE779  LEU786  VAL792 
 PHE793  MET794  SER795  GLU796  ALA797  LYS798  CYS799  TRP800  GLU811  SER814 

> <Gold.Protein.RotatedAtoms>
  152.1926  134.8658  160.0515 H   0  0  0  0  0  0  0  0  0  0  0  0  # atno 6907 bound_to 6896
  151.9541  133.3670  159.4019 H   0  0  0  0  0  0  0  0  0  0  0  0  # atno 6908 bound_to 6896
  150.6938  134.4233  159.5259 H   0  0  0  0  0  0  0  0  0  0  0  0  # atno 6909 bound_to 6896
  145.9996  139.4425  143.0023 H   0  0  0  0  0  0  0  0  0  0  0  0  # atno 7974 bound_to 7965
  156.3000  140.2408  156.3980 H   0  0  0  0  0  0  0  0  0  0  0  0  # atno 8008 bound_to 7997
  154.8553  140.0422  157.1650 H   0  0  0  0  0  0  0  0  0  0  0  0  # atno 8009 bound_to 7997
  154.8954  140.2969  155.5351 H   0  0  0  0  0  0  0  0  0  0  0  0  # atno 8010 bound_to 7997
  140.5195  143.2333  151.7454 H   0  0  0  0  0  0  0  0  0  0  0  0  # atno 10167 bound_to 10162
  157.4457  131.1061  151.0092 H   0  0  0  0  0  0  0  0  0  0  0  0  # atno 10718 bound_to 10713
  152.9928  135.6183  154.2673 H   0  0  0  0  0  0  0  0  0  0  0  0  # atno 10763 bound_to 10752
  154.2407  135.2788  155.2857 H   0  0  0  0  0  0  0  0  0  0  0  0  # atno 10764 bound_to 10752
  154.5372  135.5771  153.6866 H   0  0  0  0  0  0  0  0  0  0  0  0  # atno 10765 bound_to 10752
  141.0086  134.0298  157.3444 H   0  0  0  0  0  0  0  0  0  0  0  0  # atno 11005 bound_to 11000
  145.7508  140.9973  143.1251 LP  0  0  0  0  0  0  0  0  0  0  0  0  # atno 17320 bound_to 7965
  144.6915  139.9212  143.7468 LP  0  0  0  0  0  0  0  0  0  0  0  0  # atno 17321 bound_to 7965
  139.4919  144.4275  151.9910 LP  0  0  0  0  0  0  0  0  0  0  0  0  # atno 17342 bound_to 10162
  140.3371  144.3248  150.5975 LP  0  0  0  0  0  0  0  0  0  0  0  0  # atno 17343 bound_to 10162
  157.0940  130.5954  149.5446 LP  0  0  0  0  0  0  0  0  0  0  0  0  # atno 17370 bound_to 10713
  155.9966  130.5036  150.7503 LP  0  0  0  0  0  0  0  0  0  0  0  0  # atno 17371 bound_to 10713
  139.9077  135.0183  156.7557 LP  0  0  0  0  0  0  0  0  0  0  0  0  # atno 17394 bound_to 11000
  140.6772  133.9507  155.7889 LP  0  0  0  0  0  0  0  0  0  0  0  0  # atno 17395 bound_to 11000

$$$$
