AV-unprocessed.smi:3318|AV-procd|sdf|12762|dock4
  -GOLD-   2272019103D 1   1.00000     0.00000
 Structure written by MMmdl.
 45 46  0  0  0  0  0  0  0  0  3 V2000
  145.0635  132.1243  149.5634 C   0  0  0  0  0  0  0  0  0  0  0  0
  145.0450  133.2120  150.6431 C   0  0  0  0  0  0  0  0  0  0  0  0
  146.4612  133.6548  151.0511 C   0  0  0  0  0  0  0  0  0  0  0  0
  146.4873  135.0249  151.6246 N   0  3  2  0  0  0  0  0  0  0  0  0
  146.0357  135.0497  153.0402 C   0  0  0  0  0  0  0  0  0  0  0  0
  146.1984  136.4512  153.6541 C   0  0  0  0  0  0  0  0  0  0  0  0
  145.4397  137.5134  152.8411 C   0  0  1  0  0  0  0  0  0  0  0  0
  145.6565  138.8543  153.4318 N   0  3  0  0  0  0  0  0  0  0  0  0
  147.0446  139.3617  153.3649 C   0  0  0  0  0  0  0  0  0  0  0  0
  147.1243  140.8446  153.7609 C   0  0  0  0  0  0  0  0  0  0  0  0
  148.1283  141.1102  154.8686 C   0  0  0  0  0  0  0  0  0  0  0  0
  149.5148  140.9956  154.6305 C   0  0  0  0  0  0  0  0  0  0  0  0
  150.4011  141.2542  155.6943 C   0  0  0  0  0  0  0  0  0  0  0  0
  149.8694  141.6113  156.9484 C   0  0  0  0  0  0  0  0  0  0  0  0
  148.4695  141.6962  157.0841 C   0  0  0  0  0  0  0  0  0  0  0  0
  147.6113  141.4492  156.0706 N   0  0  0  0  0  0  0  0  0  0  0  0
  145.9033  137.4427  151.3729 C   0  0  0  0  0  0  0  0  0  0  0  0
  145.7487  136.0211  150.8034 C   0  0  0  0  0  0  0  0  0  0  0  0
  144.0498  131.8274  149.2940 H   0  0  0  0  0  0  0  0  0  0  0  0
  145.5899  131.2342  149.9091 H   0  0  0  0  0  0  0  0  0  0  0  0
  145.5577  132.4757  148.6572 H   0  0  0  0  0  0  0  0  0  0  0  0
  144.4843  134.0713  150.2734 H   0  0  0  0  0  0  0  0  0  0  0  0
  144.4973  132.8333  151.5055 H   0  0  0  0  0  0  0  0  0  0  0  0
  146.9027  132.9467  151.7541 H   0  0  0  0  0  0  0  0  0  0  0  0
  147.0878  133.6324  150.1582 H   0  0  0  0  0  0  0  0  0  0  0  0
  144.9936  134.7309  153.0975 H   0  0  0  0  0  0  0  0  0  0  0  0
  146.6175  134.3361  153.6253 H   0  0  0  0  0  0  0  0  0  0  0  0
  145.8396  136.4423  154.6843 H   0  0  0  0  0  0  0  0  0  0  0  0
  147.2589  136.7045  153.6994 H   0  0  0  0  0  0  0  0  0  0  0  0
  144.3734  137.2869  152.8932 H   0  0  0  0  0  0  0  0  0  0  0  0
  145.0780  139.5080  152.9226 H   0  0  0  0  0  0  0  0  0  0  0  0
  147.6780  138.7805  154.0346 H   0  0  0  0  0  0  0  0  0  0  0  0
  147.4365  139.2260  152.3558 H   0  0  0  0  0  0  0  0  0  0  0  0
  147.3739  141.4508  152.8888 H   0  0  0  0  0  0  0  0  0  0  0  0
  146.1431  141.1862  154.0937 H   0  0  0  0  0  0  0  0  0  0  0  0
  149.8944  140.7215  153.6570 H   0  0  0  0  0  0  0  0  0  0  0  0
  151.4690  141.1807  155.5508 H   0  0  0  0  0  0  0  0  0  0  0  0
  150.5193  141.8184  157.7858 H   0  0  0  0  0  0  0  0  0  0  0  0
  148.0273  141.9693  158.0308 H   0  0  0  0  0  0  0  0  0  0  0  0
  145.3284  138.1320  150.7545 H   0  0  0  0  0  0  0  0  0  0  0  0
  146.9463  137.7535  151.2965 H   0  0  0  0  0  0  0  0  0  0  0  0
  146.1153  136.0149  149.7776 H   0  0  0  0  0  0  0  0  0  0  0  0
  144.6931  135.7478  150.7613 H   0  0  0  0  0  0  0  0  0  0  0  0
  147.4573  135.3069  151.6332 H   0  0  0  0  0  0  0  0  0  0  0  0
  145.3543  138.8462  154.3955 H   0  0  0  0  0  0  0  0  0  0  0  0
  1  2  1  0  0  0  0
  1 19  1  0  0  0  0
  1 20  1  0  0  0  0
  1 21  1  0  0  0  0
  2  3  1  0  0  0  0
  2 22  1  0  0  0  0
  2 23  1  0  0  0  0
  3  4  1  0  0  0  0
  3 24  1  0  0  0  0
  3 25  1  0  0  0  0
  4 18  1  0  0  0  0
  4  5  1  0  0  0  0
  4 44  1  0  0  0  0
  5  6  1  0  0  0  0
  5 26  1  0  0  0  0
  5 27  1  0  0  0  0
  6  7  1  0  0  0  0
  6 28  1  0  0  0  0
  6 29  1  0  0  0  0
  7  8  1  0  0  0  0
  7 17  1  0  0  0  0
  7 30  1  0  0  0  0
  8  9  1  0  0  0  0
  8 31  1  0  0  0  0
  8 45  1  0  0  0  0
  9 10  1  0  0  0  0
  9 32  1  0  0  0  0
  9 33  1  0  0  0  0
 10 11  1  0  0  0  0
 10 34  1  0  0  0  0
 10 35  1  0  0  0  0
 11 16  1  0  0  0  0
 11 12  2  0  0  0  0
 12 13  1  0  0  0  0
 12 36  1  0  0  0  0
 13 14  2  0  0  0  0
 13 37  1  0  0  0  0
 14 15  1  0  0  0  0
 14 38  1  0  0  0  0
 15 16  2  0  0  0  0
 15 39  1  0  0  0  0
 17 18  1  0  0  0  0
 17 40  1  0  0  0  0
 17 41  1  0  0  0  0
 18 42  1  0  0  0  0
 18 43  1  0  0  0  0
M  CHG  1   4   1
M  CHG  1   8   1
M  END
> <s_m_source_file>
AV-unprocessed.smi

> <i_m_source_file_index>
3318

> <i_lp_mmshare_version>
43012

> <i_f3d_flags>
0

> <s_epik_input>
W0NIM11bQ0gyXVtDSDJdTjFbQ0gyXVtDSDJdW0NIXShbQ0gyXVtDSDJdMSlbTkhdW0NIMl1bQ0gyXWMyW2NIXVtjSF1bY0hdW2NIXW4y

> <s_epik_cmdline>
J2VwaWtfcHl0aG9uJywgJy1waCcsICc3LjAnLCAnLXRuJywgJzgnLCAnLW1hJywgJzIwMCcsICctbWV0YWxfYmluZGluZycsICctaW1hZScsICc8aW5maWxlLm1hZT4nLCAnLW9tYWUnLCAnPG91dGZpbGUubWFlPic=

> <r_epik_Ionization_Penalty>
0.0638186

> <r_epik_Ionization_Penalty_Charging>
0.0628538

> <r_epik_Ionization_Penalty_Neutral>
0.000964829

> <r_epik_State_Penalty>
0.0518488

> <r_epik_Charging_Adjusted_Penalty>
0.114703

> <i_epik_Tot_Q>
2

> <i_epik_Tot_abs_Q>
2

> <r_epik_Metal_State_Penalty>
0.0535981

> <b_epik_Metal_Only>
0

> <s_lp_Force_Field>
OPLS_2005

> <r_lp_Energy>
28.1617

> <b_lp_Chiralities_Consistent>
1

> <s_lp_Variant>
AV-unprocessed.smi:3318-1

> <Gold.Version>
5.8.1

> <Gold.Id.Protein>
6NUR|6NUR_protein|mol2

> <Gold.PLP.Fitness>
43.1581

> <Gold.PLP.PLP>
-32.5550

> <Gold.PLP.part.hbond>
-2.0000

> <Gold.PLP.part.metal>
0.0000

> <Gold.PLP.part.buried>
-0.6952

> <Gold.PLP.part.nonpolar>
-30.2303

> <Gold.PLP.part.repulsive>
0.1675

> <Gold.PLP.ligand.clash>
0.0000

> <Gold.PLP.ligand.torsion>
0.7474

> <Gold.PLP.Chemscore.Hbond>
4.0000

> <Gold.PLP.Chemscore.CHOScore>
0.0000

> <Gold.PLP.Chemscore.Metal>
0.0000

> <Gold.Chemscore.Hbonds>
donor molecule, donor type, donor heavy atom, donor atom, acceptor molecule, acceptor atom, score
      L1  H     4    44       P1  7948  2.00
      L1  H     8    31       P1 10175  2.00

> <Gold.PLP.Chemscore.Internal.Correction>
0.0980

> <Gold.Rescore>
     Score         DG    S(hbond)    S(metal)    S(lipo)     H(rot)  DE(clash)    DE(int)     intcor
     17.27     -18.24       1.95        0.00      87.27       1.55       0.29       0.68       ----

> <Gold.Chemscore.Fitness>
17.2655

> <Gold.Chemscore.DG>
-18.2352

> <Gold.Chemscore.ZeroCoef>
-5.4800

> <Gold.Chemscore.Hbond>
1.9522

> <Gold.Chemscore.Metal>
0.0000

> <Gold.Chemscore.Lipo>
87.2739

> <Gold.Chemscore.Internal_Hbond>
0.0000

> <Gold.Chemscore.DEClash>
0.2880

> <Gold.Chemscore.DEInternal>
0.6817

> <Gold.Chemscore.Rot>
1.5532

> <Gold.Chemscore.Internal.Correction>
   9.000000E+99

> <Gold.Chemscore.Hbonds>
donor molecule, donor type, donor heavy atom, donor atom, acceptor molecule, acceptor atom, score
      L1  H     4    44       P1  7948  0.91
      L1  H     8    31       P1 10175  1.00

> <Gold.Chemscore.Hbond.Weighted>
-6.5204

> <Gold.Chemscore.Metal.Weighted>
-0.0000

> <Gold.Chemscore.Lipo.Weighted>
-10.2110

> <Gold.Chemscore.Internal_Hbond.Weighted>
0.0000

> <Gold.Chemscore.DEClash.Weighted>
0.2880

> <Gold.Chemscore.DEInternal.Weighted>
0.6817

> <Gold.Chemscore.Rot.Weighted>
3.9762

> <Gold.Chemscore.Internal.Correction.Weighted>
   9.000000E+99

> <Gold.Protein.RotatedTorsions>
[ 6907 6896 6895 6894 ] final -166.65 input  -60.11 | X-H torsion
[ 7974 7965 7964 7962 ] final  -35.71 input  175.53 | X-H torsion
[ 8008 7997 7996 7995 ] final -160.16 input   59.86 | X-H torsion
[ 10167 10162 10161 10158 ] final  -69.92 input  -65.29 | X-H torsion
[ 10718 10713 10712 10709 ] final -171.50 input   66.30 | X-H torsion
[ 10763 10752 10751 10750 ] final    7.51 input  -60.55 | X-H torsion
[ 11005 11000 10999 10996 ] final  137.99 input  -57.11 | X-H torsion

> <Gold.Protein.ActiveResidues>
 VAL166  LYS551  ARG553  GLY616  TRP617  ASP618  TYR619  PRO620  LYS621  CYS622 
 ASP623  PHE694  ASN695  SER759  ASP760  ASP761  ALA762  ILE779  LEU786  VAL792 
 PHE793  MET794  SER795  GLU796  ALA797  LYS798  CYS799  TRP800  GLU811  SER814 

> <Gold.Protein.RotatedAtoms>
  151.4469  133.3628  159.2789 H   0  0  0  0  0  0  0  0  0  0  0  0  # atno 6907 bound_to 6896
  150.9118  134.8536  159.7441 H   0  0  0  0  0  0  0  0  0  0  0  0  # atno 6908 bound_to 6896
  152.4936  134.4400  159.9592 H   0  0  0  0  0  0  0  0  0  0  0  0  # atno 6909 bound_to 6896
  146.0723  140.6192  142.8947 H   0  0  0  0  0  0  0  0  0  0  0  0  # atno 7974 bound_to 7965
  155.7733  140.0855  157.2096 H   0  0  0  0  0  0  0  0  0  0  0  0  # atno 8008 bound_to 7997
  154.3995  140.1521  156.3025 H   0  0  0  0  0  0  0  0  0  0  0  0  # atno 8009 bound_to 7997
  155.8725  140.3425  155.5834 H   0  0  0  0  0  0  0  0  0  0  0  0  # atno 8010 bound_to 7997
  140.5393  143.2316  151.7118 H   0  0  0  0  0  0  0  0  0  0  0  0  # atno 10167 bound_to 10162
  156.7418  130.9345  151.3110 H   0  0  0  0  0  0  0  0  0  0  0  0  # atno 10718 bound_to 10713
  153.2355  135.6897  153.7841 H   0  0  0  0  0  0  0  0  0  0  0  0  # atno 10763 bound_to 10752
  153.6990  135.3300  155.3221 H   0  0  0  0  0  0  0  0  0  0  0  0  # atno 10764 bound_to 10752
  154.8333  135.4563  154.1257 H   0  0  0  0  0  0  0  0  0  0  0  0  # atno 10765 bound_to 10752
  140.0152  134.9421  157.0361 H   0  0  0  0  0  0  0  0  0  0  0  0  # atno 11005 bound_to 11000
  144.7239  140.4464  143.6987 LP  0  0  0  0  0  0  0  0  0  0  0  0  # atno 17320 bound_to 7965
  145.6369  139.1544  143.2937 LP  0  0  0  0  0  0  0  0  0  0  0  0  # atno 17321 bound_to 7965
  139.4983  144.3993  152.0198 LP  0  0  0  0  0  0  0  0  0  0  0  0  # atno 17342 bound_to 10162
  140.3101  144.3548  150.6036 LP  0  0  0  0  0  0  0  0  0  0  0  0  # atno 17343 bound_to 10162
  157.6815  130.9144  150.0279 LP  0  0  0  0  0  0  0  0  0  0  0  0  # atno 17370 bound_to 10713
  156.1460  130.3642  149.9510 LP  0  0  0  0  0  0  0  0  0  0  0  0  # atno 17371 bound_to 10713
  140.4484  134.1608  155.7179 LP  0  0  0  0  0  0  0  0  0  0  0  0  # atno 17394 bound_to 11000
  141.1738  133.8556  157.1487 LP  0  0  0  0  0  0  0  0  0  0  0  0  # atno 17395 bound_to 11000

$$$$
