#       Name:                AV-unprocessed.smi:3038
#       Creating user name   scv26
#       Creation time:       Fri Mar 27 16:56:43 2020


#       File generated by GOLD software.
#

@<TRIPOS>MOLECULE
AV-unprocessed.smi:3038
    42    44     1
SMALL
NO_CHARGES


@<TRIPOS>ATOM
      1 ****         1.3063   3.1181  -0.5497 O.2            1 S1                 0.0000
      2 ****         1.9671   2.2519   0.0234 C.2            1 S1                 0.0000
      3 ****         3.4842   2.3990   0.1326 C.3            1 S1                 0.0000
      4 ****         4.1380   1.8262  -1.0281 N.pl3          1 S1                 0.0000
      5 ****         4.4006   2.3429  -2.2301 C.2            1 S1                 0.0000
      6 ****         5.0081   1.4675  -3.0164 N.2            1 S1                 0.0000
      7 ****         5.1110   0.3428  -2.2146 N.2            1 S1                 0.0000
      8 ****         4.5955   0.5493  -1.0338 N.2            1 S1                 0.0000
      9 ****         1.4324   1.1462   0.5645 N.am           1 S1                 0.0000
     10 ****         0.0160   0.7961   0.5337 C.3            1 S1                 0.0000
     11 ****        -0.3324  -0.0985   1.7330 C.3            1 S1                 0.0000
     12 ****        -1.7893  -0.5871   1.6483 C.3            1 S1                 0.0000
     13 ****        -2.0017  -1.3285   0.4050 N.3            1 S1                 0.0000
     14 ****        -3.3721  -1.8130   0.3771 C.3            1 S1                 0.0000
     15 ****        -3.6587  -3.1376   1.0469 C.3            1 S1                 0.0000
     16 ****        -3.6643  -3.0378  -0.4594 C.3            1 S1                 0.0000
     17 ****        -1.7874  -0.4481  -0.7439 C.3            1 S1                 0.0000
     18 ****        -0.3329   0.0535  -0.7677 C.3            1 S1                 0.0000
     19 ****         3.7505   3.4547   0.1998 H              1 S1                 0.0000
     20 ****         3.8555   1.9142   1.0370 H              1 S1                 0.0000
     21 ****         4.1456   3.3496  -2.5268 H              1 S1                 0.0000
     22 ****         2.0545   0.4876   1.0110 H              1 S1                 0.0000
     23 ****        -0.5872   1.7039   0.5989 H              1 S1                 0.0000
     24 ****         0.3367  -0.9599   1.7659 H              1 S1                 0.0000
     25 ****        -0.1810   0.4480   2.6647 H              1 S1                 0.0000
     26 ****        -2.0056  -1.2343   2.4992 H              1 S1                 0.0000
     27 ****        -2.4772   0.2582   1.7063 H              1 S1                 0.0000
     28 ****        -4.1801  -1.0847   0.4275 H              1 S1                 0.0000
     29 ****        -2.8276  -3.6651   1.5112 H              1 S1                 0.0000
     30 ****        -4.6185  -3.2495   1.5469 H              1 S1                 0.0000
     31 ****        -4.6277  -3.0817  -0.9631 H              1 S1                 0.0000
     32 ****        -2.8370  -3.4997  -0.9950 H              1 S1                 0.0000
     33 ****        -1.9977  -0.9941  -1.6644 H              1 S1                 0.0000
     34 ****        -2.4784   0.3957  -0.7072 H              1 S1                 0.0000
     35 ****        -0.1848   0.7088  -1.6268 H              1 S1                 0.0000
     36 ****         0.3405  -0.7940  -0.9061 H              1 S1                 0.0000
     37 ****         1.7624   3.9164  -0.9429 LP             1 S1                 0.0000
     38 ****         0.3134   3.0234  -0.6220 LP             1 S1                 0.0000
     39 ****         5.3173   1.5889  -3.9596 LP             1 S1                 0.0000
     40 ****         5.5278  -0.5189  -2.5041 LP             1 S1                 0.0000
     41 ****         4.5471  -0.1061  -0.2800 LP             1 S1                 0.0000
     42 ****        -1.3593  -2.0935   0.3602 LP             1 S1                 0.0000
@<TRIPOS>BOND
    1    1    2 2     
    2    2    3 1     
    3    2    9 am    
    4    3    4 1     
    5    3   19 1     
    6    3   20 1     
    7    4    8 1     
    8    4    5 1     
    9    5    6 2     
   10    5   21 1     
   11    6    7 1     
   12    7    8 2     
   13    9   10 1     
   14    9   22 1     
   15   10   18 1     
   16   10   11 1     
   17   10   23 1     
   18   11   12 1     
   19   11   24 1     
   20   11   25 1     
   21   12   13 1     
   22   12   26 1     
   23   12   27 1     
   24   13   14 1     
   25   13   17 1     
   26   14   16 1     
   27   14   15 1     
   28   14   28 1     
   29   15   16 1     
   30   15   29 1     
   31   15   30 1     
   32   16   31 1     
   33   16   32 1     
   34   17   18 1     
   35   17   33 1     
   36   17   34 1     
   37   18   35 1     
   38   18   36 1     
   39    1   37 1     
   40    1   38 1     
   41    6   39 1     
   42    7   40 1     
   43    8   41 1     
   44   13   42 1     
@<TRIPOS>SUBSTRUCTURE
      1 S1             1
@<TRIPOS>SET
LONE_PAIRS      STATIC     ATOMS    <user>   **** ""
6 37 38 39 40 41 42
DONOR_HYDROGENS      STATIC     ATOMS    <user>   **** ""
1 22
ATOM$BLUE        STATIC     ATOMS    COLORGROUP SYSTEM
6 37 38 39 40 41 42
ATOM$RED        STATIC     ATOMS    COLORGROUP SYSTEM
1 22
