AV-unprocessed.smi:2510|AV-procd|sdf|9879|dock6
  -GOLD-   2272013513D 1   1.00000     0.00000
 Structure written by MMmdl.
 48 49  0  0  0  0  0  0  0  0  1 V2000
  149.4442  136.7067  155.6312 C   0  0  0  0  0  0  0  0  0  0  0  0
  150.0361  138.0152  156.1738 C   0  0  0  0  0  0  0  0  0  0  0  0
  150.1520  139.1701  155.1543 C   0  0  0  0  0  0  0  0  0  0  0  0
  150.9462  138.6419  153.9179 C   0  0  0  0  0  0  0  0  0  0  0  0
  152.4049  138.2237  154.1718 C   0  0  0  0  0  0  0  0  0  0  0  0
  148.7980  139.8803  154.8582 C   0  0  2  0  0  0  0  0  0  0  0  0
  148.1547  139.4880  153.6105 N   0  0  0  0  0  0  0  0  0  0  0  0
  147.0172  138.7815  153.5313 C   0  0  0  0  0  0  0  0  0  0  0  0
  146.3205  138.5031  154.5069 O   0  0  0  0  0  0  0  0  0  0  0  0
  146.6261  138.2828  152.1404 C   0  0  0  0  0  0  0  0  0  0  0  0
  145.5098  137.2915  152.2398 C   0  0  0  0  0  0  0  0  0  0  0  0
  145.4431  135.9697  151.8969 C   0  0  0  0  0  0  0  0  0  0  0  0
  144.1009  135.5945  152.1963 C   0  0  0  0  0  0  0  0  0  0  0  0
  143.4494  134.2567  152.0068 C   0  0  0  0  0  0  0  0  0  0  0  0
  143.3941  136.5985  152.6938 N   0  0  0  0  0  0  0  0  0  0  0  0
  144.2632  137.6256  152.7190 N   0  0  0  0  0  0  0  0  0  0  0  0
  149.5581  141.2068  154.7512 C   0  0  1  0  0  0  0  0  0  0  0  0
  148.8575  142.5119  155.1065 C   0  0  0  0  0  0  0  0  0  0  0  0
  150.5723  140.5614  155.7157 C   0  0  1  0  0  0  0  0  0  0  0  0
  150.2012  140.7137  157.0830 O   0  0  0  0  0  0  0  0  0  0  0  0
  150.5364  141.9836  157.6157 C   0  0  0  0  0  0  0  0  0  0  0  0
  143.9929  138.5388  153.0556 H   0  0  0  0  0  0  0  0  0  0  0  0
  149.5667  135.9036  156.3582 H   0  0  0  0  0  0  0  0  0  0  0  0
  149.9362  136.3943  154.7098 H   0  0  0  0  0  0  0  0  0  0  0  0
  148.3763  136.7992  155.4387 H   0  0  0  0  0  0  0  0  0  0  0  0
  149.4585  138.3316  157.0431 H   0  0  0  0  0  0  0  0  0  0  0  0
  151.0233  137.7833  156.5749 H   0  0  0  0  0  0  0  0  0  0  0  0
  150.4218  137.8011  153.4624 H   0  0  0  0  0  0  0  0  0  0  0  0
  150.9882  139.3897  153.1268 H   0  0  0  0  0  0  0  0  0  0  0  0
  152.8122  137.7210  153.2942 H   0  0  0  0  0  0  0  0  0  0  0  0
  152.5092  137.5446  155.0153 H   0  0  0  0  0  0  0  0  0  0  0  0
  153.0388  139.0896  154.3608 H   0  0  0  0  0  0  0  0  0  0  0  0
  148.1185  139.8789  155.7143 H   0  0  0  0  0  0  0  0  0  0  0  0
  148.6572  139.6801  152.7562 H   0  0  0  0  0  0  0  0  0  0  0  0
  146.3196  139.1266  151.5208 H   0  0  0  0  0  0  0  0  0  0  0  0
  147.4969  137.8366  151.6582 H   0  0  0  0  0  0  0  0  0  0  0  0
  146.2336  135.3639  151.4789 H   0  0  0  0  0  0  0  0  0  0  0  0
  144.1818  133.4981  151.7294 H   0  0  0  0  0  0  0  0  0  0  0  0
  142.6979  134.2964  151.2180 H   0  0  0  0  0  0  0  0  0  0  0  0
  142.9579  133.9231  152.9215 H   0  0  0  0  0  0  0  0  0  0  0  0
  150.0221  141.2929  153.7661 H   0  0  0  0  0  0  0  0  0  0  0  0
  148.3694  142.4541  156.0797 H   0  0  0  0  0  0  0  0  0  0  0  0
  148.0914  142.7575  154.3712 H   0  0  0  0  0  0  0  0  0  0  0  0
  149.5625  143.3426  155.1364 H   0  0  0  0  0  0  0  0  0  0  0  0
  151.6103  140.8348  155.5279 H   0  0  0  0  0  0  0  0  0  0  0  0
  150.1903  142.0498  158.6470 H   0  0  0  0  0  0  0  0  0  0  0  0
  150.0726  142.7929  157.0518 H   0  0  0  0  0  0  0  0  0  0  0  0
  151.6168  142.1331  157.6145 H   0  0  0  0  0  0  0  0  0  0  0  0
  1  2  1  0  0  0  0
  1 23  1  0  0  0  0
  1 24  1  0  0  0  0
  1 25  1  0  0  0  0
  2  3  1  0  0  0  0
  2 26  1  0  0  0  0
  2 27  1  0  0  0  0
  3 19  1  0  0  0  0
  3  4  1  0  0  0  0
  3  6  1  0  0  0  0
  4  5  1  0  0  0  0
  4 28  1  0  0  0  0
  4 29  1  0  0  0  0
  5 30  1  0  0  0  0
  5 31  1  0  0  0  0
  5 32  1  0  0  0  0
  6  7  1  0  0  0  0
  6 17  1  0  0  0  0
  6 33  1  0  0  0  0
  7  8  1  0  0  0  0
  7 34  1  0  0  0  0
  8  9  2  0  0  0  0
  8 10  1  0  0  0  0
 10 35  1  0  0  0  0
 10 36  1  0  0  0  0
 10 11  1  0  0  0  0
 11 16  1  0  0  0  0
 11 12  2  0  0  0  0
 12 13  1  0  0  0  0
 12 37  1  0  0  0  0
 13 14  1  0  0  0  0
 13 15  2  0  0  0  0
 14 38  1  0  0  0  0
 14 39  1  0  0  0  0
 14 40  1  0  0  0  0
 15 16  1  0  0  0  0
 16 22  1  0  0  0  0
 17 18  1  0  0  0  0
 17 19  1  0  0  0  0
 17 41  1  0  0  0  0
 18 42  1  0  0  0  0
 18 43  1  0  0  0  0
 18 44  1  0  0  0  0
 19 20  1  0  0  0  0
 19 45  1  0  0  0  0
 20 21  1  0  0  0  0
 21 46  1  0  0  0  0
 21 47  1  0  0  0  0
 21 48  1  0  0  0  0
M  END
> <s_m_source_file>
AV-unprocessed.smi

> <i_m_source_file_index>
2510

> <i_lp_mmshare_version>
43012

> <i_f3d_flags>
0

> <s_epik_input>
W0NIM11PW0NAQEhdMVtDQEhdKFtDSDNdKVtDQEBIXShDMShbQ0gyXVtDSDNdKVtDSDJdW0NIM10pW05IXUMoPU8pW0NIMl1jMltjSF1jKFtDSDNdKVtuSF1uMg==

> <s_epik_cmdline>
J2VwaWtfcHl0aG9uJywgJy1waCcsICc3LjAnLCAnLXRuJywgJzgnLCAnLW1hJywgJzIwMCcsICctbWV0YWxfYmluZGluZycsICctaW1hZScsICc8aW5maWxlLm1hZT4nLCAnLW9tYWUnLCAnPG91dGZpbGUubWFlPic=

> <r_lp_tautomer_probability>
0.5

> <r_epik_Ionization_Penalty>
0.000134763

> <r_epik_Ionization_Penalty_Charging>
0

> <r_epik_Ionization_Penalty_Neutral>
0.000134763

> <r_epik_State_Penalty>
0.41068

> <r_epik_Charging_Adjusted_Penalty>
0.41068

> <i_epik_Tot_Q>
0

> <i_epik_Tot_abs_Q>
0

> <r_epik_Metal_State_Penalty>
0.410661

> <b_epik_Metal_Only>
0

> <s_lp_Force_Field>
OPLS_2005

> <r_lp_Energy>
26.7648

> <b_lp_Chiralities_Consistent>
1

> <s_lp_Variant>
AV-unprocessed.smi:2510-10

> <Gold.Version>
5.8.1

> <Gold.Id.Protein>
6NUR|6NUR_protein|mol2

> <Gold.PLP.Fitness>
34.5609

> <Gold.PLP.PLP>
-29.0848

> <Gold.PLP.part.hbond>
-3.0000

> <Gold.PLP.part.metal>
0.0000

> <Gold.PLP.part.buried>
3.3825

> <Gold.PLP.part.nonpolar>
-29.8187

> <Gold.PLP.part.repulsive>
0.4133

> <Gold.PLP.ligand.clash>
0.0000

> <Gold.PLP.ligand.torsion>
0.6076

> <Gold.PLP.Chemscore.Hbond>
2.0000

> <Gold.PLP.Chemscore.CHOScore>
0.0000

> <Gold.PLP.Chemscore.Metal>
0.0000

> <Gold.Chemscore.Hbonds>
donor molecule, donor type, donor heavy atom, donor atom, acceptor molecule, acceptor atom, score
      L1  H     7    34       P1  7957  1.00
      L1  H    16    22       P1 10175  0.86

> <Gold.PLP.Chemscore.Internal.Correction>
0.6913

> <Gold.Rescore>
     Score         DG    S(hbond)    S(metal)    S(lipo)     H(rot)  DE(clash)    DE(int)     intcor
     15.43     -18.21       1.99        0.00      91.53       1.81       2.09       0.69       ----

> <Gold.Chemscore.Fitness>
15.4283

> <Gold.Chemscore.DG>
-18.2125

> <Gold.Chemscore.ZeroCoef>
-5.4800

> <Gold.Chemscore.Hbond>
1.9932

> <Gold.Chemscore.Metal>
0.0000

> <Gold.Chemscore.Lipo>
91.5316

> <Gold.Chemscore.Internal_Hbond>
0.0000

> <Gold.Chemscore.DEClash>
2.0933

> <Gold.Chemscore.DEInternal>
0.6909

> <Gold.Chemscore.Rot>
1.8102

> <Gold.Chemscore.Internal.Correction>
   9.000000E+99

> <Gold.Chemscore.Hbonds>
donor molecule, donor type, donor heavy atom, donor atom, acceptor molecule, acceptor atom, score
      L1  H     7    34       P1  7957  1.00
      L1  H    16    22       P1 10175  0.80

> <Gold.Chemscore.Hbond.Weighted>
-6.6574

> <Gold.Chemscore.Metal.Weighted>
-0.0000

> <Gold.Chemscore.Lipo.Weighted>
-10.7092

> <Gold.Chemscore.Internal_Hbond.Weighted>
0.0000

> <Gold.Chemscore.DEClash.Weighted>
2.0933

> <Gold.Chemscore.DEInternal.Weighted>
0.6909

> <Gold.Chemscore.Rot.Weighted>
4.6341

> <Gold.Chemscore.Internal.Correction.Weighted>
   9.000000E+99

> <Gold.Protein.RotatedTorsions>
[ 6907 6896 6895 6894 ] final  154.23 input  -60.11 | X-H torsion
[ 7974 7965 7964 7962 ] final  -78.77 input  175.53 | X-H torsion
[ 8008 7997 7996 7995 ] final  -89.04 input   59.86 | X-H torsion
[ 10167 10162 10161 10158 ] final  -13.83 input  -65.29 | X-H torsion
[ 10718 10713 10712 10709 ] final -163.09 input   66.30 | X-H torsion
[ 10763 10752 10751 10750 ] final  -45.43 input  -60.55 | X-H torsion
[ 11005 11000 10999 10996 ] final  122.08 input  -57.11 | X-H torsion

> <Gold.Protein.ActiveResidues>
 VAL166  LYS551  ARG553  GLY616  TRP617  ASP618  TYR619  PRO620  LYS621  CYS622 
 ASP623  PHE694  ASN695  SER759  ASP760  ASP761  ALA762  ILE779  LEU786  VAL792 
 PHE793  MET794  SER795  GLU796  ALA797  LYS798  CYS799  TRP800  GLU811  SER814 

> <Gold.Protein.RotatedAtoms>
  152.0614  133.4064  159.4419 H   0  0  0  0  0  0  0  0  0  0  0  0  # atno 6907 bound_to 6896
  150.6866  134.3195  159.4790 H   0  0  0  0  0  0  0  0  0  0  0  0  # atno 6908 bound_to 6896
  152.1017  134.9336  160.0620 H   0  0  0  0  0  0  0  0  0  0  0  0  # atno 6909 bound_to 6896
  145.5821  140.9446  143.1338 H   0  0  0  0  0  0  0  0  0  0  0  0  # atno 7974 bound_to 7965
  154.6818  140.0546  157.0274 H   0  0  0  0  0  0  0  0  0  0  0  0  # atno 8008 bound_to 7997
  155.0940  140.3222  155.4547 H   0  0  0  0  0  0  0  0  0  0  0  0  # atno 8009 bound_to 7997
  156.2697  140.2043  156.6067 H   0  0  0  0  0  0  0  0  0  0  0  0  # atno 8010 bound_to 7997
  140.7190  143.5385  150.9436 H   0  0  0  0  0  0  0  0  0  0  0  0  # atno 10167 bound_to 10162
  156.6198  130.8885  151.2955 H   0  0  0  0  0  0  0  0  0  0  0  0  # atno 10718 bound_to 10713
  154.0283  135.6660  153.4778 H   0  0  0  0  0  0  0  0  0  0  0  0  # atno 10763 bound_to 10752
  153.0551  135.5061  154.7957 H   0  0  0  0  0  0  0  0  0  0  0  0  # atno 10764 bound_to 10752
  154.6894  135.3058  154.9466 H   0  0  0  0  0  0  0  0  0  0  0  0  # atno 10765 bound_to 10752
  139.9253  134.9640  156.8055 H   0  0  0  0  0  0  0  0  0  0  0  0  # atno 11005 bound_to 11000
  144.7389  139.7505  143.7318 LP  0  0  0  0  0  0  0  0  0  0  0  0  # atno 17320 bound_to 7965
  146.1709  139.4859  142.9928 LP  0  0  0  0  0  0  0  0  0  0  0  0  # atno 17321 bound_to 7965
  139.9107  143.6723  152.3115 LP  0  0  0  0  0  0  0  0  0  0  0  0  # atno 17342 bound_to 10162
  139.7105  144.7621  151.1119 LP  0  0  0  0  0  0  0  0  0  0  0  0  # atno 17343 bound_to 10162
  157.7231  130.9585  150.1520 LP  0  0  0  0  0  0  0  0  0  0  0  0  # atno 17370 bound_to 10713
  156.2321  130.3683  149.8433 LP  0  0  0  0  0  0  0  0  0  0  0  0  # atno 17371 bound_to 10713
  140.6355  133.9867  155.7682 LP  0  0  0  0  0  0  0  0  0  0  0  0  # atno 17394 bound_to 11000
  141.0806  134.0069  157.3392 LP  0  0  0  0  0  0  0  0  0  0  0  0  # atno 17395 bound_to 11000

$$$$
