AV-unprocessed.smi:1661|AV-procd|sdf|6655|dock1
  -GOLD-   22720 7363D 1   1.00000     0.00000
 Structure written by MMmdl.
 37 38  0  0  0  0  0  0  0  0  3 V2000
  145.0593  132.4051  149.4708 C   0  0  0  0  0  0  0  0  0  0  0  0
  145.1755  133.0509  150.8586 C   0  0  2  0  0  0  0  0  0  0  0  0
  145.0828  134.5840  150.7830 C   0  0  0  0  0  0  0  0  0  0  0  0
  145.2332  135.2224  152.1743 C   0  0  0  0  0  0  0  0  0  0  0  0
  146.5076  134.8140  152.8200 N   0  3  1  0  0  0  0  0  0  0  0  0
  146.7363  135.5212  154.1049 C   0  0  0  0  0  0  0  0  0  0  0  0
  147.9751  134.9979  154.8479 C   0  0  0  0  0  0  0  0  0  0  0  0
  149.1690  135.7009  154.4005 N   0  0  0  0  0  0  0  0  0  0  0  0
  150.3284  135.7493  155.0687 C   0  0  0  0  0  0  0  0  0  0  0  0
  150.4380  135.1653  156.1492 O   0  0  0  0  0  0  0  0  0  0  0  0
  151.2862  136.4697  154.4432 N   0  5  0  0  0  0  0  0  0  0  0  0
  151.4991  137.7495  154.7920 C   0  0  0  0  0  0  0  0  0  0  0  0
  150.7229  138.7523  154.3502 N   0  0  0  0  0  0  0  0  0  0  0  0
  151.1162  139.9966  154.8238 N   0  0  0  0  0  0  0  0  0  0  0  0
  152.1892  139.9006  155.6088 C   0  0  0  0  0  0  0  0  0  0  0  0
  152.8190  138.2827  155.8371 S   0  0  0  0  0  0  0  0  0  0  0  0
  146.6070  133.3347  152.9379 C   0  0  0  0  0  0  0  0  0  0  0  0
  146.4856  132.6583  151.5619 C   0  0  0  0  0  0  0  0  0  0  0  0
  145.8669  132.7277  148.8128 H   0  0  0  0  0  0  0  0  0  0  0  0
  144.1153  132.6691  148.9931 H   0  0  0  0  0  0  0  0  0  0  0  0
  145.1001  131.3176  149.5394 H   0  0  0  0  0  0  0  0  0  0  0  0
  144.3427  132.6888  151.4635 H   0  0  0  0  0  0  0  0  0  0  0  0
  145.8585  134.9704  150.1200 H   0  0  0  0  0  0  0  0  0  0  0  0
  144.1282  134.8796  150.3458 H   0  0  0  0  0  0  0  0  0  0  0  0
  145.2026  136.3077  152.0714 H   0  0  0  0  0  0  0  0  0  0  0  0
  144.3939  134.9402  152.8121 H   0  0  0  0  0  0  0  0  0  0  0  0
  146.8879  136.5836  153.9077 H   0  0  0  0  0  0  0  0  0  0  0  0
  145.8463  135.4479  154.7319 H   0  0  0  0  0  0  0  0  0  0  0  0
  147.8759  135.1364  155.9244 H   0  0  0  0  0  0  0  0  0  0  0  0
  148.0972  133.9286  154.6674 H   0  0  0  0  0  0  0  0  0  0  0  0
  149.1173  136.1925  153.5201 H   0  0  0  0  0  0  0  0  0  0  0  0
  152.6145  140.7880  156.0529 H   0  0  0  0  0  0  0  0  0  0  0  0
  147.5595  133.0507  153.3834 H   0  0  0  0  0  0  0  0  0  0  0  0
  145.8257  132.9681  153.6057 H   0  0  0  0  0  0  0  0  0  0  0  0
  146.5351  131.5753  151.6808 H   0  0  0  0  0  0  0  0  0  0  0  0
  147.3385  132.9398  150.9422 H   0  0  0  0  0  0  0  0  0  0  0  0
  147.2456  135.1115  152.1978 H   0  0  0  0  0  0  0  0  0  0  0  0
  1  2  1  0  0  0  0
  1 19  1  0  0  0  0
  1 20  1  0  0  0  0
  1 21  1  0  0  0  0
  2 18  1  0  0  0  0
  2  3  1  0  0  0  0
  2 22  1  0  0  0  0
  3  4  1  0  0  0  0
  3 23  1  0  0  0  0
  3 24  1  0  0  0  0
  4  5  1  0  0  0  0
  4 25  1  0  0  0  0
  4 26  1  0  0  0  0
  5  6  1  0  0  0  0
  5 17  1  0  0  0  0
  5 37  1  0  0  0  0
  6  7  1  0  0  0  0
  6 27  1  0  0  0  0
  6 28  1  0  0  0  0
  7  8  1  0  0  0  0
  7 29  1  0  0  0  0
  7 30  1  0  0  0  0
  8  9  1  0  0  0  0
  8 31  1  0  0  0  0
  9 10  2  0  0  0  0
  9 11  1  0  0  0  0
 11 12  1  0  0  0  0
 12 16  1  0  0  0  0
 12 13  2  0  0  0  0
 13 14  1  0  0  0  0
 14 15  2  0  0  0  0
 15 16  1  0  0  0  0
 15 32  1  0  0  0  0
 17 18  1  0  0  0  0
 17 33  1  0  0  0  0
 17 34  1  0  0  0  0
 18 35  1  0  0  0  0
 18 36  1  0  0  0  0
M  CHG  1   5   1
M  CHG  1  11  -1
M  END
> <s_m_source_file>
AV-unprocessed.smi

> <i_m_source_file_index>
1661

> <i_lp_mmshare_version>
43012

> <i_f3d_flags>
0

> <s_epik_input>
W0NIM11bQ0hdMVtDSDJdW0NIMl1OKFtDSDJdW0NIMl0xKVtDSDJdW0NIMl1bTkhdQyg9TylbTkhdYzJubltjSF1zMg==

> <s_epik_cmdline>
J2VwaWtfcHl0aG9uJywgJy1waCcsICc3LjAnLCAnLXRuJywgJzgnLCAnLW1hJywgJzIwMCcsICctbWV0YWxfYmluZGluZycsICctaW1hZScsICc8aW5maWxlLm1hZT4nLCAnLW9tYWUnLCAnPG91dGZpbGUubWFlPic=

> <r_lp_tautomer_probability>
1

> <r_epik_Ionization_Penalty>
3.04466

> <r_epik_Ionization_Penalty_Charging>
3.01305

> <r_epik_Ionization_Penalty_Neutral>
0.0316037

> <r_epik_State_Penalty>
3.00821

> <r_epik_Charging_Adjusted_Penalty>
6.02127

> <i_epik_Tot_Q>
0

> <i_epik_Tot_abs_Q>
2

> <r_epik_Metal_State_Penalty>
0.454395

> <b_epik_Metal_Only>
1

> <s_lp_Force_Field>
OPLS_2005

> <r_lp_Energy>
9.82396

> <b_lp_Chiralities_Consistent>
1

> <s_lp_Variant>
AV-unprocessed.smi:1661-3

> <Gold.Version>
5.8.1

> <Gold.Id.Protein>
6NUR|6NUR_protein|mol2

> <Gold.PLP.Fitness>
43.5592

> <Gold.PLP.PLP>
-29.0803

> <Gold.PLP.part.hbond>
-4.0000

> <Gold.PLP.part.metal>
0.0000

> <Gold.PLP.part.buried>
-3.5873

> <Gold.PLP.part.nonpolar>
-21.2708

> <Gold.PLP.part.repulsive>
1.3854

> <Gold.PLP.ligand.clash>
0.0000

> <Gold.PLP.ligand.torsion>
1.8036

> <Gold.PLP.Chemscore.Hbond>
6.0000

> <Gold.PLP.Chemscore.CHOScore>
0.0000

> <Gold.PLP.Chemscore.Metal>
0.0000

> <Gold.Chemscore.Hbonds>
donor molecule, donor type, donor heavy atom, donor atom, acceptor molecule, acceptor atom, score
      L1  H     5    37       P1  7948  1.98
      L1  H     8    31       P1  7948  1.00
      P1  H  7989  7998       L1    14  1.00
      P1  H 10752 10764       L1    11  2.00

> <Gold.PLP.Chemscore.Internal.Correction>
0.0862

> <Gold.Rescore>
     Score         DG    S(hbond)    S(metal)    S(lipo)     H(rot)  DE(clash)    DE(int)     intcor
     14.69     -16.56       2.69        0.00      54.65       1.68       0.07       1.80       ----

> <Gold.Chemscore.Fitness>
14.6852

> <Gold.Chemscore.DG>
-16.5572

> <Gold.Chemscore.ZeroCoef>
-5.4800

> <Gold.Chemscore.Hbond>
2.6882

> <Gold.Chemscore.Metal>
0.0000

> <Gold.Chemscore.Lipo>
54.6461

> <Gold.Chemscore.Internal_Hbond>
0.0000

> <Gold.Chemscore.DEClash>
0.0718

> <Gold.Chemscore.DEInternal>
1.8002

> <Gold.Chemscore.Rot>
1.6777

> <Gold.Chemscore.Internal.Correction>
   9.000000E+99

> <Gold.Chemscore.Hbonds>
donor molecule, donor type, donor heavy atom, donor atom, acceptor molecule, acceptor atom, score
      L1  H     5    37       P1  7948  0.87
      L1  H     8    31       P1  7948  0.90
      P1  H  7989  7998       L1    14  0.30
      P1  H 10752 10764       L1    11  0.35

> <Gold.Chemscore.Hbond.Weighted>
-8.9786

> <Gold.Chemscore.Metal.Weighted>
-0.0000

> <Gold.Chemscore.Lipo.Weighted>
-6.3936

> <Gold.Chemscore.Internal_Hbond.Weighted>
0.0000

> <Gold.Chemscore.DEClash.Weighted>
0.0718

> <Gold.Chemscore.DEInternal.Weighted>
1.8002

> <Gold.Chemscore.Rot.Weighted>
4.2950

> <Gold.Chemscore.Internal.Correction.Weighted>
   9.000000E+99

> <Gold.Protein.RotatedTorsions>
[ 6907 6896 6895 6894 ] final   62.11 input  -60.11 | X-H torsion
[ 7974 7965 7964 7962 ] final  -18.55 input  175.53 | X-H torsion
[ 8008 7997 7996 7995 ] final -141.47 input   59.86 | X-H torsion
[ 10167 10162 10161 10158 ] final   12.56 input  -65.29 | X-H torsion
[ 10718 10713 10712 10709 ] final   84.63 input   66.30 | X-H torsion
[ 10763 10752 10751 10750 ] final  -53.79 input  -60.55 | X-H torsion
[ 11005 11000 10999 10996 ] final  -94.62 input  -57.11 | X-H torsion

> <Gold.Protein.ActiveResidues>
 VAL166  LYS551  ARG553  GLY616  TRP617  ASP618  TYR619  PRO620  LYS621  CYS622 
 ASP623  PHE694  ASN695  SER759  ASP760  ASP761  ALA762  ILE779  LEU786  VAL792 
 PHE793  MET794  SER795  GLU796  ALA797  LYS798  CYS799  TRP800  GLU811  SER814 

> <Gold.Protein.RotatedAtoms>
  152.4145  134.6066  160.0014 H   0  0  0  0  0  0  0  0  0  0  0  0  # atno 6907 bound_to 6896
  151.6234  133.3332  159.3101 H   0  0  0  0  0  0  0  0  0  0  0  0  # atno 6908 bound_to 6896
  150.8034  134.7182  159.6688 H   0  0  0  0  0  0  0  0  0  0  0  0  # atno 6909 bound_to 6896
  146.1886  140.3937  142.8466 H   0  0  0  0  0  0  0  0  0  0  0  0  # atno 7974 bound_to 7965
  155.4784  140.0558  157.2970 H   0  0  0  0  0  0  0  0  0  0  0  0  # atno 8008 bound_to 7997
  154.4670  140.2023  156.0045 H   0  0  0  0  0  0  0  0  0  0  0  0  # atno 8009 bound_to 7997
  156.0992  140.3222  155.7923 H   0  0  0  0  0  0  0  0  0  0  0  0  # atno 8010 bound_to 7997
  140.6060  143.8507  150.7014 H   0  0  0  0  0  0  0  0  0  0  0  0  # atno 10167 bound_to 10162
  157.6901  131.0141  150.2701 H   0  0  0  0  0  0  0  0  0  0  0  0  # atno 10718 bound_to 10713
  154.1645  135.6469  153.4994 H   0  0  0  0  0  0  0  0  0  0  0  0  # atno 10763 bound_to 10752
  153.0101  135.5368  154.6677 H   0  0  0  0  0  0  0  0  0  0  0  0  # atno 10764 bound_to 10752
  154.5999  135.2942  155.0518 H   0  0  0  0  0  0  0  0  0  0  0  0  # atno 10765 bound_to 10752
  141.1465  133.7969  157.0323 H   0  0  0  0  0  0  0  0  0  0  0  0  # atno 11005 bound_to 11000
  144.8444  140.6907  143.6208 LP  0  0  0  0  0  0  0  0  0  0  0  0  # atno 17320 bound_to 7965
  145.3861  139.1626  143.4254 LP  0  0  0  0  0  0  0  0  0  0  0  0  # atno 17321 bound_to 7965
  140.2064  143.3918  152.1752 LP  0  0  0  0  0  0  0  0  0  0  0  0  # atno 17342 bound_to 10162
  139.5325  144.7175  151.5006 LP  0  0  0  0  0  0  0  0  0  0  0  0  # atno 17343 bound_to 10162
  156.3265  130.3794  149.7528 LP  0  0  0  0  0  0  0  0  0  0  0  0  # atno 17370 bound_to 10713
  156.5082  130.8160  151.3158 LP  0  0  0  0  0  0  0  0  0  0  0  0  # atno 17371 bound_to 10713
  140.0746  134.9683  157.1524 LP  0  0  0  0  0  0  0  0  0  0  0  0  # atno 17394 bound_to 11000
  140.3662  134.2440  155.7182 LP  0  0  0  0  0  0  0  0  0  0  0  0  # atno 17395 bound_to 11000

$$$$
