#       Name:                AV-unprocessed.smi:1101
#       Creating user name   scv26
#       Creation time:       Fri Mar 27 03:30:28 2020


#       File generated by GOLD software.
#

@<TRIPOS>MOLECULE
AV-unprocessed.smi:1101
    46    47     1
SMALL
NO_CHARGES


@<TRIPOS>ATOM
      1 ****        -4.2198  -2.1286   0.1178 C.3            1 S1                 0.0000
      2 ****        -3.1307  -1.1461   0.5662 C.3            1 S1                 0.0000
      3 ****        -2.4895  -0.3862  -0.6056 C.3            1 S1                 0.0000
      4 ****        -1.3208   0.5098  -0.1453 C.3            1 S1                 0.0000
      5 ****        -0.7966   1.2237  -1.3190 N.am           1 S1                 0.0000
      6 ****         0.3912   1.0074  -1.9368 C.2            1 S1                 0.0000
      7 ****         0.6966   1.5182  -3.0153 O.2            1 S1                 0.0000
      8 ****         1.2355   0.2140  -1.2603 N.am           1 S1                 0.0000
      9 ****         2.5867  -0.1278  -1.6859 C.3            1 S1                 0.0000
     10 ****         3.2949  -1.0031  -0.6390 C.3            1 S1                 0.0000
     11 ****         3.2873  -0.3809   0.7327 C.2            1 S1                 0.0000
     12 ****         4.0314   0.7460   1.1849 C.2            1 S1                 0.0000
     13 ****         3.7871   1.0505   2.4490 N.2            1 S1                 0.0000
     14 ****         2.8835   0.1317   2.8471 N.pl3          1 S1                 0.0000
     15 ****         2.3822   0.1665   4.2043 C.3            1 S1                 0.0000
     16 ****         2.5648  -0.7463   1.8337 C.2            1 S1                 0.0000
     17 ****        -1.8382   2.0778  -1.8936 C.3            1 S1                 0.0000
     18 ****        -3.0082   1.1803  -2.3321 C.3            1 S1                 0.0000
     19 ****        -3.4858   0.4382  -1.2121 O.3            1 S1                 0.0000
     20 ****        -4.6431  -2.6547   0.9736 H              1 S1                 0.0000
     21 ****        -3.8189  -2.8758  -0.5672 H              1 S1                 0.0000
     22 ****        -5.0350  -1.6118  -0.3891 H              1 S1                 0.0000
     23 ****        -3.5510  -0.4362   1.2794 H              1 S1                 0.0000
     24 ****        -2.3601  -1.7005   1.1029 H              1 S1                 0.0000
     25 ****        -2.1251  -1.1083  -1.3390 H              1 S1                 0.0000
     26 ****        -1.6712   1.2376   0.5882 H              1 S1                 0.0000
     27 ****        -0.5754  -0.0921   0.3746 H              1 S1                 0.0000
     28 ****         0.9270  -0.1619  -0.3755 H              1 S1                 0.0000
     29 ****         2.5512  -0.6455  -2.6456 H              1 S1                 0.0000
     30 ****         3.1529   0.7924  -1.8392 H              1 S1                 0.0000
     31 ****         2.8127  -1.9811  -0.6144 H              1 S1                 0.0000
     32 ****         4.3174  -1.1907  -0.9681 H              1 S1                 0.0000
     33 ****         4.7344   1.3512   0.6316 H              1 S1                 0.0000
     34 ****         1.6133  -0.5950   4.3390 H              1 S1                 0.0000
     35 ****         1.9512   1.1459   4.4144 H              1 S1                 0.0000
     36 ****         3.1975  -0.0245   4.9031 H              1 S1                 0.0000
     37 ****         1.8542  -1.5473   1.9757 H              1 S1                 0.0000
     38 ****        -2.1743   2.7953  -1.1437 H              1 S1                 0.0000
     39 ****        -1.4840   2.6698  -2.7386 H              1 S1                 0.0000
     40 ****        -3.8230   1.7872  -2.7274 H              1 S1                 0.0000
     41 ****        -2.7006   0.4992  -3.1272 H              1 S1                 0.0000
     42 ****         0.0538   2.1273  -3.4799 LP             1 S1                 0.0000
     43 ****         1.5872   1.3238  -3.4262 LP             1 S1                 0.0000
     44 ****         4.1830   1.7941   2.9878 LP             1 S1                 0.0000
     45 ****        -3.8231   1.0830  -0.5261 LP             1 S1                 0.0000
     46 ****        -4.2372  -0.1467  -1.5175 LP             1 S1                 0.0000
@<TRIPOS>BOND
    1    1    2 1     
    2    1   20 1     
    3    1   21 1     
    4    1   22 1     
    5    2    3 1     
    6    2   23 1     
    7    2   24 1     
    8    3   19 1     
    9    3    4 1     
   10    3   25 1     
   11    4    5 1     
   12    4   26 1     
   13    4   27 1     
   14    5    6 am    
   15    5   17 1     
   16    6    7 2     
   17    6    8 am    
   18    8    9 1     
   19    8   28 1     
   20    9   10 1     
   21    9   29 1     
   22    9   30 1     
   23   10   11 1     
   24   10   31 1     
   25   10   32 1     
   26   11   16 2     
   27   11   12 1     
   28   12   13 2     
   29   12   33 1     
   30   13   14 1     
   31   14   15 1     
   32   14   16 1     
   33   15   34 1     
   34   15   35 1     
   35   15   36 1     
   36   16   37 1     
   37   17   18 1     
   38   17   38 1     
   39   17   39 1     
   40   18   19 1     
   41   18   40 1     
   42   18   41 1     
   43    7   42 1     
   44    7   43 1     
   45   13   44 1     
   46   19   45 1     
   47   19   46 1     
@<TRIPOS>SUBSTRUCTURE
      1 S1             1
@<TRIPOS>SET
LONE_PAIRS      STATIC     ATOMS    <user>   **** ""
5 42 43 44 45 46
DONOR_HYDROGENS      STATIC     ATOMS    <user>   **** ""
1 28
ATOM$BLUE        STATIC     ATOMS    COLORGROUP SYSTEM
5 42 43 44 45 46
ATOM$RED        STATIC     ATOMS    COLORGROUP SYSTEM
1 28
