AV-unprocessed.smi:1696|AV-procd|sdf|6801|dock9
  -GOLD-   22720 7573D 1   1.00000     0.00000
 Structure written by MMmdl.
 38 39  0  0  0  0  0  0  0  0  3 V2000
  152.4670  138.5031  155.4072 C   0  0  0  0  0  0  0  0  0  0  0  0
  151.3076  138.1413  154.4651 C   0  0  0  0  0  0  0  0  0  0  0  0
  149.9598  137.8400  155.1757 C   0  0  2  0  0  0  0  0  0  0  0  0
  149.9428  136.4346  155.8365 C   0  0  0  0  0  0  0  0  0  0  0  0
  150.0225  136.4942  157.2924 N   0  0  0  0  0  0  0  0  0  0  0  0
  149.1583  135.9253  158.1444 C   0  0  0  0  0  0  0  0  0  0  0  0
  148.2063  135.2732  157.7093 O   0  0  0  0  0  0  0  0  0  0  0  0
  149.4473  136.1539  159.4446 N   0  5  0  0  0  0  0  0  0  0  0  0
  148.5730  135.7965  160.3992 C   0  0  0  0  0  0  0  0  0  0  0  0
  148.3025  136.5597  161.4642 N   0  0  0  0  0  0  0  0  0  0  0  0
  147.3597  135.9961  162.3260 C   0  0  0  0  0  0  0  0  0  0  0  0
  146.8950  134.7793  161.9024 C   0  0  0  0  0  0  0  0  0  0  0  0
  147.6327  134.3017  160.4000 S   0  0  0  0  0  0  0  0  0  0  0  0
  148.7917  138.0205  154.2649 N   0  3  0  0  0  0  0  0  0  0  0  0
  147.4796  137.6143  154.8301 C   0  0  0  0  0  0  0  0  0  0  0  0
  146.4260  138.5918  154.2896 C   0  0  0  0  0  0  0  0  0  0  0  0
  147.1592  139.4203  153.2407 C   0  0  0  0  0  0  0  0  0  0  0  0
  148.6060  139.3822  153.7180 C   0  0  0  0  0  0  0  0  0  0  0  0
  153.3847  138.6616  154.8404 H   0  0  0  0  0  0  0  0  0  0  0  0
  152.6604  137.7111  156.1305 H   0  0  0  0  0  0  0  0  0  0  0  0
  152.2650  139.4216  155.9581 H   0  0  0  0  0  0  0  0  0  0  0  0
  151.1713  138.9582  153.7561 H   0  0  0  0  0  0  0  0  0  0  0  0
  151.6036  137.2950  153.8456 H   0  0  0  0  0  0  0  0  0  0  0  0
  149.8492  138.5829  155.9673 H   0  0  0  0  0  0  0  0  0  0  0  0
  149.0444  135.8771  155.5697 H   0  0  0  0  0  0  0  0  0  0  0  0
  150.7793  135.8359  155.4766 H   0  0  0  0  0  0  0  0  0  0  0  0
  150.7909  137.0145  157.6900 H   0  0  0  0  0  0  0  0  0  0  0  0
  147.0764  136.5327  163.2192 H   0  0  0  0  0  0  0  0  0  0  0  0
  146.1680  134.1386  162.3782 H   0  0  0  0  0  0  0  0  0  0  0  0
  147.2599  136.5875  154.5360 H   0  0  0  0  0  0  0  0  0  0  0  0
  147.4844  137.6546  155.9206 H   0  0  0  0  0  0  0  0  0  0  0  0
  145.5544  138.0818  153.8777 H   0  0  0  0  0  0  0  0  0  0  0  0
  146.0793  139.2403  155.0954 H   0  0  0  0  0  0  0  0  0  0  0  0
  147.0791  138.9389  152.2651 H   0  0  0  0  0  0  0  0  0  0  0  0
  146.7685  140.4344  153.1499 H   0  0  0  0  0  0  0  0  0  0  0  0
  148.7533  140.1204  154.5083 H   0  0  0  0  0  0  0  0  0  0  0  0
  149.3048  139.6008  152.9102 H   0  0  0  0  0  0  0  0  0  0  0  0
  148.9479  137.4227  153.4662 H   0  0  0  0  0  0  0  0  0  0  0  0
  1  2  1  0  0  0  0
  1 19  1  0  0  0  0
  1 20  1  0  0  0  0
  1 21  1  0  0  0  0
  2  3  1  0  0  0  0
  2 22  1  0  0  0  0
  2 23  1  0  0  0  0
  3  4  1  0  0  0  0
  3 14  1  0  0  0  0
  3 24  1  0  0  0  0
  4  5  1  0  0  0  0
  4 25  1  0  0  0  0
  4 26  1  0  0  0  0
  5  6  1  0  0  0  0
  5 27  1  0  0  0  0
  6  7  2  0  0  0  0
  6  8  1  0  0  0  0
  8  9  1  0  0  0  0
  9 13  1  0  0  0  0
  9 10  2  0  0  0  0
 10 11  1  0  0  0  0
 11 12  2  0  0  0  0
 11 28  1  0  0  0  0
 12 13  1  0  0  0  0
 12 29  1  0  0  0  0
 14 18  1  0  0  0  0
 14 15  1  0  0  0  0
 14 38  1  0  0  0  0
 15 16  1  0  0  0  0
 15 30  1  0  0  0  0
 15 31  1  0  0  0  0
 16 17  1  0  0  0  0
 16 32  1  0  0  0  0
 16 33  1  0  0  0  0
 17 18  1  0  0  0  0
 17 34  1  0  0  0  0
 17 35  1  0  0  0  0
 18 36  1  0  0  0  0
 18 37  1  0  0  0  0
M  CHG  1   8  -1
M  CHG  1  14   1
M  END
> <s_m_source_file>
AV-unprocessed.smi

> <i_m_source_file_index>
1696

> <i_lp_mmshare_version>
43012

> <i_f3d_flags>
0

> <s_epik_input>
W0NIMl0xW0NIMl1bQ0gyXVtDSDJdTjFbQ0BIXShbQ0gyXVtDSDNdKVtDSDJdW05IXUMoPU8pW05IXWMybltjSF1bY0hdczI=

> <s_epik_cmdline>
J2VwaWtfcHl0aG9uJywgJy1waCcsICc3LjAnLCAnLXRuJywgJzgnLCAnLW1hJywgJzIwMCcsICctbWV0YWxfYmluZGluZycsICctaW1hZScsICc8aW5maWxlLm1hZT4nLCAnLW9tYWUnLCAnPG91dGZpbGUubWFlPic=

> <r_lp_tautomer_probability>
1

> <r_epik_Ionization_Penalty>
7.71903

> <r_epik_Ionization_Penalty_Charging>
6.3282

> <r_epik_Ionization_Penalty_Neutral>
1.39083

> <r_epik_State_Penalty>
6.32705

> <r_epik_Charging_Adjusted_Penalty>
12.6552

> <i_epik_Tot_Q>
0

> <i_epik_Tot_abs_Q>
2

> <r_epik_Metal_State_Penalty>
2.26116

> <b_epik_Metal_Only>
1

> <s_lp_Force_Field>
OPLS_2005

> <r_lp_Energy>
21.91

> <b_lp_Chiralities_Consistent>
1

> <s_lp_Variant>
AV-unprocessed.smi:1696-3

> <Gold.Version>
5.8.1

> <Gold.Id.Protein>
6NUR|6NUR_protein|mol2

> <Gold.PLP.Fitness>
40.1272

> <Gold.PLP.PLP>
-27.5619

> <Gold.PLP.part.hbond>
-3.1214

> <Gold.PLP.part.metal>
0.0000

> <Gold.PLP.part.buried>
-2.7196

> <Gold.PLP.part.nonpolar>
-22.3988

> <Gold.PLP.part.repulsive>
0.0583

> <Gold.PLP.ligand.clash>
0.0000

> <Gold.PLP.ligand.torsion>
1.2925

> <Gold.PLP.Chemscore.Hbond>
5.0000

> <Gold.PLP.Chemscore.CHOScore>
0.0000

> <Gold.PLP.Chemscore.Metal>
0.0000

> <Gold.Chemscore.Hbonds>
donor molecule, donor type, donor heavy atom, donor atom, acceptor molecule, acceptor atom, score
      L1  H    14    38       P1  7948  2.00
      P1  H  6896  6909       L1     8  2.00
      P1  H  6931  6943       L1    10  1.00

> <Gold.PLP.Chemscore.Internal.Correction>
0.1503

> <Gold.Rescore>
     Score         DG    S(hbond)    S(metal)    S(lipo)     H(rot)  DE(clash)    DE(int)     intcor
     12.92     -15.70       2.22        0.00      61.75       1.73       0.06       2.73       ----

> <Gold.Chemscore.Fitness>
12.9177

> <Gold.Chemscore.DG>
-15.7039

> <Gold.Chemscore.ZeroCoef>
-5.4800

> <Gold.Chemscore.Hbond>
2.2218

> <Gold.Chemscore.Metal>
0.0000

> <Gold.Chemscore.Lipo>
61.7467

> <Gold.Chemscore.Internal_Hbond>
0.0000

> <Gold.Chemscore.DEClash>
0.0580

> <Gold.Chemscore.DEInternal>
2.7283

> <Gold.Chemscore.Rot>
1.7270

> <Gold.Chemscore.Internal.Correction>
   9.000000E+99

> <Gold.Chemscore.Hbonds>
donor molecule, donor type, donor heavy atom, donor atom, acceptor molecule, acceptor atom, score
      L1  H    14    38       P1  7948  0.97
      P1  H  6896  6909       L1     8  0.18
      P1  H  6931  6943       L1    10  0.97

> <Gold.Chemscore.Hbond.Weighted>
-7.4208

> <Gold.Chemscore.Metal.Weighted>
-0.0000

> <Gold.Chemscore.Lipo.Weighted>
-7.2244

> <Gold.Chemscore.Internal_Hbond.Weighted>
0.0000

> <Gold.Chemscore.DEClash.Weighted>
0.0580

> <Gold.Chemscore.DEInternal.Weighted>
2.7283

> <Gold.Chemscore.Rot.Weighted>
4.4212

> <Gold.Chemscore.Internal.Correction.Weighted>
   9.000000E+99

> <Gold.Protein.RotatedTorsions>
[ 6907 6896 6895 6894 ] final   81.81 input  -60.11 | X-H torsion
[ 7974 7965 7964 7962 ] final -178.70 input  175.53 | X-H torsion
[ 8008 7997 7996 7995 ] final -100.20 input   59.86 | X-H torsion
[ 10167 10162 10161 10158 ] final  123.38 input  -65.29 | X-H torsion
[ 10718 10713 10712 10709 ] final -111.61 input   66.30 | X-H torsion
[ 10763 10752 10751 10750 ] final   70.94 input  -60.55 | X-H torsion
[ 11005 11000 10999 10996 ] final -149.43 input  -57.11 | X-H torsion

> <Gold.Protein.ActiveResidues>
 VAL166  LYS551  ARG553  GLY616  TRP617  ASP618  TYR619  PRO620  LYS621  CYS622 
 ASP623  PHE694  ASN695  SER759  ASP760  ASP761  ALA762  ILE779  LEU786  VAL792 
 PHE793  MET794  SER795  GLU796  ALA797  LYS798  CYS799  TRP800  GLU811  SER814 

> <Gold.Protein.RotatedAtoms>
  152.5280  134.3147  159.9126 H   0  0  0  0  0  0  0  0  0  0  0  0  # atno 6907 bound_to 6896
  151.3096  133.4080  159.2653 H   0  0  0  0  0  0  0  0  0  0  0  0  # atno 6908 bound_to 6896
  151.0049  134.9368  159.8032 H   0  0  0  0  0  0  0  0  0  0  0  0  # atno 6909 bound_to 6896
  144.7132  140.0829  143.6425 H   0  0  0  0  0  0  0  0  0  0  0  0  # atno 7974 bound_to 7965
  154.8253  140.0442  157.1439 H   0  0  0  0  0  0  0  0  0  0  0  0  # atno 8008 bound_to 7997
  154.9213  140.3027  155.5194 H   0  0  0  0  0  0  0  0  0  0  0  0  # atno 8009 bound_to 7997
  156.2983  140.2340  156.4264 H   0  0  0  0  0  0  0  0  0  0  0  0  # atno 8010 bound_to 7997
  139.5803  144.6983  151.3546 H   0  0  0  0  0  0  0  0  0  0  0  0  # atno 10167 bound_to 10162
  156.0657  130.5876  150.8396 H   0  0  0  0  0  0  0  0  0  0  0  0  # atno 10718 bound_to 10713
  153.0370  135.5155  154.7517 H   0  0  0  0  0  0  0  0  0  0  0  0  # atno 10763 bound_to 10752
  154.6485  135.2922  155.0018 H   0  0  0  0  0  0  0  0  0  0  0  0  # atno 10764 bound_to 10752
  154.0911  135.6650  153.4905 H   0  0  0  0  0  0  0  0  0  0  0  0  # atno 10765 bound_to 10752
  140.7508  134.3408  157.5126 H   0  0  0  0  0  0  0  0  0  0  0  0  # atno 11005 bound_to 11000
  145.9687  139.2853  143.1112 LP  0  0  0  0  0  0  0  0  0  0  0  0  # atno 17320 bound_to 7965
  145.9141  140.9160  143.0439 LP  0  0  0  0  0  0  0  0  0  0  0  0  # atno 17321 bound_to 7965
  140.7082  143.7460  150.7519 LP  0  0  0  0  0  0  0  0  0  0  0  0  # atno 17342 bound_to 10162
  140.0991  143.4805  152.2436 LP  0  0  0  0  0  0  0  0  0  0  0  0  # atno 17343 bound_to 10162
  157.5697  131.0946  150.9437 LP  0  0  0  0  0  0  0  0  0  0  0  0  # atno 17370 bound_to 10713
  156.9656  130.5471  149.5288 LP  0  0  0  0  0  0  0  0  0  0  0  0  # atno 17371 bound_to 10713
  139.8788  134.9141  156.3099 LP  0  0  0  0  0  0  0  0  0  0  0  0  # atno 17394 bound_to 11000
  140.9752  133.7302  156.0592 LP  0  0  0  0  0  0  0  0  0  0  0  0  # atno 17395 bound_to 11000

$$$$
