AV-unprocessed.smi:2924|AV-procd|sdf|11218|dock1
  -GOLD-   2272016103D 1   1.00000     0.00000
 Structure written by MMmdl.
 29 31  0  0  0  0  0  0  0  0  1 V2000
  153.1142  139.0827  155.7719 N   0  0  0  0  0  0  0  0  0  0  0  0
  152.0682  139.5736  155.7137 C   0  0  0  0  0  0  0  0  0  0  0  0
  150.7502  140.1925  155.6400 C   0  0  0  0  0  0  0  0  0  0  0  0
  149.9026  139.8668  154.5604 C   0  0  0  0  0  0  0  0  0  0  0  0
  148.6307  140.4624  154.4827 C   0  0  0  0  0  0  0  0  0  0  0  0
  148.2551  141.3644  155.4945 C   0  0  0  0  0  0  0  0  0  0  0  0
  149.0554  141.6847  156.5322 N   0  0  0  0  0  0  0  0  0  0  0  0
  150.2839  141.1167  156.6135 C   0  0  0  0  0  0  0  0  0  0  0  0
  151.0946  141.4696  157.7081 N   0  0  0  0  0  0  0  0  0  0  0  0
  151.0203  142.7930  158.3185 C   0  0  2  0  0  0  0  0  0  0  0  0
  151.5531  143.9069  157.4076 C   0  0  0  0  0  0  0  0  0  0  0  0
  152.6344  144.5462  158.2872 C   0  0  1  0  0  0  0  0  0  0  0  0
  152.0404  145.2948  159.4881 C   0  0  0  0  0  0  0  0  0  0  0  0
  151.5929  144.1409  160.3847 C   0  0  0  0  0  0  0  0  0  0  0  0
  151.9569  142.9180  159.5320 C   0  0  2  0  0  0  0  0  0  0  0  0
  153.1487  143.3906  158.9248 O   0  0  0  0  0  0  0  0  0  0  0  0
  150.2187  139.1695  153.7977 H   0  0  0  0  0  0  0  0  0  0  0  0
  147.9597  140.2336  153.6681 H   0  0  0  0  0  0  0  0  0  0  0  0
  147.2867  141.8416  155.4708 H   0  0  0  0  0  0  0  0  0  0  0  0
  151.8801  140.8811  157.9471 H   0  0  0  0  0  0  0  0  0  0  0  0
  149.9926  142.9874  158.6283 H   0  0  0  0  0  0  0  0  0  0  0  0
  152.0000  143.5042  156.4972 H   0  0  0  0  0  0  0  0  0  0  0  0
  150.7786  144.6171  157.1164 H   0  0  0  0  0  0  0  0  0  0  0  0
  153.3753  145.1192  157.7295 H   0  0  0  0  0  0  0  0  0  0  0  0
  152.8003  145.8957  159.9889 H   0  0  0  0  0  0  0  0  0  0  0  0
  151.2190  145.9515  159.1997 H   0  0  0  0  0  0  0  0  0  0  0  0
  152.1576  144.1419  161.3177 H   0  0  0  0  0  0  0  0  0  0  0  0
  150.5309  144.1802  160.6290 H   0  0  0  0  0  0  0  0  0  0  0  0
  152.0731  142.0018  160.1124 H   0  0  0  0  0  0  0  0  0  0  0  0
  1  2  3  0  0  0  0
  2  3  1  0  0  0  0
  3  8  1  0  0  0  0
  3  4  2  0  0  0  0
  4  5  1  0  0  0  0
  4 17  1  0  0  0  0
  5  6  2  0  0  0  0
  5 18  1  0  0  0  0
  6  7  1  0  0  0  0
  6 19  1  0  0  0  0
  7  8  2  0  0  0  0
  8  9  1  0  0  0  0
  9 10  1  0  0  0  0
  9 20  1  0  0  0  0
 10 15  1  0  0  0  0
 10 11  1  0  0  0  0
 10 21  1  0  0  0  0
 11 12  1  0  0  0  0
 11 22  1  0  0  0  0
 11 23  1  0  0  0  0
 12 16  1  0  0  0  0
 12 13  1  0  0  0  0
 12 24  1  0  0  0  0
 13 14  1  0  0  0  0
 13 25  1  0  0  0  0
 13 26  1  0  0  0  0
 14 15  1  0  0  0  0
 14 27  1  0  0  0  0
 14 28  1  0  0  0  0
 15 16  1  0  0  0  0
 15 29  1  0  0  0  0
M  END
> <s_m_source_file>
AV-unprocessed.smi

> <i_m_source_file_index>
2924

> <i_lp_mmshare_version>
43012

> <i_f3d_flags>
0

> <s_epik_input>
TiNDYzFbY0hdW2NIXVtjSF1uYzFbTkhdW0NASF0oW0NIMl1bQ0BASF0yMylbQ0BASF0oTzMpW0NIMl1bQ0gyXTI=

> <s_epik_cmdline>
J2VwaWtfcHl0aG9uJywgJy1waCcsICc3LjAnLCAnLXRuJywgJzgnLCAnLW1hJywgJzIwMCcsICctbWV0YWxfYmluZGluZycsICctaW1hZScsICc8aW5maWxlLm1hZT4nLCAnLW9tYWUnLCAnPG91dGZpbGUubWFlPic=

> <r_lp_tautomer_probability>
1

> <r_epik_Ionization_Penalty>
2.11559e-05

> <r_epik_Ionization_Penalty_Charging>
0

> <r_epik_Ionization_Penalty_Neutral>
2.11559e-05

> <r_epik_State_Penalty>
-0

> <r_epik_Charging_Adjusted_Penalty>
0

> <i_epik_Tot_Q>
0

> <i_epik_Tot_abs_Q>
0

> <r_epik_Metal_State_Penalty>
-0

> <b_epik_Metal_Only>
0

> <s_lp_Force_Field>
OPLS_2005

> <r_lp_Energy>
42.1946

> <b_lp_Chiralities_Consistent>
1

> <s_lp_Variant>
AV-unprocessed.smi:2924-1

> <Gold.Version>
5.8.1

> <Gold.Id.Protein>
6NUR|6NUR_protein|mol2

> <Gold.PLP.Fitness>
41.2197

> <Gold.PLP.PLP>
-38.6827

> <Gold.PLP.part.hbond>
-1.0000

> <Gold.PLP.part.metal>
0.0000

> <Gold.PLP.part.buried>
-4.4392

> <Gold.PLP.part.nonpolar>
-34.9282

> <Gold.PLP.part.repulsive>
0.2228

> <Gold.PLP.ligand.clash>
0.0000

> <Gold.PLP.ligand.torsion>
0.2414

> <Gold.PLP.Chemscore.Hbond>
1.0000

> <Gold.PLP.Chemscore.CHOScore>
0.0000

> <Gold.PLP.Chemscore.Metal>
0.0000

> <Gold.Chemscore.Hbonds>
donor molecule, donor type, donor heavy atom, donor atom, acceptor molecule, acceptor atom, score
      P1  H  7997  8009       L1     1  1.00

> <Gold.PLP.Chemscore.Internal.Correction>
0.0198

> <Gold.Rescore>
     Score         DG    S(hbond)    S(metal)    S(lipo)     H(rot)  DE(clash)    DE(int)     intcor
     17.05     -17.34       0.96        0.00      95.71       1.00       0.00       0.29       ----

> <Gold.Chemscore.Fitness>
17.0478

> <Gold.Chemscore.DG>
-17.3403

> <Gold.Chemscore.ZeroCoef>
-5.4800

> <Gold.Chemscore.Hbond>
0.9649

> <Gold.Chemscore.Metal>
0.0000

> <Gold.Chemscore.Lipo>
95.7052

> <Gold.Chemscore.Internal_Hbond>
0.0000

> <Gold.Chemscore.DEClash>
0.0047

> <Gold.Chemscore.DEInternal>
0.2878

> <Gold.Chemscore.Rot>
1.0000

> <Gold.Chemscore.Internal.Correction>
   9.000000E+99

> <Gold.Chemscore.Hbonds>
donor molecule, donor type, donor heavy atom, donor atom, acceptor molecule, acceptor atom, score
      P1  H  7997  8009       L1     1  0.90

> <Gold.Chemscore.Hbond.Weighted>
-3.2228

> <Gold.Chemscore.Metal.Weighted>
-0.0000

> <Gold.Chemscore.Lipo.Weighted>
-11.1975

> <Gold.Chemscore.Internal_Hbond.Weighted>
0.0000

> <Gold.Chemscore.DEClash.Weighted>
0.0047

> <Gold.Chemscore.DEInternal.Weighted>
0.2878

> <Gold.Chemscore.Rot.Weighted>
2.5600

> <Gold.Chemscore.Internal.Correction.Weighted>
   9.000000E+99

> <Gold.Protein.RotatedTorsions>
[ 6907 6896 6895 6894 ] final   80.01 input  -60.11 | X-H torsion
[ 7974 7965 7964 7962 ] final  -25.10 input  175.53 | X-H torsion
[ 8008 7997 7996 7995 ] final -159.90 input   59.86 | X-H torsion
[ 10167 10162 10161 10158 ] final  -38.19 input  -65.29 | X-H torsion
[ 10718 10713 10712 10709 ] final  -10.14 input   66.30 | X-H torsion
[ 10763 10752 10751 10750 ] final  177.58 input  -60.55 | X-H torsion
[ 11005 11000 10999 10996 ] final  153.14 input  -57.11 | X-H torsion

> <Gold.Protein.ActiveResidues>
 VAL166  LYS551  ARG553  GLY616  TRP617  ASP618  TYR619  PRO620  LYS621  CYS622 
 ASP623  PHE694  ASN695  SER759  ASP760  ASP761  ALA762  ILE779  LEU786  VAL792 
 PHE793  MET794  SER795  GLU796  ALA797  LYS798  CYS799  TRP800  GLU811  SER814 

> <Gold.Protein.RotatedAtoms>
  152.5219  134.3423  159.9221 H   0  0  0  0  0  0  0  0  0  0  0  0  # atno 6907 bound_to 6896
  151.3373  133.3970  159.2675 H   0  0  0  0  0  0  0  0  0  0  0  0  # atno 6908 bound_to 6896
  150.9832  134.9201  159.7914 H   0  0  0  0  0  0  0  0  0  0  0  0  # atno 6909 bound_to 6896
  146.1513  140.4840  142.8610 H   0  0  0  0  0  0  0  0  0  0  0  0  # atno 7974 bound_to 7965
  155.7695  140.0850  157.2115 H   0  0  0  0  0  0  0  0  0  0  0  0  # atno 8008 bound_to 7997
  154.3997  140.1528  156.2982 H   0  0  0  0  0  0  0  0  0  0  0  0  # atno 8009 bound_to 7997
  155.8761  140.3423  155.5858 H   0  0  0  0  0  0  0  0  0  0  0  0  # atno 8010 bound_to 7997
  140.7098  143.3293  151.2607 H   0  0  0  0  0  0  0  0  0  0  0  0  # atno 10167 bound_to 10162
  156.6779  130.5028  149.5980 H   0  0  0  0  0  0  0  0  0  0  0  0  # atno 10718 bound_to 10713
  154.4964  135.2781  155.1456 H   0  0  0  0  0  0  0  0  0  0  0  0  # atno 10763 bound_to 10752
  154.3107  135.6229  153.5468 H   0  0  0  0  0  0  0  0  0  0  0  0  # atno 10764 bound_to 10752
  152.9895  135.5719  154.5396 H   0  0  0  0  0  0  0  0  0  0  0  0  # atno 10765 bound_to 10752
  140.1371  134.8764  157.2281 H   0  0  0  0  0  0  0  0  0  0  0  0  # atno 11005 bound_to 11000
  144.7907  140.6026  143.6543 LP  0  0  0  0  0  0  0  0  0  0  0  0  # atno 17320 bound_to 7965
  145.4817  139.1495  143.3758 LP  0  0  0  0  0  0  0  0  0  0  0  0  # atno 17321 bound_to 7965
  139.6770  143.9920  152.2787 LP  0  0  0  0  0  0  0  0  0  0  0  0  # atno 17342 bound_to 10162
  139.9538  144.6603  150.8146 LP  0  0  0  0  0  0  0  0  0  0  0  0  # atno 17343 bound_to 10162
  156.1890  130.6547  151.1039 LP  0  0  0  0  0  0  0  0  0  0  0  0  # atno 17370 bound_to 10713
  157.7054  131.0758  150.6683 LP  0  0  0  0  0  0  0  0  0  0  0  0  # atno 17371 bound_to 10713
  140.2769  134.3395  155.7355 LP  0  0  0  0  0  0  0  0  0  0  0  0  # atno 17394 bound_to 11000
  141.2180  133.7455  156.9306 LP  0  0  0  0  0  0  0  0  0  0  0  0  # atno 17395 bound_to 11000

$$$$
