AV-unprocessed.smi:1212|AV-procd|sdf|5083|dock8
  -GOLD-   22720 4133D 1   1.00000     0.00000
 Structure written by MMmdl.
 38 39  0  0  0  0  0  0  0  0  2 V2000
  156.7439  139.3792  162.4828 C   0  0  0  0  0  0  0  0  0  0  0  0
  155.8161  138.8513  161.4431 C   0  0  0  0  0  0  0  0  0  0  0  0
  155.4283  139.5742  160.3896 N   0  0  0  0  0  0  0  0  0  0  0  0
  154.5662  138.8701  159.5614 N   0  0  0  0  0  0  0  0  0  0  0  0
  154.3211  137.6251  159.9940 C   0  0  0  0  0  0  0  0  0  0  0  0
  153.5097  136.7805  159.3361 N   0  5  0  0  0  0  0  0  0  0  0  0
  152.6323  137.2590  158.4246 C   0  0  0  0  0  0  0  0  0  0  0  0
  152.4738  136.8419  157.2746 O   0  0  0  0  0  0  0  0  0  0  0  0
  151.8895  138.2814  158.8730 N   0  0  0  0  0  0  0  0  0  0  0  0
  150.8669  138.9901  158.1118 C   0  0  0  0  0  0  0  0  0  0  0  0
  151.4573  140.1965  157.3590 C   0  0  0  0  0  0  0  0  0  0  0  0
  151.4072  141.4135  158.1769 N   0  0  0  0  0  0  0  0  0  0  0  0
  152.1687  141.3735  159.4352 C   0  0  0  0  0  0  0  0  0  0  0  0
  153.4299  142.2671  159.4262 C   0  0  0  0  0  0  0  0  0  0  0  0
  153.3535  143.5423  158.5629 C   0  0  0  0  0  0  0  0  0  0  0  0
  152.1178  144.4314  158.8171 C   0  0  0  0  0  0  0  0  0  0  0  0
  150.7343  143.7468  158.6992 C   0  0  0  0  0  0  0  0  0  0  0  0
  150.7090  142.5083  157.7880 C   0  0  0  0  0  0  0  0  0  0  0  0
  150.0585  142.5545  156.7435 O   0  0  0  0  0  0  0  0  0  0  0  0
  155.1426  137.2312  161.5041 S   0  0  0  0  0  0  0  0  0  0  0  0
  157.6934  139.6622  162.0277 H   0  0  0  0  0  0  0  0  0  0  0  0
  156.9335  138.6215  163.2433 H   0  0  0  0  0  0  0  0  0  0  0  0
  156.3083  140.2555  162.9633 H   0  0  0  0  0  0  0  0  0  0  0  0
  152.0509  138.5917  159.8202 H   0  0  0  0  0  0  0  0  0  0  0  0
  150.4224  138.2867  157.4074 H   0  0  0  0  0  0  0  0  0  0  0  0
  150.0633  139.3093  158.7780 H   0  0  0  0  0  0  0  0  0  0  0  0
  152.4876  139.9910  157.0653 H   0  0  0  0  0  0  0  0  0  0  0  0
  150.9211  140.3493  156.4208 H   0  0  0  0  0  0  0  0  0  0  0  0
  151.5156  141.6656  160.2577 H   0  0  0  0  0  0  0  0  0  0  0  0
  152.4567  140.3507  159.6828 H   0  0  0  0  0  0  0  0  0  0  0  0
  153.6786  142.5344  160.4537 H   0  0  0  0  0  0  0  0  0  0  0  0
  154.2711  141.6737  159.0662 H   0  0  0  0  0  0  0  0  0  0  0  0
  154.2540  144.1338  158.7309 H   0  0  0  0  0  0  0  0  0  0  0  0
  153.3909  143.2671  157.5078 H   0  0  0  0  0  0  0  0  0  0  0  0
  152.2008  144.8760  159.8093 H   0  0  0  0  0  0  0  0  0  0  0  0
  152.1533  145.2687  158.1193 H   0  0  0  0  0  0  0  0  0  0  0  0
  150.3713  143.4639  159.6872 H   0  0  0  0  0  0  0  0  0  0  0  0
  150.0071  144.4730  158.3335 H   0  0  0  0  0  0  0  0  0  0  0  0
  1  2  1  0  0  0  0
  1 21  1  0  0  0  0
  1 22  1  0  0  0  0
  1 23  1  0  0  0  0
  2 20  1  0  0  0  0
  2  3  2  0  0  0  0
  3  4  1  0  0  0  0
  4  5  2  0  0  0  0
  5  6  1  0  0  0  0
  5 20  1  0  0  0  0
  6  7  1  0  0  0  0
  7  8  2  0  0  0  0
  7  9  1  0  0  0  0
  9 10  1  0  0  0  0
  9 24  1  0  0  0  0
 10 11  1  0  0  0  0
 10 25  1  0  0  0  0
 10 26  1  0  0  0  0
 11 12  1  0  0  0  0
 11 27  1  0  0  0  0
 11 28  1  0  0  0  0
 12 18  1  0  0  0  0
 12 13  1  0  0  0  0
 13 14  1  0  0  0  0
 13 29  1  0  0  0  0
 13 30  1  0  0  0  0
 14 15  1  0  0  0  0
 14 31  1  0  0  0  0
 14 32  1  0  0  0  0
 15 16  1  0  0  0  0
 15 33  1  0  0  0  0
 15 34  1  0  0  0  0
 16 17  1  0  0  0  0
 16 35  1  0  0  0  0
 16 36  1  0  0  0  0
 17 18  1  0  0  0  0
 17 37  1  0  0  0  0
 17 38  1  0  0  0  0
 18 19  2  0  0  0  0
M  CHG  1   6  -1
M  END
> <s_m_source_file>
AV-unprocessed.smi

> <i_m_source_file_index>
1212

> <i_lp_mmshare_version>
43012

> <i_f3d_flags>
0

> <s_epik_input>
W0NIM11jMW5uYyhzMSlbTkhdQyg9TylbTkhdW0NIMl1bQ0gyXU4yW0NIMl1bQ0gyXVtDSDJdW0NIMl1bQ0gyXUMyPU8=

> <s_epik_cmdline>
J2VwaWtfcHl0aG9uJywgJy1waCcsICc3LjAnLCAnLXRuJywgJzgnLCAnLW1hJywgJzIwMCcsICctbWV0YWxfYmluZGluZycsICctaW1hZScsICc8aW5maWxlLm1hZT4nLCAnLW9tYWUnLCAnPG91dGZpbGUubWFlPic=

> <r_lp_tautomer_probability>
1

> <r_epik_Ionization_Penalty>
3.37178

> <r_epik_Ionization_Penalty_Charging>
3.23409

> <r_epik_Ionization_Penalty_Neutral>
0.137695

> <r_epik_State_Penalty>
3.23156

> <r_epik_Charging_Adjusted_Penalty>
6.46564

> <i_epik_Tot_Q>
-1

> <i_epik_Tot_abs_Q>
1

> <r_epik_Metal_State_Penalty>
0.474775

> <b_epik_Metal_Only>
1

> <s_lp_Force_Field>
OPLS_2005

> <r_lp_Energy>
19.6793

> <b_lp_Chiralities_Consistent>
1

> <s_lp_Variant>
AV-unprocessed.smi:1212-2

> <Gold.Version>
5.8.1

> <Gold.Id.Protein>
6NUR|6NUR_protein|mol2

> <Gold.PLP.Fitness>
37.8351

> <Gold.PLP.PLP>
-33.5697

> <Gold.PLP.part.hbond>
-1.0000

> <Gold.PLP.part.metal>
0.0000

> <Gold.PLP.part.buried>
-5.5663

> <Gold.PLP.part.nonpolar>
-27.9557

> <Gold.PLP.part.repulsive>
1.0321

> <Gold.PLP.ligand.clash>
0.0000

> <Gold.PLP.ligand.torsion>
0.8914

> <Gold.PLP.Chemscore.Hbond>
2.0000

> <Gold.PLP.Chemscore.CHOScore>
0.0000

> <Gold.PLP.Chemscore.Metal>
0.0000

> <Gold.Chemscore.Hbonds>
donor molecule, donor type, donor heavy atom, donor atom, acceptor molecule, acceptor atom, score
      P1  H  6896  6907       L1     6  0.29

> <Gold.PLP.Chemscore.Internal.Correction>
0.0481

> <Gold.Rescore>
     Score         DG    S(hbond)    S(metal)    S(lipo)     H(rot)  DE(clash)    DE(int)     intcor
     13.04     -14.65       0.91        0.00      87.86       1.63       0.44       1.17       ----

> <Gold.Chemscore.Fitness>
13.0401

> <Gold.Chemscore.DG>
-14.6483

> <Gold.Chemscore.ZeroCoef>
-5.4800

> <Gold.Chemscore.Hbond>
0.9133

> <Gold.Chemscore.Metal>
0.0000

> <Gold.Chemscore.Lipo>
87.8572

> <Gold.Chemscore.Internal_Hbond>
0.0000

> <Gold.Chemscore.DEClash>
0.4383

> <Gold.Chemscore.DEInternal>
1.1699

> <Gold.Chemscore.Rot>
1.6255

> <Gold.Chemscore.Internal.Correction>
   9.000000E+99

> <Gold.Chemscore.Hbonds>
donor molecule, donor type, donor heavy atom, donor atom, acceptor molecule, acceptor atom, score
      P1  H  6896  6907       L1     6  0.02

> <Gold.Chemscore.Hbond.Weighted>
-3.0503

> <Gold.Chemscore.Metal.Weighted>
-0.0000

> <Gold.Chemscore.Lipo.Weighted>
-10.2793

> <Gold.Chemscore.Internal_Hbond.Weighted>
0.0000

> <Gold.Chemscore.DEClash.Weighted>
0.4383

> <Gold.Chemscore.DEInternal.Weighted>
1.1699

> <Gold.Chemscore.Rot.Weighted>
4.1613

> <Gold.Chemscore.Internal.Correction.Weighted>
   9.000000E+99

> <Gold.Protein.RotatedTorsions>
[ 6907 6896 6895 6894 ] final   36.54 input  -60.11 | X-H torsion
[ 7974 7965 7964 7962 ] final -148.71 input  175.53 | X-H torsion
[ 8008 7997 7996 7995 ] final -147.91 input   59.86 | X-H torsion
[ 10167 10162 10161 10158 ] final  161.85 input  -65.29 | X-H torsion
[ 10718 10713 10712 10709 ] final  -90.52 input   66.30 | X-H torsion
[ 10763 10752 10751 10750 ] final   93.99 input  -60.55 | X-H torsion
[ 11005 11000 10999 10996 ] final   56.11 input  -57.11 | X-H torsion

> <Gold.Protein.ActiveResidues>
 VAL166  LYS551  ARG553  GLY616  TRP617  ASP618  TYR619  PRO620  LYS621  CYS622 
 ASP623  PHE694  ASN695  SER759  ASP760  ASP761  ALA762  ILE779  LEU786  VAL792 
 PHE793  MET794  SER795  GLU796  ALA797  LYS798  CYS799  TRP800  GLU811  SER814 

> <Gold.Protein.RotatedAtoms>
  152.1311  134.9134  160.0558 H   0  0  0  0  0  0  0  0  0  0  0  0  # atno 6907 bound_to 6896
  152.0238  133.3904  159.4277 H   0  0  0  0  0  0  0  0  0  0  0  0  # atno 6908 bound_to 6896
  150.6856  134.3517  159.4956 H   0  0  0  0  0  0  0  0  0  0  0  0  # atno 6909 bound_to 6896
  144.8012  140.5161  143.5705 H   0  0  0  0  0  0  0  0  0  0  0  0  # atno 7974 bound_to 7965
  155.5832  140.0645  157.2778 H   0  0  0  0  0  0  0  0  0  0  0  0  # atno 8008 bound_to 7997
  154.4326  140.1848  156.1045 H   0  0  0  0  0  0  0  0  0  0  0  0  # atno 8009 bound_to 7997
  156.0289  140.3308  155.7122 H   0  0  0  0  0  0  0  0  0  0  0  0  # atno 8010 bound_to 7997
  139.4854  144.4495  151.8848 H   0  0  0  0  0  0  0  0  0  0  0  0  # atno 10167 bound_to 10162
  155.9988  130.4913  150.5336 H   0  0  0  0  0  0  0  0  0  0  0  0  # atno 10718 bound_to 10713
  153.2365  135.4305  155.0652 H   0  0  0  0  0  0  0  0  0  0  0  0  # atno 10763 bound_to 10752
  154.8321  135.3392  154.6711 H   0  0  0  0  0  0  0  0  0  0  0  0  # atno 10764 bound_to 10752
  153.7136  135.7021  153.5087 H   0  0  0  0  0  0  0  0  0  0  0  0  # atno 10765 bound_to 10752
  140.0554  134.5677  155.9213 H   0  0  0  0  0  0  0  0  0  0  0  0  # atno 11005 bound_to 11000
  145.5548  139.1477  143.3374 LP  0  0  0  0  0  0  0  0  0  0  0  0  # atno 17320 bound_to 7965
  146.2294  140.5685  142.8982 LP  0  0  0  0  0  0  0  0  0  0  0  0  # atno 17321 bound_to 7965
  140.3951  144.2565  150.5896 LP  0  0  0  0  0  0  0  0  0  0  0  0  # atno 17342 bound_to 10162
  140.5109  143.2291  151.8536 LP  0  0  0  0  0  0  0  0  0  0  0  0  # atno 17343 bound_to 10162
  157.3281  131.0694  151.1881 LP  0  0  0  0  0  0  0  0  0  0  0  0  # atno 17370 bound_to 10713
  157.2771  130.6732  149.6048 LP  0  0  0  0  0  0  0  0  0  0  0  0  # atno 17371 bound_to 10713
  141.1950  133.6585  156.5620 LP  0  0  0  0  0  0  0  0  0  0  0  0  # atno 17394 bound_to 11000
  140.3852  134.7489  157.4686 LP  0  0  0  0  0  0  0  0  0  0  0  0  # atno 17395 bound_to 11000

$$$$
