#       Name:                AV-unprocessed.smi:38
#       Creating user name   scv26
#       Creation time:       Thu Mar 26 16:17:55 2020


#       File generated by GOLD software.
#

@<TRIPOS>MOLECULE
AV-unprocessed.smi:38
    38    39     1
SMALL
NO_CHARGES


@<TRIPOS>ATOM
      1 ****        -4.1925   2.9733  -1.4565 O.2            1 S1                 0.0000
      2 ****        -3.2350   2.3674  -0.9795 C.2            1 S1                 0.0000
      3 ****        -2.9481   2.4693   0.3851 N.am           1 S1                 0.0000
      4 ****        -1.8941   1.8325   1.0430 C.2            1 S1                 0.0000
      5 ****        -1.7493   1.9828   2.2554 O.2            1 S1                 0.0000
      6 ****        -1.0398   1.0250   0.2595 N.am           1 S1                 0.0000
      7 ****         0.1217   0.3121   0.9133 C.3            1 S1                 0.0000
      8 ****        -0.2119  -1.1590   1.1644 C.3            1 S1                 0.0000
      9 ****         1.1113  -1.8225   0.8451 C.3            1 S1                 0.0000
     10 ****         0.9220  -3.1720   0.4713 O.3            1 S1                 0.0000
     11 ****         1.6272  -0.9617  -0.3112 C.3            1 S1                 0.0000
     12 ****         3.1535  -1.0121  -0.4784 C.3            1 S1                 0.0000
     13 ****         3.5165  -0.5406  -1.7583 O.3            1 S1                 0.0000
     14 ****         1.2245   0.3580   0.0559 O.3            1 S1                 0.0000
     15 ****        -1.2932   0.8859  -1.0987 C.2            1 S1                 0.0000
     16 ****        -2.3218   1.5056  -1.7243 C.2            1 S1                 0.0000
     17 ****        -2.5055   1.3212  -3.0427 F              1 S1                 0.0000
     18 ****        -3.5573   3.0504   0.9423 H              1 S1                 0.0000
     19 ****         0.3904   0.8568   1.8196 H              1 S1                 0.0000
     20 ****         1.7804  -1.7576   1.7046 H              1 S1                 0.0000
     21 ****         1.1208  -1.2509  -1.2340 H              1 S1                 0.0000
     22 ****        -0.5555  -1.3205   2.1865 H              1 S1                 0.0000
     23 ****        -0.9885  -1.4862   0.4703 H              1 S1                 0.0000
     24 ****         0.5560  -3.6402   1.2062 H              1 S1                 0.0000
     25 ****         3.6576  -0.4351   0.2975 H              1 S1                 0.0000
     26 ****         3.5054  -2.0410  -0.3984 H              1 S1                 0.0000
     27 ****         4.4560  -0.5954  -1.8436 H              1 S1                 0.0000
     28 ****        -0.6521   0.2542  -1.6946 H              1 S1                 0.0000
     29 ****        -4.3972   2.8961  -2.4323 LP             1 S1                 0.0000
     30 ****        -4.7665   3.5434  -0.8687 LP             1 S1                 0.0000
     31 ****        -2.3856   2.5599   2.7672 LP             1 S1                 0.0000
     32 ****        -0.9952   1.5279   2.7291 LP             1 S1                 0.0000
     33 ****         1.8001  -3.5774   0.2171 LP             1 S1                 0.0000
     34 ****         0.2946  -3.2214  -0.3058 LP             1 S1                 0.0000
     35 ****         3.2234   0.4097  -1.8631 LP             1 S1                 0.0000
     36 ****         3.0809  -1.1032  -2.4609 LP             1 S1                 0.0000
     37 ****         1.9828   0.8166   0.5192 LP             1 S1                 0.0000
     38 ****         0.9797   0.8687  -0.7683 LP             1 S1                 0.0000
@<TRIPOS>BOND
    1    1    2 2     
    2    2   16 1     
    3    2    3 1     
    4    3   18 1     
    5    3    4 1     
    6    4    5 2     
    7    4    6 1     
    8    6    7 1     
    9    6   15 1     
   10    7   19 1     
   11    7   14 1     
   12    7    8 1     
   13    8    9 1     
   14    8   22 1     
   15    8   23 1     
   16    9   20 1     
   17    9   10 1     
   18    9   11 1     
   19   10   24 1     
   20   11   21 1     
   21   11   12 1     
   22   11   14 1     
   23   12   13 1     
   24   12   25 1     
   25   12   26 1     
   26   13   27 1     
   27   15   16 2     
   28   15   28 1     
   29   16   17 1     
   30    1   29 1     
   31    1   30 1     
   32    5   31 1     
   33    5   32 1     
   34   10   33 1     
   35   10   34 1     
   36   13   35 1     
   37   13   36 1     
   38   14   37 1     
   39   14   38 1     
@<TRIPOS>SUBSTRUCTURE
      1 S1             1
@<TRIPOS>SET
LONE_PAIRS      STATIC     ATOMS    <user>   **** ""
10 29 30 31 32 33 34 35 36 37 38
DONOR_HYDROGENS      STATIC     ATOMS    <user>   **** ""
3 18 24 27
ATOM$BLUE        STATIC     ATOMS    COLORGROUP SYSTEM
10 29 30 31 32 33 34 35 36 37 38
ATOM$RED        STATIC     ATOMS    COLORGROUP SYSTEM
3 18 24 27
