#       Name:                AV-unprocessed.smi:2217
#       Creating user name   scv26
#       Creation time:       Fri Mar 27 12:18:49 2020


#       File generated by GOLD software.
#

@<TRIPOS>MOLECULE
AV-unprocessed.smi:2217
    50    53     1
SMALL
NO_CHARGES


@<TRIPOS>ATOM
      1 ****         1.0509  -8.2146  -1.7867 C.3            1 S1                 0.0000
      2 ****         0.8554  -6.7818  -1.3377 C.ar           1 S1                 0.0000
      3 ****        -0.4305  -6.2212  -1.2240 C.ar           1 S1                 0.0000
      4 ****        -0.5526  -4.8851  -0.7967 C.ar           1 S1                 0.0000
      5 ****         0.6084  -4.1372  -0.4957 C.ar           1 S1                 0.0000
      6 ****         0.3549  -2.8013  -0.0650 N.am           1 S1                 0.0000
      7 ****         1.1918  -1.7910   0.2550 C.2            1 S1                 0.0000
      8 ****         2.4119  -1.9362   0.2015 O.2            1 S1                 0.0000
      9 ****         0.6156  -0.6381   0.6288 N.am           1 S1                 0.0000
     10 ****         1.3367   0.5796   0.9791 C.3            1 S1                 0.0000
     11 ****         0.4176   1.6446   1.5980 C.3            1 S1                 0.0000
     12 ****         0.6107   2.0561   3.0318 C.3            1 S1                 0.0000
     13 ****         1.4918   3.3027   2.9127 C.3            1 S1                 0.0000
     14 ****         2.1181   3.1809   1.6374 O.3            1 S1                 0.0000
     15 ****         1.1488   2.6591   0.7314 C.3            1 S1                 0.0000
     16 ****         1.6116   1.5280  -0.2119 C.3            1 S1                 0.0000
     17 ****         0.8001   1.3790  -1.5023 C.3            1 S1                 0.0000
     18 ****         1.4858   2.2589  -2.5475 C.3            1 S1                 0.0000
     19 ****         2.9568   2.3164  -2.1254 C.3            1 S1                 0.0000
     20 ****         3.0321   1.6125  -0.7654 C.3            1 S1                 0.0000
     21 ****         1.8431  -4.6904  -0.6076 N.ar           1 S1                 0.0000
     22 ****         1.9606  -5.9712  -1.0162 C.ar           1 S1                 0.0000
     23 ****         0.1198  -8.6424  -2.1599 H              1 S1                 0.0000
     24 ****         1.3993  -8.8254  -0.9538 H              1 S1                 0.0000
     25 ****         1.7920  -8.2653  -2.5848 H              1 S1                 0.0000
     26 ****        -1.3112  -6.8014  -1.4572 H              1 S1                 0.0000
     27 ****        -1.5336  -4.4421  -0.7018 H              1 S1                 0.0000
     28 ****        -0.6231  -2.5857   0.0624 H              1 S1                 0.0000
     29 ****        -0.3939  -0.5985   0.6498 H              1 S1                 0.0000
     30 ****         2.2302   0.4114   1.5848 H              1 S1                 0.0000
     31 ****        -0.6239   1.5325   1.2901 H              1 S1                 0.0000
     32 ****        -0.3305   2.2760   3.5362 H              1 S1                 0.0000
     33 ****         1.1196   1.2738   3.5960 H              1 S1                 0.0000
     34 ****         0.8803   4.2061   2.9232 H              1 S1                 0.0000
     35 ****         2.2257   3.3780   3.7151 H              1 S1                 0.0000
     36 ****         0.5029   3.4215   0.2935 H              1 S1                 0.0000
     37 ****         0.8193   0.3461  -1.8515 H              1 S1                 0.0000
     38 ****        -0.2481   1.6513  -1.3746 H              1 S1                 0.0000
     39 ****         1.3571   1.8695  -3.5579 H              1 S1                 0.0000
     40 ****         1.0588   3.2623  -2.5239 H              1 S1                 0.0000
     41 ****         3.6038   1.8253  -2.8530 H              1 S1                 0.0000
     42 ****         3.2834   3.3536  -2.0424 H              1 S1                 0.0000
     43 ****         3.7160   2.1286  -0.0914 H              1 S1                 0.0000
     44 ****         3.4328   0.6073  -0.9015 H              1 S1                 0.0000
     45 ****         2.9664  -6.3591  -1.0862 H              1 S1                 0.0000
     46 ****         2.7991  -2.8134  -0.0825 LP             1 S1                 0.0000
     47 ****         3.0168  -1.1771   0.4421 LP             1 S1                 0.0000
     48 ****         2.8983   2.5583   1.6984 LP             1 S1                 0.0000
     49 ****         2.4308   4.0774   1.3237 LP             1 S1                 0.0000
     50 ****         2.6581  -4.1536  -0.3893 LP             1 S1                 0.0000
@<TRIPOS>BOND
    1    1    2 1     
    2    1   23 1     
    3    1   24 1     
    4    1   25 1     
    5    2   22 ar    
    6    2    3 ar    
    7    3    4 ar    
    8    3   26 1     
    9    4    5 ar    
   10    4   27 1     
   11    5    6 1     
   12    5   21 ar    
   13    6    7 am    
   14    6   28 1     
   15    7    8 2     
   16    7    9 am    
   17    9   10 1     
   18    9   29 1     
   19   10   16 1     
   20   10   11 1     
   21   10   30 1     
   22   11   15 1     
   23   11   12 1     
   24   11   31 1     
   25   12   13 1     
   26   12   32 1     
   27   12   33 1     
   28   13   14 1     
   29   13   34 1     
   30   13   35 1     
   31   14   15 1     
   32   15   16 1     
   33   15   36 1     
   34   16   20 1     
   35   16   17 1     
   36   17   18 1     
   37   17   37 1     
   38   17   38 1     
   39   18   19 1     
   40   18   39 1     
   41   18   40 1     
   42   19   20 1     
   43   19   41 1     
   44   19   42 1     
   45   20   43 1     
   46   20   44 1     
   47   21   22 ar    
   48   22   45 1     
   49    8   46 1     
   50    8   47 1     
   51   14   48 1     
   52   14   49 1     
   53   21   50 1     
@<TRIPOS>SUBSTRUCTURE
      1 S1             1
@<TRIPOS>SET
LONE_PAIRS      STATIC     ATOMS    <user>   **** ""
5 46 47 48 49 50
DONOR_HYDROGENS      STATIC     ATOMS    <user>   **** ""
2 28 29
ATOM$BLUE        STATIC     ATOMS    COLORGROUP SYSTEM
5 46 47 48 49 50
ATOM$RED        STATIC     ATOMS    COLORGROUP SYSTEM
2 28 29
