AV-unprocessed.smi:1513|AV-procd|sdf|6108|dock5
  -GOLD-   22720 6243D 1   1.00000     0.00000
 Structure written by MMmdl.
 34 35  0  0  0  0  0  0  0  0  1 V2000
  155.4298  136.5689  157.4152 N   0  0  0  0  0  0  0  0  0  0  0  0
  153.8973  136.2919  158.1414 S   0  0  0  0  0  0  0  0  0  0  0  0
  152.8950  136.1026  157.0822 O   0  0  0  0  0  0  0  0  0  0  0  0
  154.0588  135.3189  159.2322 O   0  0  0  0  0  0  0  0  0  0  0  0
  153.6560  137.8476  158.8365 N   0  0  0  0  0  0  0  0  0  0  0  0
  152.3529  138.4991  158.7162 C   0  0  0  0  0  0  0  0  0  0  0  0
  152.4401  140.0069  158.8947 C   0  0  0  0  0  0  0  0  0  0  0  0
  153.0857  140.5424  160.0291 C   0  0  0  0  0  0  0  0  0  0  0  0
  153.1497  141.9392  160.1853 C   0  0  0  0  0  0  0  0  0  0  0  0
  152.5613  142.7493  159.1963 C   0  0  0  0  0  0  0  0  0  0  0  0
  151.9399  142.2522  158.1064 N   0  0  0  0  0  0  0  0  0  0  0  0
  151.8771  140.9072  157.9536 C   0  0  0  0  0  0  0  0  0  0  0  0
  151.2376  140.4139  156.8049 N   0  0  0  0  0  0  0  0  0  0  0  0
  150.4357  141.3825  156.0687 C   0  0  0  0  0  0  0  0  0  0  0  0
  149.6522  140.6655  154.9566 C   0  0  0  0  0  0  0  0  0  0  0  0
  150.5609  139.9637  154.1122 O   0  0  0  0  0  0  0  0  0  0  0  0
  151.2979  138.9715  154.8223 C   0  0  0  0  0  0  0  0  0  0  0  0
  152.1162  139.6340  155.9445 C   0  0  0  0  0  0  0  0  0  0  0  0
  156.0608  135.7757  157.5288 H   0  0  0  0  0  0  0  0  0  0  0  0
  155.8380  137.4591  157.6995 H   0  0  0  0  0  0  0  0  0  0  0  0
  154.1097  137.9727  159.7409 H   0  0  0  0  0  0  0  0  0  0  0  0
  151.9235  138.2511  157.7451 H   0  0  0  0  0  0  0  0  0  0  0  0
  151.6734  138.0942  159.4669 H   0  0  0  0  0  0  0  0  0  0  0  0
  153.5248  139.8936  160.7728 H   0  0  0  0  0  0  0  0  0  0  0  0
  153.6371  142.3786  161.0431 H   0  0  0  0  0  0  0  0  0  0  0  0
  152.5907  143.8254  159.2822 H   0  0  0  0  0  0  0  0  0  0  0  0
  149.7482  141.8866  156.7491 H   0  0  0  0  0  0  0  0  0  0  0  0
  151.0819  142.1455  155.6325 H   0  0  0  0  0  0  0  0  0  0  0  0
  148.9216  139.9735  155.3788 H   0  0  0  0  0  0  0  0  0  0  0  0
  149.0979  141.3895  154.3595 H   0  0  0  0  0  0  0  0  0  0  0  0
  150.6178  138.2216  155.2285 H   0  0  0  0  0  0  0  0  0  0  0  0
  151.9608  138.4557  154.1279 H   0  0  0  0  0  0  0  0  0  0  0  0
  152.8781  140.2870  155.5161 H   0  0  0  0  0  0  0  0  0  0  0  0
  152.6339  138.8734  156.5301 H   0  0  0  0  0  0  0  0  0  0  0  0
  1  2  1  0  0  0  0
  1 19  1  0  0  0  0
  1 20  1  0  0  0  0
  2  3  2  0  0  0  0
  2  4  2  0  0  0  0
  2  5  1  0  0  0  0
  5  6  1  0  0  0  0
  5 21  1  0  0  0  0
  6  7  1  0  0  0  0
  6 22  1  0  0  0  0
  6 23  1  0  0  0  0
  7 12  1  0  0  0  0
  7  8  2  0  0  0  0
  8  9  1  0  0  0  0
  8 24  1  0  0  0  0
  9 10  2  0  0  0  0
  9 25  1  0  0  0  0
 10 11  1  0  0  0  0
 10 26  1  0  0  0  0
 11 12  2  0  0  0  0
 12 13  1  0  0  0  0
 13 18  1  0  0  0  0
 13 14  1  0  0  0  0
 14 15  1  0  0  0  0
 14 27  1  0  0  0  0
 14 28  1  0  0  0  0
 15 16  1  0  0  0  0
 15 29  1  0  0  0  0
 15 30  1  0  0  0  0
 16 17  1  0  0  0  0
 17 18  1  0  0  0  0
 17 31  1  0  0  0  0
 17 32  1  0  0  0  0
 18 33  1  0  0  0  0
 18 34  1  0  0  0  0
M  END
> <s_m_source_file>
AV-unprocessed.smi

> <i_m_source_file_index>
1513

> <i_lp_mmshare_version>
43012

> <i_f3d_flags>
0

> <s_epik_input>
W05IMl1TKD1PKSg9TylbTkhdW0NIMl1jMVtjSF1bY0hdW2NIXW5jMU4yW0NIMl1bQ0gyXU9bQ0gyXVtDSDJdMg==

> <s_epik_cmdline>
J2VwaWtfcHl0aG9uJywgJy1waCcsICc3LjAnLCAnLXRuJywgJzgnLCAnLW1hJywgJzIwMCcsICctbWV0YWxfYmluZGluZycsICctaW1hZScsICc8aW5maWxlLm1hZT4nLCAnLW9tYWUnLCAnPG91dGZpbGUubWFlPic=

> <r_lp_tautomer_probability>
1

> <r_epik_Ionization_Penalty>
0.193648

> <r_epik_Ionization_Penalty_Charging>
0

> <r_epik_Ionization_Penalty_Neutral>
0.193648

> <r_epik_State_Penalty>
0.187016

> <r_epik_Charging_Adjusted_Penalty>
0.187016

> <i_epik_Tot_Q>
0

> <i_epik_Tot_abs_Q>
0

> <r_epik_Metal_State_Penalty>
0.77957

> <b_epik_Metal_Only>
0

> <s_lp_Force_Field>
OPLS_2005

> <r_lp_Energy>
22.2983

> <b_lp_Chiralities_Consistent>
1

> <s_lp_Variant>
AV-unprocessed.smi:1513-1

> <Gold.Version>
5.8.1

> <Gold.Id.Protein>
6NUR|6NUR_protein|mol2

> <Gold.PLP.Fitness>
39.2082

> <Gold.PLP.PLP>
-31.2273

> <Gold.PLP.part.hbond>
-2.9082

> <Gold.PLP.part.metal>
0.0000

> <Gold.PLP.part.buried>
-3.2422

> <Gold.PLP.part.nonpolar>
-25.2560

> <Gold.PLP.part.repulsive>
0.3231

> <Gold.PLP.ligand.clash>
0.0000

> <Gold.PLP.ligand.torsion>
0.6396

> <Gold.PLP.Chemscore.Hbond>
3.0000

> <Gold.PLP.Chemscore.CHOScore>
0.0000

> <Gold.PLP.Chemscore.Metal>
0.0000

> <Gold.Chemscore.Hbonds>
donor molecule, donor type, donor heavy atom, donor atom, acceptor molecule, acceptor atom, score
      P1  H  6896  6907       L1     4  1.00
      P1  H  7989  7998       L1    16  0.99
      P1  H 10752 10764       L1     3  1.00

> <Gold.PLP.Chemscore.Internal.Correction>
0.2601

> <Gold.Rescore>
     Score         DG    S(hbond)    S(metal)    S(lipo)     H(rot)  DE(clash)    DE(int)     intcor
     14.19     -15.88       2.61        0.00      68.43       2.47       0.01       1.68       ----

> <Gold.Chemscore.Fitness>
14.1900

> <Gold.Chemscore.DG>
-15.8806

> <Gold.Chemscore.ZeroCoef>
-5.4800

> <Gold.Chemscore.Hbond>
2.6078

> <Gold.Chemscore.Metal>
0.0000

> <Gold.Chemscore.Lipo>
68.4280

> <Gold.Chemscore.Internal_Hbond>
0.0000

> <Gold.Chemscore.DEClash>
0.0069

> <Gold.Chemscore.DEInternal>
1.6837

> <Gold.Chemscore.Rot>
2.4671

> <Gold.Chemscore.Internal.Correction>
   9.000000E+99

> <Gold.Chemscore.Hbonds>
donor molecule, donor type, donor heavy atom, donor atom, acceptor molecule, acceptor atom, score
      P1  H  6896  6907       L1     4  0.93
      P1  H  7989  7998       L1    16  0.39
      P1  H 10752 10764       L1     3  0.94

> <Gold.Chemscore.Hbond.Weighted>
-8.7102

> <Gold.Chemscore.Metal.Weighted>
-0.0000

> <Gold.Chemscore.Lipo.Weighted>
-8.0061

> <Gold.Chemscore.Internal_Hbond.Weighted>
0.0000

> <Gold.Chemscore.DEClash.Weighted>
0.0069

> <Gold.Chemscore.DEInternal.Weighted>
1.6837

> <Gold.Chemscore.Rot.Weighted>
6.3157

> <Gold.Chemscore.Internal.Correction.Weighted>
   9.000000E+99

> <Gold.Protein.RotatedTorsions>
[ 6907 6896 6895 6894 ] final   65.42 input  -60.11 | X-H torsion
[ 7974 7965 7964 7962 ] final -136.21 input  175.53 | X-H torsion
[ 8008 7997 7996 7995 ] final -165.91 input   59.86 | X-H torsion
[ 10167 10162 10161 10158 ] final  -51.77 input  -65.29 | X-H torsion
[ 10718 10713 10712 10709 ] final  -71.93 input   66.30 | X-H torsion
[ 10763 10752 10751 10750 ] final   -4.66 input  -60.55 | X-H torsion
[ 11005 11000 10999 10996 ] final  -54.07 input  -57.11 | X-H torsion

> <Gold.Protein.ActiveResidues>
 VAL166  LYS551  ARG553  GLY616  TRP617  ASP618  TYR619  PRO620  LYS621  CYS622 
 ASP623  PHE694  ASN695  SER759  ASP760  ASP761  ALA762  ILE779  LEU786  VAL792 
 PHE793  MET794  SER795  GLU796  ALA797  LYS798  CYS799  TRP800  GLU811  SER814 

> <Gold.Protein.RotatedAtoms>
  152.4406  134.5599  159.9890 H   0  0  0  0  0  0  0  0  0  0  0  0  # atno 6907 bound_to 6896
  151.5697  133.3386  159.2995 H   0  0  0  0  0  0  0  0  0  0  0  0  # atno 6908 bound_to 6896
  150.8311  134.7599  159.6918 H   0  0  0  0  0  0  0  0  0  0  0  0  # atno 6909 bound_to 6896
  144.8947  140.6690  143.5123 H   0  0  0  0  0  0  0  0  0  0  0  0  # atno 7974 bound_to 7965
  155.8565  140.0971  157.1641 H   0  0  0  0  0  0  0  0  0  0  0  0  # atno 8008 bound_to 7997
  154.3988  140.1373  156.3970 H   0  0  0  0  0  0  0  0  0  0  0  0  # atno 8009 bound_to 7997
  155.7904  140.3456  155.5349 H   0  0  0  0  0  0  0  0  0  0  0  0  # atno 8010 bound_to 7997
  140.6572  143.2608  151.4551 H   0  0  0  0  0  0  0  0  0  0  0  0  # atno 10167 bound_to 10162
  156.0342  130.4361  150.2517 H   0  0  0  0  0  0  0  0  0  0  0  0  # atno 10718 bound_to 10713
  153.3879  135.7001  153.6517 H   0  0  0  0  0  0  0  0  0  0  0  0  # atno 10763 bound_to 10752
  153.5101  135.3633  155.2583 H   0  0  0  0  0  0  0  0  0  0  0  0  # atno 10764 bound_to 10752
  154.8699  135.4133  154.3190 H   0  0  0  0  0  0  0  0  0  0  0  0  # atno 10765 bound_to 10752
  141.1008  133.6618  156.4266 H   0  0  0  0  0  0  0  0  0  0  0  0  # atno 11005 bound_to 11000
  145.3721  139.1656  143.4326 LP  0  0  0  0  0  0  0  0  0  0  0  0  # atno 17320 bound_to 7965
  146.3074  140.3794  142.8682 LP  0  0  0  0  0  0  0  0  0  0  0  0  # atno 17321 bound_to 7965
  139.5797  144.1738  152.1951 LP  0  0  0  0  0  0  0  0  0  0  0  0  # atno 17342 bound_to 10162
  140.1060  144.5498  150.6957 LP  0  0  0  0  0  0  0  0  0  0  0  0  # atno 17343 bound_to 10162
  157.0617  131.0092  151.3220 LP  0  0  0  0  0  0  0  0  0  0  0  0  # atno 17370 bound_to 10713
  157.5065  130.7912  149.7660 LP  0  0  0  0  0  0  0  0  0  0  0  0  # atno 17371 bound_to 10713
  140.5027  134.6470  157.5255 LP  0  0  0  0  0  0  0  0  0  0  0  0  # atno 17394 bound_to 11000
  139.9859  134.7063  155.9776 LP  0  0  0  0  0  0  0  0  0  0  0  0  # atno 17395 bound_to 11000

$$$$
