AV-unprocessed.smi:1165|AV-procd|sdf|4929|dock9
  -GOLD-   22720 3513D 1   1.00000     0.00000
 Structure written by MMmdl.
 41 42  0  0  0  0  0  0  0  0  1 V2000
  150.2043  142.3224  155.8183 C   0  0  0  0  0  0  0  0  0  0  0  0
  149.8663  140.8496  155.5632 C   0  0  1  0  0  0  0  0  0  0  0  0
  148.8529  140.6819  154.4129 C   0  0  0  0  0  0  0  0  0  0  0  0
  148.6529  139.2602  154.0862 N   0  0  0  0  0  0  0  0  0  0  0  0
  147.2951  138.4166  154.7695 S   0  0  0  0  0  0  0  0  0  0  0  0
  147.7824  137.4397  155.7553 O   0  0  0  0  0  0  0  0  0  0  0  0
  146.2565  139.3945  155.1280 O   0  0  0  0  0  0  0  0  0  0  0  0
  146.7567  137.5514  153.3823 N   0  0  0  0  0  0  0  0  0  0  0  0
  145.5738  136.7051  153.4984 C   0  0  0  0  0  0  0  0  0  0  0  0
  145.0304  136.3686  152.1043 C   0  0  0  0  0  0  0  0  0  0  0  0
  145.3936  134.9617  151.6734 C   0  0  0  0  0  0  0  0  0  0  0  0
  144.4733  134.1644  150.9622 C   0  0  0  0  0  0  0  0  0  0  0  0
  144.8545  132.8632  150.5828 C   0  0  0  0  0  0  0  0  0  0  0  0
  146.1433  132.4133  150.9326 C   0  0  0  0  0  0  0  0  0  0  0  0
  147.0322  133.1676  151.6148 N   0  0  0  0  0  0  0  0  0  0  0  0
  146.6587  134.4144  151.9748 C   0  0  0  0  0  0  0  0  0  0  0  0
  149.9167  138.5330  153.8821 C   0  0  0  0  0  0  0  0  0  0  0  0
  150.8870  138.7719  155.0564 C   0  0  1  0  0  0  0  0  0  0  0  0
  152.2585  138.1355  154.8077 C   0  0  0  0  0  0  0  0  0  0  0  0
  151.0733  140.1705  155.2374 O   0  0  0  0  0  0  0  0  0  0  0  0
  149.3126  142.8882  156.0887 H   0  0  0  0  0  0  0  0  0  0  0  0
  150.6400  142.7866  154.9330 H   0  0  0  0  0  0  0  0  0  0  0  0
  150.9214  142.4221  156.6336 H   0  0  0  0  0  0  0  0  0  0  0  0
  149.4594  140.4316  156.4845 H   0  0  0  0  0  0  0  0  0  0  0  0
  147.9018  141.1519  154.6623 H   0  0  0  0  0  0  0  0  0  0  0  0
  149.2236  141.1874  153.5204 H   0  0  0  0  0  0  0  0  0  0  0  0
  147.5254  137.0936  152.8935 H   0  0  0  0  0  0  0  0  0  0  0  0
  145.8374  135.7953  154.0389 H   0  0  0  0  0  0  0  0  0  0  0  0
  144.8182  137.2274  154.0866 H   0  0  0  0  0  0  0  0  0  0  0  0
  143.9445  136.4715  152.0910 H   0  0  0  0  0  0  0  0  0  0  0  0
  145.4157  137.0779  151.3703 H   0  0  0  0  0  0  0  0  0  0  0  0
  143.4926  134.5418  150.7118 H   0  0  0  0  0  0  0  0  0  0  0  0
  144.1757  132.2244  150.0370 H   0  0  0  0  0  0  0  0  0  0  0  0
  146.4687  131.4209  150.6574 H   0  0  0  0  0  0  0  0  0  0  0  0
  147.3914  134.9910  152.5201 H   0  0  0  0  0  0  0  0  0  0  0  0
  149.7251  137.4686  153.7474 H   0  0  0  0  0  0  0  0  0  0  0  0
  150.3685  138.8872  152.9546 H   0  0  0  0  0  0  0  0  0  0  0  0
  150.4795  138.3446  155.9730 H   0  0  0  0  0  0  0  0  0  0  0  0
  152.1722  137.0567  154.6750 H   0  0  0  0  0  0  0  0  0  0  0  0
  152.9288  138.3140  155.6489 H   0  0  0  0  0  0  0  0  0  0  0  0
  152.7291  138.5467  153.9143 H   0  0  0  0  0  0  0  0  0  0  0  0
  1  2  1  0  0  0  0
  1 21  1  0  0  0  0
  1 22  1  0  0  0  0
  1 23  1  0  0  0  0
  2 20  1  0  0  0  0
  2  3  1  0  0  0  0
  2 24  1  0  0  0  0
  3  4  1  0  0  0  0
  3 25  1  0  0  0  0
  3 26  1  0  0  0  0
  4  5  1  0  0  0  0
  4 17  1  0  0  0  0
  5  6  2  0  0  0  0
  5  7  2  0  0  0  0
  5  8  1  0  0  0  0
  8  9  1  0  0  0  0
  8 27  1  0  0  0  0
  9 10  1  0  0  0  0
  9 28  1  0  0  0  0
  9 29  1  0  0  0  0
 10 11  1  0  0  0  0
 10 30  1  0  0  0  0
 10 31  1  0  0  0  0
 11 16  1  0  0  0  0
 11 12  2  0  0  0  0
 12 13  1  0  0  0  0
 12 32  1  0  0  0  0
 13 14  2  0  0  0  0
 13 33  1  0  0  0  0
 14 15  1  0  0  0  0
 14 34  1  0  0  0  0
 15 16  2  0  0  0  0
 16 35  1  0  0  0  0
 17 18  1  0  0  0  0
 17 36  1  0  0  0  0
 17 37  1  0  0  0  0
 18 19  1  0  0  0  0
 18 20  1  0  0  0  0
 18 38  1  0  0  0  0
 19 39  1  0  0  0  0
 19 40  1  0  0  0  0
 19 41  1  0  0  0  0
M  END
> <s_m_source_file>
AV-unprocessed.smi

> <i_m_source_file_index>
1165

> <i_lp_mmshare_version>
43012

> <i_f3d_flags>
0

> <s_epik_input>
W0NIM11bQ0BASF0xW0NIMl1OKFtDSDJdW0NASF0oTzEpW0NIM10pUyg9TykoPU8pW05IXVtDSDJdW0NIMl1jMltjSF1bY0hdW2NIXW5bY0hdMg==

> <s_epik_cmdline>
J2VwaWtfcHl0aG9uJywgJy1waCcsICc3LjAnLCAnLXRuJywgJzgnLCAnLW1hJywgJzIwMCcsICctbWV0YWxfYmluZGluZycsICctaW1hZScsICc8aW5maWxlLm1hZT4nLCAnLW9tYWUnLCAnPG91dGZpbGUubWFlPic=

> <r_epik_Ionization_Penalty>
0.0861056

> <r_epik_Ionization_Penalty_Charging>
0

> <r_epik_Ionization_Penalty_Neutral>
0.0861056

> <r_epik_State_Penalty>
0.0574425

> <r_epik_Charging_Adjusted_Penalty>
0.0574425

> <i_epik_Tot_Q>
0

> <i_epik_Tot_abs_Q>
0

> <r_epik_Metal_State_Penalty>
0.317425

> <b_epik_Metal_Only>
0

> <s_lp_Force_Field>
OPLS_2005

> <r_lp_Energy>
3.52917

> <b_lp_Chiralities_Consistent>
1

> <s_lp_Variant>
AV-unprocessed.smi:1165-2

> <Gold.Version>
5.8.1

> <Gold.Id.Protein>
6NUR|6NUR_protein|mol2

> <Gold.PLP.Fitness>
37.8384

> <Gold.PLP.PLP>
-27.7432

> <Gold.PLP.part.hbond>
-2.0000

> <Gold.PLP.part.metal>
0.0000

> <Gold.PLP.part.buried>
1.7909

> <Gold.PLP.part.nonpolar>
-28.2847

> <Gold.PLP.part.repulsive>
0.3364

> <Gold.PLP.ligand.clash>
0.0000

> <Gold.PLP.ligand.torsion>
1.7750

> <Gold.PLP.Chemscore.Hbond>
2.0000

> <Gold.PLP.Chemscore.CHOScore>
1.8463

> <Gold.PLP.Chemscore.Metal>
0.0000

> <Gold.Chemscore.Hbonds>
donor molecule, donor type, donor heavy atom, donor atom, acceptor molecule, acceptor atom, score
      L1  H     8    27       P1  7948  1.00
      P1  H  7989  7998       L1    20  1.00
      L1  C    14    34       P1 10747  0.71
      L1  C    16    35       P1  7948  1.00

> <Gold.PLP.Chemscore.Internal.Correction>
2.1065

> <Gold.Rescore>
     Score         DG    S(hbond)    S(metal)    S(lipo)     H(rot)  DE(clash)    DE(int)     intcor
     13.13     -15.12       1.12        0.00      83.65       1.52       0.19       1.81       ----

> <Gold.Chemscore.Fitness>
13.1251

> <Gold.Chemscore.DG>
-15.1208

> <Gold.Chemscore.ZeroCoef>
-5.4800

> <Gold.Chemscore.Hbond>
1.1190

> <Gold.Chemscore.Metal>
0.0000

> <Gold.Chemscore.Lipo>
83.6538

> <Gold.Chemscore.Internal_Hbond>
0.0000

> <Gold.Chemscore.DEClash>
0.1851

> <Gold.Chemscore.DEInternal>
1.8106

> <Gold.Chemscore.Rot>
1.5172

> <Gold.Chemscore.Internal.Correction>
   9.000000E+99

> <Gold.Chemscore.Hbonds>
donor molecule, donor type, donor heavy atom, donor atom, acceptor molecule, acceptor atom, score
      L1  H     8    27       P1  7948  0.99
      P1  H  7989  7998       L1    20  0.30

> <Gold.Chemscore.Hbond.Weighted>
-3.7374

> <Gold.Chemscore.Metal.Weighted>
-0.0000

> <Gold.Chemscore.Lipo.Weighted>
-9.7875

> <Gold.Chemscore.Internal_Hbond.Weighted>
0.0000

> <Gold.Chemscore.DEClash.Weighted>
0.1851

> <Gold.Chemscore.DEInternal.Weighted>
1.8106

> <Gold.Chemscore.Rot.Weighted>
3.8841

> <Gold.Chemscore.Internal.Correction.Weighted>
   9.000000E+99

> <Gold.Protein.RotatedTorsions>
[ 6907 6896 6895 6894 ] final  159.85 input  -60.11 | X-H torsion
[ 7974 7965 7964 7962 ] final -176.16 input  175.53 | X-H torsion
[ 8008 7997 7996 7995 ] final   32.56 input   59.86 | X-H torsion
[ 10167 10162 10161 10158 ] final  161.47 input  -65.29 | X-H torsion
[ 10718 10713 10712 10709 ] final -134.72 input   66.30 | X-H torsion
[ 10763 10752 10751 10750 ] final  178.48 input  -60.55 | X-H torsion
[ 11005 11000 10999 10996 ] final   71.54 input  -57.11 | X-H torsion

> <Gold.Protein.ActiveResidues>
 VAL166  LYS551  ARG553  GLY616  TRP617  ASP618  TYR619  PRO620  LYS621  CYS622 
 ASP623  PHE694  ASN695  SER759  ASP760  ASP761  ALA762  ILE779  LEU786  VAL792 
 PHE793  MET794  SER795  GLU796  ALA797  LYS798  CYS799  TRP800  GLU811  SER814 

> <Gold.Protein.RotatedAtoms>
  151.9794  133.3753  159.4101 H   0  0  0  0  0  0  0  0  0  0  0  0  # atno 6907 bound_to 6896
  150.6937  134.4054  159.5147 H   0  0  0  0  0  0  0  0  0  0  0  0  # atno 6908 bound_to 6896
  152.1771  134.8785  160.0580 H   0  0  0  0  0  0  0  0  0  0  0  0  # atno 6909 bound_to 6896
  144.7127  140.1212  143.6405 H   0  0  0  0  0  0  0  0  0  0  0  0  # atno 7974 bound_to 7965
  155.1245  140.3251  155.4489 H   0  0  0  0  0  0  0  0  0  0  0  0  # atno 8008 bound_to 7997
  156.2653  140.2021  156.6314 H   0  0  0  0  0  0  0  0  0  0  0  0  # atno 8009 bound_to 7997
  154.6659  140.0542  157.0099 H   0  0  0  0  0  0  0  0  0  0  0  0  # atno 8010 bound_to 7997
  139.4850  144.4533  151.8801 H   0  0  0  0  0  0  0  0  0  0  0  0  # atno 10167 bound_to 10162
  156.2585  130.7195  151.1121 H   0  0  0  0  0  0  0  0  0  0  0  0  # atno 10718 bound_to 10713
  154.5082  135.2787  155.1364 H   0  0  0  0  0  0  0  0  0  0  0  0  # atno 10763 bound_to 10752
  154.2970  135.6255  153.5412 H   0  0  0  0  0  0  0  0  0  0  0  0  # atno 10764 bound_to 10752
  152.9914  135.5688  154.5541 H   0  0  0  0  0  0  0  0  0  0  0  0  # atno 10765 bound_to 10752
  139.9538  134.7180  156.0800 H   0  0  0  0  0  0  0  0  0  0  0  0  # atno 11005 bound_to 11000
  145.9369  139.2643  143.1292 LP  0  0  0  0  0  0  0  0  0  0  0  0  # atno 17320 bound_to 7965
  145.9464  140.8941  143.0281 LP  0  0  0  0  0  0  0  0  0  0  0  0  # atno 17321 bound_to 7965
  140.3991  144.2516  150.5894 LP  0  0  0  0  0  0  0  0  0  0  0  0  # atno 17342 bound_to 10162
  140.5074  143.2300  151.8588 LP  0  0  0  0  0  0  0  0  0  0  0  0  # atno 17343 bound_to 10162
  157.7242  131.0661  150.6007 LP  0  0  0  0  0  0  0  0  0  0  0  0  # atno 17370 bound_to 10713
  156.6092  130.4375  149.5865 LP  0  0  0  0  0  0  0  0  0  0  0  0  # atno 17371 bound_to 10713
  141.1206  133.6614  156.3205 LP  0  0  0  0  0  0  0  0  0  0  0  0  # atno 17394 bound_to 11000
  140.5657  134.5890  157.5445 LP  0  0  0  0  0  0  0  0  0  0  0  0  # atno 17395 bound_to 11000

$$$$
