AV-unprocessed.smi:159|AV-procd|sdf|1341|dock7
  -GOLD-   2262019 43D 1   1.00000     0.00000
 Structure written by MMmdl.
 28 29  0  0  0  0  0  0  0  0  1 V2000
  150.1402  139.2772  153.9606 N   0  0  0  0  0  0  0  0  0  0  0  0
  150.3996  139.8954  155.1210 C   0  0  0  0  0  0  0  0  0  0  0  0
  150.0561  141.2877  155.2976 C   0  0  0  0  0  0  0  0  0  0  0  0
  150.3486  141.8427  156.4942 C   0  0  0  0  0  0  0  0  0  0  0  0
  150.9611  141.1242  157.5147 N   0  0  0  0  0  0  0  0  0  0  0  0
  151.2735  141.7352  158.8681 C   0  0  1  0  0  0  0  0  0  0  0  0
  152.7743  141.6120  159.1949 C   0  0  0  0  0  0  0  0  0  0  0  0
  153.1618  143.0426  159.5145 C   0  0  0  0  0  0  0  0  0  0  0  0
  152.1856  143.8374  158.6546 C   0  0  2  0  0  0  0  0  0  0  0  0
  152.0059  145.2927  159.1066 C   0  0  0  0  0  0  0  0  0  0  0  0
  151.7017  145.3311  160.4843 O   0  0  0  0  0  0  0  0  0  0  0  0
  150.9832  143.1032  158.8536 O   0  0  0  0  0  0  0  0  0  0  0  0
  151.2705  139.7569  157.3141 C   0  0  0  0  0  0  0  0  0  0  0  0
  151.7907  139.0760  158.1973 O   0  0  0  0  0  0  0  0  0  0  0  0
  150.9683  139.2122  156.0950 N   0  0  0  0  0  0  0  0  0  0  0  0
  150.6155  141.2298  159.5778 H   0  0  0  0  0  0  0  0  0  0  0  0
  152.5002  143.7855  157.6103 H   0  0  0  0  0  0  0  0  0  0  0  0
  150.3791  138.3035  153.8410 H   0  0  0  0  0  0  0  0  0  0  0  0
  149.7074  139.7893  153.2056 H   0  0  0  0  0  0  0  0  0  0  0  0
  149.5854  141.8856  154.5301 H   0  0  0  0  0  0  0  0  0  0  0  0
  150.0843  142.8808  156.6271 H   0  0  0  0  0  0  0  0  0  0  0  0
  152.9396  140.9272  160.0271 H   0  0  0  0  0  0  0  0  0  0  0  0
  153.3259  141.2538  158.3243 H   0  0  0  0  0  0  0  0  0  0  0  0
  152.9908  143.2473  160.5724 H   0  0  0  0  0  0  0  0  0  0  0  0
  154.2058  143.2606  159.2880 H   0  0  0  0  0  0  0  0  0  0  0  0
  152.8949  145.8879  158.8958 H   0  0  0  0  0  0  0  0  0  0  0  0
  151.1726  145.7508  158.5732 H   0  0  0  0  0  0  0  0  0  0  0  0
  152.2230  146.0074  160.8886 H   0  0  0  0  0  0  0  0  0  0  0  0
  1  2  1  0  0  0  0
  1 18  1  0  0  0  0
  1 19  1  0  0  0  0
  2 15  2  0  0  0  0
  2  3  1  0  0  0  0
  3  4  2  0  0  0  0
  3 20  1  0  0  0  0
  4  5  1  0  0  0  0
  4 21  1  0  0  0  0
  5  6  1  0  0  0  0
  5 13  1  0  0  0  0
  6 16  1  0  0  0  0
  6 12  1  0  0  0  0
  6  7  1  0  0  0  0
  7  8  1  0  0  0  0
  7 22  1  0  0  0  0
  7 23  1  0  0  0  0
  8  9  1  0  0  0  0
  8 24  1  0  0  0  0
  8 25  1  0  0  0  0
  9 17  1  0  0  0  0
  9 10  1  0  0  0  0
  9 12  1  0  0  0  0
 10 11  1  0  0  0  0
 10 26  1  0  0  0  0
 10 27  1  0  0  0  0
 11 28  1  0  0  0  0
 13 14  2  0  0  0  0
 13 15  1  0  0  0  0
M  END
> <s_m_source_file>
AV-unprocessed.smi

> <i_m_source_file_index>
159

> <i_lp_mmshare_version>
43012

> <i_f3d_flags>
0

> <s_epik_input>
W05IMl1jMVtjSF1bY0hdbihjKD1PKW4xKVtDQEhdMltDSDJdW0NIMl1bQ0BIXShPMilbQ0gyXVtPSF0=

> <s_epik_cmdline>
J2VwaWtfcHl0aG9uJywgJy1waCcsICc3LjAnLCAnLXRuJywgJzgnLCAnLW1hJywgJzIwMCcsICctbWV0YWxfYmluZGluZycsICctaW1hZScsICc8aW5maWxlLm1hZT4nLCAnLW9tYWUnLCAnPG91dGZpbGUubWFlPic=

> <r_lp_tautomer_probability>
0.99996

> <r_epik_Ionization_Penalty>
0.00126102

> <r_epik_Ionization_Penalty_Charging>
4.46248e-08

> <r_epik_Ionization_Penalty_Neutral>
0.00126097

> <r_epik_State_Penalty>
1.15523e-05

> <r_epik_Charging_Adjusted_Penalty>
1.1597e-05

> <i_epik_Tot_Q>
0

> <i_epik_Tot_abs_Q>
0

> <r_epik_Metal_State_Penalty>
-0

> <b_epik_Metal_Only>
0

> <s_epik_Chemistry_Notes>
This compound contains an acetal/aminal-like group ( X-CH(R)-Y where X, Y are N, S, or O) that may be acid/base labile, releasing an aldehyde.

> <s_lp_Force_Field>
OPLS_2005

> <r_lp_Energy>
23.8036

> <b_lp_Chiralities_Consistent>
1

> <s_lp_Variant>
AV-unprocessed.smi:159-3

> <Gold.Version>
5.8.1

> <Gold.Id.Protein>
6NUR|6NUR_protein|mol2

> <Gold.PLP.Fitness>
37.0128

> <Gold.PLP.PLP>
-31.3021

> <Gold.PLP.part.hbond>
-1.3110

> <Gold.PLP.part.metal>
0.0000

> <Gold.PLP.part.buried>
-3.6460

> <Gold.PLP.part.nonpolar>
-26.4211

> <Gold.PLP.part.repulsive>
0.4593

> <Gold.PLP.ligand.clash>
0.0000

> <Gold.PLP.ligand.torsion>
0.0487

> <Gold.PLP.Chemscore.Hbond>
0.9280

> <Gold.PLP.Chemscore.CHOScore>
1.0000

> <Gold.PLP.Chemscore.Metal>
0.0000

> <Gold.Chemscore.Hbonds>
donor molecule, donor type, donor heavy atom, donor atom, acceptor molecule, acceptor atom, score
      L1  H     1    19       P1  7957  0.83
      L1  C     4    21       P1  8028  1.00

> <Gold.PLP.Chemscore.Internal.Correction>
0.0241

> <Gold.Rescore>
     Score         DG    S(hbond)    S(metal)    S(lipo)     H(rot)  DE(clash)    DE(int)     intcor
      9.50     -10.83       0.97        0.00      63.90       2.09       0.13       1.20       ----

> <Gold.Chemscore.Fitness>
9.5035

> <Gold.Chemscore.DG>
-10.8280

> <Gold.Chemscore.ZeroCoef>
-5.4800

> <Gold.Chemscore.Hbond>
0.9673

> <Gold.Chemscore.Metal>
0.0000

> <Gold.Chemscore.Lipo>
63.9030

> <Gold.Chemscore.Internal_Hbond>
0.0000

> <Gold.Chemscore.DEClash>
0.1283

> <Gold.Chemscore.DEInternal>
1.1962

> <Gold.Chemscore.Rot>
2.0935

> <Gold.Chemscore.Internal.Correction>
   9.000000E+99

> <Gold.Chemscore.Hbonds>
donor molecule, donor type, donor heavy atom, donor atom, acceptor molecule, acceptor atom, score
      L1  H     1    19       P1  7957  0.78

> <Gold.Chemscore.Hbond.Weighted>
-3.2307

> <Gold.Chemscore.Metal.Weighted>
-0.0000

> <Gold.Chemscore.Lipo.Weighted>
-7.4767

> <Gold.Chemscore.Internal_Hbond.Weighted>
0.0000

> <Gold.Chemscore.DEClash.Weighted>
0.1283

> <Gold.Chemscore.DEInternal.Weighted>
1.1962

> <Gold.Chemscore.Rot.Weighted>
5.3594

> <Gold.Chemscore.Internal.Correction.Weighted>
   9.000000E+99

> <Gold.Protein.RotatedTorsions>
[ 6907 6896 6895 6894 ] final    3.09 input  -60.11 | X-H torsion
[ 7974 7965 7964 7962 ] final   32.26 input  175.53 | X-H torsion
[ 8008 7997 7996 7995 ] final -127.27 input   59.86 | X-H torsion
[ 10167 10162 10161 10158 ] final  -25.03 input  -65.29 | X-H torsion
[ 10718 10713 10712 10709 ] final   95.54 input   66.30 | X-H torsion
[ 10763 10752 10751 10750 ] final   99.96 input  -60.55 | X-H torsion
[ 11005 11000 10999 10996 ] final  102.65 input  -57.11 | X-H torsion

> <Gold.Protein.ActiveResidues>
 VAL166  LYS551  ARG553  GLY616  TRP617  ASP618  TYR619  PRO620  LYS621  CYS622 
 ASP623  PHE694  ASN695  SER759  ASP760  ASP761  ALA762  ILE779  LEU786  VAL792 
 PHE793  MET794  SER795  GLU796  ALA797  LYS798  CYS799  TRP800  GLU811  SER814 

> <Gold.Protein.RotatedAtoms>
  151.6195  135.1033  160.0098 H   0  0  0  0  0  0  0  0  0  0  0  0  # atno 6907 bound_to 6896
  152.4165  133.7043  159.6452 H   0  0  0  0  0  0  0  0  0  0  0  0  # atno 6908 bound_to 6896
  150.8053  133.8447  159.3229 H   0  0  0  0  0  0  0  0  0  0  0  0  # atno 6909 bound_to 6896
  146.1498  139.6549  142.9107 H   0  0  0  0  0  0  0  0  0  0  0  0  # atno 7974 bound_to 7965
  155.2434  140.0429  157.2978 H   0  0  0  0  0  0  0  0  0  0  0  0  # atno 8008 bound_to 7997
  154.5814  140.2401  155.8018 H   0  0  0  0  0  0  0  0  0  0  0  0  # atno 8009 bound_to 7997
  156.2195  140.2974  155.9928 H   0  0  0  0  0  0  0  0  0  0  0  0  # atno 8010 bound_to 7997
  140.7287  143.4300  151.0816 H   0  0  0  0  0  0  0  0  0  0  0  0  # atno 10167 bound_to 10162
  157.6937  131.0549  150.4355 H   0  0  0  0  0  0  0  0  0  0  0  0  # atno 10718 bound_to 10713
  153.3080  135.4095  155.1311 H   0  0  0  0  0  0  0  0  0  0  0  0  # atno 10763 bound_to 10752
  154.8568  135.3557  154.5762 H   0  0  0  0  0  0  0  0  0  0  0  0  # atno 10764 bound_to 10752
  153.6190  135.7065  153.5376 H   0  0  0  0  0  0  0  0  0  0  0  0  # atno 10765 bound_to 10752
  139.8779  134.9232  156.5089 H   0  0  0  0  0  0  0  0  0  0  0  0  # atno 11005 bound_to 11000
  145.4851  141.0438  143.2624 LP  0  0  0  0  0  0  0  0  0  0  0  0  # atno 17320 bound_to 7965
  144.7890  139.6368  143.7122 LP  0  0  0  0  0  0  0  0  0  0  0  0  # atno 17321 bound_to 7965
  139.7956  143.8156  152.3157 LP  0  0  0  0  0  0  0  0  0  0  0  0  # atno 17342 bound_to 10162
  139.8155  144.7318  150.9641 LP  0  0  0  0  0  0  0  0  0  0  0  0  # atno 17343 bound_to 10162
  156.4718  130.4054  149.6514 LP  0  0  0  0  0  0  0  0  0  0  0  0  # atno 17370 bound_to 10713
  156.3591  130.7472  151.2442 LP  0  0  0  0  0  0  0  0  0  0  0  0  # atno 17371 bound_to 10713
  140.8534  133.8114  155.9192 LP  0  0  0  0  0  0  0  0  0  0  0  0  # atno 17394 bound_to 11000
  140.9121  134.2247  157.4979 LP  0  0  0  0  0  0  0  0  0  0  0  0  # atno 17395 bound_to 11000

$$$$
