AV-unprocessed.smi:2786|AV-procd|sdf|10753|dock3
  -GOLD-   2272015183D 1   1.00000     0.00000
 Structure written by MMmdl.
 27 28  0  0  0  0  0  0  0  0  2 V2000
  152.7982  141.9798  159.9860 C   0  0  0  0  0  0  0  0  0  0  0  0
  152.1874  143.0391  159.1806 N   0  0  0  0  0  0  0  0  0  0  0  0
  152.2454  144.3872  159.4263 C   0  0  0  0  0  0  0  0  0  0  0  0
  151.5320  144.9995  158.4295 C   0  0  0  0  0  0  0  0  0  0  0  0
  151.0700  144.0007  157.6167 N   0  3  0  0  0  0  0  0  0  0  0  0
  151.4743  142.8057  158.0659 C   0  0  0  0  0  0  0  0  0  0  0  0
  151.1530  141.4789  157.4433 C   0  0  1  0  0  0  0  0  0  0  0  0
  150.4891  141.6608  156.0606 C   0  0  0  0  0  0  0  0  0  0  0  0
  150.1618  140.3653  155.4629 N   0  0  0  0  0  0  0  0  0  0  0  0
  151.3535  139.5236  155.3494 C   0  0  0  0  0  0  0  0  0  0  0  0
  152.0129  139.3315  156.7270 C   0  0  0  0  0  0  0  0  0  0  0  0
  152.3417  140.6246  157.3313 N   0  0  0  0  0  0  0  0  0  0  0  0
  153.2211  142.4093  160.8947 H   0  0  0  0  0  0  0  0  0  0  0  0
  153.5904  141.5014  159.4094 H   0  0  0  0  0  0  0  0  0  0  0  0
  152.0397  141.2445  160.2557 H   0  0  0  0  0  0  0  0  0  0  0  0
  152.7746  144.8009  160.2725 H   0  0  0  0  0  0  0  0  0  0  0  0
  151.3227  146.0430  158.2435 H   0  0  0  0  0  0  0  0  0  0  0  0
  150.4403  140.9984  158.1145 H   0  0  0  0  0  0  0  0  0  0  0  0
  149.5817  142.2570  156.1586 H   0  0  0  0  0  0  0  0  0  0  0  0
  151.1550  142.2165  155.3988 H   0  0  0  0  0  0  0  0  0  0  0  0
  149.7606  140.5082  154.5412 H   0  0  0  0  0  0  0  0  0  0  0  0
  151.0851  138.5541  154.9291 H   0  0  0  0  0  0  0  0  0  0  0  0
  152.0657  139.9753  154.6575 H   0  0  0  0  0  0  0  0  0  0  0  0
  151.3418  138.7741  157.3820 H   0  0  0  0  0  0  0  0  0  0  0  0
  152.9160  138.7299  156.6238 H   0  0  0  0  0  0  0  0  0  0  0  0
  152.7281  140.4650  158.2563 H   0  0  0  0  0  0  0  0  0  0  0  0
  150.5047  144.1382  156.7881 H   0  0  0  0  0  0  0  0  0  0  0  0
  1  2  1  0  0  0  0
  1 13  1  0  0  0  0
  1 14  1  0  0  0  0
  1 15  1  0  0  0  0
  2  6  1  0  0  0  0
  2  3  1  0  0  0  0
  3  4  2  0  0  0  0
  3 16  1  0  0  0  0
  4  5  1  0  0  0  0
  4 17  1  0  0  0  0
  5  6  2  0  0  0  0
  5 27  1  0  0  0  0
  6  7  1  0  0  0  0
  7 12  1  0  0  0  0
  7  8  1  0  0  0  0
  7 18  1  0  0  0  0
  8  9  1  0  0  0  0
  8 19  1  0  0  0  0
  8 20  1  0  0  0  0
  9 10  1  0  0  0  0
  9 21  1  0  0  0  0
 10 11  1  0  0  0  0
 10 22  1  0  0  0  0
 10 23  1  0  0  0  0
 11 12  1  0  0  0  0
 11 24  1  0  0  0  0
 11 25  1  0  0  0  0
 12 26  1  0  0  0  0
M  CHG  1   5   1
M  END
> <s_m_source_file>
AV-unprocessed.smi

> <i_m_source_file_index>
2786

> <i_lp_mmshare_version>
43012

> <i_f3d_flags>
0

> <s_epik_input>
W0NIM11uMVtjSF1bY0hdbmMxW0NAQEhdMltDSDJdW05IXVtDSDJdW0NIMl1bTkhdMg==

> <s_epik_cmdline>
J2VwaWtfcHl0aG9uJywgJy1waCcsICc3LjAnLCAnLXRuJywgJzgnLCAnLW1hJywgJzIwMCcsICctbWV0YWxfYmluZGluZycsICctaW1hZScsICc8aW5maWxlLm1hZT4nLCAnLW9tYWUnLCAnPG91dGZpbGUubWFlPic=

> <r_epik_Ionization_Penalty>
1.38811

> <r_epik_Ionization_Penalty_Charging>
0

> <r_epik_Ionization_Penalty_Neutral>
1.38811

> <r_epik_State_Penalty>
1.49833

> <r_epik_Charging_Adjusted_Penalty>
1.49833

> <i_epik_Tot_Q>
1

> <i_epik_Tot_abs_Q>
1

> <r_epik_Metal_State_Penalty>
3.89997

> <b_epik_Metal_Only>
0

> <s_lp_Force_Field>
OPLS_2005

> <r_lp_Energy>
24.8343

> <b_lp_Chiralities_Consistent>
1

> <s_lp_Variant>
AV-unprocessed.smi:2786-6

> <Gold.Version>
5.8.1

> <Gold.Id.Protein>
6NUR|6NUR_protein|mol2

> <Gold.PLP.Fitness>
34.7458

> <Gold.PLP.PLP>
-29.1223

> <Gold.PLP.part.hbond>
-1.8953

> <Gold.PLP.part.metal>
0.0000

> <Gold.PLP.part.buried>
-2.1821

> <Gold.PLP.part.nonpolar>
-25.0053

> <Gold.PLP.part.repulsive>
0.0202

> <Gold.PLP.ligand.clash>
0.0000

> <Gold.PLP.ligand.torsion>
0.2281

> <Gold.PLP.Chemscore.Hbond>
2.0207

> <Gold.PLP.Chemscore.CHOScore>
0.0000

> <Gold.PLP.Chemscore.Metal>
0.0000

> <Gold.Chemscore.Hbonds>
donor molecule, donor type, donor heavy atom, donor atom, acceptor molecule, acceptor atom, score
      L1  H     5    27       P1  8028  1.98
      P1  H  7997  8008       L1    12  0.01

> <Gold.PLP.Chemscore.Internal.Correction>
0.0177

> <Gold.Rescore>
     Score         DG    S(hbond)    S(metal)    S(lipo)     H(rot)  DE(clash)    DE(int)     intcor
     13.19     -13.31       0.95        0.00      61.63       1.00       0.08       0.05       ----

> <Gold.Chemscore.Fitness>
13.1898

> <Gold.Chemscore.DG>
-13.3117

> <Gold.Chemscore.ZeroCoef>
-5.4800

> <Gold.Chemscore.Hbond>
0.9522

> <Gold.Chemscore.Metal>
0.0000

> <Gold.Chemscore.Lipo>
61.6345

> <Gold.Chemscore.Internal_Hbond>
0.0000

> <Gold.Chemscore.DEClash>
0.0756

> <Gold.Chemscore.DEInternal>
0.0462

> <Gold.Chemscore.Rot>
1.0000

> <Gold.Chemscore.Internal.Correction>
   9.000000E+99

> <Gold.Chemscore.Hbonds>
donor molecule, donor type, donor heavy atom, donor atom, acceptor molecule, acceptor atom, score
      L1  H     5    27       P1  8028  0.91

> <Gold.Chemscore.Hbond.Weighted>
-3.1804

> <Gold.Chemscore.Metal.Weighted>
-0.0000

> <Gold.Chemscore.Lipo.Weighted>
-7.2112

> <Gold.Chemscore.Internal_Hbond.Weighted>
0.0000

> <Gold.Chemscore.DEClash.Weighted>
0.0756

> <Gold.Chemscore.DEInternal.Weighted>
0.0462

> <Gold.Chemscore.Rot.Weighted>
2.5600

> <Gold.Chemscore.Internal.Correction.Weighted>
   9.000000E+99

> <Gold.Protein.RotatedTorsions>
[ 6907 6896 6895 6894 ] final  148.80 input  -60.11 | X-H torsion
[ 7974 7965 7964 7962 ] final  -24.69 input  175.53 | X-H torsion
[ 8008 7997 7996 7995 ] final  -55.14 input   59.86 | X-H torsion
[ 10167 10162 10161 10158 ] final  -60.57 input  -65.29 | X-H torsion
[ 10718 10713 10712 10709 ] final   76.84 input   66.30 | X-H torsion
[ 10763 10752 10751 10750 ] final -134.25 input  -60.55 | X-H torsion
[ 11005 11000 10999 10996 ] final   84.28 input  -57.11 | X-H torsion

> <Gold.Protein.ActiveResidues>
 VAL166  LYS551  ARG553  GLY616  TRP617  ASP618  TYR619  PRO620  LYS621  CYS622 
 ASP623  PHE694  ASN695  SER759  ASP760  ASP761  ALA762  ILE779  LEU786  VAL792 
 PHE793  MET794  SER795  GLU796  ALA797  LYS798  CYS799  TRP800  GLU811  SER814 

> <Gold.Protein.RotatedAtoms>
  152.1367  133.4439  159.4746 H   0  0  0  0  0  0  0  0  0  0  0  0  # atno 6907 bound_to 6896
  150.6882  134.2355  159.4461 H   0  0  0  0  0  0  0  0  0  0  0  0  # atno 6908 bound_to 6896
  152.0243  134.9804  160.0622 H   0  0  0  0  0  0  0  0  0  0  0  0  # atno 6909 bound_to 6896
  146.1538  140.4786  142.8600 H   0  0  0  0  0  0  0  0  0  0  0  0  # atno 7974 bound_to 7965
  154.4185  140.1160  156.5429 H   0  0  0  0  0  0  0  0  0  0  0  0  # atno 8008 bound_to 7997
  155.6489  140.3496  155.4722 H   0  0  0  0  0  0  0  0  0  0  0  0  # atno 8009 bound_to 7997
  155.9809  140.1160  157.0717 H   0  0  0  0  0  0  0  0  0  0  0  0  # atno 8010 bound_to 7997
  140.6063  143.2374  151.5814 H   0  0  0  0  0  0  0  0  0  0  0  0  # atno 10167 bound_to 10162
  157.6688  130.9793  150.1554 H   0  0  0  0  0  0  0  0  0  0  0  0  # atno 10718 bound_to 10713
  154.8722  135.3740  154.4705 H   0  0  0  0  0  0  0  0  0  0  0  0  # atno 10763 bound_to 10752
  153.5366  135.7027  153.5662 H   0  0  0  0  0  0  0  0  0  0  0  0  # atno 10764 bound_to 10752
  153.3842  135.3989  155.1843 H   0  0  0  0  0  0  0  0  0  0  0  0  # atno 10765 bound_to 10752
  139.9005  134.8205  156.2424 H   0  0  0  0  0  0  0  0  0  0  0  0  # atno 11005 bound_to 11000
  144.7938  140.6082  143.6524 LP  0  0  0  0  0  0  0  0  0  0  0  0  # atno 17320 bound_to 7965
  145.4758  139.1499  143.3789 LP  0  0  0  0  0  0  0  0  0  0  0  0  # atno 17321 bound_to 7965
  139.5327  144.2869  152.1184 LP  0  0  0  0  0  0  0  0  0  0  0  0  # atno 17342 bound_to 10162
  140.2059  144.4611  150.6409 LP  0  0  0  0  0  0  0  0  0  0  0  0  # atno 17343 bound_to 10162
  156.2343  130.3685  149.8409 LP  0  0  0  0  0  0  0  0  0  0  0  0  # atno 17370 bound_to 10713
  156.6227  130.8633  151.3479 LP  0  0  0  0  0  0  0  0  0  0  0  0  # atno 17371 bound_to 10713
  141.0276  133.7006  156.1375 LP  0  0  0  0  0  0  0  0  0  0  0  0  # atno 17394 bound_to 11000
  140.7143  134.4428  157.5579 LP  0  0  0  0  0  0  0  0  0  0  0  0  # atno 17395 bound_to 11000

$$$$
