AV-unprocessed.smi:2772|AV-procd|sdf|10670|dock6
  -GOLD-   2272015113D 1   1.00000     0.00000
 Structure written by MMmdl.
 54 56  0  0  0  0  0  0  0  0  2 V2000
  153.0527  143.2029  160.2360 C   0  0  0  0  0  0  0  0  0  0  0  0
  152.2071  142.5635  159.1546 C   0  0  0  0  0  0  0  0  0  0  0  0
  151.8977  141.1887  159.1969 C   0  0  0  0  0  0  0  0  0  0  0  0
  151.1037  140.6447  158.1690 C   0  0  0  0  0  0  0  0  0  0  0  0
  150.6391  141.4979  157.1389 C   0  0  0  0  0  0  0  0  0  0  0  0
  149.8457  141.0722  156.0388 N   0  0  0  0  0  0  0  0  0  0  0  0
  148.9257  140.0932  155.9941 C   0  0  0  0  0  0  0  0  0  0  0  0
  148.5891  139.3847  156.9425 O   0  0  0  0  0  0  0  0  0  0  0  0
  148.3887  139.9882  154.7700 N   0  0  0  0  0  0  0  0  0  0  0  0
  147.3593  139.0265  154.3853 C   0  0  2  0  0  0  0  0  0  0  0  0
  147.8074  137.6048  154.7461 C   0  0  0  0  0  0  0  0  0  0  0  0
  146.7813  136.5545  154.2857 C   0  0  0  0  0  0  0  0  0  0  0  0
  146.5056  136.6482  152.8215 N   0  3  1  0  0  0  0  0  0  0  0  0
  145.5915  135.5915  152.2763 C   0  0  0  0  0  0  0  0  0  0  0  0
  146.1456  134.1506  152.3945 C   0  0  0  0  0  0  0  0  0  0  0  0
  145.2158  133.1212  151.7288 C   0  0  0  0  0  0  0  0  0  0  0  0
  145.0390  133.4436  150.3152 N   0  0  0  0  0  0  0  0  0  0  0  0
  144.2091  132.4244  149.6882 C   0  0  0  0  0  0  0  0  0  0  0  0
  144.3869  134.7441  150.1864 C   0  0  0  0  0  0  0  0  0  0  0  0
  145.2805  135.8448  150.7829 C   0  0  0  0  0  0  0  0  0  0  0  0
  146.0545  138.0235  152.4613 C   0  0  0  0  0  0  0  0  0  0  0  0
  147.0785  139.0914  152.8762 C   0  0  0  0  0  0  0  0  0  0  0  0
  151.0200  142.8556  157.1899 C   0  0  0  0  0  0  0  0  0  0  0  0
  151.7807  143.3848  158.1714 N   0  0  0  0  0  0  0  0  0  0  0  0
  153.5713  142.4477  160.8273 H   0  0  0  0  0  0  0  0  0  0  0  0
  152.4250  143.7906  160.9063 H   0  0  0  0  0  0  0  0  0  0  0  0
  153.8022  143.8632  159.7989 H   0  0  0  0  0  0  0  0  0  0  0  0
  152.2621  140.5607  159.9962 H   0  0  0  0  0  0  0  0  0  0  0  0
  150.8814  139.5895  158.1880 H   0  0  0  0  0  0  0  0  0  0  0  0
  149.9576  141.6143  155.1946 H   0  0  0  0  0  0  0  0  0  0  0  0
  148.7207  140.6144  154.0509 H   0  0  0  0  0  0  0  0  0  0  0  0
  146.4409  139.2482  154.9330 H   0  0  0  0  0  0  0  0  0  0  0  0
  148.7729  137.3918  154.2844 H   0  0  0  0  0  0  0  0  0  0  0  0
  147.9564  137.5228  155.8234 H   0  0  0  0  0  0  0  0  0  0  0  0
  147.1965  135.5810  154.5422 H   0  0  0  0  0  0  0  0  0  0  0  0
  145.8489  136.6662  154.8413 H   0  0  0  0  0  0  0  0  0  0  0  0
  144.6591  135.6282  152.8425 H   0  0  0  0  0  0  0  0  0  0  0  0
  147.1365  134.0891  151.9415 H   0  0  0  0  0  0  0  0  0  0  0  0
  146.2546  133.8630  153.4403 H   0  0  0  0  0  0  0  0  0  0  0  0
  145.6518  132.1257  151.8222 H   0  0  0  0  0  0  0  0  0  0  0  0
  144.2500  133.0968  152.2363 H   0  0  0  0  0  0  0  0  0  0  0  0
  144.0723  132.6419  148.6283 H   0  0  0  0  0  0  0  0  0  0  0  0
  143.2248  132.3674  150.1554 H   0  0  0  0  0  0  0  0  0  0  0  0
  144.6813  131.4445  149.7662 H   0  0  0  0  0  0  0  0  0  0  0  0
  144.2060  134.9567  149.1320 H   0  0  0  0  0  0  0  0  0  0  0  0
  143.4146  134.7330  150.6822 H   0  0  0  0  0  0  0  0  0  0  0  0
  144.7743  136.7973  150.6375 H   0  0  0  0  0  0  0  0  0  0  0  0
  146.2108  135.9032  150.2156 H   0  0  0  0  0  0  0  0  0  0  0  0
  145.8930  138.1148  151.3893 H   0  0  0  0  0  0  0  0  0  0  0  0
  145.0943  138.2265  152.9383 H   0  0  0  0  0  0  0  0  0  0  0  0
  146.7032  140.0788  152.6041 H   0  0  0  0  0  0  0  0  0  0  0  0
  148.0036  138.9475  152.3161 H   0  0  0  0  0  0  0  0  0  0  0  0
  150.7007  143.5429  156.4201 H   0  0  0  0  0  0  0  0  0  0  0  0
  147.3959  136.5048  152.3669 H   0  0  0  0  0  0  0  0  0  0  0  0
  1  2  1  0  0  0  0
  1 25  1  0  0  0  0
  1 26  1  0  0  0  0
  1 27  1  0  0  0  0
  2 24  1  0  0  0  0
  2  3  2  0  0  0  0
  3  4  1  0  0  0  0
  3 28  1  0  0  0  0
  4  5  2  0  0  0  0
  4 29  1  0  0  0  0
  5  6  1  0  0  0  0
  5 23  1  0  0  0  0
  6  7  1  0  0  0  0
  6 30  1  0  0  0  0
  7  8  2  0  0  0  0
  7  9  1  0  0  0  0
  9 10  1  0  0  0  0
  9 31  1  0  0  0  0
 10 22  1  0  0  0  0
 10 11  1  0  0  0  0
 10 32  1  0  0  0  0
 11 12  1  0  0  0  0
 11 33  1  0  0  0  0
 11 34  1  0  0  0  0
 12 13  1  0  0  0  0
 12 35  1  0  0  0  0
 12 36  1  0  0  0  0
 13 14  1  0  0  0  0
 13 21  1  0  0  0  0
 13 54  1  0  0  0  0
 14 20  1  0  0  0  0
 14 15  1  0  0  0  0
 14 37  1  0  0  0  0
 15 16  1  0  0  0  0
 15 38  1  0  0  0  0
 15 39  1  0  0  0  0
 16 17  1  0  0  0  0
 16 40  1  0  0  0  0
 16 41  1  0  0  0  0
 17 18  1  0  0  0  0
 17 19  1  0  0  0  0
 18 42  1  0  0  0  0
 18 43  1  0  0  0  0
 18 44  1  0  0  0  0
 19 20  1  0  0  0  0
 19 45  1  0  0  0  0
 19 46  1  0  0  0  0
 20 47  1  0  0  0  0
 20 48  1  0  0  0  0
 21 22  1  0  0  0  0
 21 49  1  0  0  0  0
 21 50  1  0  0  0  0
 22 51  1  0  0  0  0
 22 52  1  0  0  0  0
 23 24  2  0  0  0  0
 23 53  1  0  0  0  0
M  CHG  1  13   1
M  END
> <s_m_source_file>
AV-unprocessed.smi

> <i_m_source_file_index>
2772

> <i_lp_mmshare_version>
43012

> <i_f3d_flags>
0

> <s_epik_input>
W0NIM11jMVtjSF1bY0hdYyhbY0hdbjEpW05IXUMoPU8pW05IXVtDSF0yW0NIMl1bQ0gyXU4oW0NIMl1bQ0gyXTIpW0NIXTNbQ0gyXVtDSDJdTihbQ0gzXSlbQ0gyXVtDSDJdMw==

> <s_epik_cmdline>
J2VwaWtfcHl0aG9uJywgJy1waCcsICc3LjAnLCAnLXRuJywgJzgnLCAnLW1hJywgJzIwMCcsICctbWV0YWxfYmluZGluZycsICctaW1hZScsICc8aW5maWxlLm1hZT4nLCAnLW9tYWUnLCAnPG91dGZpbGUubWFlPic=

> <r_epik_Ionization_Penalty>
1.38854

> <r_epik_Ionization_Penalty_Charging>
0.00081195

> <r_epik_Ionization_Penalty_Neutral>
1.38772

> <r_epik_State_Penalty>
1.56122

> <r_epik_Charging_Adjusted_Penalty>
1.56203

> <i_epik_Tot_Q>
1

> <i_epik_Tot_abs_Q>
1

> <r_epik_Metal_State_Penalty>
1.5614

> <b_epik_Metal_Only>
0

> <s_lp_Force_Field>
OPLS_2005

> <r_lp_Energy>
35.3566

> <b_lp_Chiralities_Consistent>
1

> <s_lp_Variant>
AV-unprocessed.smi:2772-7

> <Gold.Version>
5.8.1

> <Gold.Id.Protein>
6NUR|6NUR_protein|mol2

> <Gold.PLP.Fitness>
46.2549

> <Gold.PLP.PLP>
-37.8506

> <Gold.PLP.part.hbond>
-1.0000

> <Gold.PLP.part.metal>
0.0000

> <Gold.PLP.part.buried>
-4.6305

> <Gold.PLP.part.nonpolar>
-32.7040

> <Gold.PLP.part.repulsive>
0.3526

> <Gold.PLP.ligand.clash>
0.0000

> <Gold.PLP.ligand.torsion>
0.3136

> <Gold.PLP.Chemscore.Hbond>
2.0000

> <Gold.PLP.Chemscore.CHOScore>
1.0000

> <Gold.PLP.Chemscore.Metal>
0.0000

> <Gold.Chemscore.Hbonds>
donor molecule, donor type, donor heavy atom, donor atom, acceptor molecule, acceptor atom, score
      L1  H    13    54       P1  7948  2.00
      L1  C    23    53       P1  8028  1.00

> <Gold.PLP.Chemscore.Internal.Correction>
0.0316

> <Gold.Rescore>
     Score         DG    S(hbond)    S(metal)    S(lipo)     H(rot)  DE(clash)    DE(int)     intcor
     17.35     -18.84       1.00        0.00     111.69       1.19       0.08       1.41       ----

> <Gold.Chemscore.Fitness>
17.3468

> <Gold.Chemscore.DG>
-18.8364

> <Gold.Chemscore.ZeroCoef>
-5.4800

> <Gold.Chemscore.Hbond>
0.9992

> <Gold.Chemscore.Metal>
0.0000

> <Gold.Chemscore.Lipo>
111.6918

> <Gold.Chemscore.Internal_Hbond>
0.0000

> <Gold.Chemscore.DEClash>
0.0754

> <Gold.Chemscore.DEInternal>
1.4142

> <Gold.Chemscore.Rot>
1.1910

> <Gold.Chemscore.Internal.Correction>
   9.000000E+99

> <Gold.Chemscore.Hbonds>
donor molecule, donor type, donor heavy atom, donor atom, acceptor molecule, acceptor atom, score
      L1  H    13    54       P1  7948  1.00

> <Gold.Chemscore.Hbond.Weighted>
-3.3374

> <Gold.Chemscore.Metal.Weighted>
-0.0000

> <Gold.Chemscore.Lipo.Weighted>
-13.0679

> <Gold.Chemscore.Internal_Hbond.Weighted>
0.0000

> <Gold.Chemscore.DEClash.Weighted>
0.0754

> <Gold.Chemscore.DEInternal.Weighted>
1.4142

> <Gold.Chemscore.Rot.Weighted>
3.0489

> <Gold.Chemscore.Internal.Correction.Weighted>
   9.000000E+99

> <Gold.Protein.RotatedTorsions>
[ 6907 6896 6895 6894 ] final  -81.81 input  -60.11 | X-H torsion
[ 7974 7965 7964 7962 ] final -144.82 input  175.53 | X-H torsion
[ 8008 7997 7996 7995 ] final  -80.38 input   59.86 | X-H torsion
[ 10167 10162 10161 10158 ] final   42.62 input  -65.29 | X-H torsion
[ 10718 10713 10712 10709 ] final   -9.78 input   66.30 | X-H torsion
[ 10763 10752 10751 10750 ] final  -42.06 input  -60.55 | X-H torsion
[ 11005 11000 10999 10996 ] final -124.70 input  -57.11 | X-H torsion

> <Gold.Protein.ActiveResidues>
 VAL166  LYS551  ARG553  GLY616  TRP617  ASP618  TYR619  PRO620  LYS621  CYS622 
 ASP623  PHE694  ASN695  SER759  ASP760  ASP761  ALA762  ILE779  LEU786  VAL792 
 PHE793  MET794  SER795  GLU796  ALA797  LYS798  CYS799  TRP800  GLU811  SER814 

> <Gold.Protein.RotatedAtoms>
  150.6906  134.3761  159.5013 H   0  0  0  0  0  0  0  0  0  0  0  0  # atno 6907 bound_to 6896
  152.1570  134.8940  160.0553 H   0  0  0  0  0  0  0  0  0  0  0  0  # atno 6908 bound_to 6896
  152.0016  133.3793  159.4221 H   0  0  0  0  0  0  0  0  0  0  0  0  # atno 6909 bound_to 6896
  144.8271  140.5662  143.5540 H   0  0  0  0  0  0  0  0  0  0  0  0  # atno 7974 bound_to 7965
  154.5877  140.0664  156.9195 H   0  0  0  0  0  0  0  0  0  0  0  0  # atno 8008 bound_to 7997
  155.2350  140.3340  155.4280 H   0  0  0  0  0  0  0  0  0  0  0  0  # atno 8009 bound_to 7997
  156.2234  140.1809  156.7406 H   0  0  0  0  0  0  0  0  0  0  0  0  # atno 8010 bound_to 7997
  140.3525  144.2332  150.6144 H   0  0  0  0  0  0  0  0  0  0  0  0  # atno 10167 bound_to 10162
  156.6831  130.5043  149.5965 H   0  0  0  0  0  0  0  0  0  0  0  0  # atno 10718 bound_to 10713
  153.9728  135.6726  153.4747 H   0  0  0  0  0  0  0  0  0  0  0  0  # atno 10763 bound_to 10752
  153.0785  135.4936  154.8450 H   0  0  0  0  0  0  0  0  0  0  0  0  # atno 10764 bound_to 10752
  154.7209  135.3117  154.9009 H   0  0  0  0  0  0  0  0  0  0  0  0  # atno 10765 bound_to 10752
  140.9820  134.0659  157.3753 H   0  0  0  0  0  0  0  0  0  0  0  0  # atno 11005 bound_to 11000
  145.4977  139.1485  143.3674 LP  0  0  0  0  0  0  0  0  0  0  0  0  # atno 17320 bound_to 7965
  146.2575  140.5116  142.8867 LP  0  0  0  0  0  0  0  0  0  0  0  0  # atno 17321 bound_to 7965
  140.5205  143.2267  151.8396 LP  0  0  0  0  0  0  0  0  0  0  0  0  # atno 17342 bound_to 10162
  139.4824  144.4842  151.9267 LP  0  0  0  0  0  0  0  0  0  0  0  0  # atno 17343 bound_to 10162
  156.1853  130.6525  151.0999 LP  0  0  0  0  0  0  0  0  0  0  0  0  # atno 17370 bound_to 10713
  157.7036  131.0766  150.6739 LP  0  0  0  0  0  0  0  0  0  0  0  0  # atno 17371 bound_to 10713
  139.8954  135.0141  156.7002 LP  0  0  0  0  0  0  0  0  0  0  0  0  # atno 17394 bound_to 11000
  140.7171  133.9173  155.8122 LP  0  0  0  0  0  0  0  0  0  0  0  0  # atno 17395 bound_to 11000

$$$$
