#       Name:                AV-unprocessed.smi:2807
#       Creating user name   scv26
#       Creation time:       Fri Mar 27 15:25:33 2020


#       File generated by GOLD software.
#

@<TRIPOS>MOLECULE
AV-unprocessed.smi:2807
    37    38     1
SMALL
NO_CHARGES


@<TRIPOS>ATOM
      1 ****        -0.3263   2.5384   0.0471 O.2            1 S1                 0.0000
      2 ****         0.2585   1.5087  -0.2915 C.2            1 S1                 0.0000
      3 ****        -0.3780   0.3548  -0.5541 N.am           1 S1                 0.0000
      4 ****        -1.8237   0.1380  -0.4815 C.3            1 S1                 0.0000
      5 ****        -2.1316  -1.2631   0.0840 C.3            1 S1                 0.0000
      6 ****        -3.1357  -1.9049  -0.8769 C.3            1 S1                 0.0000
      7 ****        -2.8421  -1.2531  -2.2240 C.3            1 S1                 0.0000
      8 ****        -2.5189   0.1982  -1.8644 C.3            1 S1                 0.0000
      9 ****        -1.7718   0.8197  -2.8934 O.3            1 S1                 0.0000
     10 ****         1.7884   1.4980  -0.4288 C.3            1 S1                 0.0000
     11 ****         2.1257   0.8116  -1.5238 F              1 S1                 0.0000
     12 ****         2.2154   2.7530  -0.5879 F              1 S1                 0.0000
     13 ****         2.4289   0.8727   0.8076 C.ar           1 S1                 0.0000
     14 ****         2.9001   1.6787   1.8689 C.ar           1 S1                 0.0000
     15 ****         3.4719   1.0508   2.9920 C.ar           1 S1                 0.0000
     16 ****         3.5503  -0.3543   3.0175 C.ar           1 S1                 0.0000
     17 ****         3.0495  -1.0724   1.9142 C.ar           1 S1                 0.0000
     18 ****         2.4995  -0.4804   0.8325 N.ar           1 S1                 0.0000
     19 ****         0.1865  -0.4405  -0.8167 H              1 S1                 0.0000
     20 ****        -2.2777   0.8864   0.1707 H              1 S1                 0.0000
     21 ****        -1.2279  -1.8742   0.1136 H              1 S1                 0.0000
     22 ****        -2.5193  -1.2180   1.1023 H              1 S1                 0.0000
     23 ****        -3.0512  -2.9915  -0.9080 H              1 S1                 0.0000
     24 ****        -4.1519  -1.6587  -0.5656 H              1 S1                 0.0000
     25 ****        -1.9737  -1.7345  -2.6768 H              1 S1                 0.0000
     26 ****        -3.6742  -1.3380  -2.9238 H              1 S1                 0.0000
     27 ****        -3.4573   0.7441  -1.7559 H              1 S1                 0.0000
     28 ****        -0.9524   0.3588  -2.9888 H              1 S1                 0.0000
     29 ****         2.8232   2.7553   1.8290 H              1 S1                 0.0000
     30 ****         3.8422   1.6371   3.8201 H              1 S1                 0.0000
     31 ****         3.9820  -0.8692   3.8630 H              1 S1                 0.0000
     32 ****         3.0914  -2.1515   1.8998 H              1 S1                 0.0000
     33 ****        -1.3222   2.5410   0.1379 LP             1 S1                 0.0000
     34 ****         0.1948   3.3718   0.2312 LP             1 S1                 0.0000
     35 ****        -1.5960   1.7744  -2.6532 LP             1 S1                 0.0000
     36 ****        -2.2828   0.7807  -3.7521 LP             1 S1                 0.0000
     37 ****         2.1532  -1.0263   0.0695 LP             1 S1                 0.0000
@<TRIPOS>BOND
    1    1    2 2     
    2    2    3 am    
    3    2   10 1     
    4    3    4 1     
    5    3   19 1     
    6    4    8 1     
    7    4    5 1     
    8    4   20 1     
    9    5    6 1     
   10    5   21 1     
   11    5   22 1     
   12    6    7 1     
   13    6   23 1     
   14    6   24 1     
   15    7    8 1     
   16    7   25 1     
   17    7   26 1     
   18    8    9 1     
   19    8   27 1     
   20    9   28 1     
   21   10   11 1     
   22   10   12 1     
   23   10   13 1     
   24   13   18 ar    
   25   13   14 ar    
   26   14   15 ar    
   27   14   29 1     
   28   15   16 ar    
   29   15   30 1     
   30   16   17 ar    
   31   16   31 1     
   32   17   18 ar    
   33   17   32 1     
   34    1   33 1     
   35    1   34 1     
   36    9   35 1     
   37    9   36 1     
   38   18   37 1     
@<TRIPOS>SUBSTRUCTURE
      1 S1             1
@<TRIPOS>SET
LONE_PAIRS      STATIC     ATOMS    <user>   **** ""
5 33 34 35 36 37
DONOR_HYDROGENS      STATIC     ATOMS    <user>   **** ""
2 19 28
ATOM$BLUE        STATIC     ATOMS    COLORGROUP SYSTEM
5 33 34 35 36 37
ATOM$RED        STATIC     ATOMS    COLORGROUP SYSTEM
2 19 28
