AV-unprocessed.smi:33|AV-procd|sdf|208|dock5
  -GOLD-   2262015503D 1   1.00000     0.00000
 Structure written by MMmdl.
 67 72  0  0  0  0  0  0  0  0  1 V2000
  149.1223  141.5228  157.3565 O   0  0  0  0  0  0  0  0  0  0  0  0
  150.2525  141.9877  157.1950 C   0  0  0  0  0  0  0  0  0  0  0  0
  151.1445  141.4966  156.3119 O   0  0  0  0  0  0  0  0  0  0  0  0
  150.8063  140.3868  155.4946 C   0  0  0  0  0  0  0  0  0  0  0  0
  151.4937  139.1288  156.0495 C   0  0  1  0  0  0  0  0  0  0  0  0
  150.6739  138.5733  157.0831 O   0  0  0  0  0  0  0  0  0  0  0  0
  150.1616  137.3293  156.7038 C   0  0  1  0  0  0  0  0  0  0  0  0
  148.7291  137.2135  157.1286 N   0  0  0  0  0  0  0  0  0  0  0  0
  147.8744  138.2432  157.4548 C   0  0  0  0  0  0  0  0  0  0  0  0
  146.6653  137.8850  157.7931 N   0  0  0  0  0  0  0  0  0  0  0  0
  146.6860  136.5005  157.6913 C   0  0  0  0  0  0  0  0  0  0  0  0
  145.7223  135.4793  157.9102 C   0  0  0  0  0  0  0  0  0  0  0  0
  144.4510  135.7373  158.2962 N   0  0  0  0  0  0  0  0  0  0  0  0
  143.5634  136.3553  157.3001 C   0  0  0  0  0  0  0  0  0  0  0  0
  142.5817  136.9990  157.6753 O   0  0  0  0  0  0  0  0  0  0  0  0
  143.8679  136.2436  155.8332 C   0  0  0  0  0  0  0  0  0  0  0  0
  143.6594  137.3507  154.9818 C   0  0  0  0  0  0  0  0  0  0  0  0
  143.9305  137.2474  153.6035 C   0  0  0  0  0  0  0  0  0  0  0  0
  144.3919  136.0312  153.0650 C   0  0  0  0  0  0  0  0  0  0  0  0
  144.5741  134.9151  153.9037 C   0  0  0  0  0  0  0  0  0  0  0  0
  144.3053  135.0180  155.2823 C   0  0  0  0  0  0  0  0  0  0  0  0
  144.0751  135.3633  159.6676 C   0  0  0  0  0  0  0  0  0  0  0  0
  142.8941  135.1270  159.9299 O   0  0  0  0  0  0  0  0  0  0  0  0
  145.1239  135.2113  160.7331 C   0  0  0  0  0  0  0  0  0  0  0  0
  146.1295  136.1920  160.8799 C   0  0  0  0  0  0  0  0  0  0  0  0
  147.1213  136.0493  161.8697 C   0  0  0  0  0  0  0  0  0  0  0  0
  147.1256  134.9164  162.7056 C   0  0  0  0  0  0  0  0  0  0  0  0
  146.1437  133.9206  162.5449 C   0  0  0  0  0  0  0  0  0  0  0  0
  145.1511  134.0627  161.5562 C   0  0  0  0  0  0  0  0  0  0  0  0
  146.1019  134.1898  157.7169 N   0  0  0  0  0  0  0  0  0  0  0  0
  147.3508  133.9184  157.3282 C   0  0  0  0  0  0  0  0  0  0  0  0
  148.3503  134.7680  157.0830 N   0  0  0  0  0  0  0  0  0  0  0  0
  147.9754  136.0650  157.2782 C   0  0  0  0  0  0  0  0  0  0  0  0
  150.3593  137.1902  155.1896 C   0  0  1  0  0  0  0  0  0  0  0  0
  149.2805  137.7074  154.4300 O   0  0  0  0  0  0  0  0  0  0  0  0
  151.6329  137.9976  155.0243 C   0  0  1  0  0  0  0  0  0  0  0  0
  151.8618  138.3928  153.7706 F   0  0  0  0  0  0  0  0  0  0  0  0
  150.7819  143.1468  157.9696 C   0  0  0  0  0  0  0  0  0  0  0  0
  152.0724  143.6454  157.6749 C   0  0  0  0  0  0  0  0  0  0  0  0
  152.5974  144.7420  158.3859 C   0  0  0  0  0  0  0  0  0  0  0  0
  151.8390  145.3527  159.4014 C   0  0  0  0  0  0  0  0  0  0  0  0
  150.5544  144.8655  159.7049 C   0  0  0  0  0  0  0  0  0  0  0  0
  150.0269  143.7699  158.9938 C   0  0  0  0  0  0  0  0  0  0  0  0
  149.7268  140.2436  155.4511 H   0  0  0  0  0  0  0  0  0  0  0  0
  151.1467  140.5887  154.4787 H   0  0  0  0  0  0  0  0  0  0  0  0
  152.4725  139.3952  156.4502 H   0  0  0  0  0  0  0  0  0  0  0  0
  150.6827  136.5512  157.2638 H   0  0  0  0  0  0  0  0  0  0  0  0
  148.1798  139.2793  157.4338 H   0  0  0  0  0  0  0  0  0  0  0  0
  143.3059  138.2891  155.3846 H   0  0  0  0  0  0  0  0  0  0  0  0
  143.7830  138.1014  152.9593 H   0  0  0  0  0  0  0  0  0  0  0  0
  144.5990  135.9527  152.0080 H   0  0  0  0  0  0  0  0  0  0  0  0
  144.9185  133.9790  153.4897 H   0  0  0  0  0  0  0  0  0  0  0  0
  144.4436  134.1534  155.9155 H   0  0  0  0  0  0  0  0  0  0  0  0
  146.1359  137.0658  160.2444 H   0  0  0  0  0  0  0  0  0  0  0  0
  147.8795  136.8094  161.9868 H   0  0  0  0  0  0  0  0  0  0  0  0
  147.8861  134.8082  163.4649 H   0  0  0  0  0  0  0  0  0  0  0  0
  146.1514  133.0466  163.1794 H   0  0  0  0  0  0  0  0  0  0  0  0
  144.4050  133.2898  161.4397 H   0  0  0  0  0  0  0  0  0  0  0  0
  147.5830  132.8722  157.1929 H   0  0  0  0  0  0  0  0  0  0  0  0
  150.4984  136.1405  154.9292 H   0  0  0  0  0  0  0  0  0  0  0  0
  149.2234  137.2218  153.6211 H   0  0  0  0  0  0  0  0  0  0  0  0
  152.4827  137.3734  155.3049 H   0  0  0  0  0  0  0  0  0  0  0  0
  152.6728  143.1941  156.8981 H   0  0  0  0  0  0  0  0  0  0  0  0
  153.5831  145.1154  158.1508 H   0  0  0  0  0  0  0  0  0  0  0  0
  152.2418  146.1935  159.9465 H   0  0  0  0  0  0  0  0  0  0  0  0
  149.9713  145.3336  160.4841 H   0  0  0  0  0  0  0  0  0  0  0  0
  149.0374  143.4216  159.2516 H   0  0  0  0  0  0  0  0  0  0  0  0
  1  2  2  0  0  0  0
  2  3  1  0  0  0  0
  2 38  1  0  0  0  0
  3  4  1  0  0  0  0
  4  5  1  0  0  0  0
  4 44  1  0  0  0  0
  4 45  1  0  0  0  0
  5 36  1  0  0  0  0
  5  6  1  0  0  0  0
  5 46  1  0  0  0  0
  6  7  1  0  0  0  0
  7  8  1  0  0  0  0
  7 34  1  0  0  0  0
  7 47  1  0  0  0  0
  8 33  1  0  0  0  0
  8  9  1  0  0  0  0
  9 10  2  0  0  0  0
  9 48  1  0  0  0  0
 10 11  1  0  0  0  0
 11 33  2  0  0  0  0
 11 12  1  0  0  0  0
 12 13  1  0  0  0  0
 12 30  2  0  0  0  0
 13 14  1  0  0  0  0
 13 22  1  0  0  0  0
 14 15  2  0  0  0  0
 14 16  1  0  0  0  0
 16 21  1  0  0  0  0
 16 17  2  0  0  0  0
 17 18  1  0  0  0  0
 17 49  1  0  0  0  0
 18 19  2  0  0  0  0
 18 50  1  0  0  0  0
 19 20  1  0  0  0  0
 19 51  1  0  0  0  0
 20 21  2  0  0  0  0
 20 52  1  0  0  0  0
 21 53  1  0  0  0  0
 22 23  2  0  0  0  0
 22 24  1  0  0  0  0
 24 29  1  0  0  0  0
 24 25  2  0  0  0  0
 25 26  1  0  0  0  0
 25 54  1  0  0  0  0
 26 27  2  0  0  0  0
 26 55  1  0  0  0  0
 27 28  1  0  0  0  0
 27 56  1  0  0  0  0
 28 29  2  0  0  0  0
 28 57  1  0  0  0  0
 29 58  1  0  0  0  0
 30 31  1  0  0  0  0
 31 32  2  0  0  0  0
 31 59  1  0  0  0  0
 32 33  1  0  0  0  0
 34 35  1  0  0  0  0
 34 36  1  0  0  0  0
 34 60  1  0  0  0  0
 35 61  1  0  0  0  0
 36 37  1  0  0  0  0
 36 62  1  0  0  0  0
 38 43  1  0  0  0  0
 38 39  2  0  0  0  0
 39 40  1  0  0  0  0
 39 63  1  0  0  0  0
 40 41  2  0  0  0  0
 40 64  1  0  0  0  0
 41 42  1  0  0  0  0
 41 65  1  0  0  0  0
 42 43  2  0  0  0  0
 42 66  1  0  0  0  0
 43 67  1  0  0  0  0
M  END
> <s_m_source_file>
AV-unprocessed.smi

> <i_m_source_file_index>
33

> <i_lp_mmshare_version>
43012

> <i_f3d_flags>
0

> <s_epik_input>
W2NIXTFbY0hdW2NIXVtjSF1bY0hdYzFDKD1PKU9bQ0gyXVtDQEBIXTJPW0NASF0oW0NAQEhdKFtPSF0pW0NAQEhdMkYpbihbY0hdbjMpYyhjMzQpbltjSF1uYzROKEMoPU8pYzVbY0hdW2NIXVtjSF1bY0hdW2NIXTUpQyg9TyljNltjSF1bY0hdW2NIXVtjSF1bY0hdNg==

> <s_epik_cmdline>
J2VwaWtfcHl0aG9uJywgJy1waCcsICc3LjAnLCAnLXRuJywgJzgnLCAnLW1hJywgJzIwMCcsICctbWV0YWxfYmluZGluZycsICctaW1hZScsICc8aW5maWxlLm1hZT4nLCAnLW9tYWUnLCAnPG91dGZpbGUubWFlPic=

> <r_lp_tautomer_probability>
1

> <r_epik_Ionization_Penalty>
0.00067664

> <r_epik_Ionization_Penalty_Charging>
0

> <r_epik_Ionization_Penalty_Neutral>
0.00067664

> <r_epik_State_Penalty>
0.000428095

> <r_epik_Charging_Adjusted_Penalty>
0.000428095

> <i_epik_Tot_Q>
0

> <i_epik_Tot_abs_Q>
0

> <r_epik_Metal_State_Penalty>
-0

> <b_epik_Metal_Only>
0

> <s_epik_Chemistry_Notes>
This compound has an ester and may undergo hydrolysis at high or low pH. This compound contains an acetal/aminal-like group ( X-CH(R)-Y where X, Y are N, S, or O) that may be acid/base labile, releasing an aldehyde.

> <s_lp_Force_Field>
OPLS_2005

> <r_lp_Energy>
79.915

> <b_lp_Chiralities_Consistent>
1

> <s_lp_Variant>
AV-unprocessed.smi:33-10

> <Gold.Version>
5.8.1

> <Gold.Id.Protein>
6NUR|6NUR_protein|mol2

> <Gold.PLP.Fitness>
47.4611

> <Gold.PLP.PLP>
-48.6653

> <Gold.PLP.part.hbond>
-1.0000

> <Gold.PLP.part.metal>
0.0000

> <Gold.PLP.part.buried>
-8.1088

> <Gold.PLP.part.nonpolar>
-39.1042

> <Gold.PLP.part.repulsive>
0.1451

> <Gold.PLP.ligand.clash>
0.0000

> <Gold.PLP.ligand.torsion>
4.2964

> <Gold.PLP.Chemscore.Hbond>
1.0000

> <Gold.PLP.Chemscore.CHOScore>
0.0000

> <Gold.PLP.Chemscore.Metal>
0.0000

> <Gold.Chemscore.Hbonds>
donor molecule, donor type, donor heavy atom, donor atom, acceptor molecule, acceptor atom, score
      L1  H    35    61       P1  7948  1.00

> <Gold.PLP.Chemscore.Internal.Correction>
4.3886

> <Gold.Rescore>
     Score         DG    S(hbond)    S(metal)    S(lipo)     H(rot)  DE(clash)    DE(int)     intcor
     12.02     -18.51       0.99        0.00     138.49       2.52       0.79       5.70       ----

> <Gold.Chemscore.Fitness>
12.0247

> <Gold.Chemscore.DG>
-18.5148

> <Gold.Chemscore.ZeroCoef>
-5.4800

> <Gold.Chemscore.Hbond>
0.9866

> <Gold.Chemscore.Metal>
0.0000

> <Gold.Chemscore.Lipo>
138.4858

> <Gold.Chemscore.Internal_Hbond>
0.0000

> <Gold.Chemscore.DEClash>
0.7880

> <Gold.Chemscore.DEInternal>
5.7021

> <Gold.Chemscore.Rot>
2.5247

> <Gold.Chemscore.Internal.Correction>
   9.000000E+99

> <Gold.Chemscore.Hbonds>
donor molecule, donor type, donor heavy atom, donor atom, acceptor molecule, acceptor atom, score
      L1  H    35    61       P1  7948  0.94

> <Gold.Chemscore.Hbond.Weighted>
-3.2952

> <Gold.Chemscore.Metal.Weighted>
-0.0000

> <Gold.Chemscore.Lipo.Weighted>
-16.2028

> <Gold.Chemscore.Internal_Hbond.Weighted>
0.0000

> <Gold.Chemscore.DEClash.Weighted>
0.7880

> <Gold.Chemscore.DEInternal.Weighted>
5.7021

> <Gold.Chemscore.Rot.Weighted>
6.4633

> <Gold.Chemscore.Internal.Correction.Weighted>
   9.000000E+99

> <Gold.Protein.RotatedTorsions>
[ 6907 6896 6895 6894 ] final   15.58 input  -60.11 | X-H torsion
[ 7974 7965 7964 7962 ] final -142.28 input  175.53 | X-H torsion
[ 8008 7997 7996 7995 ] final  103.48 input   59.86 | X-H torsion
[ 10167 10162 10161 10158 ] final -139.74 input  -65.29 | X-H torsion
[ 10718 10713 10712 10709 ] final    8.46 input   66.30 | X-H torsion
[ 10763 10752 10751 10750 ] final  -99.48 input  -60.55 | X-H torsion
[ 11005 11000 10999 10996 ] final   97.48 input  -57.11 | X-H torsion

> <Gold.Protein.ActiveResidues>
 VAL166  LYS551  ARG553  GLY616  TRP617  ASP618  TYR619  PRO620  LYS621  CYS622 
 ASP623  PHE694  ASN695  SER759  ASP760  ASP761  ALA762  ILE779  LEU786  VAL792 
 PHE793  MET794  SER795  GLU796  ALA797  LYS798  CYS799  TRP800  GLU811  SER814 

> <Gold.Protein.RotatedAtoms>
  151.8203  135.0654  160.0423 H   0  0  0  0  0  0  0  0  0  0  0  0  # atno 6907 bound_to 6896
  152.2956  133.5599  159.5593 H   0  0  0  0  0  0  0  0  0  0  0  0  # atno 6908 bound_to 6896
  150.7249  134.0282  159.3766 H   0  0  0  0  0  0  0  0  0  0  0  0  # atno 6909 bound_to 6896
  144.8456  140.5978  143.5424 H   0  0  0  0  0  0  0  0  0  0  0  0  # atno 7974 bound_to 7965
  156.1488  140.3164  155.8614 H   0  0  0  0  0  0  0  0  0  0  0  0  # atno 8008 bound_to 7997
  155.4012  140.0500  157.3053 H   0  0  0  0  0  0  0  0  0  0  0  0  # atno 8009 bound_to 7997
  154.5040  140.2140  155.9300 H   0  0  0  0  0  0  0  0  0  0  0  0  # atno 8010 bound_to 7997
  139.8350  143.7397  152.2665 H   0  0  0  0  0  0  0  0  0  0  0  0  # atno 10167 bound_to 10162
  156.9519  130.5900  149.5657 H   0  0  0  0  0  0  0  0  0  0  0  0  # atno 10718 bound_to 10713
  154.7501  135.4970  153.9274 H   0  0  0  0  0  0  0  0  0  0  0  0  # atno 10763 bound_to 10752
  153.1134  135.6715  153.9468 H   0  0  0  0  0  0  0  0  0  0  0  0  # atno 10764 bound_to 10752
  153.9220  135.3087  155.3426 H   0  0  0  0  0  0  0  0  0  0  0  0  # atno 10765 bound_to 10752
  139.8776  134.9003  156.4314 H   0  0  0  0  0  0  0  0  0  0  0  0  # atno 11005 bound_to 11000
  145.4605  139.1513  143.3869 LP  0  0  0  0  0  0  0  0  0  0  0  0  # atno 17320 bound_to 7965
  146.2741  140.4735  142.8802 LP  0  0  0  0  0  0  0  0  0  0  0  0  # atno 17321 bound_to 7965
  139.7616  144.7505  151.0355 LP  0  0  0  0  0  0  0  0  0  0  0  0  # atno 17342 bound_to 10162
  140.7803  143.4744  151.0102 LP  0  0  0  0  0  0  0  0  0  0  0  0  # atno 17343 bound_to 10162
  156.0359  130.5446  150.8652 LP  0  0  0  0  0  0  0  0  0  0  0  0  # atno 17370 bound_to 10713
  157.5716  131.0946  150.9409 LP  0  0  0  0  0  0  0  0  0  0  0  0  # atno 17371 bound_to 10713
  140.9064  133.7743  155.9740 LP  0  0  0  0  0  0  0  0  0  0  0  0  # atno 17394 bound_to 11000
  140.8594  134.2858  157.5241 LP  0  0  0  0  0  0  0  0  0  0  0  0  # atno 17395 bound_to 11000

$$$$
