AV-unprocessed.smi:2945|AV-procd|sdf|11277|dock10
  -GOLD-   2272016173D 1   1.00000     0.00000
 Structure written by MMmdl.
 36 37  0  0  0  0  0  0  0  0  1 V2000
  146.6094  134.3689  161.9830 C   0  0  0  0  0  0  0  0  0  0  0  0
  147.4818  135.1547  161.0649 C   0  0  0  0  0  0  0  0  0  0  0  0
  147.7035  136.4943  160.9117 C   0  0  0  0  0  0  0  0  0  0  0  0
  148.6503  136.5430  159.8543 C   0  0  0  0  0  0  0  0  0  0  0  0
  149.1467  137.7838  159.3804 N   0  0  0  0  0  0  0  0  0  0  0  0
  150.4037  138.0762  159.0062 C   0  0  0  0  0  0  0  0  0  0  0  0
  151.3521  137.2914  159.0331 O   0  0  0  0  0  0  0  0  0  0  0  0
  150.4997  139.3499  158.5969 N   0  0  0  0  0  0  0  0  0  0  0  0
  151.7102  140.0142  158.1085 C   0  0  1  0  0  0  0  0  0  0  0  0
  151.5597  140.3325  156.6072 C   0  0  0  0  0  0  0  0  0  0  0  0
  150.5261  141.4425  156.3488 C   0  0  0  0  0  0  0  0  0  0  0  0
  150.8586  142.7093  157.1512 C   0  0  0  0  0  0  0  0  0  0  0  0
  150.9884  142.4041  158.6522 C   0  0  0  0  0  0  0  0  0  0  0  0
  152.0294  141.2968  158.9187 C   0  0  1  0  0  0  0  0  0  0  0  0
  152.2011  141.0316  160.4242 C   0  0  0  0  0  0  0  0  0  0  0  0
  148.9787  135.3420  159.4039 N   0  0  0  0  0  0  0  0  0  0  0  0
  148.2318  134.4459  160.1779 O   0  0  0  0  0  0  0  0  0  0  0  0
  145.9837  135.0278  162.5853 H   0  0  0  0  0  0  0  0  0  0  0  0
  147.2098  133.7606  162.6596 H   0  0  0  0  0  0  0  0  0  0  0  0
  145.9544  133.7040  161.4199 H   0  0  0  0  0  0  0  0  0  0  0  0
  147.2570  137.3060  161.4666 H   0  0  0  0  0  0  0  0  0  0  0  0
  148.4689  138.5278  159.3101 H   0  0  0  0  0  0  0  0  0  0  0  0
  149.6621  139.9127  158.6180 H   0  0  0  0  0  0  0  0  0  0  0  0
  152.5581  139.3344  158.2082 H   0  0  0  0  0  0  0  0  0  0  0  0
  152.5256  140.6481  156.2107 H   0  0  0  0  0  0  0  0  0  0  0  0
  151.2869  139.4318  156.0558 H   0  0  0  0  0  0  0  0  0  0  0  0
  150.4922  141.6762  155.2845 H   0  0  0  0  0  0  0  0  0  0  0  0
  149.5293  141.0906  156.6168 H   0  0  0  0  0  0  0  0  0  0  0  0
  151.7916  143.1389  156.7840 H   0  0  0  0  0  0  0  0  0  0  0  0
  150.0877  143.4634  156.9904 H   0  0  0  0  0  0  0  0  0  0  0  0
  151.2700  143.3142  159.1829 H   0  0  0  0  0  0  0  0  0  0  0  0
  150.0172  142.1074  159.0499 H   0  0  0  0  0  0  0  0  0  0  0  0
  152.9903  141.6677  158.5583 H   0  0  0  0  0  0  0  0  0  0  0  0
  151.2673  140.7137  160.8885 H   0  0  0  0  0  0  0  0  0  0  0  0
  152.5356  141.9302  160.9429 H   0  0  0  0  0  0  0  0  0  0  0  0
  152.9438  140.2535  160.6020 H   0  0  0  0  0  0  0  0  0  0  0  0
  1  2  1  0  0  0  0
  1 18  1  0  0  0  0
  1 19  1  0  0  0  0
  1 20  1  0  0  0  0
  2 17  1  0  0  0  0
  2  3  2  0  0  0  0
  3  4  1  0  0  0  0
  3 21  1  0  0  0  0
  4  5  1  0  0  0  0
  4 16  2  0  0  0  0
  5  6  1  0  0  0  0
  5 22  1  0  0  0  0
  6  7  2  0  0  0  0
  6  8  1  0  0  0  0
  8  9  1  0  0  0  0
  8 23  1  0  0  0  0
  9 14  1  0  0  0  0
  9 10  1  0  0  0  0
  9 24  1  0  0  0  0
 10 11  1  0  0  0  0
 10 25  1  0  0  0  0
 10 26  1  0  0  0  0
 11 12  1  0  0  0  0
 11 27  1  0  0  0  0
 11 28  1  0  0  0  0
 12 13  1  0  0  0  0
 12 29  1  0  0  0  0
 12 30  1  0  0  0  0
 13 14  1  0  0  0  0
 13 31  1  0  0  0  0
 13 32  1  0  0  0  0
 14 15  1  0  0  0  0
 14 33  1  0  0  0  0
 15 34  1  0  0  0  0
 15 35  1  0  0  0  0
 15 36  1  0  0  0  0
 16 17  1  0  0  0  0
M  END
> <s_m_source_file>
AV-unprocessed.smi

> <i_m_source_file_index>
2945

> <i_lp_mmshare_version>
43012

> <i_f3d_flags>
0

> <s_epik_input>
W0NIM11jMVtjSF1jKG5vMSlbTkhdQyg9TylbTkhdW0NAQEhdMltDSDJdW0NIMl1bQ0gyXVtDSDJdW0NASF0yW0NIM10=

> <s_epik_cmdline>
J2VwaWtfcHl0aG9uJywgJy1waCcsICc3LjAnLCAnLXRuJywgJzgnLCAnLW1hJywgJzIwMCcsICctbWV0YWxfYmluZGluZycsICctaW1hZScsICc8aW5maWxlLm1hZT4nLCAnLW9tYWUnLCAnPG91dGZpbGUubWFlPic=

> <r_lp_tautomer_probability>
1

> <r_epik_Ionization_Penalty>
2.357e-05

> <r_epik_Ionization_Penalty_Charging>
0

> <r_epik_Ionization_Penalty_Neutral>
2.357e-05

> <r_epik_State_Penalty>
-0

> <r_epik_Charging_Adjusted_Penalty>
0

> <i_epik_Tot_Q>
0

> <i_epik_Tot_abs_Q>
0

> <r_epik_Metal_State_Penalty>
-0

> <b_epik_Metal_Only>
0

> <s_lp_Force_Field>
OPLS_2005

> <r_lp_Energy>
7.46694

> <b_lp_Chiralities_Consistent>
1

> <s_lp_Variant>
AV-unprocessed.smi:2945-2

> <Gold.Version>
5.8.1

> <Gold.Id.Protein>
6NUR|6NUR_protein|mol2

> <Gold.PLP.Fitness>
31.9486

> <Gold.PLP.PLP>
-29.6241

> <Gold.PLP.part.hbond>
-1.7712

> <Gold.PLP.part.metal>
0.0000

> <Gold.PLP.part.buried>
-3.9376

> <Gold.PLP.part.nonpolar>
-23.7911

> <Gold.PLP.part.repulsive>
0.3178

> <Gold.PLP.ligand.clash>
0.0000

> <Gold.PLP.ligand.torsion>
0.3411

> <Gold.PLP.Chemscore.Hbond>
1.0000

> <Gold.PLP.Chemscore.CHOScore>
0.0000

> <Gold.PLP.Chemscore.Metal>
0.0000

> <Gold.Chemscore.Hbonds>
donor molecule, donor type, donor heavy atom, donor atom, acceptor molecule, acceptor atom, score
      P1  H  6896  6909       L1    16  1.00

> <Gold.PLP.Chemscore.Internal.Correction>
0.0068

> <Gold.Rescore>
     Score         DG    S(hbond)    S(metal)    S(lipo)     H(rot)  DE(clash)    DE(int)     intcor
     12.54     -13.95       0.82        0.00      70.80       1.00       0.09       1.31       ----

> <Gold.Chemscore.Fitness>
12.5415

> <Gold.Chemscore.DG>
-13.9464

> <Gold.Chemscore.ZeroCoef>
-5.4800

> <Gold.Chemscore.Hbond>
0.8213

> <Gold.Chemscore.Metal>
0.0000

> <Gold.Chemscore.Lipo>
70.7961

> <Gold.Chemscore.Internal_Hbond>
0.0000

> <Gold.Chemscore.DEClash>
0.0926

> <Gold.Chemscore.DEInternal>
1.3123

> <Gold.Chemscore.Rot>
1.0000

> <Gold.Chemscore.Internal.Correction>
   9.000000E+99

> <Gold.Chemscore.Hbonds>
donor molecule, donor type, donor heavy atom, donor atom, acceptor molecule, acceptor atom, score
      P1  H  6896  6909       L1    16  0.25

> <Gold.Chemscore.Hbond.Weighted>
-2.7433

> <Gold.Chemscore.Metal.Weighted>
-0.0000

> <Gold.Chemscore.Lipo.Weighted>
-8.2831

> <Gold.Chemscore.Internal_Hbond.Weighted>
0.0000

> <Gold.Chemscore.DEClash.Weighted>
0.0926

> <Gold.Chemscore.DEInternal.Weighted>
1.3123

> <Gold.Chemscore.Rot.Weighted>
2.5600

> <Gold.Chemscore.Internal.Correction.Weighted>
   9.000000E+99

> <Gold.Protein.RotatedTorsions>
[ 6907 6896 6895 6894 ] final   52.69 input  -60.11 | X-H torsion
[ 7974 7965 7964 7962 ] final -119.08 input  175.53 | X-H torsion
[ 8008 7997 7996 7995 ] final   17.27 input   59.86 | X-H torsion
[ 10167 10162 10161 10158 ] final -149.58 input  -65.29 | X-H torsion
[ 10718 10713 10712 10709 ] final  -44.44 input   66.30 | X-H torsion
[ 10763 10752 10751 10750 ] final    4.93 input  -60.55 | X-H torsion
[ 11005 11000 10999 10996 ] final -115.87 input  -57.11 | X-H torsion

> <Gold.Protein.ActiveResidues>
 VAL166  LYS551  ARG553  GLY616  TRP617  ASP618  TYR619  PRO620  LYS621  CYS622 
 ASP623  PHE694  ASN695  SER759  ASP760  ASP761  ALA762  ILE779  LEU786  VAL792 
 PHE793  MET794  SER795  GLU796  ALA797  LYS798  CYS799  TRP800  GLU811  SER814 

> <Gold.Protein.RotatedAtoms>
  152.3259  134.7321  160.0301 H   0  0  0  0  0  0  0  0  0  0  0  0  # atno 6907 bound_to 6896
  151.7754  133.3339  159.3464 H   0  0  0  0  0  0  0  0  0  0  0  0  # atno 6908 bound_to 6896
  150.7395  134.5911  159.6032 H   0  0  0  0  0  0  0  0  0  0  0  0  # atno 6909 bound_to 6896
  145.0666  140.8329  143.4121 H   0  0  0  0  0  0  0  0  0  0  0  0  # atno 7974 bound_to 7965
  154.8890  140.2984  155.5381 H   0  0  0  0  0  0  0  0  0  0  0  0  # atno 8008 bound_to 7997
  156.3021  140.2428  156.3837 H   0  0  0  0  0  0  0  0  0  0  0  0  # atno 8009 bound_to 7997
  154.8638  140.0404  157.1671 H   0  0  0  0  0  0  0  0  0  0  0  0  # atno 8010 bound_to 7997
  139.7430  143.8633  152.2567 H   0  0  0  0  0  0  0  0  0  0  0  0  # atno 10167 bound_to 10162
  156.2385  130.4178  149.8788 H   0  0  0  0  0  0  0  0  0  0  0  0  # atno 10718 bound_to 10713
  153.2654  135.6927  153.7535 H   0  0  0  0  0  0  0  0  0  0  0  0  # atno 10763 bound_to 10752
  153.6578  135.3365  155.3119 H   0  0  0  0  0  0  0  0  0  0  0  0  # atno 10764 bound_to 10752
  154.8445  135.4470  154.1659 H   0  0  0  0  0  0  0  0  0  0  0  0  # atno 10765 bound_to 10752
  141.0459  133.9763  157.2918 H   0  0  0  0  0  0  0  0  0  0  0  0  # atno 11005 bound_to 11000
  145.1344  139.2612  143.5523 LP  0  0  0  0  0  0  0  0  0  0  0  0  # atno 17320 bound_to 7965
  146.3527  140.1003  142.8608 LP  0  0  0  0  0  0  0  0  0  0  0  0  # atno 17321 bound_to 7965
  139.8589  144.7127  150.9123 LP  0  0  0  0  0  0  0  0  0  0  0  0  # atno 17342 bound_to 10162
  140.7788  143.3834  151.1436 LP  0  0  0  0  0  0  0  0  0  0  0  0  # atno 17343 bound_to 10162
  156.6378  130.8692  151.3508 LP  0  0  0  0  0  0  0  0  0  0  0  0  # atno 17370 bound_to 10713
  157.7165  130.9504  150.1275 LP  0  0  0  0  0  0  0  0  0  0  0  0  # atno 17371 bound_to 10713
  139.9311  135.0200  156.8404 LP  0  0  0  0  0  0  0  0  0  0  0  0  # atno 17394 bound_to 11000
  140.6147  134.0049  155.7592 LP  0  0  0  0  0  0  0  0  0  0  0  0  # atno 17395 bound_to 11000

$$$$
