AV-unprocessed.smi:45|AV-procd|sdf|415|dock8
  -GOLD-   2262016283D 1   1.00000     0.00000
 Structure written by MMmdl.
 60 63  0  0  0  0  0  0  0  0  3 V2000
  152.7855  140.2268  158.8002 C   0  0  0  0  0  0  0  0  0  0  0  0
  152.9414  139.6823  157.4979 O   0  0  0  0  0  0  0  0  0  0  0  0
  151.8910  138.9690  156.9583 C   0  0  0  0  0  0  0  0  0  0  0  0
  150.6947  138.6737  157.6606 C   0  0  0  0  0  0  0  0  0  0  0  0
  149.6636  137.9412  157.0418 C   0  0  0  0  0  0  0  0  0  0  0  0
  149.8085  137.4921  155.7143 C   0  0  0  0  0  0  0  0  0  0  0  0
  148.6967  136.7061  155.0490 C   0  0  0  0  0  0  0  0  0  0  0  0
  148.4848  135.3977  155.6504 N   0  0  0  0  0  0  0  0  0  0  0  0
  147.3650  134.6121  155.3271 C   0  0  0  0  0  0  0  0  0  0  0  0
  146.7173  134.8833  154.1711 N   0  0  0  0  0  0  0  0  0  0  0  0
  145.6508  134.1612  153.8030 C   0  0  0  0  0  0  0  0  0  0  0  0
  145.0081  134.4564  152.6015 N   0  0  0  0  0  0  0  0  0  0  0  0
  143.9537  133.5970  152.0740 C   0  0  0  0  0  0  0  0  0  0  0  0
  144.0700  133.6736  150.5525 C   0  0  0  0  0  0  0  0  0  0  0  0
  144.6484  135.0640  150.3250 C   0  0  0  0  0  0  0  0  0  0  0  0
  145.5878  135.2608  151.5240 C   0  0  1  0  0  0  0  0  0  0  0  0
  145.7654  136.7474  151.8996 C   0  0  0  0  0  0  0  0  0  0  0  0
  146.3719  137.4463  150.8330 O   0  0  0  0  0  0  0  0  0  0  0  0
  145.1863  133.1491  154.5519 N   0  3  0  0  0  0  0  0  0  0  0  0
  145.7989  132.8348  155.7190 C   0  0  0  0  0  0  0  0  0  0  0  0
  146.9291  133.5551  156.1642 C   0  0  0  0  0  0  0  0  0  0  0  0
  147.5854  133.2181  157.4794 C   0  0  0  0  0  0  0  0  0  0  0  0
  148.8172  133.1259  157.5169 O   0  0  0  0  0  0  0  0  0  0  0  0
  146.6674  133.0372  158.4694 N   0  5  0  0  0  0  0  0  0  0  0  0
  147.0029  132.6345  159.8364 C   0  0  0  0  0  0  0  0  0  0  0  0
  147.2452  133.8283  160.7532 C   0  0  0  0  0  0  0  0  0  0  0  0
  147.7770  134.9225  160.1936 N   0  0  0  0  0  0  0  0  0  0  0  0
  148.0014  135.9793  161.0044 C   0  0  0  0  0  0  0  0  0  0  0  0
  147.6911  135.9395  162.3787 C   0  0  0  0  0  0  0  0  0  0  0  0
  147.1354  134.7358  162.8566 C   0  0  0  0  0  0  0  0  0  0  0  0
  146.9124  133.6820  162.0416 N   0  0  0  0  0  0  0  0  0  0  0  0
  150.9942  137.7801  155.0107 C   0  0  0  0  0  0  0  0  0  0  0  0
  152.0276  138.5115  155.6284 C   0  0  0  0  0  0  0  0  0  0  0  0
  153.4694  138.8460  154.7375 Cl  0  0  0  0  0  0  0  0  0  0  0  0
  146.5603  134.8276  151.2838 H   0  0  0  0  0  0  0  0  0  0  0  0
  153.6917  140.7666  159.0746 H   0  0  0  0  0  0  0  0  0  0  0  0
  152.6303  139.4442  159.5439 H   0  0  0  0  0  0  0  0  0  0  0  0
  151.9562  140.9344  158.8401 H   0  0  0  0  0  0  0  0  0  0  0  0
  150.5422  138.9978  158.6788 H   0  0  0  0  0  0  0  0  0  0  0  0
  148.7585  137.7241  157.5904 H   0  0  0  0  0  0  0  0  0  0  0  0
  147.7762  137.2874  155.1159 H   0  0  0  0  0  0  0  0  0  0  0  0
  148.9214  136.5824  153.9887 H   0  0  0  0  0  0  0  0  0  0  0  0
  149.1823  135.0308  156.2831 H   0  0  0  0  0  0  0  0  0  0  0  0
  144.0448  132.5666  152.4199 H   0  0  0  0  0  0  0  0  0  0  0  0
  142.9901  133.9837  152.4071 H   0  0  0  0  0  0  0  0  0  0  0  0
  144.7739  132.9200  150.1960 H   0  0  0  0  0  0  0  0  0  0  0  0
  143.1185  133.5158  150.0441 H   0  0  0  0  0  0  0  0  0  0  0  0
  145.1607  135.1587  149.3670 H   0  0  0  0  0  0  0  0  0  0  0  0
  143.8407  135.7975  150.3461 H   0  0  0  0  0  0  0  0  0  0  0  0
  144.8042  137.2076  152.1315 H   0  0  0  0  0  0  0  0  0  0  0  0
  146.3970  136.8696  152.7785 H   0  0  0  0  0  0  0  0  0  0  0  0
  145.6937  137.7754  150.2625 H   0  0  0  0  0  0  0  0  0  0  0  0
  145.3573  132.0134  156.2652 H   0  0  0  0  0  0  0  0  0  0  0  0
  146.1992  132.0392  160.2714 H   0  0  0  0  0  0  0  0  0  0  0  0
  147.8760  131.9799  159.8656 H   0  0  0  0  0  0  0  0  0  0  0  0
  148.4300  136.8622  160.5539 H   0  0  0  0  0  0  0  0  0  0  0  0
  147.8689  136.7834  163.0284 H   0  0  0  0  0  0  0  0  0  0  0  0
  146.8674  134.6184  163.8961 H   0  0  0  0  0  0  0  0  0  0  0  0
  151.1163  137.4389  153.9930 H   0  0  0  0  0  0  0  0  0  0  0  0
  144.3732  132.6101  154.2547 H   0  0  0  0  0  0  0  0  0  0  0  0
  1  2  1  0  0  0  0
  1 36  1  0  0  0  0
  1 37  1  0  0  0  0
  1 38  1  0  0  0  0
  2  3  1  0  0  0  0
  3 33  1  0  0  0  0
  3  4  2  0  0  0  0
  4  5  1  0  0  0  0
  4 39  1  0  0  0  0
  5  6  2  0  0  0  0
  5 40  1  0  0  0  0
  6  7  1  0  0  0  0
  6 32  1  0  0  0  0
  7  8  1  0  0  0  0
  7 41  1  0  0  0  0
  7 42  1  0  0  0  0
  8  9  1  0  0  0  0
  8 43  1  0  0  0  0
  9 21  1  0  0  0  0
  9 10  2  0  0  0  0
 10 11  1  0  0  0  0
 11 12  1  0  0  0  0
 11 19  2  0  0  0  0
 12 16  1  0  0  0  0
 12 13  1  0  0  0  0
 13 14  1  0  0  0  0
 13 44  1  0  0  0  0
 13 45  1  0  0  0  0
 14 15  1  0  0  0  0
 14 46  1  0  0  0  0
 14 47  1  0  0  0  0
 15 16  1  0  0  0  0
 15 48  1  0  0  0  0
 15 49  1  0  0  0  0
 16 35  1  0  0  0  0
 16 17  1  0  0  0  0
 17 18  1  0  0  0  0
 17 50  1  0  0  0  0
 17 51  1  0  0  0  0
 18 52  1  0  0  0  0
 19 20  1  0  0  0  0
 19 60  1  0  0  0  0
 20 21  2  0  0  0  0
 20 53  1  0  0  0  0
 21 22  1  0  0  0  0
 22 23  2  0  0  0  0
 22 24  1  0  0  0  0
 24 25  1  0  0  0  0
 25 26  1  0  0  0  0
 25 54  1  0  0  0  0
 25 55  1  0  0  0  0
 26 31  1  0  0  0  0
 26 27  2  0  0  0  0
 27 28  1  0  0  0  0
 28 29  2  0  0  0  0
 28 56  1  0  0  0  0
 29 30  1  0  0  0  0
 29 57  1  0  0  0  0
 30 31  2  0  0  0  0
 30 58  1  0  0  0  0
 32 33  2  0  0  0  0
 32 59  1  0  0  0  0
 33 34  1  0  0  0  0
M  CHG  1  19   1
M  CHG  1  24  -1
M  END
> <s_m_source_file>
AV-unprocessed.smi

> <i_m_source_file_index>
45

> <i_lp_mmshare_version>
43012

> <i_f3d_flags>
0

> <s_epik_input>
W0NIM11PYzFbY0hdW2NIXWMoW2NIXWMxQ2wpW0NIMl1bTkhdYzJuYyhOM1tDSDJdW0NIMl1bQ0gyXVtDQEhdM1tDSDJdW09IXSluW2NIXWMyQyg9TylbTkhdW0NIMl1jNG5bY0hdW2NIXVtjSF1uNA==

> <s_epik_cmdline>
J2VwaWtfcHl0aG9uJywgJy1waCcsICc3LjAnLCAnLXRuJywgJzgnLCAnLW1hJywgJzIwMCcsICctbWV0YWxfYmluZGluZycsICctaW1hZScsICc8aW5maWxlLm1hZT4nLCAnLW9tYWUnLCAnPG91dGZpbGUubWFlPic=

> <r_lp_tautomer_probability>
0.575011

> <r_epik_Ionization_Penalty>
6.73124

> <r_epik_Ionization_Penalty_Charging>
6.73106

> <r_epik_Ionization_Penalty_Neutral>
0.000179426

> <r_epik_State_Penalty>
8.26145

> <r_epik_Charging_Adjusted_Penalty>
14.9925

> <i_epik_Tot_Q>
0

> <i_epik_Tot_abs_Q>
2

> <r_epik_Metal_State_Penalty>
4.22532

> <b_epik_Metal_Only>
1

> <s_epik_Chemistry_Notes>
This compound contains an electron-poor aromatic ring that is susceptible to covalent hydrolysis at low pH, typically resulting in measured values for nitrogen ring protonation that are around two units higher than predicted values.

> <s_lp_Force_Field>
OPLS_2005

> <r_lp_Energy>
44.6193

> <b_lp_Chiralities_Consistent>
1

> <s_lp_Variant>
AV-unprocessed.smi:45-9

> <Gold.Version>
5.8.1

> <Gold.Id.Protein>
6NUR|6NUR_protein|mol2

> <Gold.PLP.Fitness>
56.5923

> <Gold.PLP.PLP>
-44.1542

> <Gold.PLP.part.hbond>
-5.0000

> <Gold.PLP.part.metal>
0.0000

> <Gold.PLP.part.buried>
-3.1050

> <Gold.PLP.part.nonpolar>
-36.3069

> <Gold.PLP.part.repulsive>
0.0834

> <Gold.PLP.ligand.clash>
0.0000

> <Gold.PLP.ligand.torsion>
1.6253

> <Gold.PLP.Chemscore.Hbond>
5.0000

> <Gold.PLP.Chemscore.CHOScore>
0.0000

> <Gold.PLP.Chemscore.Metal>
0.0000

> <Gold.Chemscore.Hbonds>
donor molecule, donor type, donor heavy atom, donor atom, acceptor molecule, acceptor atom, score
      L1  H    18    52       P1 10171  0.99
      L1  H    19    60       P1 10957  1.89
      P1  H  7954  7966       L1    18  0.93
      P1  H  7997  8009       L1     2  1.00

> <Gold.PLP.Chemscore.Internal.Correction>
0.6887

> <Gold.Rescore>
     Score         DG    S(hbond)    S(metal)    S(lipo)     H(rot)  DE(clash)    DE(int)     intcor
     18.99     -23.20       3.67        0.00     110.15       2.90       0.88       3.32       ----

> <Gold.Chemscore.Fitness>
18.9934

> <Gold.Chemscore.DG>
-23.1952

> <Gold.Chemscore.ZeroCoef>
-5.4800

> <Gold.Chemscore.Hbond>
3.6671

> <Gold.Chemscore.Metal>
0.0000

> <Gold.Chemscore.Lipo>
110.1547

> <Gold.Chemscore.Internal_Hbond>
0.0000

> <Gold.Chemscore.DEClash>
0.8818

> <Gold.Chemscore.DEInternal>
3.3200

> <Gold.Chemscore.Rot>
2.8988

> <Gold.Chemscore.Internal.Correction>
   9.000000E+99

> <Gold.Chemscore.Hbonds>
donor molecule, donor type, donor heavy atom, donor atom, acceptor molecule, acceptor atom, score
      L1  H    18    52       P1 10171  0.91
      L1  H    19    60       P1 10957  0.73
      P1  H  7954  7966       L1    18  0.48
      P1  H  7997  8009       L1     2  0.59

> <Gold.Chemscore.Hbond.Weighted>
-12.2480

> <Gold.Chemscore.Metal.Weighted>
-0.0000

> <Gold.Chemscore.Lipo.Weighted>
-12.8881

> <Gold.Chemscore.Internal_Hbond.Weighted>
0.0000

> <Gold.Chemscore.DEClash.Weighted>
0.8818

> <Gold.Chemscore.DEInternal.Weighted>
3.3200

> <Gold.Chemscore.Rot.Weighted>
7.4209

> <Gold.Chemscore.Internal.Correction.Weighted>
   9.000000E+99

> <Gold.Protein.RotatedTorsions>
[ 6907 6896 6895 6894 ] final  133.23 input  -60.11 | X-H torsion
[ 7974 7965 7964 7962 ] final -136.64 input  175.53 | X-H torsion
[ 8008 7997 7996 7995 ] final  156.45 input   59.86 | X-H torsion
[ 10167 10162 10161 10158 ] final  101.47 input  -65.29 | X-H torsion
[ 10718 10713 10712 10709 ] final  -15.33 input   66.30 | X-H torsion
[ 10763 10752 10751 10750 ] final   24.55 input  -60.55 | X-H torsion
[ 11005 11000 10999 10996 ] final   10.77 input  -57.11 | X-H torsion

> <Gold.Protein.ActiveResidues>
 VAL166  LYS551  ARG553  GLY616  TRP617  ASP618  TYR619  PRO620  LYS621  CYS622 
 ASP623  PHE694  ASN695  SER759  ASP760  ASP761  ALA762  ILE779  LEU786  VAL792 
 PHE793  MET794  SER795  GLU796  ALA797  LYS798  CYS799  TRP800  GLU811  SER814 

> <Gold.Protein.RotatedAtoms>
  152.3241  133.5886  159.5764 H   0  0  0  0  0  0  0  0  0  0  0  0  # atno 6907 bound_to 6896
  150.7387  133.9967  159.3633 H   0  0  0  0  0  0  0  0  0  0  0  0  # atno 6908 bound_to 6896
  151.7848  135.0752  160.0430 H   0  0  0  0  0  0  0  0  0  0  0  0  # atno 6909 bound_to 6896
  144.8910  140.6641  143.5145 H   0  0  0  0  0  0  0  0  0  0  0  0  # atno 7974 bound_to 7965
  156.2421  140.1912  156.6957 H   0  0  0  0  0  0  0  0  0  0  0  0  # atno 8008 bound_to 7997
  154.6218  140.0607  156.9651 H   0  0  0  0  0  0  0  0  0  0  0  0  # atno 8009 bound_to 7997
  155.1849  140.3279  155.4371 H   0  0  0  0  0  0  0  0  0  0  0  0  # atno 8010 bound_to 7997
  139.7435  144.7004  151.0539 H   0  0  0  0  0  0  0  0  0  0  0  0  # atno 10167 bound_to 10162
  156.6032  130.4829  149.6231 H   0  0  0  0  0  0  0  0  0  0  0  0  # atno 10718 bound_to 10713
  153.0756  135.6603  154.0154 H   0  0  0  0  0  0  0  0  0  0  0  0  # atno 10763 bound_to 10752
  153.9788  135.2957  155.3423 H   0  0  0  0  0  0  0  0  0  0  0  0  # atno 10764 bound_to 10752
  154.7143  135.5192  153.8784 H   0  0  0  0  0  0  0  0  0  0  0  0  # atno 10765 bound_to 10752
  140.5108  134.0654  155.7817 H   0  0  0  0  0  0  0  0  0  0  0  0  # atno 11005 bound_to 11000
  145.3784  139.1642  143.4294 LP  0  0  0  0  0  0  0  0  0  0  0  0  # atno 17320 bound_to 7965
  146.3053  140.3862  142.8689 LP  0  0  0  0  0  0  0  0  0  0  0  0  # atno 17321 bound_to 7965
  140.7789  143.4895  150.9912 LP  0  0  0  0  0  0  0  0  0  0  0  0  # atno 17342 bound_to 10162
  139.8583  143.7348  152.3175 LP  0  0  0  0  0  0  0  0  0  0  0  0  # atno 17343 bound_to 10162
  156.2451  130.6874  151.1593 LP  0  0  0  0  0  0  0  0  0  0  0  0  # atno 17370 bound_to 10713
  157.7274  131.0639  150.5867 LP  0  0  0  0  0  0  0  0  0  0  0  0  # atno 17371 bound_to 10713
  141.1387  133.9177  157.2376 LP  0  0  0  0  0  0  0  0  0  0  0  0  # atno 17394 bound_to 11000
  139.9660  135.0141  156.9388 LP  0  0  0  0  0  0  0  0  0  0  0  0  # atno 17395 bound_to 11000

$$$$
