AV-unprocessed.smi:227|AV-procd|sdf|1731|dock7
  -GOLD-   2262020223D 1   1.00000     0.00000
 Structure written by MMmdl.
 54 58  0  0  0  0  0  0  0  0  1 V2000
  148.9889  140.1633  153.5253 O   0  0  0  0  0  0  0  0  0  0  0  0
  149.8175  140.0572  154.6657 C   0  0  0  0  0  0  0  0  0  0  0  0
  149.4637  138.8159  155.5269 C   0  0  2  0  0  0  0  0  0  0  0  0
  150.1690  138.8320  156.9097 C   0  0  0  0  0  0  0  0  0  0  0  0
  149.6392  137.8598  157.8482 N   0  0  0  0  0  0  0  0  0  0  0  0
  150.3130  136.7896  158.3878 C   0  0  0  0  0  0  0  0  0  0  0  0
  149.6094  136.0413  159.1920 N   0  0  0  0  0  0  0  0  0  0  0  0
  148.3525  136.6361  159.2063 C   0  0  0  0  0  0  0  0  0  0  0  0
  147.1100  136.3318  159.8354 C   0  0  0  0  0  0  0  0  0  0  0  0
  146.9049  135.2406  160.6223 N   0  0  0  0  0  0  0  0  0  0  0  0
  147.8282  134.9044  161.6956 C   0  0  2  0  0  0  0  0  0  0  0  0
  147.3287  133.5162  162.1313 C   0  0  0  0  0  0  0  0  0  0  0  0
  145.8119  133.6653  161.9270 C   0  0  0  0  0  0  0  0  0  0  0  0
  145.7119  135.1257  161.4498 C   0  0  1  0  0  0  0  0  0  0  0  0
  145.9681  136.0555  162.6634 C   0  0  2  0  0  0  0  0  0  0  0  0
  145.4665  137.5007  162.4724 C   0  0  0  0  0  0  0  0  0  0  0  0
  144.0572  137.5402  162.5420 O   0  0  0  0  0  0  0  0  0  0  0  0
  147.4995  135.9310  162.7999 C   0  0  0  0  0  0  0  0  0  0  0  0
  146.0812  137.1967  159.6294 N   0  0  0  0  0  0  0  0  0  0  0  0
  146.2364  138.2610  158.8377 C   0  0  0  0  0  0  0  0  0  0  0  0
  147.3204  138.6471  158.1640 N   0  0  0  0  0  0  0  0  0  0  0  0
  148.3648  137.7986  158.3833 C   0  0  0  0  0  0  0  0  0  0  0  0
  149.7910  137.4983  154.7755 C   0  0  2  0  0  0  0  0  0  0  0  0
  149.4244  136.2226  155.5174 C   0  0  0  0  0  0  0  0  0  0  0  0
  150.2640  135.1709  154.8003 C   0  0  0  0  0  0  0  0  0  0  0  0
  151.4371  135.8451  154.3616 O   0  0  0  0  0  0  0  0  0  0  0  0
  151.2857  137.2492  154.5389 C   0  0  0  0  0  0  0  0  0  0  0  0
  149.5319  140.1152  152.7530 H   0  0  0  0  0  0  0  0  0  0  0  0
  150.8382  140.0060  154.2916 H   0  0  0  0  0  0  0  0  0  0  0  0
  149.7487  140.9711  155.2566 H   0  0  0  0  0  0  0  0  0  0  0  0
  148.3861  138.8269  155.6995 H   0  0  0  0  0  0  0  0  0  0  0  0
  151.2342  138.6282  156.8015 H   0  0  0  0  0  0  0  0  0  0  0  0
  150.0913  139.8233  157.3574 H   0  0  0  0  0  0  0  0  0  0  0  0
  151.3456  136.5742  158.1547 H   0  0  0  0  0  0  0  0  0  0  0  0
  148.8811  134.8970  161.4113 H   0  0  0  0  0  0  0  0  0  0  0  0
  147.7282  132.7351  161.4836 H   0  0  0  0  0  0  0  0  0  0  0  0
  147.5977  133.2767  163.1608 H   0  0  0  0  0  0  0  0  0  0  0  0
  145.4623  132.9809  161.1528 H   0  0  0  0  0  0  0  0  0  0  0  0
  145.2379  133.4693  162.8333 H   0  0  0  0  0  0  0  0  0  0  0  0
  144.7647  135.3177  160.9495 H   0  0  0  0  0  0  0  0  0  0  0  0
  145.4739  135.6438  163.5452 H   0  0  0  0  0  0  0  0  0  0  0  0
  145.8705  138.1750  163.2267 H   0  0  0  0  0  0  0  0  0  0  0  0
  145.7762  137.8839  161.4998 H   0  0  0  0  0  0  0  0  0  0  0  0
  143.7230  137.8349  161.7086 H   0  0  0  0  0  0  0  0  0  0  0  0
  147.8085  135.5968  163.7909 H   0  0  0  0  0  0  0  0  0  0  0  0
  147.9950  136.8826  162.6024 H   0  0  0  0  0  0  0  0  0  0  0  0
  145.3656  138.8892  158.7231 H   0  0  0  0  0  0  0  0  0  0  0  0
  149.2825  137.4958  153.8098 H   0  0  0  0  0  0  0  0  0  0  0  0
  149.7253  136.2900  156.5639 H   0  0  0  0  0  0  0  0  0  0  0  0
  148.3610  135.9860  155.4821 H   0  0  0  0  0  0  0  0  0  0  0  0
  150.5063  134.3240  155.4425 H   0  0  0  0  0  0  0  0  0  0  0  0
  149.7342  134.7931  153.9252 H   0  0  0  0  0  0  0  0  0  0  0  0
  151.6696  137.7917  153.6745 H   0  0  0  0  0  0  0  0  0  0  0  0
  151.8703  137.5470  155.4106 H   0  0  0  0  0  0  0  0  0  0  0  0
  1  2  1  0  0  0  0
  1 28  1  0  0  0  0
  2  3  1  0  0  0  0
  2 29  1  0  0  0  0
  2 30  1  0  0  0  0
  3  4  1  0  0  0  0
  3 23  1  0  0  0  0
  3 31  1  0  0  0  0
  4  5  1  0  0  0  0
  4 32  1  0  0  0  0
  4 33  1  0  0  0  0
  5 22  1  0  0  0  0
  5  6  1  0  0  0  0
  6  7  2  0  0  0  0
  6 34  1  0  0  0  0
  7  8  1  0  0  0  0
  8 22  2  0  0  0  0
  8  9  1  0  0  0  0
  9 10  1  0  0  0  0
  9 19  2  0  0  0  0
 10 14  1  0  0  0  0
 10 11  1  0  0  0  0
 11 18  1  0  0  0  0
 11 12  1  0  0  0  0
 11 35  1  0  0  0  0
 12 13  1  0  0  0  0
 12 36  1  0  0  0  0
 12 37  1  0  0  0  0
 13 14  1  0  0  0  0
 13 38  1  0  0  0  0
 13 39  1  0  0  0  0
 14 15  1  0  0  0  0
 14 40  1  0  0  0  0
 15 16  1  0  0  0  0
 15 18  1  0  0  0  0
 15 41  1  0  0  0  0
 16 17  1  0  0  0  0
 16 42  1  0  0  0  0
 16 43  1  0  0  0  0
 17 44  1  0  0  0  0
 18 45  1  0  0  0  0
 18 46  1  0  0  0  0
 19 20  1  0  0  0  0
 20 21  2  0  0  0  0
 20 47  1  0  0  0  0
 21 22  1  0  0  0  0
 23 27  1  0  0  0  0
 23 24  1  0  0  0  0
 23 48  1  0  0  0  0
 24 25  1  0  0  0  0
 24 49  1  0  0  0  0
 24 50  1  0  0  0  0
 25 26  1  0  0  0  0
 25 51  1  0  0  0  0
 25 52  1  0  0  0  0
 26 27  1  0  0  0  0
 27 53  1  0  0  0  0
 27 54  1  0  0  0  0
M  END
> <s_m_source_file>
AV-unprocessed.smi

> <i_m_source_file_index>
227

> <i_lp_mmshare_version>
43012

> <i_f3d_flags>
0

> <s_epik_input>
W0NIMl0xT1tDSDJdW0NIMl1bQ0BIXTFbQ0BIXShbQ0gyXVtPSF0pW0NIMl1uKFtjSF1uMiljKGMyMyluW2NIXW5jM04oW0NASF00NSlbQ0BASF0oW0NIMl1bQ0gyXTQpW0NASF0oW0NIMl01KVtDSDJdW09IXQ==

> <s_epik_cmdline>
J2VwaWtfcHl0aG9uJywgJy1waCcsICc3LjAnLCAnLXRuJywgJzgnLCAnLW1hJywgJzIwMCcsICctbWV0YWxfYmluZGluZycsICctaW1hZScsICc8aW5maWxlLm1hZT4nLCAnLW9tYWUnLCAnPG91dGZpbGUubWFlPic=

> <r_lp_tautomer_probability>
1

> <r_epik_Ionization_Penalty>
0.0055791

> <r_epik_Ionization_Penalty_Charging>
0

> <r_epik_Ionization_Penalty_Neutral>
0.0055791

> <r_epik_State_Penalty>
0.00401299

> <r_epik_Charging_Adjusted_Penalty>
0.00401299

> <i_epik_Tot_Q>
0

> <i_epik_Tot_abs_Q>
0

> <r_epik_Metal_State_Penalty>
-0

> <b_epik_Metal_Only>
0

> <s_lp_Force_Field>
OPLS_2005

> <r_lp_Energy>
88.0051

> <b_lp_Chiralities_Consistent>
1

> <s_lp_Variant>
AV-unprocessed.smi:227-5

> <Gold.Version>
5.8.1

> <Gold.Id.Protein>
6NUR|6NUR_protein|mol2

> <Gold.PLP.Fitness>
46.3634

> <Gold.PLP.PLP>
-37.9995

> <Gold.PLP.part.hbond>
-3.8129

> <Gold.PLP.part.metal>
0.0000

> <Gold.PLP.part.buried>
-8.5754

> <Gold.PLP.part.nonpolar>
-28.0088

> <Gold.PLP.part.repulsive>
0.1625

> <Gold.PLP.ligand.clash>
0.0000

> <Gold.PLP.ligand.torsion>
0.4383

> <Gold.PLP.Chemscore.Hbond>
3.0000

> <Gold.PLP.Chemscore.CHOScore>
0.0000

> <Gold.PLP.Chemscore.Metal>
0.0000

> <Gold.Chemscore.Hbonds>
donor molecule, donor type, donor heavy atom, donor atom, acceptor molecule, acceptor atom, score
      L1  H     1    28       P1  7957  0.96
      P1  H  6896  6908       L1     7  1.00
      P1  H 10752 10765       L1    26  1.00

> <Gold.PLP.Chemscore.Internal.Correction>
0.2405

> <Gold.Rescore>
     Score         DG    S(hbond)    S(metal)    S(lipo)     H(rot)  DE(clash)    DE(int)     intcor
     11.38     -15.36       2.57        0.00      90.06       3.61       1.38       2.60       ----

> <Gold.Chemscore.Fitness>
11.3783

> <Gold.Chemscore.DG>
-15.3607

> <Gold.Chemscore.ZeroCoef>
-5.4800

> <Gold.Chemscore.Hbond>
2.5681

> <Gold.Chemscore.Metal>
0.0000

> <Gold.Chemscore.Lipo>
90.0649

> <Gold.Chemscore.Internal_Hbond>
0.0000

> <Gold.Chemscore.DEClash>
1.3816

> <Gold.Chemscore.DEInternal>
2.6009

> <Gold.Chemscore.Rot>
3.6071

> <Gold.Chemscore.Internal.Correction>
   9.000000E+99

> <Gold.Chemscore.Hbonds>
donor molecule, donor type, donor heavy atom, donor atom, acceptor molecule, acceptor atom, score
      L1  H     1    28       P1  7957  0.91
      P1  H  6896  6908       L1     7  0.35
      P1  H 10752 10765       L1    26  0.41

> <Gold.Chemscore.Hbond.Weighted>
-8.5773

> <Gold.Chemscore.Metal.Weighted>
-0.0000

> <Gold.Chemscore.Lipo.Weighted>
-10.5376

> <Gold.Chemscore.Internal_Hbond.Weighted>
0.0000

> <Gold.Chemscore.DEClash.Weighted>
1.3816

> <Gold.Chemscore.DEInternal.Weighted>
2.6009

> <Gold.Chemscore.Rot.Weighted>
9.2342

> <Gold.Chemscore.Internal.Correction.Weighted>
   9.000000E+99

> <Gold.Protein.RotatedTorsions>
[ 6907 6896 6895 6894 ] final -174.12 input  -60.11 | X-H torsion
[ 7974 7965 7964 7962 ] final  127.38 input  175.53 | X-H torsion
[ 8008 7997 7996 7995 ] final  121.55 input   59.86 | X-H torsion
[ 10167 10162 10161 10158 ] final   57.79 input  -65.29 | X-H torsion
[ 10718 10713 10712 10709 ] final   98.63 input   66.30 | X-H torsion
[ 10763 10752 10751 10750 ] final  154.11 input  -60.55 | X-H torsion
[ 11005 11000 10999 10996 ] final   81.35 input  -57.11 | X-H torsion

> <Gold.Protein.ActiveResidues>
 VAL166  LYS551  ARG553  GLY616  TRP617  ASP618  TYR619  PRO620  LYS621  CYS622 
 ASP623  PHE694  ASN695  SER759  ASP760  ASP761  ALA762  ILE779  LEU786  VAL792 
 PHE793  MET794  SER795  GLU796  ALA797  LYS798  CYS799  TRP800  GLU811  SER814 

> <Gold.Protein.RotatedAtoms>
  151.5672  133.3395  159.2982 H   0  0  0  0  0  0  0  0  0  0  0  0  # atno 6907 bound_to 6896
  150.8389  134.7675  159.6927 H   0  0  0  0  0  0  0  0  0  0  0  0  # atno 6908 bound_to 6896
  152.4460  134.5501  159.9916 H   0  0  0  0  0  0  0  0  0  0  0  0  # atno 6909 bound_to 6896
  145.0513  139.3881  143.5053 H   0  0  0  0  0  0  0  0  0  0  0  0  # atno 7974 bound_to 7965
  156.2691  140.2806  156.1326 H   0  0  0  0  0  0  0  0  0  0  0  0  # atno 8008 bound_to 7997
  155.1038  140.0390  157.2722 H   0  0  0  0  0  0  0  0  0  0  0  0  # atno 8009 bound_to 7997
  154.6795  140.2605  155.6929 H   0  0  0  0  0  0  0  0  0  0  0  0  # atno 8010 bound_to 7997
  140.1942  144.4055  150.6557 H   0  0  0  0  0  0  0  0  0  0  0  0  # atno 10167 bound_to 10162
  157.6892  131.0646  150.4826 H   0  0  0  0  0  0  0  0  0  0  0  0  # atno 10718 bound_to 10713
  154.1471  135.2817  155.3145 H   0  0  0  0  0  0  0  0  0  0  0  0  # atno 10763 bound_to 10752
  154.6245  135.5456  153.7615 H   0  0  0  0  0  0  0  0  0  0  0  0  # atno 10764 bound_to 10752
  153.0232  135.6447  154.1616 H   0  0  0  0  0  0  0  0  0  0  0  0  # atno 10765 bound_to 10752
  139.9101  134.7990  156.2030 H   0  0  0  0  0  0  0  0  0  0  0  0  # atno 11005 bound_to 11000
  146.3518  140.0164  142.8662 LP  0  0  0  0  0  0  0  0  0  0  0  0  # atno 17320 bound_to 7965
  145.1524  140.9630  143.4425 LP  0  0  0  0  0  0  0  0  0  0  0  0  # atno 17321 bound_to 7965
  140.6435  143.2208  151.6238 LP  0  0  0  0  0  0  0  0  0  0  0  0  # atno 17342 bound_to 10162
  139.5243  144.3106  152.0996 LP  0  0  0  0  0  0  0  0  0  0  0  0  # atno 17343 bound_to 10162
  156.5157  130.4150  149.6277 LP  0  0  0  0  0  0  0  0  0  0  0  0  # atno 17370 bound_to 10713
  156.3200  130.7275  151.2185 LP  0  0  0  0  0  0  0  0  0  0  0  0  # atno 17371 bound_to 10713
  141.0513  133.6887  156.1777 LP  0  0  0  0  0  0  0  0  0  0  0  0  # atno 17394 bound_to 11000
  140.6806  134.4771  157.5589 LP  0  0  0  0  0  0  0  0  0  0  0  0  # atno 17395 bound_to 11000

$$$$
