#       Name:                AV-unprocessed.smi:1240
#       Creating user name   scv26
#       Creation time:       Fri Mar 27 04:28:57 2020


#       File generated by GOLD software.
#

@<TRIPOS>MOLECULE
AV-unprocessed.smi:1240
    55    57     1
SMALL
NO_CHARGES


@<TRIPOS>ATOM
      1 ****        -3.1888  -0.3614   0.3630 O.2            1 S1                 0.0000
      2 ****        -2.2060   0.3789   0.3801 C.2            1 S1                 0.0000
      3 ****        -0.9482  -0.0696   0.2827 N.am           1 S1                 0.0000
      4 ****        -0.5843  -1.4784   0.1684 C.3            1 S1                 0.0000
      5 ****         0.9437  -1.6635  -0.0109 C.3            1 S1                 0.0000
      6 ****         1.7313  -1.1519   1.2405 C.3            1 S1                 0.0000
      7 ****         1.1623  -1.6220   2.5750 C.3            1 S1                 0.0000
      8 ****         2.3532  -1.4971   3.5101 C.3            1 S1                 0.0000
      9 ****         3.4230  -1.9855   2.7229 O.3            1 S1                 0.0000
     10 ****         3.1869  -1.6532   1.3585 C.3            1 S1                 0.0000
     11 ****         1.3328  -1.0484  -1.3256 N.4            1 S1                 1.0000
     12 ****         2.6627  -0.3932  -1.4304 C.3            1 S1                 0.0000
     13 ****         2.8209   0.2860  -2.8018 C.3            1 S1                 0.0000
     14 ****         2.6473  -0.6732  -3.8357 O.3            1 S1                 0.0000
     15 ****         1.3503  -1.2530  -3.8049 C.3            1 S1                 0.0000
     16 ****         1.1456  -1.9820  -2.4667 C.3            1 S1                 0.0000
     17 ****        -2.2395   1.7194   0.4745 N.am           1 S1                 0.0000
     18 ****        -3.3718   2.5665   0.6130 C.ar           1 S1                 0.0000
     19 ****        -3.2370   3.9148   0.2227 C.ar           1 S1                 0.0000
     20 ****        -4.3426   4.7767   0.3679 C.ar           1 S1                 0.0000
     21 ****        -5.5292   4.3816   0.8751 N.ar           1 S1                 0.0000
     22 ****        -5.6508   3.0946   1.2634 C.ar           1 S1                 0.0000
     23 ****        -4.6096   2.1506   1.1592 C.ar           1 S1                 0.0000
     24 ****        -0.1958   0.6027   0.3132 H              1 S1                 0.0000
     25 ****        -0.9467  -2.0166   1.0445 H              1 S1                 0.0000
     26 ****        -1.1227  -1.9121  -0.6746 H              1 S1                 0.0000
     27 ****         1.1324  -2.7365  -0.0756 H              1 S1                 0.0000
     28 ****         1.7260  -0.0613   1.2671 H              1 S1                 0.0000
     29 ****         0.3096  -1.0306   2.9103 H              1 S1                 0.0000
     30 ****         0.8535  -2.6669   2.5168 H              1 S1                 0.0000
     31 ****         2.5367  -0.4541   3.7723 H              1 S1                 0.0000
     32 ****         2.2340  -2.0715   4.4290 H              1 S1                 0.0000
     33 ****         3.3651  -2.5414   0.7515 H              1 S1                 0.0000
     34 ****         3.8987  -0.8877   1.0499 H              1 S1                 0.0000
     35 ****         2.7843   0.3700  -0.6635 H              1 S1                 0.0000
     36 ****         3.4535  -1.1327  -1.3017 H              1 S1                 0.0000
     37 ****         2.1037   1.0999  -2.9195 H              1 S1                 0.0000
     38 ****         3.8152   0.7240  -2.8909 H              1 S1                 0.0000
     39 ****         0.5889  -0.4852  -3.9523 H              1 S1                 0.0000
     40 ****         1.2590  -1.9559  -4.6330 H              1 S1                 0.0000
     41 ****         1.8538  -2.8078  -2.3817 H              1 S1                 0.0000
     42 ****         0.1482  -2.4198  -2.4484 H              1 S1                 0.0000
     43 ****        -1.3543   2.1957   0.3840 H              1 S1                 0.0000
     44 ****        -2.3091   4.2862  -0.1870 H              1 S1                 0.0000
     45 ****        -4.2703   5.8122   0.0699 H              1 S1                 0.0000
     46 ****        -6.6065   2.8082   1.6768 H              1 S1                 0.0000
     47 ****        -4.7760   1.1433   1.5086 H              1 S1                 0.0000
     48 ****         0.6678  -0.3010  -1.4655 H              1 S1                 0.0000
     49 ****        -3.0686  -1.3500   0.2729 LP             1 S1                 0.0000
     50 ****        -4.1078   0.0257   0.4392 LP             1 S1                 0.0000
     51 ****         3.4838  -2.9789   2.8199 LP             1 S1                 0.0000
     52 ****         4.2796  -1.5678   3.0259 LP             1 S1                 0.0000
     53 ****         3.3281  -1.3969  -3.7236 LP             1 S1                 0.0000
     54 ****         2.7803  -0.2244  -4.7194 LP             1 S1                 0.0000
     55 ****        -6.2931   5.0213   0.9604 LP             1 S1                 0.0000
@<TRIPOS>BOND
    1    1    2 2     
    2    2    3 am    
    3    2   17 am    
    4    3    4 1     
    5    3   24 1     
    6    4    5 1     
    7    4   25 1     
    8    4   26 1     
    9    5    6 1     
   10    5   11 1     
   11    5   27 1     
   12    6   10 1     
   13    6    7 1     
   14    6   28 1     
   15    7    8 1     
   16    7   29 1     
   17    7   30 1     
   18    8    9 1     
   19    8   31 1     
   20    8   32 1     
   21    9   10 1     
   22   10   33 1     
   23   10   34 1     
   24   11   16 1     
   25   11   12 1     
   26   11   48 1     
   27   12   13 1     
   28   12   35 1     
   29   12   36 1     
   30   13   14 1     
   31   13   37 1     
   32   13   38 1     
   33   14   15 1     
   34   15   16 1     
   35   15   39 1     
   36   15   40 1     
   37   16   41 1     
   38   16   42 1     
   39   17   18 1     
   40   17   43 1     
   41   18   23 ar    
   42   18   19 ar    
   43   19   20 ar    
   44   19   44 1     
   45   20   21 ar    
   46   20   45 1     
   47   21   22 ar    
   48   22   23 ar    
   49   22   46 1     
   50   23   47 1     
   51    1   49 1     
   52    1   50 1     
   53    9   51 1     
   54    9   52 1     
   55   14   53 1     
   56   14   54 1     
   57   21   55 1     
@<TRIPOS>SUBSTRUCTURE
      1 S1             1
@<TRIPOS>SET
LONE_PAIRS      STATIC     ATOMS    <user>   **** ""
7 49 50 51 52 53 54 55
DONOR_HYDROGENS      STATIC     ATOMS    <user>   **** ""
3 24 48 43
ATOM$BLUE        STATIC     ATOMS    COLORGROUP SYSTEM
7 49 50 51 52 53 54 55
ATOM$RED        STATIC     ATOMS    COLORGROUP SYSTEM
3 24 48 43
