AV-unprocessed.smi:2061|AV-procd|sdf|8391|dock6
  -GOLD-   2272011 73D 1   1.00000     0.00000
 Structure written by MMmdl.
 45 46  0  0  0  0  0  0  0  0  3 V2000
  144.6525  132.0558  150.0760 C   0  0  0  0  0  0  0  0  0  0  0  0
  145.7078  132.3064  151.0976 C   0  0  0  0  0  0  0  0  0  0  0  0
  146.4236  133.4187  151.4411 C   0  0  0  0  0  0  0  0  0  0  0  0
  147.2549  132.9530  152.4945 C   0  0  0  0  0  0  0  0  0  0  0  0
  148.1729  133.8280  153.1334 N   0  0  0  0  0  0  0  0  0  0  0  0
  148.9949  133.5759  154.1681 C   0  0  0  0  0  0  0  0  0  0  0  0
  148.9970  132.4630  154.7082 O   0  0  0  0  0  0  0  0  0  0  0  0
  149.7629  134.6529  154.4927 N   0  5  0  0  0  0  0  0  0  0  0  0
  150.1381  135.0303  155.8568 C   0  0  0  0  0  0  0  0  0  0  0  0
  149.4257  136.3411  156.2932 C   0  0  1  0  0  0  0  0  0  0  0  0
  148.9480  136.3437  157.7672 C   0  0  0  0  0  0  0  0  0  0  0  0
  150.2650  137.5305  155.9496 N   0  3  1  0  0  0  0  0  0  0  0  0
  150.8367  137.4780  154.5816 C   0  0  0  0  0  0  0  0  0  0  0  0
  151.8499  138.6192  154.3654 C   0  0  2  0  0  0  0  0  0  0  0  0
  153.1860  138.3971  155.0963 C   0  0  0  0  0  0  0  0  0  0  0  0
  151.2597  139.8779  154.6922 O   0  0  0  0  0  0  0  0  0  0  0  0
  150.7210  139.9666  156.0093 C   0  0  1  0  0  0  0  0  0  0  0  0
  150.1301  141.3702  156.1814 C   0  0  0  0  0  0  0  0  0  0  0  0
  149.6622  138.8676  156.2007 C   0  0  0  0  0  0  0  0  0  0  0  0
  147.0629  131.6707  152.7677 N   0  0  0  0  0  0  0  0  0  0  0  0
  146.0701  131.2505  151.8750 O   0  0  0  0  0  0  0  0  0  0  0  0
  144.6562  132.8352  149.3139 H   0  0  0  0  0  0  0  0  0  0  0  0
  143.6656  132.0384  150.5387 H   0  0  0  0  0  0  0  0  0  0  0  0
  144.8118  131.0981  149.5801 H   0  0  0  0  0  0  0  0  0  0  0  0
  146.3619  134.4056  151.0076 H   0  0  0  0  0  0  0  0  0  0  0  0
  148.2213  134.7618  152.7535 H   0  0  0  0  0  0  0  0  0  0  0  0
  149.8938  134.2410  156.5681 H   0  0  0  0  0  0  0  0  0  0  0  0
  151.2168  135.1683  155.9478 H   0  0  0  0  0  0  0  0  0  0  0  0
  148.5276  136.4138  155.6777 H   0  0  0  0  0  0  0  0  0  0  0  0
  148.2162  135.5565  157.9568 H   0  0  0  0  0  0  0  0  0  0  0  0
  148.4589  137.2859  158.0148 H   0  0  0  0  0  0  0  0  0  0  0  0
  149.7654  136.2029  158.4767 H   0  0  0  0  0  0  0  0  0  0  0  0
  151.3275  136.5192  154.4078 H   0  0  0  0  0  0  0  0  0  0  0  0
  150.0283  137.5556  153.8534 H   0  0  0  0  0  0  0  0  0  0  0  0
  152.0790  138.6614  153.3002 H   0  0  0  0  0  0  0  0  0  0  0  0
  153.6802  137.4966  154.7309 H   0  0  0  0  0  0  0  0  0  0  0  0
  153.0563  138.2792  156.1719 H   0  0  0  0  0  0  0  0  0  0  0  0
  153.8638  139.2343  154.9296 H   0  0  0  0  0  0  0  0  0  0  0  0
  151.5164  139.8419  156.7444 H   0  0  0  0  0  0  0  0  0  0  0  0
  149.7099  141.5007  157.1790 H   0  0  0  0  0  0  0  0  0  0  0  0
  149.3367  141.5571  155.4570 H   0  0  0  0  0  0  0  0  0  0  0  0
  150.8948  142.1346  156.0408 H   0  0  0  0  0  0  0  0  0  0  0  0
  148.8301  139.0381  155.5160 H   0  0  0  0  0  0  0  0  0  0  0  0
  149.2613  138.9224  157.2133 H   0  0  0  0  0  0  0  0  0  0  0  0
  151.0602  137.4615  156.5689 H   0  0  0  0  0  0  0  0  0  0  0  0
  1  2  1  0  0  0  0
  1 22  1  0  0  0  0
  1 23  1  0  0  0  0
  1 24  1  0  0  0  0
  2 21  1  0  0  0  0
  2  3  2  0  0  0  0
  3  4  1  0  0  0  0
  3 25  1  0  0  0  0
  4  5  1  0  0  0  0
  4 20  2  0  0  0  0
  5  6  1  0  0  0  0
  5 26  1  0  0  0  0
  6  7  2  0  0  0  0
  6  8  1  0  0  0  0
  8  9  1  0  0  0  0
  9 10  1  0  0  0  0
  9 27  1  0  0  0  0
  9 28  1  0  0  0  0
 10 11  1  0  0  0  0
 10 12  1  0  0  0  0
 10 29  1  0  0  0  0
 11 30  1  0  0  0  0
 11 31  1  0  0  0  0
 11 32  1  0  0  0  0
 12 19  1  0  0  0  0
 12 13  1  0  0  0  0
 12 45  1  0  0  0  0
 13 14  1  0  0  0  0
 13 33  1  0  0  0  0
 13 34  1  0  0  0  0
 14 15  1  0  0  0  0
 14 16  1  0  0  0  0
 14 35  1  0  0  0  0
 15 36  1  0  0  0  0
 15 37  1  0  0  0  0
 15 38  1  0  0  0  0
 16 17  1  0  0  0  0
 17 18  1  0  0  0  0
 17 19  1  0  0  0  0
 17 39  1  0  0  0  0
 18 40  1  0  0  0  0
 18 41  1  0  0  0  0
 18 42  1  0  0  0  0
 19 43  1  0  0  0  0
 19 44  1  0  0  0  0
 20 21  1  0  0  0  0
M  CHG  1   8  -1
M  CHG  1  12   1
M  END
> <s_m_source_file>
AV-unprocessed.smi

> <i_m_source_file_index>
2061

> <i_lp_mmshare_version>
43012

> <i_f3d_flags>
0

> <s_epik_input>
W0NIM11jMVtjSF1jKG5vMSlbTkhdQyg9TylbTkhdW0NIMl1bQ0BIXShbQ0gzXSlOMltDSDJdW0NAQEhdKFtDSDNdKU9bQ0BASF0oW0NIM10pW0NIMl0y

> <s_epik_cmdline>
J2VwaWtfcHl0aG9uJywgJy1waCcsICc3LjAnLCAnLXRuJywgJzgnLCAnLW1hJywgJzIwMCcsICctbWV0YWxfYmluZGluZycsICctaW1hZScsICc8aW5maWxlLm1hZT4nLCAnLW9tYWUnLCAnPG91dGZpbGUubWFlPic=

> <r_epik_Ionization_Penalty>
6.8073

> <r_epik_Ionization_Penalty_Charging>
6.80729

> <r_epik_Ionization_Penalty_Neutral>
5.65391e-06

> <r_epik_State_Penalty>
7.47323

> <r_epik_Charging_Adjusted_Penalty>
14.2805

> <i_epik_Tot_Q>
0

> <i_epik_Tot_abs_Q>
2

> <r_epik_Metal_State_Penalty>
3.40035

> <b_epik_Metal_Only>
1

> <s_lp_Force_Field>
OPLS_2005

> <r_lp_Energy>
19.3707

> <b_lp_Chiralities_Consistent>
1

> <s_lp_Variant>
AV-unprocessed.smi:2061-32

> <Gold.Version>
5.8.1

> <Gold.Id.Protein>
6NUR|6NUR_protein|mol2

> <Gold.PLP.Fitness>
37.1487

> <Gold.PLP.PLP>
-32.7035

> <Gold.PLP.part.hbond>
-2.0000

> <Gold.PLP.part.metal>
0.0000

> <Gold.PLP.part.buried>
-5.8698

> <Gold.PLP.part.nonpolar>
-25.3571

> <Gold.PLP.part.repulsive>
0.8154

> <Gold.PLP.ligand.clash>
0.0000

> <Gold.PLP.ligand.torsion>
0.8522

> <Gold.PLP.Chemscore.Hbond>
2.0000

> <Gold.PLP.Chemscore.CHOScore>
0.0000

> <Gold.PLP.Chemscore.Metal>
0.0000

> <Gold.Chemscore.Hbonds>
donor molecule, donor type, donor heavy atom, donor atom, acceptor molecule, acceptor atom, score
      L1  H     5    26       P1  7948  1.00
      P1  H  7989  7998       L1    16  1.00

> <Gold.PLP.Chemscore.Internal.Correction>
0.1495

> <Gold.Rescore>
     Score         DG    S(hbond)    S(metal)    S(lipo)     H(rot)  DE(clash)    DE(int)     intcor
     13.14     -15.64       1.84        0.00      68.47       1.56       0.15       2.35       ----

> <Gold.Chemscore.Fitness>
13.1408

> <Gold.Chemscore.DG>
-15.6402

> <Gold.Chemscore.ZeroCoef>
-5.4800

> <Gold.Chemscore.Hbond>
1.8354

> <Gold.Chemscore.Metal>
0.0000

> <Gold.Chemscore.Lipo>
68.4687

> <Gold.Chemscore.Internal_Hbond>
0.0000

> <Gold.Chemscore.DEClash>
0.1460

> <Gold.Chemscore.DEInternal>
2.3534

> <Gold.Chemscore.Rot>
1.5550

> <Gold.Chemscore.Internal.Correction>
   9.000000E+99

> <Gold.Chemscore.Hbonds>
donor molecule, donor type, donor heavy atom, donor atom, acceptor molecule, acceptor atom, score
      L1  H     5    26       P1  7948  0.59
      P1  H  7989  7998       L1    16  0.54

> <Gold.Chemscore.Hbond.Weighted>
-6.1302

> <Gold.Chemscore.Metal.Weighted>
-0.0000

> <Gold.Chemscore.Lipo.Weighted>
-8.0108

> <Gold.Chemscore.Internal_Hbond.Weighted>
0.0000

> <Gold.Chemscore.DEClash.Weighted>
0.1460

> <Gold.Chemscore.DEInternal.Weighted>
2.3534

> <Gold.Chemscore.Rot.Weighted>
3.9809

> <Gold.Chemscore.Internal.Correction.Weighted>
   9.000000E+99

> <Gold.Protein.RotatedTorsions>
[ 6907 6896 6895 6894 ] final  -28.46 input  -60.11 | X-H torsion
[ 7974 7965 7964 7962 ] final  108.06 input  175.53 | X-H torsion
[ 8008 7997 7996 7995 ] final   18.38 input   59.86 | X-H torsion
[ 10167 10162 10161 10158 ] final  163.17 input  -65.29 | X-H torsion
[ 10718 10713 10712 10709 ] final    3.66 input   66.30 | X-H torsion
[ 10763 10752 10751 10750 ] final   27.06 input  -60.55 | X-H torsion
[ 11005 11000 10999 10996 ] final   76.75 input  -57.11 | X-H torsion

> <Gold.Protein.ActiveResidues>
 VAL166  LYS551  ARG553  GLY616  TRP617  ASP618  TYR619  PRO620  LYS621  CYS622 
 ASP623  PHE694  ASN695  SER759  ASP760  ASP761  ALA762  ILE779  LEU786  VAL792 
 PHE793  MET794  SER795  GLU796  ALA797  LYS798  CYS799  TRP800  GLU811  SER814 

> <Gold.Protein.RotatedAtoms>
  151.1326  135.0138  159.8589 H   0  0  0  0  0  0  0  0  0  0  0  0  # atno 6907 bound_to 6896
  152.5451  134.1592  159.8561 H   0  0  0  0  0  0  0  0  0  0  0  0  # atno 6908 bound_to 6896
  151.1660  133.4769  159.2627 H   0  0  0  0  0  0  0  0  0  0  0  0  # atno 6909 bound_to 6896
  145.2856  139.2617  143.3892 H   0  0  0  0  0  0  0  0  0  0  0  0  # atno 7974 bound_to 7965
  154.9052  140.3006  155.5296 H   0  0  0  0  0  0  0  0  0  0  0  0  # atno 8008 bound_to 7997
  156.3017  140.2399  156.4020 H   0  0  0  0  0  0  0  0  0  0  0  0  # atno 8009 bound_to 7997
  154.8481  140.0410  157.1575 H   0  0  0  0  0  0  0  0  0  0  0  0  # atno 8010 bound_to 7997
  139.4870  144.4364  151.9007 H   0  0  0  0  0  0  0  0  0  0  0  0  # atno 10167 bound_to 10162
  156.8811  130.5654  149.5653 H   0  0  0  0  0  0  0  0  0  0  0  0  # atno 10718 bound_to 10713
  153.0580  135.6546  154.0530 H   0  0  0  0  0  0  0  0  0  0  0  0  # atno 10763 bound_to 10752
  154.0203  135.2920  155.3383 H   0  0  0  0  0  0  0  0  0  0  0  0  # atno 10764 bound_to 10752
  154.6905  135.5284  153.8454 H   0  0  0  0  0  0  0  0  0  0  0  0  # atno 10765 bound_to 10752
  139.9284  134.7626  156.1435 H   0  0  0  0  0  0  0  0  0  0  0  0  # atno 11005 bound_to 11000
  146.3202  140.3334  142.8642 LP  0  0  0  0  0  0  0  0  0  0  0  0  # atno 17320 bound_to 7965
  144.9216  140.7874  143.5745 LP  0  0  0  0  0  0  0  0  0  0  0  0  # atno 17321 bound_to 7965
  140.3814  144.2732  150.5908 LP  0  0  0  0  0  0  0  0  0  0  0  0  # atno 17342 bound_to 10162
  140.5230  143.2261  151.8359 LP  0  0  0  0  0  0  0  0  0  0  0  0  # atno 17343 bound_to 10162
  156.0677  130.5716  150.9321 LP  0  0  0  0  0  0  0  0  0  0  0  0  # atno 17370 bound_to 10713
  157.6140  131.0934  150.8744 LP  0  0  0  0  0  0  0  0  0  0  0  0  # atno 17371 bound_to 10713
  141.0858  133.6735  156.2432 LP  0  0  0  0  0  0  0  0  0  0  0  0  # atno 17394 bound_to 11000
  140.6270  134.5303  157.5555 LP  0  0  0  0  0  0  0  0  0  0  0  0  # atno 17395 bound_to 11000

$$$$
