AV-unprocessed.smi:2579|AV-procd|sdf|10126|dock6
  -GOLD-   2272014143D 1   1.00000     0.00000
 Structure written by MMmdl.
 38 40  0  0  0  0  0  0  0  0  1 V2000
  151.4606  136.4496  154.2795 O   0  0  0  0  0  0  0  0  0  0  0  0
  151.7864  137.8160  154.1397 C   0  0  0  0  0  0  0  0  0  0  0  0
  152.3960  138.3502  155.4422 C   0  0  0  0  0  0  0  0  0  0  0  0
  151.8703  139.6593  155.7780 N   0  0  0  0  0  0  0  0  0  0  0  0
  152.0233  140.4743  156.8921 C   0  0  0  0  0  0  0  0  0  0  0  0
  152.7519  140.1482  157.9582 N   0  0  0  0  0  0  0  0  0  0  0  0
  152.5778  141.2470  158.7788 C   0  0  0  0  0  0  0  0  0  0  0  0
  153.0921  141.5210  160.0665 C   0  0  0  0  0  0  0  0  0  0  0  0
  152.7699  142.7274  160.7223 C   0  0  0  0  0  0  0  0  0  0  0  0
  151.9299  143.6752  160.1023 C   0  0  0  0  0  0  0  0  0  0  0  0
  151.4075  143.4238  158.8191 C   0  0  0  0  0  0  0  0  0  0  0  0
  151.7332  142.2192  158.1672 C   0  0  0  0  0  0  0  0  0  0  0  0
  151.3981  141.6752  156.9310 N   0  0  0  0  0  0  0  0  0  0  0  0
  150.5499  142.2874  155.9182 C   0  0  0  0  0  0  0  0  0  0  0  0
  149.4141  141.3516  155.4743 C   0  0  1  0  0  0  0  0  0  0  0  0
  148.2478  142.0684  154.7940 C   0  0  0  0  0  0  0  0  0  0  0  0
  147.6831  141.0279  153.8364 C   0  0  0  0  0  0  0  0  0  0  0  0
  148.6853  139.8732  153.8979 C   0  0  0  0  0  0  0  0  0  0  0  0
  149.8492  140.4407  154.4772 O   0  0  0  0  0  0  0  0  0  0  0  0
  150.6938  136.2694  153.7576 H   0  0  0  0  0  0  0  0  0  0  0  0
  152.4546  137.9658  153.2906 H   0  0  0  0  0  0  0  0  0  0  0  0
  150.8636  138.3534  153.9204 H   0  0  0  0  0  0  0  0  0  0  0  0
  152.1441  137.6731  156.2587 H   0  0  0  0  0  0  0  0  0  0  0  0
  153.4844  138.3859  155.3854 H   0  0  0  0  0  0  0  0  0  0  0  0
  151.2601  140.0368  155.0673 H   0  0  0  0  0  0  0  0  0  0  0  0
  153.7354  140.8014  160.5509 H   0  0  0  0  0  0  0  0  0  0  0  0
  153.1687  142.9262  161.7062 H   0  0  0  0  0  0  0  0  0  0  0  0
  151.6872  144.5957  160.6127 H   0  0  0  0  0  0  0  0  0  0  0  0
  150.7639  144.1479  158.3422 H   0  0  0  0  0  0  0  0  0  0  0  0
  150.1345  143.2095  156.3258 H   0  0  0  0  0  0  0  0  0  0  0  0
  151.1648  142.5810  155.0668 H   0  0  0  0  0  0  0  0  0  0  0  0
  149.0454  140.7799  156.3284 H   0  0  0  0  0  0  0  0  0  0  0  0
  147.5096  142.4271  155.5119 H   0  0  0  0  0  0  0  0  0  0  0  0
  148.6058  142.9281  154.2257 H   0  0  0  0  0  0  0  0  0  0  0  0
  146.6853  140.6989  154.1287 H   0  0  0  0  0  0  0  0  0  0  0  0
  147.6187  141.4381  152.8277 H   0  0  0  0  0  0  0  0  0  0  0  0
  148.3151  139.0771  154.5455 H   0  0  0  0  0  0  0  0  0  0  0  0
  148.8965  139.4453  152.9175 H   0  0  0  0  0  0  0  0  0  0  0  0
  1  2  1  0  0  0  0
  1 20  1  0  0  0  0
  2  3  1  0  0  0  0
  2 21  1  0  0  0  0
  2 22  1  0  0  0  0
  3  4  1  0  0  0  0
  3 23  1  0  0  0  0
  3 24  1  0  0  0  0
  4  5  1  0  0  0  0
  4 25  1  0  0  0  0
  5 13  1  0  0  0  0
  5  6  2  0  0  0  0
  6  7  1  0  0  0  0
  7 12  2  0  0  0  0
  7  8  1  0  0  0  0
  8  9  2  0  0  0  0
  8 26  1  0  0  0  0
  9 10  1  0  0  0  0
  9 27  1  0  0  0  0
 10 11  2  0  0  0  0
 10 28  1  0  0  0  0
 11 12  1  0  0  0  0
 11 29  1  0  0  0  0
 12 13  1  0  0  0  0
 13 14  1  0  0  0  0
 14 15  1  0  0  0  0
 14 30  1  0  0  0  0
 14 31  1  0  0  0  0
 15 19  1  0  0  0  0
 15 16  1  0  0  0  0
 15 32  1  0  0  0  0
 16 17  1  0  0  0  0
 16 33  1  0  0  0  0
 16 34  1  0  0  0  0
 17 18  1  0  0  0  0
 17 35  1  0  0  0  0
 17 36  1  0  0  0  0
 18 19  1  0  0  0  0
 18 37  1  0  0  0  0
 18 38  1  0  0  0  0
M  END
> <s_m_source_file>
AV-unprocessed.smi

> <i_m_source_file_index>
2579

> <i_lp_mmshare_version>
43012

> <i_f3d_flags>
0

> <s_epik_input>
W09IXVtDSDJdW0NIMl1bTkhdYyhuMSluKGMoYzEyKVtjSF1bY0hdW2NIXVtjSF0yKVtDSDJdW0NAQEhdM1tDSDJdW0NIMl1bQ0gyXU8z

> <s_epik_cmdline>
J2VwaWtfcHl0aG9uJywgJy1waCcsICc3LjAnLCAnLXRuJywgJzgnLCAnLW1hJywgJzIwMCcsICctbWV0YWxfYmluZGluZycsICctaW1hZScsICc8aW5maWxlLm1hZT4nLCAnLW9tYWUnLCAnPG91dGZpbGUubWFlPic=

> <r_epik_Ionization_Penalty>
1.27244

> <r_epik_Ionization_Penalty_Charging>
0

> <r_epik_Ionization_Penalty_Neutral>
1.27244

> <r_epik_State_Penalty>
1.34401

> <r_epik_Charging_Adjusted_Penalty>
1.34401

> <i_epik_Tot_Q>
0

> <i_epik_Tot_abs_Q>
0

> <r_epik_Metal_State_Penalty>
0.00511131

> <b_epik_Metal_Only>
0

> <s_lp_Force_Field>
OPLS_2005

> <r_lp_Energy>
20.6152

> <b_lp_Chiralities_Consistent>
1

> <s_lp_Variant>
AV-unprocessed.smi:2579-4

> <Gold.Version>
5.8.1

> <Gold.Id.Protein>
6NUR|6NUR_protein|mol2

> <Gold.PLP.Fitness>
44.6088

> <Gold.PLP.PLP>
-37.4865

> <Gold.PLP.part.hbond>
-4.0000

> <Gold.PLP.part.metal>
0.0000

> <Gold.PLP.part.buried>
1.0988

> <Gold.PLP.part.nonpolar>
-33.4468

> <Gold.PLP.part.repulsive>
0.2714

> <Gold.PLP.ligand.clash>
0.0625

> <Gold.PLP.ligand.torsion>
0.5909

> <Gold.PLP.Chemscore.Hbond>
2.7855

> <Gold.PLP.Chemscore.CHOScore>
0.0000

> <Gold.PLP.Chemscore.Metal>
0.0000

> <Gold.Chemscore.Hbonds>
donor molecule, donor type, donor heavy atom, donor atom, acceptor molecule, acceptor atom, score
      L1  H     1    20       P1  7949  0.04
      P1  H  7989  7998       L1    19  0.77
      P1  H  7997  8009       L1     6  0.79
      P1  H 10752 10763       L1     1  1.00

> <Gold.PLP.Chemscore.Internal.Correction>
0.0102

> <Gold.Rescore>
     Score         DG    S(hbond)    S(metal)    S(lipo)     H(rot)  DE(clash)    DE(int)     intcor
     13.89     -18.64       1.71        0.00     111.10       2.17       1.43       3.31       ----

> <Gold.Chemscore.Fitness>
13.8940

> <Gold.Chemscore.DG>
-18.6366

> <Gold.Chemscore.ZeroCoef>
-5.4800

> <Gold.Chemscore.Hbond>
1.7096

> <Gold.Chemscore.Metal>
0.0000

> <Gold.Chemscore.Lipo>
111.1003

> <Gold.Chemscore.Internal_Hbond>
0.0000

> <Gold.Chemscore.DEClash>
1.4325

> <Gold.Chemscore.DEInternal>
3.3101

> <Gold.Chemscore.Rot>
2.1688

> <Gold.Chemscore.Internal.Correction>
   9.000000E+99

> <Gold.Chemscore.Hbonds>
donor molecule, donor type, donor heavy atom, donor atom, acceptor molecule, acceptor atom, score
      P1  H  7989  7998       L1    19  0.70
      P1  H  7997  8009       L1     6  0.13
      P1  H 10752 10763       L1     1  0.45

> <Gold.Chemscore.Hbond.Weighted>
-5.7100

> <Gold.Chemscore.Metal.Weighted>
-0.0000

> <Gold.Chemscore.Lipo.Weighted>
-12.9987

> <Gold.Chemscore.Internal_Hbond.Weighted>
0.0000

> <Gold.Chemscore.DEClash.Weighted>
1.4325

> <Gold.Chemscore.DEInternal.Weighted>
3.3101

> <Gold.Chemscore.Rot.Weighted>
5.5522

> <Gold.Chemscore.Internal.Correction.Weighted>
   9.000000E+99

> <Gold.Protein.RotatedTorsions>
[ 6907 6896 6895 6894 ] final  148.90 input  -60.11 | X-H torsion
[ 7974 7965 7964 7962 ] final   83.69 input  175.53 | X-H torsion
[ 8008 7997 7996 7995 ] final  153.82 input   59.86 | X-H torsion
[ 10167 10162 10161 10158 ] final   -4.90 input  -65.29 | X-H torsion
[ 10718 10713 10712 10709 ] final  108.04 input   66.30 | X-H torsion
[ 10763 10752 10751 10750 ] final   36.78 input  -60.55 | X-H torsion
[ 11005 11000 10999 10996 ] final   31.79 input  -57.11 | X-H torsion

> <Gold.Protein.ActiveResidues>
 VAL166  LYS551  ARG553  GLY616  TRP617  ASP618  TYR619  PRO620  LYS621  CYS622 
 ASP623  PHE694  ASN695  SER759  ASP760  ASP761  ALA762  ILE779  LEU786  VAL792 
 PHE793  MET794  SER795  GLU796  ALA797  LYS798  CYS799  TRP800  GLU811  SER814 

> <Gold.Protein.RotatedAtoms>
  152.1353  133.4432  159.4740 H   0  0  0  0  0  0  0  0  0  0  0  0  # atno 6907 bound_to 6896
  150.6881  134.2371  159.4467 H   0  0  0  0  0  0  0  0  0  0  0  0  # atno 6908 bound_to 6896
  152.0258  134.9796  160.0622 H   0  0  0  0  0  0  0  0  0  0  0  0  # atno 6909 bound_to 6896
  145.6086  139.2364  143.2205 H   0  0  0  0  0  0  0  0  0  0  0  0  # atno 7974 bound_to 7965
  156.2563  140.1983  156.6549 H   0  0  0  0  0  0  0  0  0  0  0  0  # atno 8008 bound_to 7997
  154.6508  140.0572  156.9978 H   0  0  0  0  0  0  0  0  0  0  0  0  # atno 8009 bound_to 7997
  155.1421  140.3243  155.4452 H   0  0  0  0  0  0  0  0  0  0  0  0  # atno 8010 bound_to 7997
  140.6944  143.6370  150.8470 H   0  0  0  0  0  0  0  0  0  0  0  0  # atno 10167 bound_to 10162
  157.6603  131.0885  150.6246 H   0  0  0  0  0  0  0  0  0  0  0  0  # atno 10718 bound_to 10713
  153.0063  135.6296  154.2039 H   0  0  0  0  0  0  0  0  0  0  0  0  # atno 10763 bound_to 10752
  154.1782  135.2815  155.3062 H   0  0  0  0  0  0  0  0  0  0  0  0  # atno 10764 bound_to 10752
  154.5855  135.5634  153.7287 H   0  0  0  0  0  0  0  0  0  0  0  0  # atno 10765 bound_to 10752
  140.2802  134.2981  155.7803 H   0  0  0  0  0  0  0  0  0  0  0  0  # atno 11005 bound_to 11000
  146.1522  140.6909  142.9317 LP  0  0  0  0  0  0  0  0  0  0  0  0  # atno 17320 bound_to 7965
  144.7279  140.4583  143.6959 LP  0  0  0  0  0  0  0  0  0  0  0  0  # atno 17321 bound_to 7965
  140.0087  143.5666  152.2847 LP  0  0  0  0  0  0  0  0  0  0  0  0  # atno 17342 bound_to 10162
  139.6382  144.7652  151.2394 LP  0  0  0  0  0  0  0  0  0  0  0  0  # atno 17343 bound_to 10162
  156.6549  130.4495  149.5707 LP  0  0  0  0  0  0  0  0  0  0  0  0  # atno 17370 bound_to 10713
  156.2110  130.6679  151.1269 LP  0  0  0  0  0  0  0  0  0  0  0  0  # atno 17371 bound_to 10713
  141.2164  133.7521  156.9469 LP  0  0  0  0  0  0  0  0  0  0  0  0  # atno 17394 bound_to 11000
  140.1290  134.9368  157.2311 LP  0  0  0  0  0  0  0  0  0  0  0  0  # atno 17395 bound_to 11000

$$$$
