AV-unprocessed.smi:1504|AV-procd|sdf|6072|dock4
  -GOLD-   22720 6193D 1   1.00000     0.00000
 Structure written by MMmdl.
 39 40  0  0  0  0  0  0  0  0  1 V2000
  145.6900  138.5525  154.1194 O   0  0  0  0  0  0  0  0  0  0  0  0
  146.7050  138.1970  153.5202 C   0  0  0  0  0  0  0  0  0  0  0  0
  146.8103  137.0503  152.8350 N   0  0  0  0  0  0  0  0  0  0  0  0
  145.7472  136.0589  152.6989 C   0  0  0  0  0  0  0  0  0  0  0  0
  145.2362  135.9240  151.2510 C   0  0  0  0  0  0  0  0  0  0  0  0
  145.2733  134.4992  150.7250 C   0  0  0  0  0  0  0  0  0  0  0  0
  144.2047  133.9829  149.9609 C   0  0  0  0  0  0  0  0  0  0  0  0
  144.2907  132.6560  149.4971 C   0  0  0  0  0  0  0  0  0  0  0  0
  145.4360  131.8999  149.8133 C   0  0  0  0  0  0  0  0  0  0  0  0
  146.4491  132.5082  150.5811 C   0  0  0  0  0  0  0  0  0  0  0  0
  146.3772  133.7802  151.0294 N   0  0  0  0  0  0  0  0  0  0  0  0
  147.8360  138.9118  153.4729 N   0  0  0  0  0  0  0  0  0  0  0  0
  148.0236  140.2000  154.1280 C   0  0  0  0  0  0  0  0  0  0  0  0
  149.5085  140.4501  154.4403 C   0  0  1  0  0  0  0  0  0  0  0  0
  149.7068  141.3350  155.6864 C   0  0  0  0  0  0  0  0  0  0  0  0
  151.1867  141.2999  156.0797 C   0  0  0  0  0  0  0  0  0  0  0  0
  151.7608  139.6080  155.6795 S   0  0  0  0  0  0  0  0  0  0  0  0
  152.9608  139.6959  154.8336 O   0  0  0  0  0  0  0  0  0  0  0  0
  151.7525  138.7864  156.8993 O   0  0  0  0  0  0  0  0  0  0  0  0
  150.3140  139.1549  154.6485 C   0  0  0  0  0  0  0  0  0  0  0  0
  147.6842  136.8480  152.3718 H   0  0  0  0  0  0  0  0  0  0  0  0
  146.1436  135.1011  153.0367 H   0  0  0  0  0  0  0  0  0  0  0  0
  144.9216  136.3031  153.3689 H   0  0  0  0  0  0  0  0  0  0  0  0
  144.2124  136.2954  151.1906 H   0  0  0  0  0  0  0  0  0  0  0  0
  145.8228  136.5628  150.5895 H   0  0  0  0  0  0  0  0  0  0  0  0
  143.3398  134.5891  149.7338 H   0  0  0  0  0  0  0  0  0  0  0  0
  143.4929  132.2263  148.9098 H   0  0  0  0  0  0  0  0  0  0  0  0
  145.5361  130.8789  149.4763 H   0  0  0  0  0  0  0  0  0  0  0  0
  147.3411  131.9584  150.8427 H   0  0  0  0  0  0  0  0  0  0  0  0
  148.6186  138.5416  152.9538 H   0  0  0  0  0  0  0  0  0  0  0  0
  147.6398  140.9853  153.4756 H   0  0  0  0  0  0  0  0  0  0  0  0
  147.4384  140.2357  155.0487 H   0  0  0  0  0  0  0  0  0  0  0  0
  149.9541  140.9812  153.5977 H   0  0  0  0  0  0  0  0  0  0  0  0
  149.3652  142.3562  155.5156 H   0  0  0  0  0  0  0  0  0  0  0  0
  149.1140  140.9347  156.5103 H   0  0  0  0  0  0  0  0  0  0  0  0
  151.7629  142.0031  155.4779 H   0  0  0  0  0  0  0  0  0  0  0  0
  151.3566  141.5189  157.1340 H   0  0  0  0  0  0  0  0  0  0  0  0
  149.7330  138.4146  155.1994 H   0  0  0  0  0  0  0  0  0  0  0  0
  150.6477  138.7055  153.7131 H   0  0  0  0  0  0  0  0  0  0  0  0
  1  2  2  0  0  0  0
  2  3  1  0  0  0  0
  2 12  1  0  0  0  0
  3  4  1  0  0  0  0
  3 21  1  0  0  0  0
  4  5  1  0  0  0  0
  4 22  1  0  0  0  0
  4 23  1  0  0  0  0
  5  6  1  0  0  0  0
  5 24  1  0  0  0  0
  5 25  1  0  0  0  0
  6 11  1  0  0  0  0
  6  7  2  0  0  0  0
  7  8  1  0  0  0  0
  7 26  1  0  0  0  0
  8  9  2  0  0  0  0
  8 27  1  0  0  0  0
  9 10  1  0  0  0  0
  9 28  1  0  0  0  0
 10 11  2  0  0  0  0
 10 29  1  0  0  0  0
 12 13  1  0  0  0  0
 12 30  1  0  0  0  0
 13 14  1  0  0  0  0
 13 31  1  0  0  0  0
 13 32  1  0  0  0  0
 14 20  1  0  0  0  0
 14 15  1  0  0  0  0
 14 33  1  0  0  0  0
 15 16  1  0  0  0  0
 15 34  1  0  0  0  0
 15 35  1  0  0  0  0
 16 17  1  0  0  0  0
 16 36  1  0  0  0  0
 16 37  1  0  0  0  0
 17 18  2  0  0  0  0
 17 19  2  0  0  0  0
 17 20  1  0  0  0  0
 20 38  1  0  0  0  0
 20 39  1  0  0  0  0
M  END
> <s_m_source_file>
AV-unprocessed.smi

> <i_m_source_file_index>
1504

> <i_lp_mmshare_version>
43012

> <i_f3d_flags>
0

> <s_epik_input>
Tz1TMSg9TylbQ0gyXVtDSDJdW0NASF0oW0NIMl0xKVtDSDJdW05IXUMoPU8pW05IXVtDSDJdW0NIMl1jMltjSF1bY0hdW2NIXVtjSF1uMg==

> <s_epik_cmdline>
J2VwaWtfcHl0aG9uJywgJy1waCcsICc3LjAnLCAnLXRuJywgJzgnLCAnLW1hJywgJzIwMCcsICctbWV0YWxfYmluZGluZycsICctaW1hZScsICc8aW5maWxlLm1hZT4nLCAnLW9tYWUnLCAnPG91dGZpbGUubWFlPic=

> <r_epik_Ionization_Penalty>
0.0431785

> <r_epik_Ionization_Penalty_Charging>
0

> <r_epik_Ionization_Penalty_Neutral>
0.0431785

> <r_epik_State_Penalty>
0.0364691

> <r_epik_Charging_Adjusted_Penalty>
0.0364691

> <i_epik_Tot_Q>
0

> <i_epik_Tot_abs_Q>
0

> <r_epik_Metal_State_Penalty>
0.0339827

> <b_epik_Metal_Only>
0

> <s_lp_Force_Field>
OPLS_2005

> <r_lp_Energy>
0.935995

> <b_lp_Chiralities_Consistent>
1

> <s_lp_Variant>
AV-unprocessed.smi:1504-2

> <Gold.Version>
5.8.1

> <Gold.Id.Protein>
6NUR|6NUR_protein|mol2

> <Gold.PLP.Fitness>
44.1691

> <Gold.PLP.PLP>
-37.3988

> <Gold.PLP.part.hbond>
-3.8051

> <Gold.PLP.part.metal>
0.0000

> <Gold.PLP.part.buried>
-3.8928

> <Gold.PLP.part.nonpolar>
-31.0776

> <Gold.PLP.part.repulsive>
0.3924

> <Gold.PLP.ligand.clash>
0.0000

> <Gold.PLP.ligand.torsion>
1.2008

> <Gold.PLP.Chemscore.Hbond>
2.0546

> <Gold.PLP.Chemscore.CHOScore>
1.0000

> <Gold.PLP.Chemscore.Metal>
0.0000

> <Gold.Chemscore.Hbonds>
donor molecule, donor type, donor heavy atom, donor atom, acceptor molecule, acceptor atom, score
      L1  H     3    21       P1  7948  0.91
      P1  H  7989  7998       L1    18  0.06
      P1  H  7997  8009       L1    18  1.00
      L1  C    10    29       P1 10747  1.00

> <Gold.PLP.Chemscore.Internal.Correction>
0.0082

> <Gold.Rescore>
     Score         DG    S(hbond)    S(metal)    S(lipo)     H(rot)  DE(clash)    DE(int)     intcor
     16.31     -17.62       1.98        0.00      89.09       1.91       0.14       1.17       ----

> <Gold.Chemscore.Fitness>
16.3127

> <Gold.Chemscore.DG>
-17.6228

> <Gold.Chemscore.ZeroCoef>
-5.4800

> <Gold.Chemscore.Hbond>
1.9791

> <Gold.Chemscore.Metal>
0.0000

> <Gold.Chemscore.Lipo>
89.0879

> <Gold.Chemscore.Internal_Hbond>
0.0000

> <Gold.Chemscore.DEClash>
0.1418

> <Gold.Chemscore.DEInternal>
1.1683

> <Gold.Chemscore.Rot>
1.9105

> <Gold.Chemscore.Internal.Correction>
   9.000000E+99

> <Gold.Chemscore.Hbonds>
donor molecule, donor type, donor heavy atom, donor atom, acceptor molecule, acceptor atom, score
      L1  H     3    21       P1  7948  0.87
      P1  H  7997  8009       L1    18  0.82

> <Gold.Chemscore.Hbond.Weighted>
-6.6103

> <Gold.Chemscore.Metal.Weighted>
-0.0000

> <Gold.Chemscore.Lipo.Weighted>
-10.4233

> <Gold.Chemscore.Internal_Hbond.Weighted>
0.0000

> <Gold.Chemscore.DEClash.Weighted>
0.1418

> <Gold.Chemscore.DEInternal.Weighted>
1.1683

> <Gold.Chemscore.Rot.Weighted>
4.8908

> <Gold.Chemscore.Internal.Correction.Weighted>
   9.000000E+99

> <Gold.Protein.RotatedTorsions>
[ 6907 6896 6895 6894 ] final  140.16 input  -60.11 | X-H torsion
[ 7974 7965 7964 7962 ] final  -98.82 input  175.53 | X-H torsion
[ 8008 7997 7996 7995 ] final -130.51 input   59.86 | X-H torsion
[ 10167 10162 10161 10158 ] final -107.08 input  -65.29 | X-H torsion
[ 10718 10713 10712 10709 ] final    5.73 input   66.30 | X-H torsion
[ 10763 10752 10751 10750 ] final  -58.64 input  -60.55 | X-H torsion
[ 11005 11000 10999 10996 ] final  116.74 input  -57.11 | X-H torsion

> <Gold.Protein.ActiveResidues>
 VAL166  LYS551  ARG553  GLY616  TRP617  ASP618  TYR619  PRO620  LYS621  CYS622 
 ASP623  PHE694  ASN695  SER759  ASP760  ASP761  ALA762  ILE779  LEU786  VAL792 
 PHE793  MET794  SER795  GLU796  ALA797  LYS798  CYS799  TRP800  GLU811  SER814 

> <Gold.Protein.RotatedAtoms>
  152.2464  133.5178  159.5299 H   0  0  0  0  0  0  0  0  0  0  0  0  # atno 6907 bound_to 6896
  150.7080  134.1020  159.3978 H   0  0  0  0  0  0  0  0  0  0  0  0  # atno 6908 bound_to 6896
  151.8940  135.0405  160.0551 H   0  0  0  0  0  0  0  0  0  0  0  0  # atno 6909 bound_to 6896
  145.3157  140.9410  143.2744 H   0  0  0  0  0  0  0  0  0  0  0  0  # atno 7974 bound_to 7965
  155.2969  140.0451  157.3027 H   0  0  0  0  0  0  0  0  0  0  0  0  # atno 8008 bound_to 7997
  154.5509  140.2317  155.8454 H   0  0  0  0  0  0  0  0  0  0  0  0  # atno 8009 bound_to 7997
  156.1966  140.3037  155.9446 H   0  0  0  0  0  0  0  0  0  0  0  0  # atno 8010 bound_to 7997
  140.1809  143.3968  152.1282 H   0  0  0  0  0  0  0  0  0  0  0  0  # atno 10167 bound_to 10162
  156.9118  130.5759  149.5647 H   0  0  0  0  0  0  0  0  0  0  0  0  # atno 10718 bound_to 10713
  154.2413  135.6343  153.5208 H   0  0  0  0  0  0  0  0  0  0  0  0  # atno 10763 bound_to 10752
  152.9929  135.5542  154.5908 H   0  0  0  0  0  0  0  0  0  0  0  0  # atno 10764 bound_to 10752
  154.5414  135.2895  155.1067 H   0  0  0  0  0  0  0  0  0  0  0  0  # atno 10765 bound_to 10752
  139.9051  134.9602  156.7245 H   0  0  0  0  0  0  0  0  0  0  0  0  # atno 11005 bound_to 11000
  144.8980  139.4687  143.6646 LP  0  0  0  0  0  0  0  0  0  0  0  0  # atno 17320 bound_to 7965
  146.3101  139.7717  142.9026 LP  0  0  0  0  0  0  0  0  0  0  0  0  # atno 17321 bound_to 7965
  139.5297  144.7144  151.5101 LP  0  0  0  0  0  0  0  0  0  0  0  0  # atno 17342 bound_to 10162
  140.6520  143.8676  150.6796 LP  0  0  0  0  0  0  0  0  0  0  0  0  # atno 17343 bound_to 10162
  156.0532  130.5598  150.9035 LP  0  0  0  0  0  0  0  0  0  0  0  0  # atno 17370 bound_to 10713
  157.5963  131.0943  150.9036 LP  0  0  0  0  0  0  0  0  0  0  0  0  # atno 17371 bound_to 10713
  140.6974  133.9336  155.8003 LP  0  0  0  0  0  0  0  0  0  0  0  0  # atno 17394 bound_to 11000
  141.0397  134.0639  157.3917 LP  0  0  0  0  0  0  0  0  0  0  0  0  # atno 17395 bound_to 11000

$$$$
