AV-unprocessed.smi:3076|AV-procd|sdf|11726|dock10
  -GOLD-   2272017123D 1   1.00000     0.00000
 Structure written by MMmdl.
 21 21  0  0  0  0  0  0  0  0  2 V2000
  143.0048  132.1760  149.8261 N   0  3  0  0  0  0  0  0  0  0  0  0
  143.8286  132.1225  151.0465 C   0  0  0  0  0  0  0  0  0  0  0  0
  145.1135  132.9579  150.9036 C   0  0  1  0  0  0  0  0  0  0  0  0
  145.6520  132.7466  149.6128 O   0  0  0  0  0  0  0  0  0  0  0  0
  144.8437  134.4303  151.1694 C   0  0  0  0  0  0  0  0  0  0  0  0
  143.5604  134.8897  151.5395 C   0  0  0  0  0  0  0  0  0  0  0  0
  143.3729  136.2636  151.7843 C   0  0  0  0  0  0  0  0  0  0  0  0
  144.4790  137.1259  151.6504 C   0  0  0  0  0  0  0  0  0  0  0  0
  145.7114  136.6999  151.2998 N   0  0  0  0  0  0  0  0  0  0  0  0
  145.8828  135.3812  151.0664 C   0  0  0  0  0  0  0  0  0  0  0  0
  143.6019  132.1457  149.0121 H   0  0  0  0  0  0  0  0  0  0  0  0
  142.4658  133.0299  149.8191 H   0  0  0  0  0  0  0  0  0  0  0  0
  143.2333  132.4668  151.8934 H   0  0  0  0  0  0  0  0  0  0  0  0
  144.0795  131.0783  151.2366 H   0  0  0  0  0  0  0  0  0  0  0  0
  145.8530  132.6079  151.6256 H   0  0  0  0  0  0  0  0  0  0  0  0
  145.8384  133.5877  149.2225 H   0  0  0  0  0  0  0  0  0  0  0  0
  142.7322  134.2030  151.6376 H   0  0  0  0  0  0  0  0  0  0  0  0
  142.4045  136.6481  152.0686 H   0  0  0  0  0  0  0  0  0  0  0  0
  144.3713  138.1851  151.8318 H   0  0  0  0  0  0  0  0  0  0  0  0
  146.8823  135.0768  150.7917 H   0  0  0  0  0  0  0  0  0  0  0  0
  142.3782  131.3835  149.8154 H   0  0  0  0  0  0  0  0  0  0  0  0
  1  2  1  0  0  0  0
  1 11  1  0  0  0  0
  1 12  1  0  0  0  0
  1 21  1  0  0  0  0
  2  3  1  0  0  0  0
  2 13  1  0  0  0  0
  2 14  1  0  0  0  0
  3  4  1  0  0  0  0
  3  5  1  0  0  0  0
  3 15  1  0  0  0  0
  4 16  1  0  0  0  0
  5 10  1  0  0  0  0
  5  6  2  0  0  0  0
  6  7  1  0  0  0  0
  6 17  1  0  0  0  0
  7  8  2  0  0  0  0
  7 18  1  0  0  0  0
  8  9  1  0  0  0  0
  8 19  1  0  0  0  0
  9 10  2  0  0  0  0
 10 20  1  0  0  0  0
M  CHG  1   1   1
M  END
> <s_m_source_file>
AV-unprocessed.smi

> <i_m_source_file_index>
3076

> <i_lp_mmshare_version>
43012

> <i_f3d_flags>
0

> <s_epik_input>
W05IMl1bQ0gyXVtDQEhdKFtPSF0pYzFbY0hdW2NIXVtjSF1uW2NIXTE=

> <s_epik_cmdline>
J2VwaWtfcHl0aG9uJywgJy1waCcsICc3LjAnLCAnLXRuJywgJzgnLCAnLW1hJywgJzIwMCcsICctbWV0YWxfYmluZGluZycsICctaW1hZScsICc8aW5maWxlLm1hZT4nLCAnLW9tYWUnLCAnPG91dGZpbGUubWFlPic=

> <r_epik_Ionization_Penalty>
0.0145342

> <r_epik_Ionization_Penalty_Charging>
0.0140431

> <r_epik_Ionization_Penalty_Neutral>
0.000491123

> <r_epik_State_Penalty>
0.0109628

> <r_epik_Charging_Adjusted_Penalty>
0.0250059

> <i_epik_Tot_Q>
1

> <i_epik_Tot_abs_Q>
1

> <r_epik_Metal_State_Penalty>
0.0109916

> <b_epik_Metal_Only>
0

> <s_lp_Force_Field>
OPLS_2005

> <r_lp_Energy>
5.00299

> <b_lp_Chiralities_Consistent>
1

> <s_lp_Variant>
AV-unprocessed.smi:3076-2

> <Gold.Version>
5.8.1

> <Gold.Id.Protein>
6NUR|6NUR_protein|mol2

> <Gold.PLP.Fitness>
35.5451

> <Gold.PLP.PLP>
-19.0822

> <Gold.PLP.part.hbond>
-3.0000

> <Gold.PLP.part.metal>
0.0000

> <Gold.PLP.part.buried>
-2.4036

> <Gold.PLP.part.nonpolar>
-13.2640

> <Gold.PLP.part.repulsive>
0.3348

> <Gold.PLP.ligand.clash>
0.0000

> <Gold.PLP.ligand.torsion>
0.2031

> <Gold.PLP.Chemscore.Hbond>
3.6400

> <Gold.PLP.Chemscore.CHOScore>
1.9807

> <Gold.PLP.Chemscore.Metal>
0.0000

> <Gold.Chemscore.Hbonds>
donor molecule, donor type, donor heavy atom, donor atom, acceptor molecule, acceptor atom, score
      L1  H     1    12       P1 10186  2.00
      L1  H     1    21       P1 10952  1.00
      L1  H     4    16       P1  7921  0.75
      L1  C     8    19       P1 10171  0.27
      L1  C     8    19       P1 10175  1.00
      L1  C    10    20       P1  7948  0.82

> <Gold.PLP.Chemscore.Internal.Correction>
0.0070

> <Gold.Rescore>
     Score         DG    S(hbond)    S(metal)    S(lipo)     H(rot)  DE(clash)    DE(int)     intcor
     13.25     -13.74       2.56        0.00      39.08       1.90       0.08       0.41       ----

> <Gold.Chemscore.Fitness>
13.2517

> <Gold.Chemscore.DG>
-13.7408

> <Gold.Chemscore.ZeroCoef>
-5.4800

> <Gold.Chemscore.Hbond>
2.5593

> <Gold.Chemscore.Metal>
0.0000

> <Gold.Chemscore.Lipo>
39.0754

> <Gold.Chemscore.Internal_Hbond>
0.0000

> <Gold.Chemscore.DEClash>
0.0811

> <Gold.Chemscore.DEInternal>
0.4080

> <Gold.Chemscore.Rot>
1.8981

> <Gold.Chemscore.Internal.Correction>
   9.000000E+99

> <Gold.Chemscore.Hbonds>
donor molecule, donor type, donor heavy atom, donor atom, acceptor molecule, acceptor atom, score
      L1  H     1    12       P1 10186  0.93
      L1  H     1    21       P1 10952  0.98
      L1  H     4    16       P1  7921  0.09

> <Gold.Chemscore.Hbond.Weighted>
-8.5481

> <Gold.Chemscore.Metal.Weighted>
-0.0000

> <Gold.Chemscore.Lipo.Weighted>
-4.5718

> <Gold.Chemscore.Internal_Hbond.Weighted>
0.0000

> <Gold.Chemscore.DEClash.Weighted>
0.0811

> <Gold.Chemscore.DEInternal.Weighted>
0.4080

> <Gold.Chemscore.Rot.Weighted>
4.8592

> <Gold.Chemscore.Internal.Correction.Weighted>
   9.000000E+99

> <Gold.Protein.RotatedTorsions>
[ 6907 6896 6895 6894 ] final -170.64 input  -60.11 | X-H torsion
[ 7974 7965 7964 7962 ] final  152.94 input  175.53 | X-H torsion
[ 8008 7997 7996 7995 ] final -108.57 input   59.86 | X-H torsion
[ 10167 10162 10161 10158 ] final -166.04 input  -65.29 | X-H torsion
[ 10718 10713 10712 10709 ] final  -68.80 input   66.30 | X-H torsion
[ 10763 10752 10751 10750 ] final   71.63 input  -60.55 | X-H torsion
[ 11005 11000 10999 10996 ] final  -29.56 input  -57.11 | X-H torsion

> <Gold.Protein.ActiveResidues>
 VAL166  LYS551  ARG553  GLY616  TRP617  ASP618  TYR619  PRO620  LYS621  CYS622 
 ASP623  PHE694  ASN695  SER759  ASP760  ASP761  ALA762  ILE779  LEU786  VAL792 
 PHE793  MET794  SER795  GLU796  ALA797  LYS798  CYS799  TRP800  GLU811  SER814 

> <Gold.Protein.RotatedAtoms>
  151.5110  133.3485  159.2884 H   0  0  0  0  0  0  0  0  0  0  0  0  # atno 6907 bound_to 6896
  150.8712  134.8089  159.7167 H   0  0  0  0  0  0  0  0  0  0  0  0  # atno 6908 bound_to 6896
  152.4700  134.4994  159.9772 H   0  0  0  0  0  0  0  0  0  0  0  0  # atno 6909 bound_to 6896
  144.8188  139.6735  143.6109 H   0  0  0  0  0  0  0  0  0  0  0  0  # atno 7974 bound_to 7965
  154.9462  140.0402  157.2121 H   0  0  0  0  0  0  0  0  0  0  0  0  # atno 8008 bound_to 7997
  154.8021  140.2853  155.5892 H   0  0  0  0  0  0  0  0  0  0  0  0  # atno 8009 bound_to 7997
  156.2962  140.2553  156.2892 H   0  0  0  0  0  0  0  0  0  0  0  0  # atno 8010 bound_to 7997
  139.6141  144.0754  152.1871 H   0  0  0  0  0  0  0  0  0  0  0  0  # atno 10167 bound_to 10162
  156.0487  130.4301  150.2055 H   0  0  0  0  0  0  0  0  0  0  0  0  # atno 10718 bound_to 10713
  153.0410  135.5130  154.7622 H   0  0  0  0  0  0  0  0  0  0  0  0  # atno 10763 bound_to 10752
  154.6559  135.2931  154.9930 H   0  0  0  0  0  0  0  0  0  0  0  0  # atno 10764 bound_to 10752
  154.0798  135.6665  153.4888 H   0  0  0  0  0  0  0  0  0  0  0  0  # atno 10765 bound_to 10752
  140.9307  133.7340  156.0932 H   0  0  0  0  0  0  0  0  0  0  0  0  # atno 11005 bound_to 11000
  146.2492  139.6164  142.9438 LP  0  0  0  0  0  0  0  0  0  0  0  0  # atno 17320 bound_to 7965
  145.5153  141.0434  143.2465 LP  0  0  0  0  0  0  0  0  0  0  0  0  # atno 17321 bound_to 7965
  140.0380  144.6029  150.7434 LP  0  0  0  0  0  0  0  0  0  0  0  0  # atno 17342 bound_to 10162
  140.7339  143.2723  151.3850 LP  0  0  0  0  0  0  0  0  0  0  0  0  # atno 17343 bound_to 10162
  157.0141  130.9960  151.3358 LP  0  0  0  0  0  0  0  0  0  0  0  0  # atno 17370 bound_to 10713
  157.5390  130.8107  149.8006 LP  0  0  0  0  0  0  0  0  0  0  0  0  # atno 17371 bound_to 10713
  140.7866  134.3664  157.5475 LP  0  0  0  0  0  0  0  0  0  0  0  0  # atno 17394 bound_to 11000
  139.8795  134.9115  156.3038 LP  0  0  0  0  0  0  0  0  0  0  0  0  # atno 17395 bound_to 11000

$$$$
