AV-unprocessed.smi:1213|AV-procd|sdf|5087|dock1
  -GOLD-   22720 4133D 1   1.00000     0.00000
 Structure written by MMmdl.
 35 36  0  0  0  0  0  0  0  0  2 V2000
  144.8149  137.9482  153.5489 N   0  0  0  0  0  0  0  0  0  0  0  0
  146.1431  137.8714  153.4324 C   0  0  0  0  0  0  0  0  0  0  0  0
  146.8109  137.0427  154.0468 O   0  0  0  0  0  0  0  0  0  0  0  0
  146.8211  138.8784  152.4962 C   0  0  0  0  0  0  0  0  0  0  0  0
  147.5993  139.9363  153.1815 N   0  0  0  0  0  0  0  0  0  0  0  0
  148.5552  139.3883  154.1558 C   0  0  0  0  0  0  0  0  0  0  0  0
  149.3855  140.5161  154.7943 C   0  0  0  0  0  0  0  0  0  0  0  0
  148.4840  141.5517  155.4803 C   0  0  0  0  0  0  0  0  0  0  0  0
  149.2909  142.6625  155.9781 N   0  0  0  0  0  0  0  0  0  0  0  0
  150.3676  142.5625  156.7713 C   0  0  0  0  0  0  0  0  0  0  0  0
  150.7559  141.4536  157.1467 O   0  0  0  0  0  0  0  0  0  0  0  0
  150.9279  143.7544  157.0799 N   0  5  0  0  0  0  0  0  0  0  0  0
  151.2841  144.0216  158.3469 C   0  0  0  0  0  0  0  0  0  0  0  0
  152.2591  143.3637  158.9845 N   0  0  0  0  0  0  0  0  0  0  0  0
  152.4581  143.7997  160.2957 C   0  0  0  0  0  0  0  0  0  0  0  0
  151.6081  144.8071  160.6684 C   0  0  0  0  0  0  0  0  0  0  0  0
  150.5260  145.2405  159.3759 S   0  0  0  0  0  0  0  0  0  0  0  0
  147.4345  142.0422  154.4698 C   0  0  0  0  0  0  0  0  0  0  0  0
  146.6731  140.8598  153.8464 C   0  0  0  0  0  0  0  0  0  0  0  0
  144.3242  137.2998  154.1473 H   0  0  0  0  0  0  0  0  0  0  0  0
  144.3068  138.6500  153.0301 H   0  0  0  0  0  0  0  0  0  0  0  0
  147.4800  138.3119  151.8363 H   0  0  0  0  0  0  0  0  0  0  0  0
  146.0630  139.3353  151.8572 H   0  0  0  0  0  0  0  0  0  0  0  0
  148.0255  138.8261  154.9269 H   0  0  0  0  0  0  0  0  0  0  0  0
  149.2444  138.6928  153.6770 H   0  0  0  0  0  0  0  0  0  0  0  0
  150.0843  140.0941  155.5177 H   0  0  0  0  0  0  0  0  0  0  0  0
  149.9912  140.9987  154.0253 H   0  0  0  0  0  0  0  0  0  0  0  0
  147.9794  141.0665  156.3180 H   0  0  0  0  0  0  0  0  0  0  0  0
  149.0098  143.5908  155.6979 H   0  0  0  0  0  0  0  0  0  0  0  0
  153.2278  143.3347  160.8933 H   0  0  0  0  0  0  0  0  0  0  0  0
  151.5512  145.3169  161.6182 H   0  0  0  0  0  0  0  0  0  0  0  0
  146.7286  142.7157  154.9574 H   0  0  0  0  0  0  0  0  0  0  0  0
  147.9177  142.6206  153.6805 H   0  0  0  0  0  0  0  0  0  0  0  0
  145.9552  141.2480  153.1225 H   0  0  0  0  0  0  0  0  0  0  0  0
  146.0984  140.3364  154.6128 H   0  0  0  0  0  0  0  0  0  0  0  0
  1  2  1  0  0  0  0
  1 20  1  0  0  0  0
  1 21  1  0  0  0  0
  2  3  2  0  0  0  0
  2  4  1  0  0  0  0
  4  5  1  0  0  0  0
  4 22  1  0  0  0  0
  4 23  1  0  0  0  0
  5 19  1  0  0  0  0
  5  6  1  0  0  0  0
  6  7  1  0  0  0  0
  6 24  1  0  0  0  0
  6 25  1  0  0  0  0
  7  8  1  0  0  0  0
  7 26  1  0  0  0  0
  7 27  1  0  0  0  0
  8  9  1  0  0  0  0
  8 18  1  0  0  0  0
  8 28  1  0  0  0  0
  9 10  1  0  0  0  0
  9 29  1  0  0  0  0
 10 11  2  0  0  0  0
 10 12  1  0  0  0  0
 12 13  1  0  0  0  0
 13 17  1  0  0  0  0
 13 14  2  0  0  0  0
 14 15  1  0  0  0  0
 15 16  2  0  0  0  0
 15 30  1  0  0  0  0
 16 17  1  0  0  0  0
 16 31  1  0  0  0  0
 18 19  1  0  0  0  0
 18 32  1  0  0  0  0
 18 33  1  0  0  0  0
 19 34  1  0  0  0  0
 19 35  1  0  0  0  0
M  CHG  1  12  -1
M  END
> <s_m_source_file>
AV-unprocessed.smi

> <i_m_source_file_index>
1213

> <i_lp_mmshare_version>
43012

> <i_f3d_flags>
0

> <s_epik_input>
W05IMl1DKD1PKVtDSDJdTjFbQ0gyXVtDSDJdW0NIXShbQ0gyXVtDSDJdMSlbTkhdQyg9TylbTkhdYzJuW2NIXVtjSF1zMg==

> <s_epik_cmdline>
J2VwaWtfcHl0aG9uJywgJy1waCcsICc3LjAnLCAnLXRuJywgJzgnLCAnLW1hJywgJzIwMCcsICctbWV0YWxfYmluZGluZycsICctaW1hZScsICc8aW5maWxlLm1hZT4nLCAnLW9tYWUnLCAnPG91dGZpbGUubWFlPic=

> <r_lp_tautomer_probability>
0.999

> <r_epik_Ionization_Penalty>
7.12626

> <r_epik_Ionization_Penalty_Charging>
5.84953

> <r_epik_Ionization_Penalty_Neutral>
1.27674

> <r_epik_State_Penalty>
5.99619

> <r_epik_Charging_Adjusted_Penalty>
11.8457

> <i_epik_Tot_Q>
-1

> <i_epik_Tot_abs_Q>
1

> <r_epik_Metal_State_Penalty>
1.98285

> <b_epik_Metal_Only>
1

> <s_lp_Force_Field>
OPLS_2005

> <r_lp_Energy>
7.2689

> <b_lp_Chiralities_Consistent>
1

> <s_lp_Variant>
AV-unprocessed.smi:1213-4

> <Gold.Version>
5.8.1

> <Gold.Id.Protein>
6NUR|6NUR_protein|mol2

> <Gold.PLP.Fitness>
38.3671

> <Gold.PLP.PLP>
-34.6043

> <Gold.PLP.part.hbond>
-1.7127

> <Gold.PLP.part.metal>
0.0000

> <Gold.PLP.part.buried>
-5.2620

> <Gold.PLP.part.nonpolar>
-31.7856

> <Gold.PLP.part.repulsive>
3.3787

> <Gold.PLP.ligand.clash>
0.0000

> <Gold.PLP.ligand.torsion>
1.2298

> <Gold.PLP.Chemscore.Hbond>
1.9920

> <Gold.PLP.Chemscore.CHOScore>
0.0000

> <Gold.PLP.Chemscore.Metal>
0.0000

> <Gold.Chemscore.Hbonds>
donor molecule, donor type, donor heavy atom, donor atom, acceptor molecule, acceptor atom, score
      L1  H     1    21       P1 10175  1.00
      L1  H     9    29       P1  8028  0.02

> <Gold.PLP.Chemscore.Internal.Correction>
0.2465

> <Gold.Rescore>
     Score         DG    S(hbond)    S(metal)    S(lipo)     H(rot)  DE(clash)    DE(int)     intcor
     10.80     -15.05       1.97        0.00      69.62       2.01       0.26       3.99       ----

> <Gold.Chemscore.Fitness>
10.7956

> <Gold.Chemscore.DG>
-15.0519

> <Gold.Chemscore.ZeroCoef>
-5.4800

> <Gold.Chemscore.Hbond>
1.9683

> <Gold.Chemscore.Metal>
0.0000

> <Gold.Chemscore.Lipo>
69.6157

> <Gold.Chemscore.Internal_Hbond>
0.0000

> <Gold.Chemscore.DEClash>
0.2636

> <Gold.Chemscore.DEInternal>
3.9927

> <Gold.Chemscore.Rot>
2.0107

> <Gold.Chemscore.Internal.Correction>
   9.000000E+99

> <Gold.Chemscore.Hbonds>
donor molecule, donor type, donor heavy atom, donor atom, acceptor molecule, acceptor atom, score
      L1  H     1    21       P1 10175  0.96
      L1  H     9    29       P1  8028  0.07

> <Gold.Chemscore.Hbond.Weighted>
-6.5743

> <Gold.Chemscore.Metal.Weighted>
-0.0000

> <Gold.Chemscore.Lipo.Weighted>
-8.1450

> <Gold.Chemscore.Internal_Hbond.Weighted>
0.0000

> <Gold.Chemscore.DEClash.Weighted>
0.2636

> <Gold.Chemscore.DEInternal.Weighted>
3.9927

> <Gold.Chemscore.Rot.Weighted>
5.1474

> <Gold.Chemscore.Internal.Correction.Weighted>
   9.000000E+99

> <Gold.Protein.RotatedTorsions>
[ 6907 6896 6895 6894 ] final  150.38 input  -60.11 | X-H torsion
[ 7974 7965 7964 7962 ] final  -73.52 input  175.53 | X-H torsion
[ 8008 7997 7996 7995 ] final -120.44 input   59.86 | X-H torsion
[ 10167 10162 10161 10158 ] final  167.62 input  -65.29 | X-H torsion
[ 10718 10713 10712 10709 ] final  -71.56 input   66.30 | X-H torsion
[ 10763 10752 10751 10750 ] final -116.16 input  -60.55 | X-H torsion
[ 11005 11000 10999 10996 ] final   25.76 input  -57.11 | X-H torsion

> <Gold.Protein.ActiveResidues>
 VAL166  LYS551  ARG553  GLY616  TRP617  ASP618  TYR619  PRO620  LYS621  CYS622 
 ASP623  PHE694  ASN695  SER759  ASP760  ASP761  ALA762  ILE779  LEU786  VAL792 
 PHE793  MET794  SER795  GLU796  ALA797  LYS798  CYS799  TRP800  GLU811  SER814 

> <Gold.Protein.RotatedAtoms>
  152.1151  133.4322  159.4649 H   0  0  0  0  0  0  0  0  0  0  0  0  # atno 6907 bound_to 6896
  150.6869  134.2601  159.4555 H   0  0  0  0  0  0  0  0  0  0  0  0  # atno 6908 bound_to 6896
  152.0473  134.9674  160.0625 H   0  0  0  0  0  0  0  0  0  0  0  0  # atno 6909 bound_to 6896
  145.6511  140.9282  143.0984 H   0  0  0  0  0  0  0  0  0  0  0  0  # atno 7974 bound_to 7965
  155.1319  140.0400  157.2777 H   0  0  0  0  0  0  0  0  0  0  0  0  # atno 8008 bound_to 7997
  154.6536  140.2575  155.7160 H   0  0  0  0  0  0  0  0  0  0  0  0  # atno 8009 bound_to 7997
  156.2588  140.2831  156.0980 H   0  0  0  0  0  0  0  0  0  0  0  0  # atno 8010 bound_to 7997
  139.4949  144.3902  151.9525 H   0  0  0  0  0  0  0  0  0  0  0  0  # atno 10167 bound_to 10162
  156.0357  130.4354  150.2462 H   0  0  0  0  0  0  0  0  0  0  0  0  # atno 10718 bound_to 10713
  154.8509  135.4356  154.1776 H   0  0  0  0  0  0  0  0  0  0  0  0  # atno 10763 bound_to 10752
  153.2875  135.6958  153.7331 H   0  0  0  0  0  0  0  0  0  0  0  0  # atno 10764 bound_to 10752
  153.6512  135.3451  155.3075 H   0  0  0  0  0  0  0  0  0  0  0  0  # atno 10765 bound_to 10752
  140.3444  134.2298  155.7686 H   0  0  0  0  0  0  0  0  0  0  0  0  # atno 11005 bound_to 11000
  144.7122  139.8328  143.7411 LP  0  0  0  0  0  0  0  0  0  0  0  0  # atno 17320 bound_to 7965
  146.1203  139.4220  143.0233 LP  0  0  0  0  0  0  0  0  0  0  0  0  # atno 17321 bound_to 7965
  140.3339  144.3283  150.5981 LP  0  0  0  0  0  0  0  0  0  0  0  0  # atno 17342 bound_to 10162
  140.5622  143.2191  151.7746 LP  0  0  0  0  0  0  0  0  0  0  0  0  # atno 17343 bound_to 10162
  157.0562  131.0077  151.3237 LP  0  0  0  0  0  0  0  0  0  0  0  0  # atno 17370 bound_to 10713
  157.5104  130.7935  149.7699 LP  0  0  0  0  0  0  0  0  0  0  0  0  # atno 17371 bound_to 10713
  141.2030  133.7924  157.0364 LP  0  0  0  0  0  0  0  0  0  0  0  0  # atno 17394 bound_to 11000
  140.0754  134.9678  157.1537 LP  0  0  0  0  0  0  0  0  0  0  0  0  # atno 17395 bound_to 11000

$$$$
