AV-unprocessed.smi:1149|AV-procd|sdf|4890|dock5
  -GOLD-   22720 3463D 1   1.00000     0.00000
 Structure written by MMmdl.
 51 52  0  0  0  0  0  0  0  0  2 V2000
  151.3766  141.6223  157.9123 C   0  0  0  0  0  0  0  0  0  0  0  0
  151.3346  141.3988  156.5072 O   0  0  0  0  0  0  0  0  0  0  0  0
  150.6908  140.2705  156.0422 C   0  0  0  0  0  0  0  0  0  0  0  0
  149.8362  139.5729  156.9187 C   0  0  0  0  0  0  0  0  0  0  0  0
  149.1804  138.4166  156.4550 C   0  0  0  0  0  0  0  0  0  0  0  0
  149.4076  137.9886  155.1254 C   0  0  0  0  0  0  0  0  0  0  0  0
  148.7951  136.8490  154.5376 N   0  0  0  0  0  0  0  0  0  0  0  0
  148.0496  135.9029  155.1340 C   0  0  0  0  0  0  0  0  0  0  0  0
  147.7785  135.8629  156.3338 O   0  0  0  0  0  0  0  0  0  0  0  0
  147.6397  134.9818  154.2505 N   0  0  0  0  0  0  0  0  0  0  0  0
  146.8182  133.8099  154.5570 C   0  0  0  0  0  0  0  0  0  0  0  0
  146.6418  132.8435  153.3468 C   0  0  0  0  0  0  0  0  0  0  0  0
  147.9654  132.8117  152.5459 C   0  0  0  0  0  0  0  0  0  0  0  0
  146.3740  131.4234  153.9076 C   0  0  0  0  0  0  0  0  0  0  0  0
  145.4944  133.2715  152.5009 N   0  0  0  0  0  0  0  0  0  0  0  0
  144.8304  132.1840  151.7624 C   0  0  0  0  0  0  0  0  0  0  0  0
  143.5149  132.6850  151.1330 C   0  0  0  0  0  0  0  0  0  0  0  0
  143.7502  133.8195  150.2116 N   0  3  0  0  0  0  0  0  0  0  0  0
  144.3148  133.4220  148.9009 C   0  0  0  0  0  0  0  0  0  0  0  0
  144.5159  134.8849  150.8978 C   0  0  0  0  0  0  0  0  0  0  0  0
  145.8093  134.3330  151.5302 C   0  0  0  0  0  0  0  0  0  0  0  0
  150.2669  138.7673  154.3232 C   0  0  0  0  0  0  0  0  0  0  0  0
  150.8996  139.8760  154.7616 N   0  0  0  0  0  0  0  0  0  0  0  0
  151.9040  142.5547  158.1133 H   0  0  0  0  0  0  0  0  0  0  0  0
  151.9111  140.8225  158.4270 H   0  0  0  0  0  0  0  0  0  0  0  0
  150.3741  141.7128  158.3329 H   0  0  0  0  0  0  0  0  0  0  0  0
  149.6831  139.9200  157.9298 H   0  0  0  0  0  0  0  0  0  0  0  0
  148.5115  137.8936  157.1203 H   0  0  0  0  0  0  0  0  0  0  0  0
  149.0024  136.7026  153.5605 H   0  0  0  0  0  0  0  0  0  0  0  0
  147.9124  135.1000  153.2861 H   0  0  0  0  0  0  0  0  0  0  0  0
  147.2658  133.3009  155.4097 H   0  0  0  0  0  0  0  0  0  0  0  0
  145.8390  134.1229  154.9241 H   0  0  0  0  0  0  0  0  0  0  0  0
  148.7887  132.4797  153.1797 H   0  0  0  0  0  0  0  0  0  0  0  0
  148.2429  133.7940  152.1638 H   0  0  0  0  0  0  0  0  0  0  0  0
  147.9248  132.1234  151.7020 H   0  0  0  0  0  0  0  0  0  0  0  0
  147.0811  131.1748  154.6997 H   0  0  0  0  0  0  0  0  0  0  0  0
  146.4892  130.6464  153.1522 H   0  0  0  0  0  0  0  0  0  0  0  0
  145.3719  131.3338  154.3287 H   0  0  0  0  0  0  0  0  0  0  0  0
  145.4897  131.7772  150.9956 H   0  0  0  0  0  0  0  0  0  0  0  0
  144.5701  131.3598  152.4230 H   0  0  0  0  0  0  0  0  0  0  0  0
  143.0102  131.8750  150.6051 H   0  0  0  0  0  0  0  0  0  0  0  0
  142.8333  133.0095  151.9209 H   0  0  0  0  0  0  0  0  0  0  0  0
  145.3076  132.9833  148.9999 H   0  0  0  0  0  0  0  0  0  0  0  0
  144.3910  134.2865  148.2409 H   0  0  0  0  0  0  0  0  0  0  0  0
  143.6687  132.6912  148.4134 H   0  0  0  0  0  0  0  0  0  0  0  0
  144.7451  135.6891  150.1979 H   0  0  0  0  0  0  0  0  0  0  0  0
  143.8875  135.3234  151.6746 H   0  0  0  0  0  0  0  0  0  0  0  0
  146.3114  135.1699  152.0099 H   0  0  0  0  0  0  0  0  0  0  0  0
  146.4829  133.9635  150.7570 H   0  0  0  0  0  0  0  0  0  0  0  0
  150.4587  138.4902  153.2966 H   0  0  0  0  0  0  0  0  0  0  0  0
  142.8421  134.2098  150.0036 H   0  0  0  0  0  0  0  0  0  0  0  0
  1  2  1  0  0  0  0
  1 24  1  0  0  0  0
  1 25  1  0  0  0  0
  1 26  1  0  0  0  0
  2  3  1  0  0  0  0
  3 23  1  0  0  0  0
  3  4  2  0  0  0  0
  4  5  1  0  0  0  0
  4 27  1  0  0  0  0
  5  6  2  0  0  0  0
  5 28  1  0  0  0  0
  6  7  1  0  0  0  0
  6 22  1  0  0  0  0
  7  8  1  0  0  0  0
  7 29  1  0  0  0  0
  8  9  2  0  0  0  0
  8 10  1  0  0  0  0
 10 11  1  0  0  0  0
 10 30  1  0  0  0  0
 11 12  1  0  0  0  0
 11 31  1  0  0  0  0
 11 32  1  0  0  0  0
 12 13  1  0  0  0  0
 12 14  1  0  0  0  0
 12 15  1  0  0  0  0
 13 33  1  0  0  0  0
 13 34  1  0  0  0  0
 13 35  1  0  0  0  0
 14 36  1  0  0  0  0
 14 37  1  0  0  0  0
 14 38  1  0  0  0  0
 15 21  1  0  0  0  0
 15 16  1  0  0  0  0
 16 17  1  0  0  0  0
 16 39  1  0  0  0  0
 16 40  1  0  0  0  0
 17 18  1  0  0  0  0
 17 41  1  0  0  0  0
 17 42  1  0  0  0  0
 18 19  1  0  0  0  0
 18 20  1  0  0  0  0
 18 51  1  0  0  0  0
 19 43  1  0  0  0  0
 19 44  1  0  0  0  0
 19 45  1  0  0  0  0
 20 21  1  0  0  0  0
 20 46  1  0  0  0  0
 20 47  1  0  0  0  0
 21 48  1  0  0  0  0
 21 49  1  0  0  0  0
 22 23  2  0  0  0  0
 22 50  1  0  0  0  0
M  CHG  1  18   1
M  END
> <s_m_source_file>
AV-unprocessed.smi

> <i_m_source_file_index>
1149

> <i_lp_mmshare_version>
43012

> <i_f3d_flags>
0

> <s_epik_input>
W0NIM11PYzFbY0hdW2NIXWMoW2NIXW4xKVtOSF1DKD1PKVtOSF1bQ0gyXUMoW0NIM10pKFtDSDNdKU4yW0NIMl1bQ0gyXU4oW0NIM10pW0NIMl1bQ0gyXTI=

> <s_epik_cmdline>
J2VwaWtfcHl0aG9uJywgJy1waCcsICc3LjAnLCAnLXRuJywgJzgnLCAnLW1hJywgJzIwMCcsICctbWV0YWxfYmluZGluZycsICctaW1hZScsICc8aW5maWxlLm1hZT4nLCAnLW9tYWUnLCAnPG91dGZpbGUubWFlPic=

> <r_lp_tautomer_probability>
1

> <r_epik_Ionization_Penalty>
0.0248754

> <r_epik_Ionization_Penalty_Charging>
0.0238192

> <r_epik_Ionization_Penalty_Neutral>
0.00105627

> <r_epik_State_Penalty>
0.139266

> <r_epik_Charging_Adjusted_Penalty>
0.163085

> <i_epik_Tot_Q>
1

> <i_epik_Tot_abs_Q>
1

> <r_epik_Metal_State_Penalty>
0.139265

> <b_epik_Metal_Only>
0

> <s_lp_Force_Field>
OPLS_2005

> <r_lp_Energy>
29.3026

> <b_lp_Chiralities_Consistent>
1

> <s_lp_Variant>
AV-unprocessed.smi:1149-1

> <Gold.Version>
5.8.1

> <Gold.Id.Protein>
6NUR|6NUR_protein|mol2

> <Gold.PLP.Fitness>
45.9985

> <Gold.PLP.PLP>
-31.3205

> <Gold.PLP.part.hbond>
-4.0000

> <Gold.PLP.part.metal>
0.0000

> <Gold.PLP.part.buried>
-1.9014

> <Gold.PLP.part.nonpolar>
-25.0370

> <Gold.PLP.part.repulsive>
0.2940

> <Gold.PLP.ligand.clash>
0.0145

> <Gold.PLP.ligand.torsion>
1.4610

> <Gold.PLP.Chemscore.Hbond>
4.9600

> <Gold.PLP.Chemscore.CHOScore>
0.8969

> <Gold.PLP.Chemscore.Metal>
0.0000

> <Gold.Chemscore.Hbonds>
donor molecule, donor type, donor heavy atom, donor atom, acceptor molecule, acceptor atom, score
      L1  H     7    29       P1  7948  1.00
      L1  H    10    30       P1  7948  0.87
      L1  H    18    51       P1 10186  2.00
      P1  H  7989  7998       L1    23  1.00
      L1  C    22    50       P1  7957  0.39

> <Gold.PLP.Chemscore.Internal.Correction>
0.0439

> <Gold.Rescore>
     Score         DG    S(hbond)    S(metal)    S(lipo)     H(rot)  DE(clash)    DE(int)     intcor
     18.86     -22.80       3.80        0.00      77.32       1.72       1.49       2.45       ----

> <Gold.Chemscore.Fitness>
18.8561

> <Gold.Chemscore.DG>
-22.7996

> <Gold.Chemscore.ZeroCoef>
-5.4800

> <Gold.Chemscore.Hbond>
3.7964

> <Gold.Chemscore.Metal>
0.0000

> <Gold.Chemscore.Lipo>
77.3171

> <Gold.Chemscore.Internal_Hbond>
0.0000

> <Gold.Chemscore.DEClash>
1.4887

> <Gold.Chemscore.DEInternal>
2.4548

> <Gold.Chemscore.Rot>
1.7213

> <Gold.Chemscore.Internal.Correction>
   9.000000E+99

> <Gold.Chemscore.Hbonds>
donor molecule, donor type, donor heavy atom, donor atom, acceptor molecule, acceptor atom, score
      L1  H     7    29       P1  7948  1.00
      L1  H    10    30       P1  7948  0.80
      L1  H    18    51       P1 10186  0.97
      P1  H  7989  7998       L1    23  0.90

> <Gold.Chemscore.Hbond.Weighted>
-12.6801

> <Gold.Chemscore.Metal.Weighted>
-0.0000

> <Gold.Chemscore.Lipo.Weighted>
-9.0461

> <Gold.Chemscore.Internal_Hbond.Weighted>
0.0000

> <Gold.Chemscore.DEClash.Weighted>
1.4887

> <Gold.Chemscore.DEInternal.Weighted>
2.4548

> <Gold.Chemscore.Rot.Weighted>
4.4066

> <Gold.Chemscore.Internal.Correction.Weighted>
   9.000000E+99

> <Gold.Protein.RotatedTorsions>
[ 6907 6896 6895 6894 ] final -173.64 input  -60.11 | X-H torsion
[ 7974 7965 7964 7962 ] final -121.06 input  175.53 | X-H torsion
[ 8008 7997 7996 7995 ] final  -51.81 input   59.86 | X-H torsion
[ 10167 10162 10161 10158 ] final  -41.81 input  -65.29 | X-H torsion
[ 10718 10713 10712 10709 ] final  -83.29 input   66.30 | X-H torsion
[ 10763 10752 10751 10750 ] final   75.85 input  -60.55 | X-H torsion
[ 11005 11000 10999 10996 ] final  153.02 input  -57.11 | X-H torsion

> <Gold.Protein.ActiveResidues>
 VAL166  LYS551  ARG553  GLY616  TRP617  ASP618  TYR619  PRO620  LYS621  CYS622 
 ASP623  PHE694  ASN695  SER759  ASP760  ASP761  ALA762  ILE779  LEU786  VAL792 
 PHE793  MET794  SER795  GLU796  ALA797  LYS798  CYS799  TRP800  GLU811  SER814 

> <Gold.Protein.RotatedAtoms>
  151.5595  133.3405  159.2968 H   0  0  0  0  0  0  0  0  0  0  0  0  # atno 6907 bound_to 6896
  150.8431  134.7733  159.6959 H   0  0  0  0  0  0  0  0  0  0  0  0  # atno 6908 bound_to 6896
  152.4494  134.5432  159.9897 H   0  0  0  0  0  0  0  0  0  0  0  0  # atno 6909 bound_to 6896
  145.0445  140.8170  143.4246 H   0  0  0  0  0  0  0  0  0  0  0  0  # atno 7974 bound_to 7965
  154.4091  140.1239  156.4890 H   0  0  0  0  0  0  0  0  0  0  0  0  # atno 8008 bound_to 7997
  155.7009  140.3495  155.4913 H   0  0  0  0  0  0  0  0  0  0  0  0  # atno 8009 bound_to 7997
  155.9385  140.1083  157.1064 H   0  0  0  0  0  0  0  0  0  0  0  0  # atno 8010 bound_to 7997
  140.6990  143.3073  151.3119 H   0  0  0  0  0  0  0  0  0  0  0  0  # atno 10167 bound_to 10162
  156.0020  130.4661  150.4235 H   0  0  0  0  0  0  0  0  0  0  0  0  # atno 10718 bound_to 10713
  153.0683  135.4973  154.8249 H   0  0  0  0  0  0  0  0  0  0  0  0  # atno 10763 bound_to 10752
  154.6986  135.2997  154.9377 H   0  0  0  0  0  0  0  0  0  0  0  0  # atno 10764 bound_to 10752
  154.0108  135.6754  153.4818 H   0  0  0  0  0  0  0  0  0  0  0  0  # atno 10765 bound_to 10752
  140.1360  134.8771  157.2267 H   0  0  0  0  0  0  0  0  0  0  0  0  # atno 11005 bound_to 11000
  145.1605  139.2461  143.5394 LP  0  0  0  0  0  0  0  0  0  0  0  0  # atno 17320 bound_to 7965
  146.3512  140.1331  142.8596 LP  0  0  0  0  0  0  0  0  0  0  0  0  # atno 17321 bound_to 7965
  139.6483  144.0409  152.2608 LP  0  0  0  0  0  0  0  0  0  0  0  0  # atno 17342 bound_to 10162
  139.9937  144.6343  150.7791 LP  0  0  0  0  0  0  0  0  0  0  0  0  # atno 17343 bound_to 10162
  157.2290  131.0499  151.2503 LP  0  0  0  0  0  0  0  0  0  0  0  0  # atno 17370 bound_to 10713
  157.3729  130.7191  149.6577 LP  0  0  0  0  0  0  0  0  0  0  0  0  # atno 17371 bound_to 10713
  140.2782  134.3380  155.7351 LP  0  0  0  0  0  0  0  0  0  0  0  0  # atno 17394 bound_to 11000
  141.2178  133.7463  156.9325 LP  0  0  0  0  0  0  0  0  0  0  0  0  # atno 17395 bound_to 11000

$$$$
