AV-unprocessed.smi:1047|AV-procd|sdf|4572|dock2
  -GOLD-   22720 3 23D 1   1.00000     0.00000
 Structure written by MMmdl.
 56 58  0  0  0  0  0  0  0  0  2 V2000
  150.4478  134.9654  154.9833 C   0  0  0  0  0  0  0  0  0  0  0  0
  149.1082  134.2615  154.7238 C   0  0  0  0  0  0  0  0  0  0  0  0
  148.0959  135.1672  154.1255 N   0  3  1  0  0  0  0  0  0  0  0  0
  146.8190  134.4729  153.8360 C   0  0  0  0  0  0  0  0  0  0  0  0
  145.8217  135.4363  153.1728 C   0  0  0  0  0  0  0  0  0  0  0  0
  145.6260  136.5669  154.0120 O   0  0  0  0  0  0  0  0  0  0  0  0
  146.8274  137.3043  154.2141 C   0  0  1  0  0  0  0  0  0  0  0  0
  146.4865  138.5453  155.0521 C   0  0  0  0  0  0  0  0  0  0  0  0
  147.4678  139.6021  154.8367 N   0  0  0  0  0  0  0  0  0  0  0  0
  148.0193  140.1527  156.0729 C   0  0  0  0  0  0  0  0  0  0  0  0
  148.7340  141.4954  155.8355 C   0  0  2  0  0  0  0  0  0  0  0  0
  147.9427  142.3027  154.9847 O   0  0  0  0  0  0  0  0  0  0  0  0
  150.1741  141.3511  155.3012 C   0  0  0  0  0  0  0  0  0  0  0  0
  151.1142  140.9727  156.3404 N   0  0  0  0  0  0  0  0  0  0  0  0
  151.8897  139.8722  156.3712 C   0  0  0  0  0  0  0  0  0  0  0  0
  152.6838  139.7168  157.4266 N   0  0  0  0  0  0  0  0  0  0  0  0
  152.3923  140.8512  158.1648 C   0  0  0  0  0  0  0  0  0  0  0  0
  152.9011  141.2939  159.4054 C   0  0  0  0  0  0  0  0  0  0  0  0
  152.4541  142.5041  159.9820 C   0  0  0  0  0  0  0  0  0  0  0  0
  153.0308  142.9435  161.3162 C   0  0  0  0  0  0  0  0  0  0  0  0
  151.4814  143.2920  159.3157 C   0  0  0  0  0  0  0  0  0  0  0  0
  150.9894  144.5980  159.9141 C   0  0  0  0  0  0  0  0  0  0  0  0
  150.9599  142.8626  158.0775 C   0  0  0  0  0  0  0  0  0  0  0  0
  151.4145  141.6578  157.5127 C   0  0  0  0  0  0  0  0  0  0  0  0
  147.8465  136.3924  154.9252 C   0  0  0  0  0  0  0  0  0  0  0  0
  151.1915  134.2522  155.3393 H   0  0  0  0  0  0  0  0  0  0  0  0
  150.3618  135.7451  155.7393 H   0  0  0  0  0  0  0  0  0  0  0  0
  150.8373  135.4198  154.0718 H   0  0  0  0  0  0  0  0  0  0  0  0
  149.2944  133.4344  154.0371 H   0  0  0  0  0  0  0  0  0  0  0  0
  148.7208  133.8192  155.6427 H   0  0  0  0  0  0  0  0  0  0  0  0
  146.9982  133.6219  153.1776 H   0  0  0  0  0  0  0  0  0  0  0  0
  146.3983  134.0795  154.7629 H   0  0  0  0  0  0  0  0  0  0  0  0
  146.1764  135.7522  152.1904 H   0  0  0  0  0  0  0  0  0  0  0  0
  144.8636  134.9392  153.0207 H   0  0  0  0  0  0  0  0  0  0  0  0
  147.2369  137.6191  153.2517 H   0  0  0  0  0  0  0  0  0  0  0  0
  145.4833  138.8957  154.8054 H   0  0  0  0  0  0  0  0  0  0  0  0
  146.4740  138.2791  156.1097 H   0  0  0  0  0  0  0  0  0  0  0  0
  147.0488  140.3525  154.2958 H   0  0  0  0  0  0  0  0  0  0  0  0
  147.2264  140.2890  156.8096 H   0  0  0  0  0  0  0  0  0  0  0  0
  148.7243  139.4428  156.5071 H   0  0  0  0  0  0  0  0  0  0  0  0
  148.7794  142.0160  156.7931 H   0  0  0  0  0  0  0  0  0  0  0  0
  148.1322  143.2097  155.1718 H   0  0  0  0  0  0  0  0  0  0  0  0
  150.2085  140.5955  154.5154 H   0  0  0  0  0  0  0  0  0  0  0  0
  150.5183  142.2826  154.8513 H   0  0  0  0  0  0  0  0  0  0  0  0
  151.8683  139.1425  155.5747 H   0  0  0  0  0  0  0  0  0  0  0  0
  153.6424  140.6937  159.9122 H   0  0  0  0  0  0  0  0  0  0  0  0
  153.5728  143.8827  161.2057 H   0  0  0  0  0  0  0  0  0  0  0  0
  153.7237  142.2018  161.7142 H   0  0  0  0  0  0  0  0  0  0  0  0
  152.2368  143.0854  162.0494 H   0  0  0  0  0  0  0  0  0  0  0  0
  150.2701  145.0900  159.2588 H   0  0  0  0  0  0  0  0  0  0  0  0
  151.8217  145.2843  160.0708 H   0  0  0  0  0  0  0  0  0  0  0  0
  150.5017  144.4192  160.8725 H   0  0  0  0  0  0  0  0  0  0  0  0
  150.2159  143.4511  157.5611 H   0  0  0  0  0  0  0  0  0  0  0  0
  147.4779  136.1153  155.9144 H   0  0  0  0  0  0  0  0  0  0  0  0
  148.7765  136.9407  155.0727 H   0  0  0  0  0  0  0  0  0  0  0  0
  148.4646  135.4656  153.2337 H   0  0  0  0  0  0  0  0  0  0  0  0
  1  2  1  0  0  0  0
  1 26  1  0  0  0  0
  1 27  1  0  0  0  0
  1 28  1  0  0  0  0
  2  3  1  0  0  0  0
  2 29  1  0  0  0  0
  2 30  1  0  0  0  0
  3 25  1  0  0  0  0
  3  4  1  0  0  0  0
  3 56  1  0  0  0  0
  4  5  1  0  0  0  0
  4 31  1  0  0  0  0
  4 32  1  0  0  0  0
  5  6  1  0  0  0  0
  5 33  1  0  0  0  0
  5 34  1  0  0  0  0
  6  7  1  0  0  0  0
  7  8  1  0  0  0  0
  7 25  1  0  0  0  0
  7 35  1  0  0  0  0
  8  9  1  0  0  0  0
  8 36  1  0  0  0  0
  8 37  1  0  0  0  0
  9 10  1  0  0  0  0
  9 38  1  0  0  0  0
 10 11  1  0  0  0  0
 10 39  1  0  0  0  0
 10 40  1  0  0  0  0
 11 12  1  0  0  0  0
 11 13  1  0  0  0  0
 11 41  1  0  0  0  0
 12 42  1  0  0  0  0
 13 14  1  0  0  0  0
 13 43  1  0  0  0  0
 13 44  1  0  0  0  0
 14 24  1  0  0  0  0
 14 15  1  0  0  0  0
 15 16  2  0  0  0  0
 15 45  1  0  0  0  0
 16 17  1  0  0  0  0
 17 24  2  0  0  0  0
 17 18  1  0  0  0  0
 18 19  2  0  0  0  0
 18 46  1  0  0  0  0
 19 20  1  0  0  0  0
 19 21  1  0  0  0  0
 20 47  1  0  0  0  0
 20 48  1  0  0  0  0
 20 49  1  0  0  0  0
 21 22  1  0  0  0  0
 21 23  2  0  0  0  0
 22 50  1  0  0  0  0
 22 51  1  0  0  0  0
 22 52  1  0  0  0  0
 23 24  1  0  0  0  0
 23 53  1  0  0  0  0
 25 54  1  0  0  0  0
 25 55  1  0  0  0  0
M  CHG  1   3   1
M  END
> <s_m_source_file>
AV-unprocessed.smi

> <i_m_source_file_index>
1047

> <i_lp_mmshare_version>
43012

> <i_f3d_flags>
0

> <s_epik_input>
W0NIM11bQ0gyXU4xW0NIMl1bQ0gyXU9bQ0BIXShbQ0gyXTEpW0NIMl1bTkhdW0NIMl1bQ0BIXShbT0hdKVtDSDJdbihbY0hdbjIpYyhjMjMpW2NIXWMoW0NIM10pYyhbY0hdMylbQ0gzXQ==

> <s_epik_cmdline>
J2VwaWtfcHl0aG9uJywgJy1waCcsICc3LjAnLCAnLXRuJywgJzgnLCAnLW1hJywgJzIwMCcsICctbWV0YWxfYmluZGluZycsICctaW1hZScsICc8aW5maWxlLm1hZT4nLCAnLW9tYWUnLCAnPG91dGZpbGUubWFlPic=

> <r_epik_Ionization_Penalty>
1.19246

> <r_epik_Ionization_Penalty_Charging>
0.210041

> <r_epik_Ionization_Penalty_Neutral>
0.982415

> <r_epik_State_Penalty>
1.57595

> <r_epik_Charging_Adjusted_Penalty>
1.78599

> <i_epik_Tot_Q>
1

> <i_epik_Tot_abs_Q>
1

> <r_epik_Metal_State_Penalty>
1.46172

> <b_epik_Metal_Only>
0

> <s_lp_Force_Field>
OPLS_2005

> <r_lp_Energy>
30.4626

> <b_lp_Chiralities_Consistent>
1

> <s_lp_Variant>
AV-unprocessed.smi:1047-13

> <Gold.Version>
5.8.1

> <Gold.Id.Protein>
6NUR|6NUR_protein|mol2

> <Gold.PLP.Fitness>
50.1087

> <Gold.PLP.PLP>
-39.8272

> <Gold.PLP.part.hbond>
-3.0000

> <Gold.PLP.part.metal>
0.0000

> <Gold.PLP.part.buried>
-4.4170

> <Gold.PLP.part.nonpolar>
-31.6712

> <Gold.PLP.part.repulsive>
0.0699

> <Gold.PLP.ligand.clash>
0.0000

> <Gold.PLP.ligand.torsion>
1.0292

> <Gold.PLP.Chemscore.Hbond>
4.0000

> <Gold.PLP.Chemscore.CHOScore>
0.0000

> <Gold.PLP.Chemscore.Metal>
0.0000

> <Gold.Chemscore.Hbonds>
donor molecule, donor type, donor heavy atom, donor atom, acceptor molecule, acceptor atom, score
      L1  H     3    56       P1  7948  2.00
      L1  H    12    42       P1  8028  1.00
      P1  H  7997  8010       L1    16  1.00

> <Gold.PLP.Chemscore.Internal.Correction>
0.3398

> <Gold.Rescore>
     Score         DG    S(hbond)    S(metal)    S(lipo)     H(rot)  DE(clash)    DE(int)     intcor
     19.23     -20.47       2.53        0.00     113.08       2.62       0.20       1.04       ----

> <Gold.Chemscore.Fitness>
19.2340

> <Gold.Chemscore.DG>
-20.4665

> <Gold.Chemscore.ZeroCoef>
-5.4800

> <Gold.Chemscore.Hbond>
2.5348

> <Gold.Chemscore.Metal>
0.0000

> <Gold.Chemscore.Lipo>
113.0767

> <Gold.Chemscore.Internal_Hbond>
0.0000

> <Gold.Chemscore.DEClash>
0.1971

> <Gold.Chemscore.DEInternal>
1.0354

> <Gold.Chemscore.Rot>
2.6209

> <Gold.Chemscore.Internal.Correction>
   9.000000E+99

> <Gold.Chemscore.Hbonds>
donor molecule, donor type, donor heavy atom, donor atom, acceptor molecule, acceptor atom, score
      L1  H     3    56       P1  7948  0.98
      L1  H    12    42       P1  8028  0.93
      P1  H  7997  8010       L1    16  0.23

> <Gold.Chemscore.Hbond.Weighted>
-8.4661

> <Gold.Chemscore.Metal.Weighted>
-0.0000

> <Gold.Chemscore.Lipo.Weighted>
-13.2300

> <Gold.Chemscore.Internal_Hbond.Weighted>
0.0000

> <Gold.Chemscore.DEClash.Weighted>
0.1971

> <Gold.Chemscore.DEInternal.Weighted>
1.0354

> <Gold.Chemscore.Rot.Weighted>
6.7096

> <Gold.Chemscore.Internal.Correction.Weighted>
   9.000000E+99

> <Gold.Protein.RotatedTorsions>
[ 6907 6896 6895 6894 ] final   29.54 input  -60.11 | X-H torsion
[ 7974 7965 7964 7962 ] final  -93.01 input  175.53 | X-H torsion
[ 8008 7997 7996 7995 ] final   36.44 input   59.86 | X-H torsion
[ 10167 10162 10161 10158 ] final -113.52 input  -65.29 | X-H torsion
[ 10718 10713 10712 10709 ] final  -79.07 input   66.30 | X-H torsion
[ 10763 10752 10751 10750 ] final  126.43 input  -60.55 | X-H torsion
[ 11005 11000 10999 10996 ] final  -37.69 input  -57.11 | X-H torsion

> <Gold.Protein.ActiveResidues>
 VAL166  LYS551  ARG553  GLY616  TRP617  ASP618  TYR619  PRO620  LYS621  CYS622 
 ASP623  PHE694  ASN695  SER759  ASP760  ASP761  ALA762  ILE779  LEU786  VAL792 
 PHE793  MET794  SER795  GLU796  ALA797  LYS798  CYS799  TRP800  GLU811  SER814 

> <Gold.Protein.RotatedAtoms>
  152.0331  134.9756  160.0572 H   0  0  0  0  0  0  0  0  0  0  0  0  # atno 6907 bound_to 6896
  152.1225  133.4356  159.4690 H   0  0  0  0  0  0  0  0  0  0  0  0  # atno 6908 bound_to 6896
  150.6850  134.2437  159.4526 H   0  0  0  0  0  0  0  0  0  0  0  0  # atno 6909 bound_to 6896
  145.3922  140.9529  143.2334 H   0  0  0  0  0  0  0  0  0  0  0  0  # atno 7974 bound_to 7965
  155.1874  140.3305  155.4364 H   0  0  0  0  0  0  0  0  0  0  0  0  # atno 8008 bound_to 7997
  156.2455  140.1916  156.6919 H   0  0  0  0  0  0  0  0  0  0  0  0  # atno 8009 bound_to 7997
  154.6229  140.0593  156.9623 H   0  0  0  0  0  0  0  0  0  0  0  0  # atno 8010 bound_to 7997
  140.1109  143.4528  152.1753 H   0  0  0  0  0  0  0  0  0  0  0  0  # atno 10167 bound_to 10162
  156.0101  130.4535  150.3593 H   0  0  0  0  0  0  0  0  0  0  0  0  # atno 10718 bound_to 10713
  153.6932  135.3295  155.3207 H   0  0  0  0  0  0  0  0  0  0  0  0  # atno 10763 bound_to 10752
  154.8434  135.4436  154.1487 H   0  0  0  0  0  0  0  0  0  0  0  0  # atno 10764 bound_to 10752
  153.2534  135.6984  153.7732 H   0  0  0  0  0  0  0  0  0  0  0  0  # atno 10765 bound_to 10752
  140.9971  133.6974  156.1955 H   0  0  0  0  0  0  0  0  0  0  0  0  # atno 11005 bound_to 11000
  144.8432  139.5438  143.6890 LP  0  0  0  0  0  0  0  0  0  0  0  0  # atno 17320 bound_to 7965
  146.2792  139.6832  142.9241 LP  0  0  0  0  0  0  0  0  0  0  0  0  # atno 17321 bound_to 7965
  139.5619  144.7411  151.4129 LP  0  0  0  0  0  0  0  0  0  0  0  0  # atno 17342 bound_to 10162
  140.6926  143.7826  150.7278 LP  0  0  0  0  0  0  0  0  0  0  0  0  # atno 17343 bound_to 10162
  157.1682  131.0362  151.2808 LP  0  0  0  0  0  0  0  0  0  0  0  0  # atno 17370 bound_to 10713
  157.4252  130.7459  149.6945 LP  0  0  0  0  0  0  0  0  0  0  0  0  # atno 17371 bound_to 10713
  140.6948  134.4627  157.5588 LP  0  0  0  0  0  0  0  0  0  0  0  0  # atno 17394 bound_to 11000
  139.9020  134.8534  156.1856 LP  0  0  0  0  0  0  0  0  0  0  0  0  # atno 17395 bound_to 11000

$$$$
