AV-unprocessed.smi:3128|AV-procd|sdf|11921|dock2
  -GOLD-   2272017303D 1   1.00000     0.00000
 Structure written by MMmdl.
 39 39  0  0  0  0  0  0  0  0  1 V2000
  145.4441  142.5219  156.4231 C   0  0  0  0  0  0  0  0  0  0  0  0
  145.3958  143.5781  155.3014 C   0  0  0  0  0  0  0  0  0  0  0  0
  143.9325  143.9770  155.0378 C   0  0  0  0  0  0  0  0  0  0  0  0
  146.1212  143.1035  154.0141 C   0  0  1  0  0  0  0  0  0  0  0  0
  146.1058  144.1521  152.8850 C   0  0  0  0  0  0  0  0  0  0  0  0
  147.5083  142.7544  154.3187 N   0  0  0  0  0  0  0  0  0  0  0  0
  148.1421  141.6409  153.9180 C   0  0  0  0  0  0  0  0  0  0  0  0
  147.6162  140.7727  153.2217 O   0  0  0  0  0  0  0  0  0  0  0  0
  149.5906  141.4806  154.3761 C   0  0  0  0  0  0  0  0  0  0  0  0
  149.9162  142.4138  155.4584 N   0  0  0  0  0  0  0  0  0  0  0  0
  149.6768  141.7970  156.7539 C   0  0  0  0  0  0  0  0  0  0  0  0
  151.0033  141.6744  157.5180 C   0  0  0  0  0  0  0  0  0  0  0  0
  151.1901  142.7744  158.4446 N   0  0  0  0  0  0  0  0  0  0  0  0
  150.4332  143.9189  158.5800 C   0  0  0  0  0  0  0  0  0  0  0  0
  150.9946  144.6615  159.5790 C   0  0  0  0  0  0  0  0  0  0  0  0
  152.1048  143.8771  159.9998 C   0  0  0  0  0  0  0  0  0  0  0  0
  152.2188  142.7479  159.3194 N   0  0  0  0  0  0  0  0  0  0  0  0
  144.9819  141.5870  156.1048 H   0  0  0  0  0  0  0  0  0  0  0  0
  144.9134  142.8677  157.3106 H   0  0  0  0  0  0  0  0  0  0  0  0
  146.4655  142.2999  156.7324 H   0  0  0  0  0  0  0  0  0  0  0  0
  145.9119  144.4650  155.6721 H   0  0  0  0  0  0  0  0  0  0  0  0
  143.3699  143.1528  154.5985 H   0  0  0  0  0  0  0  0  0  0  0  0
  143.8589  144.8312  154.3654 H   0  0  0  0  0  0  0  0  0  0  0  0
  143.4314  144.2629  155.9630 H   0  0  0  0  0  0  0  0  0  0  0  0
  145.6098  142.2083  153.6543 H   0  0  0  0  0  0  0  0  0  0  0  0
  145.0941  144.3555  152.5357 H   0  0  0  0  0  0  0  0  0  0  0  0
  146.6712  143.8078  152.0184 H   0  0  0  0  0  0  0  0  0  0  0  0
  146.5448  145.0950  153.2125 H   0  0  0  0  0  0  0  0  0  0  0  0
  148.0236  143.4081  154.8900 H   0  0  0  0  0  0  0  0  0  0  0  0
  149.7317  140.4539  154.7172 H   0  0  0  0  0  0  0  0  0  0  0  0
  150.2696  141.6376  153.5357 H   0  0  0  0  0  0  0  0  0  0  0  0
  150.8777  142.7181  155.4060 H   0  0  0  0  0  0  0  0  0  0  0  0
  148.9685  142.3983  157.3262 H   0  0  0  0  0  0  0  0  0  0  0  0
  149.2331  140.8098  156.6154 H   0  0  0  0  0  0  0  0  0  0  0  0
  151.0353  140.7405  158.0811 H   0  0  0  0  0  0  0  0  0  0  0  0
  151.8463  141.6558  156.8251 H   0  0  0  0  0  0  0  0  0  0  0  0
  149.5689  144.1084  157.9606 H   0  0  0  0  0  0  0  0  0  0  0  0
  150.6629  145.6190  159.9523 H   0  0  0  0  0  0  0  0  0  0  0  0
  152.8262  144.0931  160.7740 H   0  0  0  0  0  0  0  0  0  0  0  0
  1  2  1  0  0  0  0
  1 18  1  0  0  0  0
  1 19  1  0  0  0  0
  1 20  1  0  0  0  0
  2  3  1  0  0  0  0
  2  4  1  0  0  0  0
  2 21  1  0  0  0  0
  3 22  1  0  0  0  0
  3 23  1  0  0  0  0
  3 24  1  0  0  0  0
  4  5  1  0  0  0  0
  4  6  1  0  0  0  0
  4 25  1  0  0  0  0
  5 26  1  0  0  0  0
  5 27  1  0  0  0  0
  5 28  1  0  0  0  0
  6  7  1  0  0  0  0
  6 29  1  0  0  0  0
  7  8  2  0  0  0  0
  7  9  1  0  0  0  0
  9 10  1  0  0  0  0
  9 30  1  0  0  0  0
  9 31  1  0  0  0  0
 10 11  1  0  0  0  0
 10 32  1  0  0  0  0
 11 12  1  0  0  0  0
 11 33  1  0  0  0  0
 11 34  1  0  0  0  0
 12 13  1  0  0  0  0
 12 35  1  0  0  0  0
 12 36  1  0  0  0  0
 13 17  1  0  0  0  0
 13 14  1  0  0  0  0
 14 15  2  0  0  0  0
 14 37  1  0  0  0  0
 15 16  1  0  0  0  0
 15 38  1  0  0  0  0
 16 17  2  0  0  0  0
 16 39  1  0  0  0  0
M  END
> <s_m_source_file>
AV-unprocessed.smi

> <i_m_source_file_index>
3128

> <i_lp_mmshare_version>
43012

> <i_f3d_flags>
0

> <s_epik_input>
W0NIM11bQ0hdKFtDSDNdKVtDQEhdKFtDSDNdKVtOSF1DKD1PKVtDSDJdW05IXVtDSDJdW0NIMl1uMVtjSF1bY0hdW2NIXW4x

> <s_epik_cmdline>
J2VwaWtfcHl0aG9uJywgJy1waCcsICc3LjAnLCAnLXRuJywgJzgnLCAnLW1hJywgJzIwMCcsICctbWV0YWxfYmluZGluZycsICctaW1hZScsICc8aW5maWxlLm1hZT4nLCAnLW9tYWUnLCAnPG91dGZpbGUubWFlPic=

> <r_lp_tautomer_probability>
1

> <r_epik_Ionization_Penalty>
0.724947

> <r_epik_Ionization_Penalty_Charging>
0

> <r_epik_Ionization_Penalty_Neutral>
0.724947

> <r_epik_State_Penalty>
0.747959

> <r_epik_Charging_Adjusted_Penalty>
0.747959

> <i_epik_Tot_Q>
0

> <i_epik_Tot_abs_Q>
0

> <r_epik_Metal_State_Penalty>
0.746178

> <b_epik_Metal_Only>
0

> <s_lp_Force_Field>
OPLS_2005

> <r_lp_Energy>
7.09657

> <b_lp_Chiralities_Consistent>
1

> <s_lp_Variant>
AV-unprocessed.smi:3128-4

> <Gold.Version>
5.8.1

> <Gold.Id.Protein>
6NUR|6NUR_protein|mol2

> <Gold.PLP.Fitness>
40.5793

> <Gold.PLP.PLP>
-36.4995

> <Gold.PLP.part.hbond>
-2.0000

> <Gold.PLP.part.metal>
0.0000

> <Gold.PLP.part.buried>
-5.1458

> <Gold.PLP.part.nonpolar>
-29.6284

> <Gold.PLP.part.repulsive>
0.2772

> <Gold.PLP.ligand.clash>
0.0000

> <Gold.PLP.ligand.torsion>
1.2765

> <Gold.PLP.Chemscore.Hbond>
1.0000

> <Gold.PLP.Chemscore.CHOScore>
1.1419

> <Gold.PLP.Chemscore.Metal>
0.0000

> <Gold.Chemscore.Hbonds>
donor molecule, donor type, donor heavy atom, donor atom, acceptor molecule, acceptor atom, score
      L1  H     6    29       P1  8028  1.00
      L1  C    14    37       P1  8028  0.74
      L1  C    14    37       P1  8029  0.42

> <Gold.PLP.Chemscore.Internal.Correction>
0.2071

> <Gold.Rescore>
     Score         DG    S(hbond)    S(metal)    S(lipo)     H(rot)  DE(clash)    DE(int)     intcor
     10.62     -11.80       0.87        0.00      76.24       2.15       0.09       1.09       ----

> <Gold.Chemscore.Fitness>
10.6218

> <Gold.Chemscore.DG>
-11.8050

> <Gold.Chemscore.ZeroCoef>
-5.4800

> <Gold.Chemscore.Hbond>
0.8699

> <Gold.Chemscore.Metal>
0.0000

> <Gold.Chemscore.Lipo>
76.2444

> <Gold.Chemscore.Internal_Hbond>
0.0000

> <Gold.Chemscore.DEClash>
0.0894

> <Gold.Chemscore.DEInternal>
1.0938

> <Gold.Chemscore.Rot>
2.1488

> <Gold.Chemscore.Internal.Correction>
   9.000000E+99

> <Gold.Chemscore.Hbonds>
donor molecule, donor type, donor heavy atom, donor atom, acceptor molecule, acceptor atom, score
      L1  H     6    29       P1  8028  0.82

> <Gold.Chemscore.Hbond.Weighted>
-2.9054

> <Gold.Chemscore.Metal.Weighted>
-0.0000

> <Gold.Chemscore.Lipo.Weighted>
-8.9206

> <Gold.Chemscore.Internal_Hbond.Weighted>
0.0000

> <Gold.Chemscore.DEClash.Weighted>
0.0894

> <Gold.Chemscore.DEInternal.Weighted>
1.0938

> <Gold.Chemscore.Rot.Weighted>
5.5010

> <Gold.Chemscore.Internal.Correction.Weighted>
   9.000000E+99

> <Gold.Protein.RotatedTorsions>
[ 6907 6896 6895 6894 ] final  125.19 input  -60.11 | X-H torsion
[ 7974 7965 7964 7962 ] final  -38.81 input  175.53 | X-H torsion
[ 8008 7997 7996 7995 ] final   34.27 input   59.86 | X-H torsion
[ 10167 10162 10161 10158 ] final   84.67 input  -65.29 | X-H torsion
[ 10718 10713 10712 10709 ] final -120.24 input   66.30 | X-H torsion
[ 10763 10752 10751 10750 ] final  176.52 input  -60.55 | X-H torsion
[ 11005 11000 10999 10996 ] final  -27.81 input  -57.11 | X-H torsion

> <Gold.Protein.ActiveResidues>
 VAL166  LYS551  ARG553  GLY616  TRP617  ASP618  TYR619  PRO620  LYS621  CYS622 
 ASP623  PHE694  ASN695  SER759  ASP760  ASP761  ALA762  ILE779  LEU786  VAL792 
 PHE793  MET794  SER795  GLU796  ALA797  LYS798  CYS799  TRP800  GLU811  SER814 

> <Gold.Protein.RotatedAtoms>
  152.4013  133.6822  159.6318 H   0  0  0  0  0  0  0  0  0  0  0  0  # atno 6907 bound_to 6896
  150.7904  133.8786  159.3288 H   0  0  0  0  0  0  0  0  0  0  0  0  # atno 6908 bound_to 6896
  151.6551  135.0998  160.0220 H   0  0  0  0  0  0  0  0  0  0  0  0  # atno 6909 bound_to 6896
  146.0453  140.6555  142.9068 H   0  0  0  0  0  0  0  0  0  0  0  0  # atno 7974 bound_to 7965
  155.1522  140.3276  155.4429 H   0  0  0  0  0  0  0  0  0  0  0  0  # atno 8008 bound_to 7997
  156.2570  140.1975  156.6583 H   0  0  0  0  0  0  0  0  0  0  0  0  # atno 8009 bound_to 7997
  154.6465  140.0563  156.9893 H   0  0  0  0  0  0  0  0  0  0  0  0  # atno 8010 bound_to 7997
  139.9056  144.6303  150.8591 H   0  0  0  0  0  0  0  0  0  0  0  0  # atno 10167 bound_to 10162
  156.1243  130.6347  150.9516 H   0  0  0  0  0  0  0  0  0  0  0  0  # atno 10718 bound_to 10713
  154.4822  135.2775  155.1562 H   0  0  0  0  0  0  0  0  0  0  0  0  # atno 10763 bound_to 10752
  154.3267  135.6198  153.5536 H   0  0  0  0  0  0  0  0  0  0  0  0  # atno 10764 bound_to 10752
  152.9877  135.5755  154.5225 H   0  0  0  0  0  0  0  0  0  0  0  0  # atno 10765 bound_to 10752
  140.9152  133.7434  156.0725 H   0  0  0  0  0  0  0  0  0  0  0  0  # atno 11005 bound_to 11000
  144.7094  140.3982  143.7092 LP  0  0  0  0  0  0  0  0  0  0  0  0  # atno 17320 bound_to 7965
  145.6817  139.1620  143.2697 LP  0  0  0  0  0  0  0  0  0  0  0  0  # atno 17321 bound_to 7965
  140.7697  143.3404  151.2220 LP  0  0  0  0  0  0  0  0  0  0  0  0  # atno 17342 bound_to 10162
  139.6987  143.9569  152.2895 LP  0  0  0  0  0  0  0  0  0  0  0  0  # atno 17343 bound_to 10162
  157.6425  131.0908  150.8221 LP  0  0  0  0  0  0  0  0  0  0  0  0  # atno 17370 bound_to 10713
  156.8313  130.5017  149.5331 LP  0  0  0  0  0  0  0  0  0  0  0  0  # atno 17371 bound_to 10713
  140.8059  134.3456  157.5426 LP  0  0  0  0  0  0  0  0  0  0  0  0  # atno 17394 bound_to 11000
  139.8765  134.9225  156.3302 LP  0  0  0  0  0  0  0  0  0  0  0  0  # atno 17395 bound_to 11000

$$$$
