AV-unprocessed.smi:893|AV-procd|sdf|4066|dock2
  -GOLD-   22720 1553D 1   1.00000     0.00000
 Structure written by MMmdl.
 27 28  0  0  0  0  0  0  0  0  1 V2000
  149.7343  139.9886  154.3463 C   0  0  0  0  0  0  0  0  0  0  0  0
  150.1483  141.0761  155.3501 C   0  0  0  0  0  0  0  0  0  0  0  0
  150.7557  140.5244  156.6620 C   0  0  1  0  0  0  0  0  0  0  0  0
  151.3532  141.6129  157.5347 C   0  0  0  0  0  0  0  0  0  0  0  0
  152.0604  141.4756  158.7662 C   0  0  0  0  0  0  0  0  0  0  0  0
  152.4488  142.6330  159.2748 N   0  0  0  0  0  0  0  0  0  0  0  0
  152.0073  143.5511  158.3926 N   0  0  0  0  0  0  0  0  0  0  0  0
  152.2631  144.9547  158.6353 C   0  0  0  0  0  0  0  0  0  0  0  0
  151.3425  142.9671  157.3368 C   0  0  0  0  0  0  0  0  0  0  0  0
  149.7950  139.6979  157.3802 N   0  0  0  0  0  0  0  0  0  0  0  0
  150.2091  138.4336  157.5397 C   0  0  0  0  0  0  0  0  0  0  0  0
  149.5978  137.5411  158.1220 O   0  0  0  0  0  0  0  0  0  0  0  0
  151.4007  138.3148  156.9469 N   0  0  0  0  0  0  0  0  0  0  0  0
  151.8071  139.4542  156.3893 C   0  0  0  0  0  0  0  0  0  0  0  0
  152.8479  139.6328  155.7579 O   0  0  0  0  0  0  0  0  0  0  0  0
  149.3177  140.4361  153.4439 H   0  0  0  0  0  0  0  0  0  0  0  0
  148.9762  139.3260  154.7643 H   0  0  0  0  0  0  0  0  0  0  0  0
  150.5861  139.3777  154.0471 H   0  0  0  0  0  0  0  0  0  0  0  0
  150.8626  141.7427  154.8636 H   0  0  0  0  0  0  0  0  0  0  0  0
  149.2770  141.6916  155.5784 H   0  0  0  0  0  0  0  0  0  0  0  0
  152.3021  140.5709  159.3044 H   0  0  0  0  0  0  0  0  0  0  0  0
  151.8830  145.5535  157.8070 H   0  0  0  0  0  0  0  0  0  0  0  0
  153.3363  145.1234  158.7308 H   0  0  0  0  0  0  0  0  0  0  0  0
  151.7677  145.2663  159.5553 H   0  0  0  0  0  0  0  0  0  0  0  0
  150.9208  143.5555  156.5351 H   0  0  0  0  0  0  0  0  0  0  0  0
  148.9189  140.0577  157.7301 H   0  0  0  0  0  0  0  0  0  0  0  0
  151.9277  137.4543  156.9144 H   0  0  0  0  0  0  0  0  0  0  0  0
  1  2  1  0  0  0  0
  1 16  1  0  0  0  0
  1 17  1  0  0  0  0
  1 18  1  0  0  0  0
  2  3  1  0  0  0  0
  2 19  1  0  0  0  0
  2 20  1  0  0  0  0
  3 14  1  0  0  0  0
  3  4  1  0  0  0  0
  3 10  1  0  0  0  0
  4  9  2  0  0  0  0
  4  5  1  0  0  0  0
  5  6  2  0  0  0  0
  5 21  1  0  0  0  0
  6  7  1  0  0  0  0
  7  8  1  0  0  0  0
  7  9  1  0  0  0  0
  8 22  1  0  0  0  0
  8 23  1  0  0  0  0
  8 24  1  0  0  0  0
  9 25  1  0  0  0  0
 10 11  1  0  0  0  0
 10 26  1  0  0  0  0
 11 12  2  0  0  0  0
 11 13  1  0  0  0  0
 13 14  1  0  0  0  0
 13 27  1  0  0  0  0
 14 15  2  0  0  0  0
M  END
> <s_m_source_file>
AV-unprocessed.smi

> <i_m_source_file_index>
893

> <i_lp_mmshare_version>
43012

> <i_f3d_flags>
0

> <s_epik_input>
Tz1DMVtOSF1DKD1PKVtOSF1bQ0BAXTEoW0NIMl1bQ0gzXSljMltjSF1ubihbQ0gzXSlbY0hdMg==

> <s_epik_cmdline>
J2VwaWtfcHl0aG9uJywgJy1waCcsICc3LjAnLCAnLXRuJywgJzgnLCAnLW1hJywgJzIwMCcsICctbWV0YWxfYmluZGluZycsICctaW1hZScsICc8aW5maWxlLm1hZT4nLCAnLW9tYWUnLCAnPG91dGZpbGUubWFlPic=

> <r_lp_tautomer_probability>
1

> <r_epik_Ionization_Penalty>
0.0236181

> <r_epik_Ionization_Penalty_Charging>
0

> <r_epik_Ionization_Penalty_Neutral>
0.0236181

> <r_epik_State_Penalty>
0.0189572

> <r_epik_Charging_Adjusted_Penalty>
0.0189572

> <i_epik_Tot_Q>
0

> <i_epik_Tot_abs_Q>
0

> <r_epik_Metal_State_Penalty>
0.411796

> <b_epik_Metal_Only>
0

> <s_lp_Force_Field>
OPLS_2005

> <r_lp_Energy>
15.567

> <b_lp_Chiralities_Consistent>
1

> <s_lp_Variant>
AV-unprocessed.smi:893-1

> <Gold.Version>
5.8.1

> <Gold.Id.Protein>
6NUR|6NUR_protein|mol2

> <Gold.PLP.Fitness>
33.1605

> <Gold.PLP.PLP>
-27.3129

> <Gold.PLP.part.hbond>
-1.0000

> <Gold.PLP.part.metal>
0.0000

> <Gold.PLP.part.buried>
-4.0911

> <Gold.PLP.part.nonpolar>
-22.5481

> <Gold.PLP.part.repulsive>
0.1174

> <Gold.PLP.ligand.clash>
0.0000

> <Gold.PLP.ligand.torsion>
0.1625

> <Gold.PLP.Chemscore.Hbond>
1.0000

> <Gold.PLP.Chemscore.CHOScore>
1.0000

> <Gold.PLP.Chemscore.Metal>
0.0000

> <Gold.Chemscore.Hbonds>
donor molecule, donor type, donor heavy atom, donor atom, acceptor molecule, acceptor atom, score
      P1  H  7997  8010       L1    15  1.00
      L1  C     9    25       P1  8028  1.00

> <Gold.PLP.Chemscore.Internal.Correction>
0.1725

> <Gold.Rescore>
     Score         DG    S(hbond)    S(metal)    S(lipo)     H(rot)  DE(clash)    DE(int)     intcor
     12.47     -12.57       1.00        0.00      60.41       1.30       0.01       0.09       ----

> <Gold.Chemscore.Fitness>
12.4691

> <Gold.Chemscore.DG>
-12.5696

> <Gold.Chemscore.ZeroCoef>
-5.4800

> <Gold.Chemscore.Hbond>
0.9992

> <Gold.Chemscore.Metal>
0.0000

> <Gold.Chemscore.Lipo>
60.4148

> <Gold.Chemscore.Internal_Hbond>
0.0000

> <Gold.Chemscore.DEClash>
0.0073

> <Gold.Chemscore.DEInternal>
0.0932

> <Gold.Chemscore.Rot>
1.2955

> <Gold.Chemscore.Internal.Correction>
   9.000000E+99

> <Gold.Chemscore.Hbonds>
donor molecule, donor type, donor heavy atom, donor atom, acceptor molecule, acceptor atom, score
      P1  H  7997  8010       L1    15  0.99

> <Gold.Chemscore.Hbond.Weighted>
-3.3374

> <Gold.Chemscore.Metal.Weighted>
-0.0000

> <Gold.Chemscore.Lipo.Weighted>
-7.0685

> <Gold.Chemscore.Internal_Hbond.Weighted>
0.0000

> <Gold.Chemscore.DEClash.Weighted>
0.0073

> <Gold.Chemscore.DEInternal.Weighted>
0.0932

> <Gold.Chemscore.Rot.Weighted>
3.3164

> <Gold.Chemscore.Internal.Correction.Weighted>
   9.000000E+99

> <Gold.Protein.RotatedTorsions>
[ 6907 6896 6895 6894 ] final -119.52 input  -60.11 | X-H torsion
[ 7974 7965 7964 7962 ] final -111.44 input  175.53 | X-H torsion
[ 8008 7997 7996 7995 ] final  102.51 input   59.86 | X-H torsion
[ 10167 10162 10161 10158 ] final  -68.60 input  -65.29 | X-H torsion
[ 10718 10713 10712 10709 ] final  -54.50 input   66.30 | X-H torsion
[ 10763 10752 10751 10750 ] final   30.85 input  -60.55 | X-H torsion
[ 11005 11000 10999 10996 ] final   32.44 input  -57.11 | X-H torsion

> <Gold.Protein.ActiveResidues>
 VAL166  LYS551  ARG553  GLY616  TRP617  ASP618  TYR619  PRO620  LYS621  CYS622 
 ASP623  PHE694  ASN695  SER759  ASP760  ASP761  ALA762  ILE779  LEU786  VAL792 
 PHE793  MET794  SER795  GLU796  ALA797  LYS798  CYS799  TRP800  GLU811  SER814 

> <Gold.Protein.RotatedAtoms>
  150.8312  133.8088  159.3097 H   0  0  0  0  0  0  0  0  0  0  0  0  # atno 6907 bound_to 6896
  151.5817  135.1056  160.0028 H   0  0  0  0  0  0  0  0  0  0  0  0  # atno 6908 bound_to 6896
  152.4391  133.7374  159.6678 H   0  0  0  0  0  0  0  0  0  0  0  0  # atno 6909 bound_to 6896
  145.1561  140.8854  143.3618 H   0  0  0  0  0  0  0  0  0  0  0  0  # atno 7974 bound_to 7965
  156.1399  140.3180  155.8479 H   0  0  0  0  0  0  0  0  0  0  0  0  # atno 8008 bound_to 7997
  155.4174  140.0510  157.3045 H   0  0  0  0  0  0  0  0  0  0  0  0  # atno 8009 bound_to 7997
  154.4967  140.2113  155.9443 H   0  0  0  0  0  0  0  0  0  0  0  0  # atno 8010 bound_to 7997
  140.5495  143.2312  151.6938 H   0  0  0  0  0  0  0  0  0  0  0  0  # atno 10167 bound_to 10162
  156.1446  130.4153  150.0046 H   0  0  0  0  0  0  0  0  0  0  0  0  # atno 10718 bound_to 10713
  153.0348  135.6454  154.1108 H   0  0  0  0  0  0  0  0  0  0  0  0  # atno 10763 bound_to 10752
  154.0824  135.2872  155.3289 H   0  0  0  0  0  0  0  0  0  0  0  0  # atno 10764 bound_to 10752
  154.6521  135.5422  153.7978 H   0  0  0  0  0  0  0  0  0  0  0  0  # atno 10765 bound_to 10752
  140.2734  134.3055  155.7821 H   0  0  0  0  0  0  0  0  0  0  0  0  # atno 11005 bound_to 11000
  145.0380  139.3284  143.5991 LP  0  0  0  0  0  0  0  0  0  0  0  0  # atno 17320 bound_to 7965
  146.3488  139.9742  142.8703 LP  0  0  0  0  0  0  0  0  0  0  0  0  # atno 17321 bound_to 7965
  139.5021  144.3840  152.0347 LP  0  0  0  0  0  0  0  0  0  0  0  0  # atno 17342 bound_to 10162
  140.2956  144.3704  150.6075 LP  0  0  0  0  0  0  0  0  0  0  0  0  # atno 17343 bound_to 10162
  156.7921  130.9260  151.3646 LP  0  0  0  0  0  0  0  0  0  0  0  0  # atno 17370 bound_to 10713
  157.6605  130.8962  149.9820 LP  0  0  0  0  0  0  0  0  0  0  0  0  # atno 17371 bound_to 10713
  141.2174  133.7481  156.9370 LP  0  0  0  0  0  0  0  0  0  0  0  0  # atno 17394 bound_to 11000
  140.1351  134.9330  157.2390 LP  0  0  0  0  0  0  0  0  0  0  0  0  # atno 17395 bound_to 11000

$$$$
