AV-unprocessed.smi:1554|AV-procd|sdf|6243|dock1
  -GOLD-   22720 6423D 1   1.00000     0.00000
 Structure written by MMmdl.
 47 49  0  0  0  0  0  0  0  0  1 V2000
  153.1182  142.9747  160.9519 C   0  0  0  0  0  0  0  0  0  0  0  0
  152.4428  142.6013  159.6440 C   0  0  0  0  0  0  0  0  0  0  0  0
  152.7765  141.3763  159.0235 C   0  0  0  0  0  0  0  0  0  0  0  0
  152.1699  140.9912  157.8077 C   0  0  0  0  0  0  0  0  0  0  0  0
  152.3410  139.8525  157.0392 N   0  0  0  0  0  0  0  0  0  0  0  0
  151.5020  140.0803  156.0328 C   0  0  0  0  0  0  0  0  0  0  0  0
  150.8081  141.2343  156.0570 N   0  0  0  0  0  0  0  0  0  0  0  0
  149.8471  141.6957  155.0705 C   0  0  0  0  0  0  0  0  0  0  0  0
  148.7959  140.6254  154.7194 C   0  0  1  0  0  0  0  0  0  0  0  0
  149.3886  139.6397  153.8965 O   0  0  0  0  0  0  0  0  0  0  0  0
  148.2492  139.9367  155.9860 C   0  0  0  0  0  0  0  0  0  0  0  0
  147.1681  140.6439  156.6755 N   0  0  0  0  0  0  0  0  0  0  0  0
  147.6371  141.8124  157.4176 C   0  0  0  0  0  0  0  0  0  0  0  0
  146.4899  142.5183  158.1602 C   0  0  0  0  0  0  0  0  0  0  0  0
  145.8358  141.5934  159.0223 O   0  0  0  0  0  0  0  0  0  0  0  0
  145.3166  140.4612  158.3309 C   0  0  2  0  0  0  0  0  0  0  0  0
  144.6304  139.5462  159.3506 C   0  0  0  0  0  0  0  0  0  0  0  0
  146.4696  139.7516  157.5948 C   0  0  0  0  0  0  0  0  0  0  0  0
  151.2163  141.8744  157.2223 C   0  0  0  0  0  0  0  0  0  0  0  0
  150.8755  143.0953  157.8306 C   0  0  0  0  0  0  0  0  0  0  0  0
  151.4866  143.4622  159.0478 C   0  0  0  0  0  0  0  0  0  0  0  0
  151.1051  144.7795  159.6999 C   0  0  0  0  0  0  0  0  0  0  0  0
  153.8901  142.2532  161.2210 H   0  0  0  0  0  0  0  0  0  0  0  0
  152.3888  143.0044  161.7615 H   0  0  0  0  0  0  0  0  0  0  0  0
  153.5912  143.9538  160.8748 H   0  0  0  0  0  0  0  0  0  0  0  0
  153.5028  140.7191  159.4786 H   0  0  0  0  0  0  0  0  0  0  0  0
  151.3856  139.3675  155.2296 H   0  0  0  0  0  0  0  0  0  0  0  0
  149.3653  142.5988  155.4476 H   0  0  0  0  0  0  0  0  0  0  0  0
  150.3961  141.9889  154.1749 H   0  0  0  0  0  0  0  0  0  0  0  0
  147.9925  141.1047  154.1613 H   0  0  0  0  0  0  0  0  0  0  0  0
  149.3696  139.9484  153.0032 H   0  0  0  0  0  0  0  0  0  0  0  0
  147.9033  138.9413  155.7028 H   0  0  0  0  0  0  0  0  0  0  0  0
  149.0696  139.7740  156.6867 H   0  0  0  0  0  0  0  0  0  0  0  0
  148.4011  141.5125  158.1365 H   0  0  0  0  0  0  0  0  0  0  0  0
  148.1038  142.5309  156.7457 H   0  0  0  0  0  0  0  0  0  0  0  0
  146.8759  143.3472  158.7539 H   0  0  0  0  0  0  0  0  0  0  0  0
  145.7725  142.9374  157.4530 H   0  0  0  0  0  0  0  0  0  0  0  0
  144.5732  140.7993  157.6067 H   0  0  0  0  0  0  0  0  0  0  0  0
  144.2059  138.6667  158.8659 H   0  0  0  0  0  0  0  0  0  0  0  0
  143.8201  140.0685  159.8596 H   0  0  0  0  0  0  0  0  0  0  0  0
  145.3344  139.2036  160.1094 H   0  0  0  0  0  0  0  0  0  0  0  0
  146.0725  138.8967  157.0459 H   0  0  0  0  0  0  0  0  0  0  0  0
  147.1743  139.3514  158.3258 H   0  0  0  0  0  0  0  0  0  0  0  0
  150.1448  143.7406  157.3656 H   0  0  0  0  0  0  0  0  0  0  0  0
  150.3173  145.2858  159.1414 H   0  0  0  0  0  0  0  0  0  0  0  0
  151.9663  145.4464  159.7447 H   0  0  0  0  0  0  0  0  0  0  0  0
  150.7413  144.6134  160.7140 H   0  0  0  0  0  0  0  0  0  0  0  0
  1  2  1  0  0  0  0
  1 23  1  0  0  0  0
  1 24  1  0  0  0  0
  1 25  1  0  0  0  0
  2 21  1  0  0  0  0
  2  3  2  0  0  0  0
  3  4  1  0  0  0  0
  3 26  1  0  0  0  0
  4 19  2  0  0  0  0
  4  5  1  0  0  0  0
  5  6  2  0  0  0  0
  6  7  1  0  0  0  0
  6 27  1  0  0  0  0
  7  8  1  0  0  0  0
  7 19  1  0  0  0  0
  8  9  1  0  0  0  0
  8 28  1  0  0  0  0
  8 29  1  0  0  0  0
  9 10  1  0  0  0  0
  9 11  1  0  0  0  0
  9 30  1  0  0  0  0
 10 31  1  0  0  0  0
 11 12  1  0  0  0  0
 11 32  1  0  0  0  0
 11 33  1  0  0  0  0
 12 18  1  0  0  0  0
 12 13  1  0  0  0  0
 13 14  1  0  0  0  0
 13 34  1  0  0  0  0
 13 35  1  0  0  0  0
 14 15  1  0  0  0  0
 14 36  1  0  0  0  0
 14 37  1  0  0  0  0
 15 16  1  0  0  0  0
 16 17  1  0  0  0  0
 16 18  1  0  0  0  0
 16 38  1  0  0  0  0
 17 39  1  0  0  0  0
 17 40  1  0  0  0  0
 17 41  1  0  0  0  0
 18 42  1  0  0  0  0
 18 43  1  0  0  0  0
 19 20  1  0  0  0  0
 20 21  2  0  0  0  0
 20 44  1  0  0  0  0
 21 22  1  0  0  0  0
 22 45  1  0  0  0  0
 22 46  1  0  0  0  0
 22 47  1  0  0  0  0
M  END
> <s_m_source_file>
AV-unprocessed.smi

> <i_m_source_file_index>
1554

> <i_lp_mmshare_version>
43012

> <i_f3d_flags>
0

> <s_epik_input>
W0NIM11jKFtjSF0xKWMoW0NIM10pW2NIXWMoYzEyKW4oW2NIXW4yKVtDSDJdW0NASF0oW09IXSlbQ0gyXU4zW0NIMl1bQ0gyXU9bQ0BASF0oW0NIM10pW0NIMl0z

> <s_epik_cmdline>
J2VwaWtfcHl0aG9uJywgJy1waCcsICc3LjAnLCAnLXRuJywgJzgnLCAnLW1hJywgJzIwMCcsICctbWV0YWxfYmluZGluZycsICctaW1hZScsICc8aW5maWxlLm1hZT4nLCAnLW9tYWUnLCAnPG91dGZpbGUubWFlPic=

> <r_epik_Ionization_Penalty>
0.345108

> <r_epik_Ionization_Penalty_Charging>
0

> <r_epik_Ionization_Penalty_Neutral>
0.345108

> <r_epik_State_Penalty>
0.314544

> <r_epik_Charging_Adjusted_Penalty>
0.314544

> <i_epik_Tot_Q>
0

> <i_epik_Tot_abs_Q>
0

> <r_epik_Metal_State_Penalty>
0.239719

> <b_epik_Metal_Only>
0

> <s_lp_Force_Field>
OPLS_2005

> <r_lp_Energy>
29.2504

> <b_lp_Chiralities_Consistent>
1

> <s_lp_Variant>
AV-unprocessed.smi:1554-4

> <Gold.Version>
5.8.1

> <Gold.Id.Protein>
6NUR|6NUR_protein|mol2

> <Gold.PLP.Fitness>
45.2497

> <Gold.PLP.PLP>
-38.1246

> <Gold.PLP.part.hbond>
-3.0329

> <Gold.PLP.part.metal>
0.0000

> <Gold.PLP.part.buried>
-4.8274

> <Gold.PLP.part.nonpolar>
-30.0647

> <Gold.PLP.part.repulsive>
0.0145

> <Gold.PLP.ligand.clash>
0.0000

> <Gold.PLP.ligand.torsion>
0.5770

> <Gold.PLP.Chemscore.Hbond>
2.7360

> <Gold.PLP.Chemscore.CHOScore>
0.0000

> <Gold.PLP.Chemscore.Metal>
0.0000

> <Gold.Chemscore.Hbonds>
donor molecule, donor type, donor heavy atom, donor atom, acceptor molecule, acceptor atom, score
      L1  H    10    31       P1  7957  1.00
      P1  H  6934  6946       L1    15  0.69
      P1  H  7997  8008       L1     5  0.79

> <Gold.PLP.Chemscore.Internal.Correction>
0.0711

> <Gold.Rescore>
     Score         DG    S(hbond)    S(metal)    S(lipo)     H(rot)  DE(clash)    DE(int)     intcor
     18.47     -19.23       2.32        0.00      94.72       1.98       0.22       0.53       ----

> <Gold.Chemscore.Fitness>
18.4735

> <Gold.Chemscore.DG>
-19.2270

> <Gold.Chemscore.ZeroCoef>
-5.4800

> <Gold.Chemscore.Hbond>
2.3191

> <Gold.Chemscore.Metal>
0.0000

> <Gold.Chemscore.Lipo>
94.7189

> <Gold.Chemscore.Internal_Hbond>
0.0000

> <Gold.Chemscore.DEClash>
0.2211

> <Gold.Chemscore.DEInternal>
0.5324

> <Gold.Chemscore.Rot>
1.9848

> <Gold.Chemscore.Internal.Correction>
   9.000000E+99

> <Gold.Chemscore.Hbonds>
donor molecule, donor type, donor heavy atom, donor atom, acceptor molecule, acceptor atom, score
      L1  H    10    31       P1  7957  1.00
      P1  H  6934  6946       L1    15  0.35
      P1  H  7997  8008       L1     5  0.14

> <Gold.Chemscore.Hbond.Weighted>
-7.7459

> <Gold.Chemscore.Metal.Weighted>
-0.0000

> <Gold.Chemscore.Lipo.Weighted>
-11.0821

> <Gold.Chemscore.Internal_Hbond.Weighted>
0.0000

> <Gold.Chemscore.DEClash.Weighted>
0.2211

> <Gold.Chemscore.DEInternal.Weighted>
0.5324

> <Gold.Chemscore.Rot.Weighted>
5.0810

> <Gold.Chemscore.Internal.Correction.Weighted>
   9.000000E+99

> <Gold.Protein.RotatedTorsions>
[ 6907 6896 6895 6894 ] final   43.61 input  -60.11 | X-H torsion
[ 7974 7965 7964 7962 ] final   -2.52 input  175.53 | X-H torsion
[ 8008 7997 7996 7995 ] final  -55.96 input   59.86 | X-H torsion
[ 10167 10162 10161 10158 ] final   99.11 input  -65.29 | X-H torsion
[ 10718 10713 10712 10709 ] final   31.85 input   66.30 | X-H torsion
[ 10763 10752 10751 10750 ] final  119.51 input  -60.55 | X-H torsion
[ 11005 11000 10999 10996 ] final  -57.32 input  -57.11 | X-H torsion

> <Gold.Protein.ActiveResidues>
 VAL166  LYS551  ARG553  GLY616  TRP617  ASP618  TYR619  PRO620  LYS621  CYS622 
 ASP623  PHE694  ASN695  SER759  ASP760  ASP761  ALA762  ILE779  LEU786  VAL792 
 PHE793  MET794  SER795  GLU796  ALA797  LYS798  CYS799  TRP800  GLU811  SER814 

> <Gold.Protein.RotatedAtoms>
  152.2224  134.8401  160.0484 H   0  0  0  0  0  0  0  0  0  0  0  0  # atno 6907 bound_to 6896
  151.9179  133.3573  159.3895 H   0  0  0  0  0  0  0  0  0  0  0  0  # atno 6908 bound_to 6896
  150.7003  134.4590  159.5416 H   0  0  0  0  0  0  0  0  0  0  0  0  # atno 6909 bound_to 6896
  146.2403  140.1584  142.8333 H   0  0  0  0  0  0  0  0  0  0  0  0  # atno 7974 bound_to 7965
  154.4213  140.1141  156.5560 H   0  0  0  0  0  0  0  0  0  0  0  0  # atno 8008 bound_to 7997
  155.6360  140.3496  155.4680 H   0  0  0  0  0  0  0  0  0  0  0  0  # atno 8009 bound_to 7997
  155.9909  140.1179  157.0628 H   0  0  0  0  0  0  0  0  0  0  0  0  # atno 8010 bound_to 7997
  139.7647  144.6942  151.0241 H   0  0  0  0  0  0  0  0  0  0  0  0  # atno 10167 bound_to 10162
  157.2777  130.7239  149.6539 H   0  0  0  0  0  0  0  0  0  0  0  0  # atno 10718 bound_to 10713
  153.5841  135.3478  155.2886 H   0  0  0  0  0  0  0  0  0  0  0  0  # atno 10763 bound_to 10752
  154.8663  135.4189  154.2588 H   0  0  0  0  0  0  0  0  0  0  0  0  # atno 10764 bound_to 10752
  153.3381  135.7048  153.6961 H   0  0  0  0  0  0  0  0  0  0  0  0  # atno 10765 bound_to 10752
  141.1159  133.6610  156.4752 H   0  0  0  0  0  0  0  0  0  0  0  0  # atno 11005 bound_to 11000
  145.0110  140.8714  143.5224 LP  0  0  0  0  0  0  0  0  0  0  0  0  # atno 17320 bound_to 7965
  145.1617  139.2454  143.5388 LP  0  0  0  0  0  0  0  0  0  0  0  0  # atno 17321 bound_to 7965
  140.7810  143.4656  151.0217 LP  0  0  0  0  0  0  0  0  0  0  0  0  # atno 17342 bound_to 10162
  139.8341  143.7651  152.3180 LP  0  0  0  0  0  0  0  0  0  0  0  0  # atno 17343 bound_to 10162
  155.9664  130.4347  150.5063 LP  0  0  0  0  0  0  0  0  0  0  0  0  # atno 17370 bound_to 10713
  157.3000  131.0643  151.2075 LP  0  0  0  0  0  0  0  0  0  0  0  0  # atno 17371 bound_to 10713
  140.4645  134.6810  157.5101 LP  0  0  0  0  0  0  0  0  0  0  0  0  # atno 17394 bound_to 11000
  140.0082  134.6731  155.9422 LP  0  0  0  0  0  0  0  0  0  0  0  0  # atno 17395 bound_to 11000

$$$$
