AV-unprocessed.smi:108|AV-procd|sdf|1030|dock1
  -GOLD-   2262018 33D 1   1.00000     0.00000
 Structure written by MMmdl.
 59 62  0  0  0  0  0  0  0  0  1 V2000
  148.7813  137.7675  159.8759 O   0  0  0  0  0  0  0  0  0  0  0  0
  148.6358  137.6137  158.6612 C   0  0  0  0  0  0  0  0  0  0  0  0
  149.7418  138.1054  157.7024 C   0  0  0  0  0  0  0  0  0  0  0  0
  150.9117  138.6845  158.3987 N   0  0  0  0  0  0  0  0  0  0  0  0
  151.7426  137.8235  159.1562 C   0  0  0  0  0  0  0  0  0  0  0  0
  151.4993  136.6194  159.2514 O   0  0  0  0  0  0  0  0  0  0  0  0
  152.8854  138.4603  159.7984 C   0  0  0  0  0  0  0  0  0  0  0  0
  153.7618  137.7125  160.4901 F   0  0  0  0  0  0  0  0  0  0  0  0
  153.0890  139.7896  159.6955 C   0  0  0  0  0  0  0  0  0  0  0  0
  152.2342  140.6332  159.0047 N   0  0  0  0  0  0  0  0  0  0  0  0
  152.5045  142.1219  158.8399 C   0  0  1  0  0  0  0  0  0  0  0  0
  151.3753  143.0291  159.3467 C   0  0  0  0  0  0  0  0  0  0  0  0
  151.8370  143.4140  160.7498 C   0  0  0  0  0  0  0  0  0  0  0  0
  153.1894  142.7144  160.9228 C   0  0  0  0  0  0  0  0  0  0  0  0
  153.6254  142.4532  159.5958 O   0  0  0  0  0  0  0  0  0  0  0  0
  151.1409  140.0782  158.3016 C   0  0  0  0  0  0  0  0  0  0  0  0
  150.3972  140.7937  157.6265 O   0  0  0  0  0  0  0  0  0  0  0  0
  147.5252  137.0348  158.1403 N   0  0  0  0  0  0  0  0  0  0  0  0
  147.3910  136.8270  156.6884 C   0  0  0  0  0  0  0  0  0  0  0  0
  146.0850  137.4177  156.1144 C   0  0  0  0  0  0  0  0  0  0  0  0
  146.2052  137.8640  154.6670 C   0  0  0  0  0  0  0  0  0  0  0  0
  146.9098  139.0435  154.3431 C   0  0  0  0  0  0  0  0  0  0  0  0
  147.0370  139.4452  152.9996 C   0  0  0  0  0  0  0  0  0  0  0  0
  146.4585  138.6710  151.9752 C   0  0  0  0  0  0  0  0  0  0  0  0
  145.7532  137.4946  152.2949 C   0  0  0  0  0  0  0  0  0  0  0  0
  145.6263  137.0916  153.6385 C   0  0  0  0  0  0  0  0  0  0  0  0
  146.3845  136.5784  158.9535 C   0  0  0  0  0  0  0  0  0  0  0  0
  146.7571  135.7560  160.1828 C   0  0  0  0  0  0  0  0  0  0  0  0
  147.1269  134.3948  160.0822 C   0  0  0  0  0  0  0  0  0  0  0  0
  147.4638  133.6628  161.2371 C   0  0  0  0  0  0  0  0  0  0  0  0
  147.4397  134.2853  162.4994 C   0  0  0  0  0  0  0  0  0  0  0  0
  147.0809  135.6424  162.6057 C   0  0  0  0  0  0  0  0  0  0  0  0
  146.7426  136.3745  161.4510 C   0  0  0  0  0  0  0  0  0  0  0  0
  150.0544  137.2831  157.0585 H   0  0  0  0  0  0  0  0  0  0  0  0
  149.3128  138.8361  157.0156 H   0  0  0  0  0  0  0  0  0  0  0  0
  153.9706  140.1866  160.1737 H   0  0  0  0  0  0  0  0  0  0  0  0
  152.6816  142.2685  157.7732 H   0  0  0  0  0  0  0  0  0  0  0  0
  151.3441  143.9181  158.7154 H   0  0  0  0  0  0  0  0  0  0  0  0
  150.3954  142.5552  159.2939 H   0  0  0  0  0  0  0  0  0  0  0  0
  151.9540  144.4959  160.8197 H   0  0  0  0  0  0  0  0  0  0  0  0
  151.1272  143.1066  161.5181 H   0  0  0  0  0  0  0  0  0  0  0  0
  153.9106  143.3271  161.4641 H   0  0  0  0  0  0  0  0  0  0  0  0
  153.0760  141.7742  161.4639 H   0  0  0  0  0  0  0  0  0  0  0  0
  148.2408  137.2701  156.1677 H   0  0  0  0  0  0  0  0  0  0  0  0
  147.4477  135.7621  156.4566 H   0  0  0  0  0  0  0  0  0  0  0  0
  145.2856  136.6800  156.1919 H   0  0  0  0  0  0  0  0  0  0  0  0
  145.7633  138.2666  156.7190 H   0  0  0  0  0  0  0  0  0  0  0  0
  147.3623  139.6381  155.1237 H   0  0  0  0  0  0  0  0  0  0  0  0
  147.5795  140.3464  152.7548 H   0  0  0  0  0  0  0  0  0  0  0  0
  146.5565  138.9793  150.9447 H   0  0  0  0  0  0  0  0  0  0  0  0
  145.3106  136.9002  151.5093 H   0  0  0  0  0  0  0  0  0  0  0  0
  145.0890  136.1856  153.8778 H   0  0  0  0  0  0  0  0  0  0  0  0
  145.7980  137.4306  159.2981 H   0  0  0  0  0  0  0  0  0  0  0  0
  145.6890  136.0123  158.3334 H   0  0  0  0  0  0  0  0  0  0  0  0
  147.1553  133.8989  159.1232 H   0  0  0  0  0  0  0  0  0  0  0  0
  147.7413  132.6223  161.1535 H   0  0  0  0  0  0  0  0  0  0  0  0
  147.6985  133.7233  163.3846 H   0  0  0  0  0  0  0  0  0  0  0  0
  147.0650  136.1223  163.5734 H   0  0  0  0  0  0  0  0  0  0  0  0
  146.4678  137.4151  161.5433 H   0  0  0  0  0  0  0  0  0  0  0  0
  1  2  2  0  0  0  0
  2  3  1  0  0  0  0
  2 18  1  0  0  0  0
  3  4  1  0  0  0  0
  3 34  1  0  0  0  0
  3 35  1  0  0  0  0
  4 16  1  0  0  0  0
  4  5  1  0  0  0  0
  5  6  2  0  0  0  0
  5  7  1  0  0  0  0
  7  8  1  0  0  0  0
  7  9  2  0  0  0  0
  9 10  1  0  0  0  0
  9 36  1  0  0  0  0
 10 11  1  0  0  0  0
 10 16  1  0  0  0  0
 11 15  1  0  0  0  0
 11 12  1  0  0  0  0
 11 37  1  0  0  0  0
 12 13  1  0  0  0  0
 12 38  1  0  0  0  0
 12 39  1  0  0  0  0
 13 14  1  0  0  0  0
 13 40  1  0  0  0  0
 13 41  1  0  0  0  0
 14 15  1  0  0  0  0
 14 42  1  0  0  0  0
 14 43  1  0  0  0  0
 16 17  2  0  0  0  0
 18 19  1  0  0  0  0
 18 27  1  0  0  0  0
 19 20  1  0  0  0  0
 19 44  1  0  0  0  0
 19 45  1  0  0  0  0
 20 21  1  0  0  0  0
 20 46  1  0  0  0  0
 20 47  1  0  0  0  0
 21 26  1  0  0  0  0
 21 22  2  0  0  0  0
 22 23  1  0  0  0  0
 22 48  1  0  0  0  0
 23 24  2  0  0  0  0
 23 49  1  0  0  0  0
 24 25  1  0  0  0  0
 24 50  1  0  0  0  0
 25 26  2  0  0  0  0
 25 51  1  0  0  0  0
 26 52  1  0  0  0  0
 27 28  1  0  0  0  0
 27 53  1  0  0  0  0
 27 54  1  0  0  0  0
 28 33  1  0  0  0  0
 28 29  2  0  0  0  0
 29 30  1  0  0  0  0
 29 55  1  0  0  0  0
 30 31  2  0  0  0  0
 30 56  1  0  0  0  0
 31 32  1  0  0  0  0
 31 57  1  0  0  0  0
 32 33  2  0  0  0  0
 32 58  1  0  0  0  0
 33 59  1  0  0  0  0
M  END
> <s_m_source_file>
AV-unprocessed.smi

> <i_m_source_file_index>
108

> <i_lp_mmshare_version>
43012

> <i_f3d_flags>
0

> <s_epik_input>
W2NIXTFbY0hdW2NIXVtjSF1bY0hdYzFbQ0gyXVtDSDJdTihbQ0gyXWMyW2NIXVtjSF1bY0hdW2NIXVtjSF0yKUMoPU8pW0NIMl1uM2MoPU8pYyhGKVtjSF1uKGMzPU8pW0NAQEhdNFtDSDJdW0NIMl1bQ0gyXU80

> <s_epik_cmdline>
J2VwaWtfcHl0aG9uJywgJy1waCcsICc3LjAnLCAnLXRuJywgJzgnLCAnLW1hJywgJzIwMCcsICctbWV0YWxfYmluZGluZycsICctaW1hZScsICc8aW5maWxlLm1hZT4nLCAnLW9tYWUnLCAnPG91dGZpbGUubWFlPic=

> <r_lp_tautomer_probability>
1

> <r_epik_Ionization_Penalty>
5.46209e-09

> <r_epik_Ionization_Penalty_Charging>
4.22697e-09

> <r_epik_Ionization_Penalty_Neutral>
1.23512e-09

> <r_epik_State_Penalty>
-0

> <r_epik_Charging_Adjusted_Penalty>
4.22697e-09

> <i_epik_Tot_Q>
0

> <i_epik_Tot_abs_Q>
0

> <r_epik_Metal_State_Penalty>
-0

> <b_epik_Metal_Only>
0

> <s_epik_Chemistry_Notes>
This compound contains an acetal/aminal-like group ( X-CH(R)-Y where X, Y are N, S, or O) that may be acid/base labile, releasing an aldehyde.

> <s_lp_Force_Field>
OPLS_2005

> <r_lp_Energy>
38.0932

> <b_lp_Chiralities_Consistent>
1

> <s_lp_Variant>
AV-unprocessed.smi:108-2

> <Gold.Version>
5.8.1

> <Gold.Id.Protein>
6NUR|6NUR_protein|mol2

> <Gold.PLP.Fitness>
53.9467

> <Gold.PLP.PLP>
-51.4620

> <Gold.PLP.part.hbond>
-3.0000

> <Gold.PLP.part.metal>
0.0000

> <Gold.PLP.part.buried>
-5.9257

> <Gold.PLP.part.nonpolar>
-43.7508

> <Gold.PLP.part.repulsive>
0.0144

> <Gold.PLP.ligand.clash>
0.0000

> <Gold.PLP.ligand.torsion>
0.9083

> <Gold.PLP.Chemscore.Hbond>
1.2912

> <Gold.PLP.Chemscore.CHOScore>
0.0000

> <Gold.PLP.Chemscore.Metal>
0.0000

> <Gold.Chemscore.Hbonds>
donor molecule, donor type, donor heavy atom, donor atom, acceptor molecule, acceptor atom, score
      P1  H  6896  6907       L1     6  1.00
      P1  H  6931  6943       L1     1  0.21
      P1  H  6934  6947       L1     1  0.10

> <Gold.PLP.Chemscore.Internal.Correction>
0.4276

> <Gold.Rescore>
     Score         DG    S(hbond)    S(metal)    S(lipo)     H(rot)  DE(clash)    DE(int)     intcor
     13.88     -17.45       1.24        0.00     116.66       2.28       0.32       3.25       ----

> <Gold.Chemscore.Fitness>
13.8837

> <Gold.Chemscore.DG>
-17.4533

> <Gold.Chemscore.ZeroCoef>
-5.4800

> <Gold.Chemscore.Hbond>
1.2423

> <Gold.Chemscore.Metal>
0.0000

> <Gold.Chemscore.Lipo>
116.6638

> <Gold.Chemscore.Internal_Hbond>
0.0000

> <Gold.Chemscore.DEClash>
0.3202

> <Gold.Chemscore.DEInternal>
3.2494

> <Gold.Chemscore.Rot>
2.2756

> <Gold.Chemscore.Internal.Correction>
   9.000000E+99

> <Gold.Chemscore.Hbonds>
donor molecule, donor type, donor heavy atom, donor atom, acceptor molecule, acceptor atom, score
      P1  H  6896  6907       L1     6  0.95
      P1  H  6931  6943       L1     1  0.21
      P1  H  6934  6947       L1     1  0.09

> <Gold.Chemscore.Hbond.Weighted>
-4.1492

> <Gold.Chemscore.Metal.Weighted>
-0.0000

> <Gold.Chemscore.Lipo.Weighted>
-13.6497

> <Gold.Chemscore.Internal_Hbond.Weighted>
0.0000

> <Gold.Chemscore.DEClash.Weighted>
0.3202

> <Gold.Chemscore.DEInternal.Weighted>
3.2494

> <Gold.Chemscore.Rot.Weighted>
5.8255

> <Gold.Chemscore.Internal.Correction.Weighted>
   9.000000E+99

> <Gold.Protein.RotatedTorsions>
[ 6907 6896 6895 6894 ] final  -14.01 input  -60.11 | X-H torsion
[ 7974 7965 7964 7962 ] final -133.50 input  175.53 | X-H torsion
[ 8008 7997 7996 7995 ] final   35.51 input   59.86 | X-H torsion
[ 10167 10162 10161 10158 ] final   88.12 input  -65.29 | X-H torsion
[ 10718 10713 10712 10709 ] final   54.13 input   66.30 | X-H torsion
[ 10763 10752 10751 10750 ] final   52.76 input  -60.55 | X-H torsion
[ 11005 11000 10999 10996 ] final   25.83 input  -57.11 | X-H torsion

> <Gold.Protein.ActiveResidues>
 VAL166  LYS551  ARG553  GLY616  TRP617  ASP618  TYR619  PRO620  LYS621  CYS622 
 ASP623  PHE694  ASN695  SER759  ASP760  ASP761  ALA762  ILE779  LEU786  VAL792 
 PHE793  MET794  SER795  GLU796  ALA797  LYS798  CYS799  TRP800  GLU811  SER814 

> <Gold.Protein.RotatedAtoms>
  151.3460  135.0874  159.9386 H   0  0  0  0  0  0  0  0  0  0  0  0  # atno 6907 bound_to 6896
  152.5199  133.9400  159.7632 H   0  0  0  0  0  0  0  0  0  0  0  0  # atno 6908 bound_to 6896
  150.9766  133.6235  159.2759 H   0  0  0  0  0  0  0  0  0  0  0  0  # atno 6909 bound_to 6896
  144.9188  140.6988  143.4979 H   0  0  0  0  0  0  0  0  0  0  0  0  # atno 7974 bound_to 7965
  155.1723  140.3293  155.4390 H   0  0  0  0  0  0  0  0  0  0  0  0  # atno 8008 bound_to 7997
  156.2506  140.1941  156.6776 H   0  0  0  0  0  0  0  0  0  0  0  0  # atno 8009 bound_to 7997
  154.6329  140.0580  156.9740 H   0  0  0  0  0  0  0  0  0  0  0  0  # atno 8010 bound_to 7997
  139.8705  144.6495  150.8955 H   0  0  0  0  0  0  0  0  0  0  0  0  # atno 10167 bound_to 10162
  157.5229  130.8577  149.8583 H   0  0  0  0  0  0  0  0  0  0  0  0  # atno 10718 bound_to 10713
  152.9791  135.5802  154.4631 H   0  0  0  0  0  0  0  0  0  0  0  0  # atno 10763 bound_to 10752
  154.4204  135.2771  155.1981 H   0  0  0  0  0  0  0  0  0  0  0  0  # atno 10764 bound_to 10752
  154.3733  135.6163  153.5805 H   0  0  0  0  0  0  0  0  0  0  0  0  # atno 10765 bound_to 10752
  140.3436  134.2306  155.7687 H   0  0  0  0  0  0  0  0  0  0  0  0  # atno 11005 bound_to 11000
  145.3331  139.1754  143.4526 LP  0  0  0  0  0  0  0  0  0  0  0  0  # atno 17320 bound_to 7965
  146.3194  140.3363  142.8644 LP  0  0  0  0  0  0  0  0  0  0  0  0  # atno 17321 bound_to 7965
  140.7761  143.3668  151.1724 LP  0  0  0  0  0  0  0  0  0  0  0  0  # atno 17342 bound_to 10162
  139.7289  143.9105  152.3012 LP  0  0  0  0  0  0  0  0  0  0  0  0  # atno 17343 bound_to 10162
  156.0366  130.3749  150.1544 LP  0  0  0  0  0  0  0  0  0  0  0  0  # atno 17370 bound_to 10713
  156.9731  130.9841  151.3454 LP  0  0  0  0  0  0  0  0  0  0  0  0  # atno 17371 bound_to 10713
  141.2032  133.7919  157.0353 LP  0  0  0  0  0  0  0  0  0  0  0  0  # atno 17394 bound_to 11000
  140.0761  134.9675  157.1547 LP  0  0  0  0  0  0  0  0  0  0  0  0  # atno 17395 bound_to 11000

$$$$
