AV-unprocessed.smi:2449|AV-procd|sdf|9664|dock2
  -GOLD-   2272013303D 1   1.00000     0.00000
 Structure written by MMmdl.
 36 36  0  0  0  0  0  0  0  0  2 V2000
  150.5548  144.5940  159.8282 C   0  0  0  0  0  0  0  0  0  0  0  0
  151.7318  144.6359  160.8084 C   0  0  0  0  0  0  0  0  0  0  0  0
  152.1352  143.2305  161.2997 C   0  0  0  0  0  0  0  0  0  0  0  0
  152.6793  142.2608  160.2131 C   0  0  0  0  0  0  0  0  0  0  0  0
  153.2267  143.0702  159.0171 C   0  0  0  0  0  0  0  0  0  0  0  0
  153.8338  141.4145  160.7847 C   0  0  0  0  0  0  0  0  0  0  0  0
  151.6459  141.3235  159.7547 N   0  0  0  0  0  0  0  0  0  0  0  0
  151.7688  140.3030  158.8873 C   0  0  0  0  0  0  0  0  0  0  0  0
  152.8309  139.9750  158.3577 O   0  0  0  0  0  0  0  0  0  0  0  0
  150.4851  139.5188  158.5893 C   0  0  0  0  0  0  0  0  0  0  0  0
  150.6406  138.6051  157.4466 N   0  0  0  0  0  0  0  0  0  0  0  0
  150.8346  139.1720  156.1746 C   0  0  0  0  0  0  0  0  0  0  0  0
  150.9783  138.4116  155.0725 C   0  0  0  0  0  0  0  0  0  0  0  0
  150.9287  136.9623  155.2224 C   0  0  0  0  0  0  0  0  0  0  0  0
  151.0613  136.2521  154.2276 O   0  0  0  0  0  0  0  0  0  0  0  0
  150.7352  136.4601  156.4771 N   0  5  0  0  0  0  0  0  0  0  0  0
  150.5887  137.2460  157.5889 C   0  0  0  0  0  0  0  0  0  0  0  0
  150.4134  136.7720  158.7123 O   0  0  0  0  0  0  0  0  0  0  0  0
  150.2933  145.5980  159.4931 H   0  0  0  0  0  0  0  0  0  0  0  0
  149.6708  144.1594  160.2952 H   0  0  0  0  0  0  0  0  0  0  0  0
  150.7965  144.0004  158.9462 H   0  0  0  0  0  0  0  0  0  0  0  0
  152.5767  145.1214  160.3209 H   0  0  0  0  0  0  0  0  0  0  0  0
  151.4564  145.2686  161.6520 H   0  0  0  0  0  0  0  0  0  0  0  0
  152.8789  143.3449  162.0888 H   0  0  0  0  0  0  0  0  0  0  0  0
  151.2743  142.7703  161.7865 H   0  0  0  0  0  0  0  0  0  0  0  0
  154.0595  143.7050  159.3214 H   0  0  0  0  0  0  0  0  0  0  0  0
  152.4710  143.7239  158.5821 H   0  0  0  0  0  0  0  0  0  0  0  0
  153.5885  142.4141  158.2245 H   0  0  0  0  0  0  0  0  0  0  0  0
  154.6286  142.0451  161.1844 H   0  0  0  0  0  0  0  0  0  0  0  0
  154.2769  140.7797  160.0162 H   0  0  0  0  0  0  0  0  0  0  0  0
  153.5000  140.7573  161.5877 H   0  0  0  0  0  0  0  0  0  0  0  0
  150.7189  141.4891  160.1190 H   0  0  0  0  0  0  0  0  0  0  0  0
  150.2100  138.9661  159.4884 H   0  0  0  0  0  0  0  0  0  0  0  0
  149.6552  140.2051  158.4093 H   0  0  0  0  0  0  0  0  0  0  0  0
  150.8528  140.2516  156.1493 H   0  0  0  0  0  0  0  0  0  0  0  0
  151.1238  138.8628  154.1019 H   0  0  0  0  0  0  0  0  0  0  0  0
  1  2  1  0  0  0  0
  1 19  1  0  0  0  0
  1 20  1  0  0  0  0
  1 21  1  0  0  0  0
  2  3  1  0  0  0  0
  2 22  1  0  0  0  0
  2 23  1  0  0  0  0
  3  4  1  0  0  0  0
  3 24  1  0  0  0  0
  3 25  1  0  0  0  0
  4  5  1  0  0  0  0
  4  6  1  0  0  0  0
  4  7  1  0  0  0  0
  5 26  1  0  0  0  0
  5 27  1  0  0  0  0
  5 28  1  0  0  0  0
  6 29  1  0  0  0  0
  6 30  1  0  0  0  0
  6 31  1  0  0  0  0
  7  8  1  0  0  0  0
  7 32  1  0  0  0  0
  8  9  2  0  0  0  0
  8 10  1  0  0  0  0
 10 11  1  0  0  0  0
 10 33  1  0  0  0  0
 10 34  1  0  0  0  0
 11 17  1  0  0  0  0
 11 12  1  0  0  0  0
 12 13  2  0  0  0  0
 12 35  1  0  0  0  0
 13 14  1  0  0  0  0
 13 36  1  0  0  0  0
 14 15  2  0  0  0  0
 14 16  1  0  0  0  0
 16 17  1  0  0  0  0
 17 18  2  0  0  0  0
M  CHG  1  16  -1
M  END
> <s_m_source_file>
AV-unprocessed.smi

> <i_m_source_file_index>
2449

> <i_lp_mmshare_version>
43012

> <i_f3d_flags>
0

> <s_epik_input>
W0NIM11bQ0gyXVtDSDJdQyhbQ0gzXSkoW0NIM10pW05IXUMoPU8pW0NIMl1uMVtjSF1bY0hdYyg9TylbbkhdYzE9Tw==

> <s_epik_cmdline>
J2VwaWtfcHl0aG9uJywgJy1waCcsICc3LjAnLCAnLXRuJywgJzgnLCAnLW1hJywgJzIwMCcsICctbWV0YWxfYmluZGluZycsICctaW1hZScsICc8aW5maWxlLm1hZT4nLCAnLW9tYWUnLCAnPG91dGZpbGUubWFlPic=

> <r_lp_tautomer_probability>
0.999537

> <r_epik_Ionization_Penalty>
3.14746

> <r_epik_Ionization_Penalty_Charging>
2.94994e-08

> <r_epik_Ionization_Penalty_Neutral>
3.14746

> <r_epik_State_Penalty>
3.14658

> <r_epik_Charging_Adjusted_Penalty>
3.14658

> <i_epik_Tot_Q>
-1

> <i_epik_Tot_abs_Q>
1

> <r_epik_Metal_State_Penalty>
0.466037

> <b_epik_Metal_Only>
1

> <s_lp_Force_Field>
OPLS_2005

> <r_lp_Energy>
14.91

> <b_lp_Chiralities_Consistent>
1

> <s_lp_Variant>
AV-unprocessed.smi:2449-2

> <Gold.Version>
5.8.1

> <Gold.Id.Protein>
6NUR|6NUR_protein|mol2

> <Gold.PLP.Fitness>
39.5475

> <Gold.PLP.PLP>
-32.6098

> <Gold.PLP.part.hbond>
-3.0000

> <Gold.PLP.part.metal>
0.0000

> <Gold.PLP.part.buried>
-5.7598

> <Gold.PLP.part.nonpolar>
-25.4145

> <Gold.PLP.part.repulsive>
1.6364

> <Gold.PLP.ligand.clash>
0.0000

> <Gold.PLP.ligand.torsion>
0.9917

> <Gold.PLP.Chemscore.Hbond>
2.9588

> <Gold.PLP.Chemscore.CHOScore>
0.0000

> <Gold.PLP.Chemscore.Metal>
0.0000

> <Gold.Chemscore.Hbonds>
donor molecule, donor type, donor heavy atom, donor atom, acceptor molecule, acceptor atom, score
      P1  H  6896  6907       L1    18  0.71
      P1  H  7997  8010       L1     9  0.57
      P1  H 10752 10764       L1    15  1.00

> <Gold.PLP.Chemscore.Internal.Correction>
0.0448

> <Gold.Rescore>
     Score         DG    S(hbond)    S(metal)    S(lipo)     H(rot)  DE(clash)    DE(int)     intcor
     17.35     -18.98       2.77        0.00      81.97       2.08       0.08       1.55       ----

> <Gold.Chemscore.Fitness>
17.3490

> <Gold.Chemscore.DG>
-18.9819

> <Gold.Chemscore.ZeroCoef>
-5.4800

> <Gold.Chemscore.Hbond>
2.7674

> <Gold.Chemscore.Metal>
0.0000

> <Gold.Chemscore.Lipo>
81.9738

> <Gold.Chemscore.Internal_Hbond>
0.0000

> <Gold.Chemscore.DEClash>
0.0814

> <Gold.Chemscore.DEInternal>
1.5515

> <Gold.Chemscore.Rot>
2.0828

> <Gold.Chemscore.Internal.Correction>
   9.000000E+99

> <Gold.Chemscore.Hbonds>
donor molecule, donor type, donor heavy atom, donor atom, acceptor molecule, acceptor atom, score
      P1  H  6896  6907       L1    18  0.70
      P1  H  7997  8010       L1     9  0.55
      P1  H 10752 10764       L1    15  0.63

> <Gold.Chemscore.Hbond.Weighted>
-9.2430

> <Gold.Chemscore.Metal.Weighted>
-0.0000

> <Gold.Chemscore.Lipo.Weighted>
-9.5909

> <Gold.Chemscore.Internal_Hbond.Weighted>
0.0000

> <Gold.Chemscore.DEClash.Weighted>
0.0814

> <Gold.Chemscore.DEInternal.Weighted>
1.5515

> <Gold.Chemscore.Rot.Weighted>
5.3319

> <Gold.Chemscore.Internal.Correction.Weighted>
   9.000000E+99

> <Gold.Protein.RotatedTorsions>
[ 6907 6896 6895 6894 ] final  -30.52 input  -60.11 | X-H torsion
[ 7974 7965 7964 7962 ] final  -47.96 input  175.53 | X-H torsion
[ 8008 7997 7996 7995 ] final   35.22 input   59.86 | X-H torsion
[ 10167 10162 10161 10158 ] final   -1.59 input  -65.29 | X-H torsion
[ 10718 10713 10712 10709 ] final   74.80 input   66.30 | X-H torsion
[ 10763 10752 10751 10750 ] final  -88.06 input  -60.55 | X-H torsion
[ 11005 11000 10999 10996 ] final -137.43 input  -57.11 | X-H torsion

> <Gold.Protein.ActiveResidues>
 VAL166  LYS551  ARG553  GLY616  TRP617  ASP618  TYR619  PRO620  LYS621  CYS622 
 ASP623  PHE694  ASN695  SER759  ASP760  ASP761  ALA762  ILE779  LEU786  VAL792 
 PHE793  MET794  SER795  GLU796  ALA797  LYS798  CYS799  TRP800  GLU811  SER814 

> <Gold.Protein.RotatedAtoms>
  151.1045  134.9991  159.8464 H   0  0  0  0  0  0  0  0  0  0  0  0  # atno 6907 bound_to 6896
  152.5439  134.1910  159.8684 H   0  0  0  0  0  0  0  0  0  0  0  0  # atno 6908 bound_to 6896
  151.1956  133.4597  159.2628 H   0  0  0  0  0  0  0  0  0  0  0  0  # atno 6909 bound_to 6896
  145.9562  140.7524  142.9480 H   0  0  0  0  0  0  0  0  0  0  0  0  # atno 7974 bound_to 7965
  155.1675  140.3289  155.4399 H   0  0  0  0  0  0  0  0  0  0  0  0  # atno 8008 bound_to 7997
  156.2521  140.1949  156.6730 H   0  0  0  0  0  0  0  0  0  0  0  0  # atno 8009 bound_to 7997
  154.6361  140.0576  156.9776 H   0  0  0  0  0  0  0  0  0  0  0  0  # atno 8010 bound_to 7997
  140.6816  143.6757  150.8148 H   0  0  0  0  0  0  0  0  0  0  0  0  # atno 10167 bound_to 10162
  157.6608  130.9695  150.1263 H   0  0  0  0  0  0  0  0  0  0  0  0  # atno 10718 bound_to 10713
  154.6405  135.5390  153.7783 H   0  0  0  0  0  0  0  0  0  0  0  0  # atno 10763 bound_to 10752
  153.0331  135.6458  154.1167 H   0  0  0  0  0  0  0  0  0  0  0  0  # atno 10764 bound_to 10752
  154.1092  135.2928  155.3214 H   0  0  0  0  0  0  0  0  0  0  0  0  # atno 10765 bound_to 10752
  140.8712  134.2048  157.4650 H   0  0  0  0  0  0  0  0  0  0  0  0  # atno 11005 bound_to 11000
  144.6805  140.2515  143.7331 LP  0  0  0  0  0  0  0  0  0  0  0  0  # atno 17320 bound_to 7965
  145.8103  139.2000  143.1997 LP  0  0  0  0  0  0  0  0  0  0  0  0  # atno 17321 bound_to 7965
  140.0458  143.5300  152.2697 LP  0  0  0  0  0  0  0  0  0  0  0  0  # atno 17342 bound_to 10162
  139.6143  144.7616  151.2880 LP  0  0  0  0  0  0  0  0  0  0  0  0  # atno 17343 bound_to 10162
  156.2121  130.3667  149.8657 LP  0  0  0  0  0  0  0  0  0  0  0  0  # atno 17370 bound_to 10713
  156.6533  130.8752  151.3535 LP  0  0  0  0  0  0  0  0  0  0  0  0  # atno 17371 bound_to 10713
  139.8712  134.9775  156.4961 LP  0  0  0  0  0  0  0  0  0  0  0  0  # atno 17394 bound_to 11000
  140.8571  133.8088  155.9227 LP  0  0  0  0  0  0  0  0  0  0  0  0  # atno 17395 bound_to 11000

$$$$
