AV-unprocessed.smi:1047|AV-procd|sdf|4588|dock8
  -GOLD-   22720 3 63D 1   1.00000     0.00000
 Structure written by MMmdl.
 57 59  0  0  0  0  0  0  0  0  3 V2000
  145.7452  132.6526  152.6274 C   0  0  0  0  0  0  0  0  0  0  0  0
  146.1753  134.0107  153.2002 C   0  0  0  0  0  0  0  0  0  0  0  0
  147.3666  133.9747  154.0471 N   0  0  0  0  0  0  0  0  0  0  0  0
  148.4855  133.2832  153.4118 C   0  0  0  0  0  0  0  0  0  0  0  0
  149.7394  133.2848  154.3022 C   0  0  0  0  0  0  0  0  0  0  0  0
  150.0834  134.6238  154.6436 O   0  0  0  0  0  0  0  0  0  0  0  0
  149.0352  135.3150  155.3190 C   0  0  1  0  0  0  0  0  0  0  0  0
  149.5262  136.7354  155.6300 C   0  0  0  0  0  0  0  0  0  0  0  0
  150.0658  137.3893  154.4215 N   0  3  0  0  0  0  0  0  0  0  0  0
  151.5361  137.5246  154.4211 C   0  0  0  0  0  0  0  0  0  0  0  0
  151.9798  138.9373  154.8493 C   0  0  2  0  0  0  0  0  0  0  0  0
  153.3858  139.0342  154.7428 O   0  0  0  0  0  0  0  0  0  0  0  0
  151.6076  139.2944  156.3032 C   0  0  0  0  0  0  0  0  0  0  0  0
  151.1741  140.6901  156.4640 N   0  0  0  0  0  0  0  0  0  0  0  0
  150.3835  141.4484  155.6563 C   0  0  0  0  0  0  0  0  0  0  0  0
  150.2776  142.6815  156.2238 N   0  3  0  0  0  0  0  0  0  0  0  0
  151.0157  142.7147  157.4085 C   0  0  0  0  0  0  0  0  0  0  0  0
  151.2123  143.7380  158.3283 C   0  0  0  0  0  0  0  0  0  0  0  0
  152.0256  143.4516  159.4479 C   0  0  0  0  0  0  0  0  0  0  0  0
  152.2583  144.5473  160.4746 C   0  0  0  0  0  0  0  0  0  0  0  0
  152.6133  142.1710  159.6142 C   0  0  0  0  0  0  0  0  0  0  0  0
  153.4857  141.8737  160.8220 C   0  0  0  0  0  0  0  0  0  0  0  0
  152.4015  141.1436  158.6670 C   0  0  0  0  0  0  0  0  0  0  0  0
  151.5967  141.4412  157.5690 C   0  0  0  0  0  0  0  0  0  0  0  0
  147.7883  135.3226  154.4120 C   0  0  0  0  0  0  0  0  0  0  0  0
  144.7916  132.7424  152.1070 H   0  0  0  0  0  0  0  0  0  0  0  0
  145.6215  131.9125  153.4184 H   0  0  0  0  0  0  0  0  0  0  0  0
  146.4683  132.2653  151.9098 H   0  0  0  0  0  0  0  0  0  0  0  0
  146.3203  134.7195  152.3834 H   0  0  0  0  0  0  0  0  0  0  0  0
  145.3400  134.3961  153.7862 H   0  0  0  0  0  0  0  0  0  0  0  0
  148.2167  132.2503  153.1919 H   0  0  0  0  0  0  0  0  0  0  0  0
  148.7194  133.7563  152.4568 H   0  0  0  0  0  0  0  0  0  0  0  0
  149.5693  132.7029  155.2093 H   0  0  0  0  0  0  0  0  0  0  0  0
  150.5764  132.8240  153.7779 H   0  0  0  0  0  0  0  0  0  0  0  0
  148.8008  134.7991  156.2521 H   0  0  0  0  0  0  0  0  0  0  0  0
  148.7109  137.3323  156.0413 H   0  0  0  0  0  0  0  0  0  0  0  0
  150.3122  136.6999  156.3857 H   0  0  0  0  0  0  0  0  0  0  0  0
  149.7895  136.8505  153.6130 H   0  0  0  0  0  0  0  0  0  0  0  0
  151.9315  136.7824  155.1147 H   0  0  0  0  0  0  0  0  0  0  0  0
  151.9317  137.2813  153.4338 H   0  0  0  0  0  0  0  0  0  0  0  0
  151.5360  139.6778  154.1822 H   0  0  0  0  0  0  0  0  0  0  0  0
  153.7617  138.1696  154.8076 H   0  0  0  0  0  0  0  0  0  0  0  0
  150.8367  138.6276  156.6895 H   0  0  0  0  0  0  0  0  0  0  0  0
  152.4752  139.1581  156.9507 H   0  0  0  0  0  0  0  0  0  0  0  0
  149.9245  141.1308  154.7307 H   0  0  0  0  0  0  0  0  0  0  0  0
  150.7625  144.7111  158.1947 H   0  0  0  0  0  0  0  0  0  0  0  0
  151.9313  144.2228  161.4628 H   0  0  0  0  0  0  0  0  0  0  0  0
  151.7062  145.4538  160.2237 H   0  0  0  0  0  0  0  0  0  0  0  0
  153.3166  144.8046  160.5260 H   0  0  0  0  0  0  0  0  0  0  0  0
  153.8998  140.8659  160.7773 H   0  0  0  0  0  0  0  0  0  0  0  0
  152.9051  141.9555  161.7413 H   0  0  0  0  0  0  0  0  0  0  0  0
  154.3205  142.5729  160.8754 H   0  0  0  0  0  0  0  0  0  0  0  0
  152.8488  140.1699  158.8005 H   0  0  0  0  0  0  0  0  0  0  0  0
  147.9989  135.8993  153.5095 H   0  0  0  0  0  0  0  0  0  0  0  0
  146.9737  135.8354  154.9247 H   0  0  0  0  0  0  0  0  0  0  0  0
  149.6574  138.3106  154.3508 H   0  0  0  0  0  0  0  0  0  0  0  0
  149.7440  143.4449  155.8273 H   0  0  0  0  0  0  0  0  0  0  0  0
  1  2  1  0  0  0  0
  1 26  1  0  0  0  0
  1 27  1  0  0  0  0
  1 28  1  0  0  0  0
  2  3  1  0  0  0  0
  2 29  1  0  0  0  0
  2 30  1  0  0  0  0
  3 25  1  0  0  0  0
  3  4  1  0  0  0  0
  4  5  1  0  0  0  0
  4 31  1  0  0  0  0
  4 32  1  0  0  0  0
  5  6  1  0  0  0  0
  5 33  1  0  0  0  0
  5 34  1  0  0  0  0
  6  7  1  0  0  0  0
  7  8  1  0  0  0  0
  7 25  1  0  0  0  0
  7 35  1  0  0  0  0
  8  9  1  0  0  0  0
  8 36  1  0  0  0  0
  8 37  1  0  0  0  0
  9 10  1  0  0  0  0
  9 38  1  0  0  0  0
  9 56  1  0  0  0  0
 10 11  1  0  0  0  0
 10 39  1  0  0  0  0
 10 40  1  0  0  0  0
 11 12  1  0  0  0  0
 11 13  1  0  0  0  0
 11 41  1  0  0  0  0
 12 42  1  0  0  0  0
 13 14  1  0  0  0  0
 13 43  1  0  0  0  0
 13 44  1  0  0  0  0
 14 24  1  0  0  0  0
 14 15  1  0  0  0  0
 15 16  2  0  0  0  0
 15 45  1  0  0  0  0
 16 17  1  0  0  0  0
 16 57  1  0  0  0  0
 17 24  2  0  0  0  0
 17 18  1  0  0  0  0
 18 19  2  0  0  0  0
 18 46  1  0  0  0  0
 19 20  1  0  0  0  0
 19 21  1  0  0  0  0
 20 47  1  0  0  0  0
 20 48  1  0  0  0  0
 20 49  1  0  0  0  0
 21 22  1  0  0  0  0
 21 23  2  0  0  0  0
 22 50  1  0  0  0  0
 22 51  1  0  0  0  0
 22 52  1  0  0  0  0
 23 24  1  0  0  0  0
 23 53  1  0  0  0  0
 25 54  1  0  0  0  0
 25 55  1  0  0  0  0
M  CHG  1   9   1
M  CHG  1  16   1
M  END
> <s_m_source_file>
AV-unprocessed.smi

> <i_m_source_file_index>
1047

> <i_lp_mmshare_version>
43012

> <i_f3d_flags>
0

> <s_epik_input>
W0NIM11bQ0gyXU4xW0NIMl1bQ0gyXU9bQ0BIXShbQ0gyXTEpW0NIMl1bTkhdW0NIMl1bQ0BIXShbT0hdKVtDSDJdbihbY0hdbjIpYyhjMjMpW2NIXWMoW0NIM10pYyhbY0hdMylbQ0gzXQ==

> <s_epik_cmdline>
J2VwaWtfcHl0aG9uJywgJy1waCcsICc3LjAnLCAnLXRuJywgJzgnLCAnLW1hJywgJzIwMCcsICctbWV0YWxfYmluZGluZycsICctaW1hZScsICc8aW5maWxlLm1hZT4nLCAnLW9tYWUnLCAnPG91dGZpbGUubWFlPic=

> <r_epik_Ionization_Penalty>
1.75732

> <r_epik_Ionization_Penalty_Charging>
1.18089

> <r_epik_Ionization_Penalty_Neutral>
0.576429

> <r_epik_State_Penalty>
1.69377

> <r_epik_Charging_Adjusted_Penalty>
2.87466

> <i_epik_Tot_Q>
2

> <i_epik_Tot_abs_Q>
2

> <r_epik_Metal_State_Penalty>
5.70174

> <b_epik_Metal_Only>
0

> <s_lp_Force_Field>
OPLS_2005

> <r_lp_Energy>
42.0789

> <b_lp_Chiralities_Consistent>
1

> <s_lp_Variant>
AV-unprocessed.smi:1047-29

> <Gold.Version>
5.8.1

> <Gold.Id.Protein>
6NUR|6NUR_protein|mol2

> <Gold.PLP.Fitness>
62.5952

> <Gold.PLP.PLP>
-50.4659

> <Gold.PLP.part.hbond>
-2.9502

> <Gold.PLP.part.metal>
0.0000

> <Gold.PLP.part.buried>
-5.3416

> <Gold.PLP.part.nonpolar>
-42.3567

> <Gold.PLP.part.repulsive>
0.3888

> <Gold.PLP.ligand.clash>
0.0000

> <Gold.PLP.ligand.torsion>
1.4815

> <Gold.PLP.Chemscore.Hbond>
5.0000

> <Gold.PLP.Chemscore.CHOScore>
0.0000

> <Gold.PLP.Chemscore.Metal>
0.0000

> <Gold.Chemscore.Hbonds>
donor molecule, donor type, donor heavy atom, donor atom, acceptor molecule, acceptor atom, score
      L1  H     9    38       P1  7948  2.00
      L1  H    16    57       P1  8028  2.00
      P1  H  7997  8009       L1    12  1.00

> <Gold.PLP.Chemscore.Internal.Correction>
0.0922

> <Gold.Rescore>
     Score         DG    S(hbond)    S(metal)    S(lipo)     H(rot)  DE(clash)    DE(int)     intcor
     20.32     -22.03       2.60        0.00     126.05       2.69       0.24       1.47       ----

> <Gold.Chemscore.Fitness>
20.3203

> <Gold.Chemscore.DG>
-22.0304

> <Gold.Chemscore.ZeroCoef>
-5.4800

> <Gold.Chemscore.Hbond>
2.6029

> <Gold.Chemscore.Metal>
0.0000

> <Gold.Chemscore.Lipo>
126.0471

> <Gold.Chemscore.Internal_Hbond>
0.0000

> <Gold.Chemscore.DEClash>
0.2401

> <Gold.Chemscore.DEInternal>
1.4700

> <Gold.Chemscore.Rot>
2.6917

> <Gold.Chemscore.Internal.Correction>
   9.000000E+99

> <Gold.Chemscore.Hbonds>
donor molecule, donor type, donor heavy atom, donor atom, acceptor molecule, acceptor atom, score
      L1  H     9    38       P1  7948  0.48
      L1  H    16    57       P1  8028  0.94
      P1  H  7997  8009       L1    12  0.54

> <Gold.Chemscore.Hbond.Weighted>
-8.6935

> <Gold.Chemscore.Metal.Weighted>
-0.0000

> <Gold.Chemscore.Lipo.Weighted>
-14.7475

> <Gold.Chemscore.Internal_Hbond.Weighted>
0.0000

> <Gold.Chemscore.DEClash.Weighted>
0.2401

> <Gold.Chemscore.DEInternal.Weighted>
1.4700

> <Gold.Chemscore.Rot.Weighted>
6.8907

> <Gold.Chemscore.Internal.Correction.Weighted>
   9.000000E+99

> <Gold.Protein.RotatedTorsions>
[ 6907 6896 6895 6894 ] final   61.97 input  -60.11 | X-H torsion
[ 7974 7965 7964 7962 ] final  160.17 input  175.53 | X-H torsion
[ 8008 7997 7996 7995 ] final -132.30 input   59.86 | X-H torsion
[ 10167 10162 10161 10158 ] final  -65.93 input  -65.29 | X-H torsion
[ 10718 10713 10712 10709 ] final -105.30 input   66.30 | X-H torsion
[ 10763 10752 10751 10750 ] final  144.82 input  -60.55 | X-H torsion
[ 11005 11000 10999 10996 ] final  -33.12 input  -57.11 | X-H torsion

> <Gold.Protein.ActiveResidues>
 VAL166  LYS551  ARG553  GLY616  TRP617  ASP618  TYR619  PRO620  LYS621  CYS622 
 ASP623  PHE694  ASN695  SER759  ASP760  ASP761  ALA762  ILE779  LEU786  VAL792 
 PHE793  MET794  SER795  GLU796  ALA797  LYS798  CYS799  TRP800  GLU811  SER814 

> <Gold.Protein.RotatedAtoms>
  152.4134  134.6085  160.0019 H   0  0  0  0  0  0  0  0  0  0  0  0  # atno 6907 bound_to 6896
  151.6256  133.3330  159.3105 H   0  0  0  0  0  0  0  0  0  0  0  0  # atno 6908 bound_to 6896
  150.8023  134.7165  159.6678 H   0  0  0  0  0  0  0  0  0  0  0  0  # atno 6909 bound_to 6896
  144.7751  139.7719  143.6282 H   0  0  0  0  0  0  0  0  0  0  0  0  # atno 7974 bound_to 7965
  155.3267  140.0465  157.3041 H   0  0  0  0  0  0  0  0  0  0  0  0  # atno 8008 bound_to 7997
  154.5351  140.2269  155.8703 H   0  0  0  0  0  0  0  0  0  0  0  0  # atno 8009 bound_to 7997
  156.1826  140.3070  155.9184 H   0  0  0  0  0  0  0  0  0  0  0  0  # atno 8010 bound_to 7997
  140.5694  143.2317  151.6569 H   0  0  0  0  0  0  0  0  0  0  0  0  # atno 10167 bound_to 10162
  156.0340  130.5557  150.7520 H   0  0  0  0  0  0  0  0  0  0  0  0  # atno 10718 bound_to 10713
  153.9951  135.2928  155.3408 H   0  0  0  0  0  0  0  0  0  0  0  0  # atno 10763 bound_to 10752
  154.7192  135.5116  153.8788 H   0  0  0  0  0  0  0  0  0  0  0  0  # atno 10764 bound_to 10752
  153.0791  135.6673  154.0199 H   0  0  0  0  0  0  0  0  0  0  0  0  # atno 10765 bound_to 10752
  140.9609  133.7165  156.1367 H   0  0  0  0  0  0  0  0  0  0  0  0  # atno 11005 bound_to 11000
  146.1925  139.5173  142.9796 LP  0  0  0  0  0  0  0  0  0  0  0  0  # atno 17320 bound_to 7965
  145.6209  141.0322  143.1915 LP  0  0  0  0  0  0  0  0  0  0  0  0  # atno 17321 bound_to 7965
  139.5110  144.3525  152.0639 LP  0  0  0  0  0  0  0  0  0  0  0  0  # atno 17342 bound_to 10162
  140.2661  144.4015  150.6168 LP  0  0  0  0  0  0  0  0  0  0  0  0  # atno 17343 bound_to 10162
  157.5062  131.0922  151.0254 LP  0  0  0  0  0  0  0  0  0  0  0  0  # atno 17370 bound_to 10713
  157.0622  130.5830  149.5388 LP  0  0  0  0  0  0  0  0  0  0  0  0  # atno 17371 bound_to 10713
  140.7469  134.4088  157.5547 LP  0  0  0  0  0  0  0  0  0  0  0  0  # atno 17394 bound_to 11000
  139.8877  134.8874  156.2511 LP  0  0  0  0  0  0  0  0  0  0  0  0  # atno 17395 bound_to 11000

$$$$
