#       Name:                AV-unprocessed.smi:2220
#       Creating user name   scv26
#       Creation time:       Fri Mar 27 12:19:22 2020


#       File generated by GOLD software.
#

@<TRIPOS>MOLECULE
AV-unprocessed.smi:2220
    41    42     1
SMALL
NO_CHARGES


@<TRIPOS>ATOM
      1 ****        -2.3042   3.4440   2.7912 C.3            1 S1                 0.0000
      2 ****        -2.4192   3.9045   1.4215 N.pl3          1 S1                 0.0000
      3 ****        -2.8582   5.1031   1.0134 C.2            1 S1                 0.0000
      4 ****        -2.8641   5.2689  -0.3024 N.2            1 S1                 0.0000
      5 ****        -2.3811   4.0580  -0.7904 C.2            1 S1                 0.0000
      6 ****        -2.1028   3.2079   0.2574 C.2            1 S1                 0.0000
      7 ****        -1.5625   1.8137   0.2362 C.3            1 S1                 0.0000
      8 ****        -0.0429   1.7538   0.4610 C.3            1 S1                 0.0000
      9 ****         0.4440   0.3795   0.4652 N.am           1 S1                 0.0000
     10 ****         0.7109  -0.3479  -0.6307 C.2            1 S1                 0.0000
     11 ****         0.5721   0.0828  -1.7760 O.2            1 S1                 0.0000
     12 ****         1.2076  -1.7811  -0.3974 C.3            1 S1                 0.0000
     13 ****         2.6355  -1.9676  -0.9517 C.3            1 S1                 0.0000
     14 ****         3.1392  -3.4008  -0.7166 C.3            1 S1                 0.0000
     15 ****         2.1754  -4.4401  -1.3141 C.3            1 S1                 0.0000
     16 ****         2.1833  -4.3374  -2.6441 F              1 S1                 0.0000
     17 ****         2.5955  -5.6627  -0.9894 F              1 S1                 0.0000
     18 ****         0.7397  -4.2471  -0.7962 C.3            1 S1                 0.0000
     19 ****         0.2470  -2.8098  -1.0300 C.3            1 S1                 0.0000
     20 ****        -2.7219   4.1841   3.4746 H              1 S1                 0.0000
     21 ****        -1.2550   3.2864   3.0405 H              1 S1                 0.0000
     22 ****        -2.8478   2.5071   2.9141 H              1 S1                 0.0000
     23 ****        -3.1815   5.8745   1.6970 H              1 S1                 0.0000
     24 ****        -2.2694   3.8915  -1.8517 H              1 S1                 0.0000
     25 ****        -2.0701   1.2120   0.9906 H              1 S1                 0.0000
     26 ****        -1.8082   1.3553  -0.7224 H              1 S1                 0.0000
     27 ****         0.4791   2.3358  -0.3006 H              1 S1                 0.0000
     28 ****         0.2121   2.2023   1.4209 H              1 S1                 0.0000
     29 ****         0.5870  -0.0511   1.3672 H              1 S1                 0.0000
     30 ****         1.2356  -1.9617   0.6788 H              1 S1                 0.0000
     31 ****         2.6568  -1.7502  -2.0207 H              1 S1                 0.0000
     32 ****         3.3185  -1.2598  -0.4800 H              1 S1                 0.0000
     33 ****         4.1345  -3.5215  -1.1454 H              1 S1                 0.0000
     34 ****         3.2424  -3.5737   0.3555 H              1 S1                 0.0000
     35 ****         0.0673  -4.9555  -1.2811 H              1 S1                 0.0000
     36 ****         0.7042  -4.4697   0.2711 H              1 S1                 0.0000
     37 ****        -0.7549  -2.6962  -0.6137 H              1 S1                 0.0000
     38 ****         0.1566  -2.6320  -2.1027 H              1 S1                 0.0000
     39 ****        -3.1487   6.0746  -0.8219 LP             1 S1                 0.0000
     40 ****         0.2461   1.0167  -1.9229 LP             1 S1                 0.0000
     41 ****         0.7854  -0.5013  -2.5591 LP             1 S1                 0.0000
@<TRIPOS>BOND
    1    1    2 1     
    2    1   20 1     
    3    1   21 1     
    4    1   22 1     
    5    2    6 1     
    6    2    3 1     
    7    3    4 2     
    8    3   23 1     
    9    4    5 1     
   10    5    6 2     
   11    5   24 1     
   12    6    7 1     
   13    7    8 1     
   14    7   25 1     
   15    7   26 1     
   16    8    9 1     
   17    8   27 1     
   18    8   28 1     
   19    9   10 am    
   20    9   29 1     
   21   10   11 2     
   22   10   12 1     
   23   12   19 1     
   24   12   13 1     
   25   12   30 1     
   26   13   14 1     
   27   13   31 1     
   28   13   32 1     
   29   14   15 1     
   30   14   33 1     
   31   14   34 1     
   32   15   16 1     
   33   15   17 1     
   34   15   18 1     
   35   18   19 1     
   36   18   35 1     
   37   18   36 1     
   38   19   37 1     
   39   19   38 1     
   40    4   39 1     
   41   11   40 1     
   42   11   41 1     
@<TRIPOS>SUBSTRUCTURE
      1 S1             1
@<TRIPOS>SET
LONE_PAIRS      STATIC     ATOMS    <user>   **** ""
3 39 40 41
DONOR_HYDROGENS      STATIC     ATOMS    <user>   **** ""
1 29
ATOM$BLUE        STATIC     ATOMS    COLORGROUP SYSTEM
3 39 40 41
ATOM$RED        STATIC     ATOMS    COLORGROUP SYSTEM
1 29
