AV-unprocessed.smi:1451|AV-procd|sdf|5902|dock3
  -GOLD-   22720 5583D 1   1.00000     0.00000
 Structure written by MMmdl.
 47 48  0  0  0  0  0  0  0  0  2 V2000
  144.9829  134.7405  154.5720 C   0  0  0  0  0  0  0  0  0  0  0  0
  145.6834  135.7291  153.6292 C   0  0  1  0  0  0  0  0  0  0  0  0
  144.8935  135.9148  152.3228 C   0  0  0  0  0  0  0  0  0  0  0  0
  145.6011  136.9269  151.4133 C   0  0  0  0  0  0  0  0  0  0  0  0
  145.8370  138.2562  152.1477 C   0  0  0  0  0  0  0  0  0  0  0  0
  146.6069  138.0462  153.4011 N   0  3  1  0  0  0  0  0  0  0  0  0
  146.9677  139.3282  154.0583 C   0  0  0  0  0  0  0  0  0  0  0  0
  147.5474  140.3529  153.0691 C   0  0  0  0  0  0  0  0  0  0  0  0
  148.8762  140.7751  153.4924 N   0  0  0  0  0  0  0  0  0  0  0  0
  149.1206  141.6205  154.5041 C   0  0  0  0  0  0  0  0  0  0  0  0
  148.2315  142.1101  155.2013 O   0  0  0  0  0  0  0  0  0  0  0  0
  150.5965  141.9434  154.7766 C   0  0  0  0  0  0  0  0  0  0  0  0
  150.8641  142.2488  156.1919 N   0  0  0  0  0  0  0  0  0  0  0  0
  151.4538  143.4949  156.4822 C   0  0  0  0  0  0  0  0  0  0  0  0
  151.7660  143.8841  157.7332 C   0  0  0  0  0  0  0  0  0  0  0  0
  152.3535  145.2572  158.0202 C   0  0  0  0  0  0  0  0  0  0  0  0
  151.5428  146.2256  157.5929 F   0  0  0  0  0  0  0  0  0  0  0  0
  152.5278  145.4104  159.3320 F   0  0  0  0  0  0  0  0  0  0  0  0
  153.5369  145.4083  157.4239 F   0  0  0  0  0  0  0  0  0  0  0  0
  151.4325  142.9594  158.7989 C   0  0  0  0  0  0  0  0  0  0  0  0
  150.8619  141.7669  158.5392 C   0  0  0  0  0  0  0  0  0  0  0  0
  150.5499  141.3482  157.1710 C   0  0  0  0  0  0  0  0  0  0  0  0
  150.0385  140.2564  156.9198 O   0  0  0  0  0  0  0  0  0  0  0  0
  145.9155  137.0927  154.3110 C   0  0  0  0  0  0  0  0  0  0  0  0
  143.9935  135.0980  154.8588 H   0  0  0  0  0  0  0  0  0  0  0  0
  145.5603  134.5909  155.4848 H   0  0  0  0  0  0  0  0  0  0  0  0
  144.8600  133.7661  154.0980 H   0  0  0  0  0  0  0  0  0  0  0  0
  146.6583  135.3077  153.3789 H   0  0  0  0  0  0  0  0  0  0  0  0
  144.7874  134.9612  151.8046 H   0  0  0  0  0  0  0  0  0  0  0  0
  143.8838  136.2638  152.5438 H   0  0  0  0  0  0  0  0  0  0  0  0
  146.5559  136.5171  151.0808 H   0  0  0  0  0  0  0  0  0  0  0  0
  145.0079  137.0975  150.5144 H   0  0  0  0  0  0  0  0  0  0  0  0
  146.3797  138.9345  151.4883 H   0  0  0  0  0  0  0  0  0  0  0  0
  144.8837  138.7339  152.3803 H   0  0  0  0  0  0  0  0  0  0  0  0
  146.0751  139.7650  154.5090 H   0  0  0  0  0  0  0  0  0  0  0  0
  147.6645  139.1394  154.8767 H   0  0  0  0  0  0  0  0  0  0  0  0
  147.6052  139.9282  152.0667 H   0  0  0  0  0  0  0  0  0  0  0  0
  146.9014  141.2299  153.0101 H   0  0  0  0  0  0  0  0  0  0  0  0
  149.6641  140.4074  152.9791 H   0  0  0  0  0  0  0  0  0  0  0  0
  151.1956  141.0945  154.4446 H   0  0  0  0  0  0  0  0  0  0  0  0
  150.9141  142.7784  154.1488 H   0  0  0  0  0  0  0  0  0  0  0  0
  151.6413  144.1163  155.6184 H   0  0  0  0  0  0  0  0  0  0  0  0
  151.6492  143.2241  159.8232 H   0  0  0  0  0  0  0  0  0  0  0  0
  150.6305  141.1015  159.3580 H   0  0  0  0  0  0  0  0  0  0  0  0
  144.9642  137.5216  154.6312 H   0  0  0  0  0  0  0  0  0  0  0  0
  146.5071  136.9375  155.2123 H   0  0  0  0  0  0  0  0  0  0  0  0
  147.4766  137.6128  153.1253 H   0  0  0  0  0  0  0  0  0  0  0  0
  1  2  1  0  0  0  0
  1 25  1  0  0  0  0
  1 26  1  0  0  0  0
  1 27  1  0  0  0  0
  2 24  1  0  0  0  0
  2  3  1  0  0  0  0
  2 28  1  0  0  0  0
  3  4  1  0  0  0  0
  3 29  1  0  0  0  0
  3 30  1  0  0  0  0
  4  5  1  0  0  0  0
  4 31  1  0  0  0  0
  4 32  1  0  0  0  0
  5  6  1  0  0  0  0
  5 33  1  0  0  0  0
  5 34  1  0  0  0  0
  6  7  1  0  0  0  0
  6 24  1  0  0  0  0
  6 47  1  0  0  0  0
  7  8  1  0  0  0  0
  7 35  1  0  0  0  0
  7 36  1  0  0  0  0
  8  9  1  0  0  0  0
  8 37  1  0  0  0  0
  8 38  1  0  0  0  0
  9 10  1  0  0  0  0
  9 39  1  0  0  0  0
 10 11  2  0  0  0  0
 10 12  1  0  0  0  0
 12 13  1  0  0  0  0
 12 40  1  0  0  0  0
 12 41  1  0  0  0  0
 13 22  1  0  0  0  0
 13 14  1  0  0  0  0
 14 15  2  0  0  0  0
 14 42  1  0  0  0  0
 15 16  1  0  0  0  0
 15 20  1  0  0  0  0
 16 17  1  0  0  0  0
 16 18  1  0  0  0  0
 16 19  1  0  0  0  0
 20 21  2  0  0  0  0
 20 43  1  0  0  0  0
 21 22  1  0  0  0  0
 21 44  1  0  0  0  0
 22 23  2  0  0  0  0
 24 45  1  0  0  0  0
 24 46  1  0  0  0  0
M  CHG  1   6   1
M  END
> <s_m_source_file>
AV-unprocessed.smi

> <i_m_source_file_index>
1451

> <i_lp_mmshare_version>
43012

> <i_f3d_flags>
0

> <s_epik_input>
W0NIM11bQ0BASF0xW0NIMl1bQ0gyXVtDSDJdTihbQ0gyXTEpW0NIMl1bQ0gyXVtOSF1DKD1PKVtDSDJdbjJbY0hdYyhDKEYpKEYpRilbY0hdW2NIXWMyPU8=

> <s_epik_cmdline>
J2VwaWtfcHl0aG9uJywgJy1waCcsICc3LjAnLCAnLXRuJywgJzgnLCAnLW1hJywgJzIwMCcsICctbWV0YWxfYmluZGluZycsICctaW1hZScsICc8aW5maWxlLm1hZT4nLCAnLW9tYWUnLCAnPG91dGZpbGUubWFlPic=

> <r_lp_tautomer_probability>
1

> <r_epik_Ionization_Penalty>
0.00192452

> <r_epik_Ionization_Penalty_Charging>
0.00192444

> <r_epik_Ionization_Penalty_Neutral>
8.16761e-08

> <r_epik_State_Penalty>
0.00131115

> <r_epik_Charging_Adjusted_Penalty>
0.00323559

> <i_epik_Tot_Q>
1

> <i_epik_Tot_abs_Q>
1

> <r_epik_Metal_State_Penalty>
-0

> <b_epik_Metal_Only>
0

> <s_lp_Force_Field>
OPLS_2005

> <r_lp_Energy>
29.222

> <b_lp_Chiralities_Consistent>
1

> <s_lp_Variant>
AV-unprocessed.smi:1451-4

> <Gold.Version>
5.8.1

> <Gold.Id.Protein>
6NUR|6NUR_protein|mol2

> <Gold.PLP.Fitness>
54.5304

> <Gold.PLP.PLP>
-44.7096

> <Gold.PLP.part.hbond>
-2.0000

> <Gold.PLP.part.metal>
0.0000

> <Gold.PLP.part.buried>
-2.3545

> <Gold.PLP.part.nonpolar>
-39.9197

> <Gold.PLP.part.repulsive>
0.1692

> <Gold.PLP.ligand.clash>
0.4700

> <Gold.PLP.ligand.torsion>
0.9196

> <Gold.PLP.Chemscore.Hbond>
3.0000

> <Gold.PLP.Chemscore.CHOScore>
1.0000

> <Gold.PLP.Chemscore.Metal>
0.0000

> <Gold.Chemscore.Hbonds>
donor molecule, donor type, donor heavy atom, donor atom, acceptor molecule, acceptor atom, score
      L1  H     6    47       P1  7948  0.26
      L1  H     9    39       P1  7957  0.46
      L1  C    14    42       P1  8028  0.05

> <Gold.PLP.Chemscore.Internal.Correction>
0.1300

> <Gold.Rescore>
     Score         DG    S(hbond)    S(metal)    S(lipo)     H(rot)  DE(clash)    DE(int)     intcor
     14.18     -16.05       1.98        0.00      79.13       2.08       0.17       1.70       ----

> <Gold.Chemscore.Fitness>
14.1823

> <Gold.Chemscore.DG>
-16.0485

> <Gold.Chemscore.ZeroCoef>
-5.4800

> <Gold.Chemscore.Hbond>
1.9837

> <Gold.Chemscore.Metal>
0.0000

> <Gold.Chemscore.Lipo>
79.1287

> <Gold.Chemscore.Internal_Hbond>
0.0000

> <Gold.Chemscore.DEClash>
0.1664

> <Gold.Chemscore.DEInternal>
1.6998

> <Gold.Chemscore.Rot>
2.0762

> <Gold.Chemscore.Internal.Correction>
   9.000000E+99

> <Gold.Chemscore.Hbonds>
donor molecule, donor type, donor heavy atom, donor atom, acceptor molecule, acceptor atom, score
      L1  H     6    47       P1  7948  0.16
      L1  H     9    39       P1  7957  0.46

> <Gold.Chemscore.Hbond.Weighted>
-6.6255

> <Gold.Chemscore.Metal.Weighted>
-0.0000

> <Gold.Chemscore.Lipo.Weighted>
-9.2581

> <Gold.Chemscore.Internal_Hbond.Weighted>
0.0000

> <Gold.Chemscore.DEClash.Weighted>
0.1664

> <Gold.Chemscore.DEInternal.Weighted>
1.6998

> <Gold.Chemscore.Rot.Weighted>
5.3150

> <Gold.Chemscore.Internal.Correction.Weighted>
   9.000000E+99

> <Gold.Protein.RotatedTorsions>
[ 6907 6896 6895 6894 ] final   62.73 input  -60.11 | X-H torsion
[ 7974 7965 7964 7962 ] final   60.55 input  175.53 | X-H torsion
[ 8008 7997 7996 7995 ] final -140.32 input   59.86 | X-H torsion
[ 10167 10162 10161 10158 ] final  -16.46 input  -65.29 | X-H torsion
[ 10718 10713 10712 10709 ] final   55.00 input   66.30 | X-H torsion
[ 10763 10752 10751 10750 ] final   21.18 input  -60.55 | X-H torsion
[ 11005 11000 10999 10996 ] final   37.40 input  -57.11 | X-H torsion

> <Gold.Protein.ActiveResidues>
 VAL166  LYS551  ARG553  GLY616  TRP617  ASP618  TYR619  PRO620  LYS621  CYS622 
 ASP623  PHE694  ASN695  SER759  ASP760  ASP761  ALA762  ILE779  LEU786  VAL792 
 PHE793  MET794  SER795  GLU796  ALA797  LYS798  CYS799  TRP800  GLU811  SER814 

> <Gold.Protein.RotatedAtoms>
  152.4196  134.5979  159.9991 H   0  0  0  0  0  0  0  0  0  0  0  0  # atno 6907 bound_to 6896
  151.6133  133.3339  159.3080 H   0  0  0  0  0  0  0  0  0  0  0  0  # atno 6908 bound_to 6896
  150.8084  134.7262  159.6731 H   0  0  0  0  0  0  0  0  0  0  0  0  # atno 6909 bound_to 6896
  145.8948  139.3537  143.0628 H   0  0  0  0  0  0  0  0  0  0  0  0  # atno 7974 bound_to 7965
  155.4595  140.0544  157.2992 H   0  0  0  0  0  0  0  0  0  0  0  0  # atno 8008 bound_to 7997
  154.4743  140.2054  155.9871 H   0  0  0  0  0  0  0  0  0  0  0  0  # atno 8009 bound_to 7997
  156.1107  140.3204  155.8073 H   0  0  0  0  0  0  0  0  0  0  0  0  # atno 8010 bound_to 7997
  140.7234  143.5114  150.9745 H   0  0  0  0  0  0  0  0  0  0  0  0  # atno 10167 bound_to 10162
  157.5307  130.8628  149.8683 H   0  0  0  0  0  0  0  0  0  0  0  0  # atno 10718 bound_to 10713
  153.1016  135.6674  153.9663 H   0  0  0  0  0  0  0  0  0  0  0  0  # atno 10763 bound_to 10752
  153.9232  135.3012  155.3448 H   0  0  0  0  0  0  0  0  0  0  0  0  # atno 10764 bound_to 10752
  154.7437  135.5068  153.9241 H   0  0  0  0  0  0  0  0  0  0  0  0  # atno 10765 bound_to 10752
  140.2230  134.3618  155.7997 H   0  0  0  0  0  0  0  0  0  0  0  0  # atno 11005 bound_to 11000
  145.8864  140.9331  143.0575 LP  0  0  0  0  0  0  0  0  0  0  0  0  # atno 17320 bound_to 7965
  144.6732  140.0847  143.7468 LP  0  0  0  0  0  0  0  0  0  0  0  0  # atno 17321 bound_to 7965
  139.8828  143.7050  152.3155 LP  0  0  0  0  0  0  0  0  0  0  0  0  # atno 17342 bound_to 10162
  139.7339  144.7576  151.0759 LP  0  0  0  0  0  0  0  0  0  0  0  0  # atno 17343 bound_to 10162
  156.0420  130.3737  150.1412 LP  0  0  0  0  0  0  0  0  0  0  0  0  # atno 17370 bound_to 10713
  156.9596  130.9801  151.3482 LP  0  0  0  0  0  0  0  0  0  0  0  0  # atno 17371 bound_to 10713
  141.2222  133.7204  156.8606 LP  0  0  0  0  0  0  0  0  0  0  0  0  # atno 17394 bound_to 11000
  140.1830  134.9020  157.2971 LP  0  0  0  0  0  0  0  0  0  0  0  0  # atno 17395 bound_to 11000

$$$$
