#       Name:                AV-unprocessed.smi:1257
#       Creating user name   scv26
#       Creation time:       Fri Mar 27 04:40:35 2020


#       File generated by GOLD software.
#

@<TRIPOS>MOLECULE
AV-unprocessed.smi:1257
    55    56     1
SMALL
NO_CHARGES


@<TRIPOS>ATOM
      1 ****        -7.7206   2.7296  -0.7585 C.3            1 S1                 0.0000
      2 ****        -6.9990   2.6831   0.5950 C.3            1 S1                 0.0000
      3 ****        -6.3211   1.4083   0.7994 N.am           1 S1                 0.0000
      4 ****        -5.1233   1.0822   0.2910 C.2            1 S1                 0.0000
      5 ****        -4.4668   1.8381  -0.4271 O.2            1 S1                 0.0000
      6 ****        -4.6076  -0.3214   0.6317 C.3            1 S1                 0.0000
      7 ****        -3.1560  -0.4340   0.5157 N.am           1 S1                 0.0000
      8 ****        -2.2738  -0.0704   1.4616 C.2            1 S1                 0.0000
      9 ****        -2.6018   0.3985   2.5520 O.2            1 S1                 0.0000
     10 ****        -0.8264  -0.2004   1.0842 C.ar           1 S1                 0.0000
     11 ****         0.1413   0.6633   1.6414 C.ar           1 S1                 0.0000
     12 ****         1.4927   0.5025   1.2800 C.ar           1 S1                 0.0000
     13 ****         1.8356  -0.5218   0.3739 C.ar           1 S1                 0.0000
     14 ****         3.1789  -0.6830   0.0077 N.3            1 S1                 0.0000
     15 ****         3.7769  -1.9012   0.5380 C.3            1 S1                 0.0000
     16 ****         5.2852  -1.9520   0.2225 C.3            1 S1                 0.0000
     17 ****         6.1274  -1.0011   1.0916 C.3            1 S1                 0.0000
     18 ****         5.5036  -1.7393  -1.1753 O.3            1 S1                 0.0000
     19 ****         4.9381  -0.5354  -1.6958 C.3            1 S1                 0.0000
     20 ****         5.2450  -0.4736  -3.1955 C.3            1 S1                 0.0000
     21 ****         3.4243  -0.5214  -1.4186 C.3            1 S1                 0.0000
     22 ****         0.9172  -1.3645  -0.1553 N.ar           1 S1                 0.0000
     23 ****        -0.3762  -1.2064   0.1982 C.ar           1 S1                 0.0000
     24 ****        -8.2500   3.6744  -0.8816 H              1 S1                 0.0000
     25 ****        -8.4521   1.9255  -0.8434 H              1 S1                 0.0000
     26 ****        -7.0184   2.6341  -1.5873 H              1 S1                 0.0000
     27 ****        -6.2879   3.5070   0.6749 H              1 S1                 0.0000
     28 ****        -7.7209   2.8176   1.4007 H              1 S1                 0.0000
     29 ****        -6.7949   0.7264   1.3741 H              1 S1                 0.0000
     30 ****        -4.9288  -0.6070   1.6353 H              1 S1                 0.0000
     31 ****        -5.0623  -1.0333  -0.0573 H              1 S1                 0.0000
     32 ****        -2.7961  -0.7797  -0.3619 H              1 S1                 0.0000
     33 ****        -0.1406   1.4441   2.3330 H              1 S1                 0.0000
     34 ****         2.2493   1.1555   1.6901 H              1 S1                 0.0000
     35 ****         3.6108  -1.9640   1.6142 H              1 S1                 0.0000
     36 ****         3.2838  -2.7652   0.0895 H              1 S1                 0.0000
     37 ****         5.6338  -2.9628   0.4350 H              1 S1                 0.0000
     38 ****         6.0405  -1.2638   2.1462 H              1 S1                 0.0000
     39 ****         5.8154   0.0381   0.9912 H              1 S1                 0.0000
     40 ****         7.1824  -1.0622   0.8229 H              1 S1                 0.0000
     41 ****         5.4063   0.3263  -1.2192 H              1 S1                 0.0000
     42 ****         4.8429   0.4366  -3.6413 H              1 S1                 0.0000
     43 ****         4.8120  -1.3243  -3.7225 H              1 S1                 0.0000
     44 ****         6.3206  -0.4832  -3.3736 H              1 S1                 0.0000
     45 ****         2.9373  -1.3274  -1.9695 H              1 S1                 0.0000
     46 ****         2.9872   0.4167  -1.7634 H              1 S1                 0.0000
     47 ****        -1.0653  -1.9112  -0.2440 H              1 S1                 0.0000
     48 ****        -4.8225   2.7441  -0.6565 LP             1 S1                 0.0000
     49 ****        -3.5782   1.5457  -0.7805 LP             1 S1                 0.0000
     50 ****        -3.5692   0.5260   2.7709 LP             1 S1                 0.0000
     51 ****        -1.9007   0.6519   3.2186 LP             1 S1                 0.0000
     52 ****         3.6526   0.0787   0.4499 LP             1 S1                 0.0000
     53 ****         5.1054  -2.5100  -1.6728 LP             1 S1                 0.0000
     54 ****         6.4904  -1.7134  -1.3352 LP             1 S1                 0.0000
     55 ****         1.1901  -2.0857  -0.7919 LP             1 S1                 0.0000
@<TRIPOS>BOND
    1    1    2 1     
    2    1   24 1     
    3    1   25 1     
    4    1   26 1     
    5    2    3 1     
    6    2   27 1     
    7    2   28 1     
    8    3    4 am    
    9    3   29 1     
   10    4    5 2     
   11    4    6 1     
   12    6    7 1     
   13    6   30 1     
   14    6   31 1     
   15    7    8 am    
   16    7   32 1     
   17    8    9 2     
   18    8   10 1     
   19   10   23 ar    
   20   10   11 ar    
   21   11   12 ar    
   22   11   33 1     
   23   12   13 ar    
   24   12   34 1     
   25   13   14 1     
   26   13   22 ar    
   27   14   21 1     
   28   14   15 1     
   29   15   16 1     
   30   15   35 1     
   31   15   36 1     
   32   16   17 1     
   33   16   18 1     
   34   16   37 1     
   35   17   38 1     
   36   17   39 1     
   37   17   40 1     
   38   18   19 1     
   39   19   20 1     
   40   19   21 1     
   41   19   41 1     
   42   20   42 1     
   43   20   43 1     
   44   20   44 1     
   45   21   45 1     
   46   21   46 1     
   47   22   23 ar    
   48   23   47 1     
   49    5   48 1     
   50    5   49 1     
   51    9   50 1     
   52    9   51 1     
   53   14   52 1     
   54   18   53 1     
   55   18   54 1     
   56   22   55 1     
@<TRIPOS>SUBSTRUCTURE
      1 S1             1
@<TRIPOS>SET
LONE_PAIRS      STATIC     ATOMS    <user>   **** ""
8 48 49 50 51 52 53 54 55
DONOR_HYDROGENS      STATIC     ATOMS    <user>   **** ""
2 29 32
ATOM$BLUE        STATIC     ATOMS    COLORGROUP SYSTEM
8 48 49 50 51 52 53 54 55
ATOM$RED        STATIC     ATOMS    COLORGROUP SYSTEM
2 29 32
