AV-unprocessed.smi:3019|AV-procd|sdf|11489|dock5
  -GOLD-   2272016433D 1   1.00000     0.00000
 Structure written by MMmdl.
 30 31  0  0  0  0  0  0  0  0  1 V2000
  152.0249  144.7022  157.9585 C   0  0  0  0  0  0  0  0  0  0  0  0
  151.5352  143.3506  158.4990 C   0  0  0  0  0  0  0  0  0  0  0  0
  152.5150  142.7484  159.5167 C   0  0  0  0  0  0  0  0  0  0  0  0
  151.2309  142.3891  157.3913 C   0  0  0  0  0  0  0  0  0  0  0  0
  150.2930  142.6316  156.4728 N   0  0  0  0  0  0  0  0  0  0  0  0
  150.2286  141.5935  155.6125 N   0  0  0  0  0  0  0  0  0  0  0  0
  151.1754  140.7825  156.0833 C   0  0  0  0  0  0  0  0  0  0  0  0
  151.4338  139.4517  155.4481 C   0  0  2  0  0  0  0  0  0  0  0  0
  150.4406  139.1521  154.3078 C   0  0  0  0  0  0  0  0  0  0  0  0
  150.6594  137.8038  153.7861 N   0  0  0  0  0  0  0  0  0  0  0  0
  150.5882  136.8082  154.8546 C   0  0  0  0  0  0  0  0  0  0  0  0
  151.5734  137.1622  155.9834 C   0  0  0  0  0  0  0  0  0  0  0  0
  151.2909  138.4690  156.4717 O   0  0  0  0  0  0  0  0  0  0  0  0
  151.8267  141.2154  157.2065 N   0  0  0  0  0  0  0  0  0  0  0  0
  151.2892  145.1460  157.2868 H   0  0  0  0  0  0  0  0  0  0  0  0
  152.9580  144.5934  157.4043 H   0  0  0  0  0  0  0  0  0  0  0  0
  152.2010  145.4095  158.7693 H   0  0  0  0  0  0  0  0  0  0  0  0
  150.6006  143.5397  159.0295 H   0  0  0  0  0  0  0  0  0  0  0  0
  152.1247  141.8198  159.9343 H   0  0  0  0  0  0  0  0  0  0  0  0
  152.6922  143.4345  160.3451 H   0  0  0  0  0  0  0  0  0  0  0  0
  153.4788  142.5271  159.0565 H   0  0  0  0  0  0  0  0  0  0  0  0
  152.4585  139.4353  155.0709 H   0  0  0  0  0  0  0  0  0  0  0  0
  149.4180  139.2422  154.6767 H   0  0  0  0  0  0  0  0  0  0  0  0
  150.5517  139.8857  153.5089 H   0  0  0  0  0  0  0  0  0  0  0  0
  149.5743  136.7651  155.2544 H   0  0  0  0  0  0  0  0  0  0  0  0
  150.8116  135.8175  154.4588 H   0  0  0  0  0  0  0  0  0  0  0  0
  151.4750  136.4513  156.8039 H   0  0  0  0  0  0  0  0  0  0  0  0
  152.6057  137.1042  155.6343 H   0  0  0  0  0  0  0  0  0  0  0  0
  149.9605  137.5951  153.0802 H   0  0  0  0  0  0  0  0  0  0  0  0
  149.6975  143.4442  156.4022 H   0  0  0  0  0  0  0  0  0  0  0  0
  1  2  1  0  0  0  0
  1 15  1  0  0  0  0
  1 16  1  0  0  0  0
  1 17  1  0  0  0  0
  2  3  1  0  0  0  0
  2  4  1  0  0  0  0
  2 18  1  0  0  0  0
  3 19  1  0  0  0  0
  3 20  1  0  0  0  0
  3 21  1  0  0  0  0
  4 14  2  0  0  0  0
  4  5  1  0  0  0  0
  5  6  1  0  0  0  0
  5 30  1  0  0  0  0
  6  7  2  0  0  0  0
  7  8  1  0  0  0  0
  7 14  1  0  0  0  0
  8 13  1  0  0  0  0
  8  9  1  0  0  0  0
  8 22  1  0  0  0  0
  9 10  1  0  0  0  0
  9 23  1  0  0  0  0
  9 24  1  0  0  0  0
 10 11  1  0  0  0  0
 10 29  1  0  0  0  0
 11 12  1  0  0  0  0
 11 25  1  0  0  0  0
 11 26  1  0  0  0  0
 12 13  1  0  0  0  0
 12 27  1  0  0  0  0
 12 28  1  0  0  0  0
M  END
> <s_m_source_file>
AV-unprocessed.smi

> <i_m_source_file_index>
3019

> <i_lp_mmshare_version>
43012

> <i_f3d_flags>
0

> <s_epik_input>
W0NIM11bQ0hdKFtDSDNdKWMxbltuSF1jKG4xKVtDQEBIXTJbQ0gyXVtOSF1bQ0gyXVtDSDJdTzI=

> <s_epik_cmdline>
J2VwaWtfcHl0aG9uJywgJy1waCcsICc3LjAnLCAnLXRuJywgJzgnLCAnLW1hJywgJzIwMCcsICctbWV0YWxfYmluZGluZycsICctaW1hZScsICc8aW5maWxlLm1hZT4nLCAnLW9tYWUnLCAnPG91dGZpbGUubWFlPic=

> <r_lp_tautomer_probability>
0.948284

> <r_epik_Ionization_Penalty>
1.10045

> <r_epik_Ionization_Penalty_Charging>
0

> <r_epik_Ionization_Penalty_Neutral>
1.10045

> <r_epik_State_Penalty>
1.2625

> <r_epik_Charging_Adjusted_Penalty>
1.2625

> <i_epik_Tot_Q>
0

> <i_epik_Tot_abs_Q>
0

> <r_epik_Metal_State_Penalty>
1.57133

> <b_epik_Metal_Only>
0

> <s_lp_Force_Field>
OPLS_2005

> <r_lp_Energy>
11.1222

> <b_lp_Chiralities_Consistent>
1

> <s_lp_Variant>
AV-unprocessed.smi:3019-5

> <Gold.Version>
5.8.1

> <Gold.Id.Protein>
6NUR|6NUR_protein|mol2

> <Gold.PLP.Fitness>
34.7715

> <Gold.PLP.PLP>
-28.9732

> <Gold.PLP.part.hbond>
-3.0502

> <Gold.PLP.part.metal>
0.0000

> <Gold.PLP.part.buried>
-2.8785

> <Gold.PLP.part.nonpolar>
-22.8308

> <Gold.PLP.part.repulsive>
0.1708

> <Gold.PLP.ligand.clash>
0.0000

> <Gold.PLP.ligand.torsion>
0.1147

> <Gold.PLP.Chemscore.Hbond>
1.9913

> <Gold.PLP.Chemscore.CHOScore>
0.0000

> <Gold.PLP.Chemscore.Metal>
0.0000

> <Gold.Chemscore.Hbonds>
donor molecule, donor type, donor heavy atom, donor atom, acceptor molecule, acceptor atom, score
      L1  H     5    30       P1  8028  1.00
      L1  H    10    29       P1  7948  0.98

> <Gold.PLP.Chemscore.Internal.Correction>
0.0539

> <Gold.Rescore>
     Score         DG    S(hbond)    S(metal)    S(lipo)     H(rot)  DE(clash)    DE(int)     intcor
     15.10     -15.25       1.72        0.00      61.86       1.26       0.02       0.13       ----

> <Gold.Chemscore.Fitness>
15.0988

> <Gold.Chemscore.DG>
-15.2529

> <Gold.Chemscore.ZeroCoef>
-5.4800

> <Gold.Chemscore.Hbond>
1.7245

> <Gold.Chemscore.Metal>
0.0000

> <Gold.Chemscore.Lipo>
61.8647

> <Gold.Chemscore.Internal_Hbond>
0.0000

> <Gold.Chemscore.DEClash>
0.0250

> <Gold.Chemscore.DEInternal>
0.1291

> <Gold.Chemscore.Rot>
1.2598

> <Gold.Chemscore.Internal.Correction>
   9.000000E+99

> <Gold.Chemscore.Hbonds>
donor molecule, donor type, donor heavy atom, donor atom, acceptor molecule, acceptor atom, score
      L1  H     5    30       P1  8028  0.99
      L1  H    10    29       P1  7948  0.26

> <Gold.Chemscore.Hbond.Weighted>
-5.7599

> <Gold.Chemscore.Metal.Weighted>
-0.0000

> <Gold.Chemscore.Lipo.Weighted>
-7.2382

> <Gold.Chemscore.Internal_Hbond.Weighted>
0.0000

> <Gold.Chemscore.DEClash.Weighted>
0.0250

> <Gold.Chemscore.DEInternal.Weighted>
0.1291

> <Gold.Chemscore.Rot.Weighted>
3.2251

> <Gold.Chemscore.Internal.Correction.Weighted>
   9.000000E+99

> <Gold.Protein.RotatedTorsions>
[ 6907 6896 6895 6894 ] final -179.24 input  -60.11 | X-H torsion
[ 7974 7965 7964 7962 ] final -118.83 input  175.53 | X-H torsion
[ 8008 7997 7996 7995 ] final -142.86 input   59.86 | X-H torsion
[ 10167 10162 10161 10158 ] final   81.08 input  -65.29 | X-H torsion
[ 10718 10713 10712 10709 ] final -129.11 input   66.30 | X-H torsion
[ 10763 10752 10751 10750 ] final  173.13 input  -60.55 | X-H torsion
[ 11005 11000 10999 10996 ] final  -22.64 input  -57.11 | X-H torsion

> <Gold.Protein.ActiveResidues>
 VAL166  LYS551  ARG553  GLY616  TRP617  ASP618  TYR619  PRO620  LYS621  CYS622 
 ASP623  PHE694  ASN695  SER759  ASP760  ASP761  ALA762  ILE779  LEU786  VAL792 
 PHE793  MET794  SER795  GLU796  ALA797  LYS798  CYS799  TRP800  GLU811  SER814 

> <Gold.Protein.RotatedAtoms>
  151.6502  133.3321  159.3149 H   0  0  0  0  0  0  0  0  0  0  0  0  # atno 6907 bound_to 6896
  150.7964  134.7030  159.6570 H   0  0  0  0  0  0  0  0  0  0  0  0  # atno 6908 bound_to 6896
  152.4051  134.6224  160.0106 H   0  0  0  0  0  0  0  0  0  0  0  0  # atno 6909 bound_to 6896
  145.0693  140.8347  143.4105 H   0  0  0  0  0  0  0  0  0  0  0  0  # atno 7974 bound_to 7965
  155.5011  140.0575  157.2939 H   0  0  0  0  0  0  0  0  0  0  0  0  # atno 8008 bound_to 7997
  154.4587  140.1985  156.0257 H   0  0  0  0  0  0  0  0  0  0  0  0  # atno 8009 bound_to 7997
  156.0848  140.3242  155.7744 H   0  0  0  0  0  0  0  0  0  0  0  0  # atno 8010 bound_to 7997
  139.9431  144.6077  150.8233 H   0  0  0  0  0  0  0  0  0  0  0  0  # atno 10167 bound_to 10162
  156.2015  130.6860  151.0545 H   0  0  0  0  0  0  0  0  0  0  0  0  # atno 10718 bound_to 10713
  154.4358  135.2761  155.1881 H   0  0  0  0  0  0  0  0  0  0  0  0  # atno 10763 bound_to 10752
  154.3768  135.6096  153.5773 H   0  0  0  0  0  0  0  0  0  0  0  0  # atno 10764 bound_to 10752
  152.9838  135.5871  154.4677 H   0  0  0  0  0  0  0  0  0  0  0  0  # atno 10765 bound_to 10752
  140.8676  133.7743  156.0148 H   0  0  0  0  0  0  0  0  0  0  0  0  # atno 11005 bound_to 11000
  145.1312  139.2631  143.5538 LP  0  0  0  0  0  0  0  0  0  0  0  0  # atno 17320 bound_to 7965
  146.3528  140.0963  142.8610 LP  0  0  0  0  0  0  0  0  0  0  0  0  # atno 17321 bound_to 7965
  140.7605  143.3153  151.2748 LP  0  0  0  0  0  0  0  0  0  0  0  0  # atno 17342 bound_to 10162
  139.6689  144.0056  152.2740 LP  0  0  0  0  0  0  0  0  0  0  0  0  # atno 17343 bound_to 10162
  157.6988  131.0784  150.6885 LP  0  0  0  0  0  0  0  0  0  0  0  0  # atno 17370 bound_to 10713
  156.6942  130.4604  149.5591 LP  0  0  0  0  0  0  0  0  0  0  0  0  # atno 17371 bound_to 10713
  140.8611  134.2840  157.5234 LP  0  0  0  0  0  0  0  0  0  0  0  0  # atno 17394 bound_to 11000
  139.8710  134.9518  156.4097 LP  0  0  0  0  0  0  0  0  0  0  0  0  # atno 17395 bound_to 11000

$$$$
