#       Name:                AV-unprocessed.smi:1824
#       Creating user name   scv26
#       Creation time:       Fri Mar 27 09:07:23 2020


#       File generated by GOLD software.
#

@<TRIPOS>MOLECULE
AV-unprocessed.smi:1824
    50    52     1
SMALL
NO_CHARGES


@<TRIPOS>ATOM
      1 ****        -1.9473   3.4768  -2.1601 C.3            1 S1                 0.0000
      2 ****        -2.0926   2.7515  -0.8179 C.3            1 S1                 0.0000
      3 ****        -1.6390   1.2830  -0.9028 C.3            1 S1                 0.0000
      4 ****        -1.8715   0.5975   0.3910 N.4            1 S1                 1.0000
      5 ****        -1.3662  -0.7988   0.4291 C.3            1 S1                 0.0000
      6 ****         0.1636  -0.8735   0.6079 C.3            1 S1                 0.0000
      7 ****         0.5049  -0.3056   1.8587 O.3            1 S1                 0.0000
      8 ****         0.6725  -2.3270   0.5502 C.3            1 S1                 0.0000
      9 ****         2.1148  -2.4212   0.6925 N.pl3          1 S1                 0.0000
     10 ****         2.8078  -2.6563   1.8238 C.2            1 S1                 0.0000
     11 ****         4.1331  -2.7059   1.7276 N.2            1 S1                 0.0000
     12 ****         4.3241  -2.4806   0.3754 C.ar           1 S1                 0.0000
     13 ****         5.5138  -2.4132  -0.3841 C.ar           1 S1                 0.0000
     14 ****         5.4631  -2.1693  -1.7723 C.ar           1 S1                 0.0000
     15 ****         6.6127  -2.1101  -2.4854 F              1 S1                 0.0000
     16 ****         4.2232  -1.9875  -2.4207 C.ar           1 S1                 0.0000
     17 ****         4.1827  -1.7533  -3.7538 F              1 S1                 0.0000
     18 ****         3.0242  -2.0504  -1.6849 C.ar           1 S1                 0.0000
     19 ****         3.0802  -2.2962  -0.3006 C.ar           1 S1                 0.0000
     20 ****        -3.3000   0.6953   0.7739 C.3            1 S1                 0.0000
     21 ****        -3.7698   2.1633   0.8017 C.3            1 S1                 0.0000
     22 ****        -3.2406   2.9558   2.0104 C.3            1 S1                 0.0000
     23 ****        -3.4656   2.8017  -0.4386 O.3            1 S1                 0.0000
     24 ****        -0.9102   3.4761  -2.4968 H              1 S1                 0.0000
     25 ****        -2.2683   4.5156  -2.0783 H              1 S1                 0.0000
     26 ****        -2.5512   3.0019  -2.9338 H              1 S1                 0.0000
     27 ****        -1.4867   3.2807  -0.0821 H              1 S1                 0.0000
     28 ****        -2.1833   0.7646  -1.6938 H              1 S1                 0.0000
     29 ****        -0.5831   1.2486  -1.1685 H              1 S1                 0.0000
     30 ****        -1.8360  -1.3351   1.2553 H              1 S1                 0.0000
     31 ****        -1.6716  -1.3169  -0.4812 H              1 S1                 0.0000
     32 ****         0.6649  -0.3014  -0.1722 H              1 S1                 0.0000
     33 ****         0.1490  -0.8483   2.5461 H              1 S1                 0.0000
     34 ****         0.2057  -2.9286   1.3316 H              1 S1                 0.0000
     35 ****         0.3946  -2.7844  -0.4001 H              1 S1                 0.0000
     36 ****         2.3113  -2.7975   2.7728 H              1 S1                 0.0000
     37 ****         6.4682  -2.5505   0.1021 H              1 S1                 0.0000
     38 ****         2.0743  -1.9138  -2.1795 H              1 S1                 0.0000
     39 ****        -3.8989   0.1315   0.0568 H              1 S1                 0.0000
     40 ****        -3.4619   0.2364   1.7503 H              1 S1                 0.0000
     41 ****        -4.8575   2.1616   0.8802 H              1 S1                 0.0000
     42 ****        -3.6036   2.5250   2.9439 H              1 S1                 0.0000
     43 ****        -3.5791   3.9914   1.9734 H              1 S1                 0.0000
     44 ****        -2.1522   2.9613   2.0593 H              1 S1                 0.0000
     45 ****        -1.3542   1.1057   1.0947 H              1 S1                 0.0000
     46 ****         0.1221   0.6158   1.9254 LP             1 S1                 0.0000
     47 ****         1.5000  -0.2603   1.9471 LP             1 S1                 0.0000
     48 ****         4.8129  -2.8643   2.4437 LP             1 S1                 0.0000
     49 ****        -4.0026   2.3583  -1.1563 LP             1 S1                 0.0000
     50 ****        -3.7333   3.7625  -0.3674 LP             1 S1                 0.0000
@<TRIPOS>BOND
    1    1    2 1     
    2    1   24 1     
    3    1   25 1     
    4    1   26 1     
    5    2   23 1     
    6    2    3 1     
    7    2   27 1     
    8    3    4 1     
    9    3   28 1     
   10    3   29 1     
   11    4    5 1     
   12    4   20 1     
   13    4   45 1     
   14    5    6 1     
   15    5   30 1     
   16    5   31 1     
   17    6    7 1     
   18    6    8 1     
   19    6   32 1     
   20    7   33 1     
   21    8    9 1     
   22    8   34 1     
   23    8   35 1     
   24    9   19 1     
   25    9   10 1     
   26   10   11 2     
   27   10   36 1     
   28   11   12 1     
   29   12   19 ar    
   30   12   13 ar    
   31   13   14 ar    
   32   13   37 1     
   33   14   15 1     
   34   14   16 ar    
   35   16   17 1     
   36   16   18 ar    
   37   18   19 ar    
   38   18   38 1     
   39   20   21 1     
   40   20   39 1     
   41   20   40 1     
   42   21   22 1     
   43   21   23 1     
   44   21   41 1     
   45   22   42 1     
   46   22   43 1     
   47   22   44 1     
   48    7   46 1     
   49    7   47 1     
   50   11   48 1     
   51   23   49 1     
   52   23   50 1     
@<TRIPOS>SUBSTRUCTURE
      1 S1             1
@<TRIPOS>SET
LONE_PAIRS      STATIC     ATOMS    <user>   **** ""
5 46 47 48 49 50
DONOR_HYDROGENS      STATIC     ATOMS    <user>   **** ""
2 45 33
ATOM$BLUE        STATIC     ATOMS    COLORGROUP SYSTEM
5 46 47 48 49 50
ATOM$RED        STATIC     ATOMS    COLORGROUP SYSTEM
2 45 33
