AV-unprocessed.smi:570|AV-procd|sdf|2962|dock2
  -GOLD-   2262023463D 1   1.00000     0.00000
 Structure written by MMmdl.
 39 40  0  0  0  0  0  0  0  0  2 V2000
  145.7816  143.3263  160.7058 C   0  0  0  0  0  0  0  0  0  0  0  0
  146.9742  142.8022  160.1496 O   0  0  0  0  0  0  0  0  0  0  0  0
  146.9105  142.6813  158.7346 C   0  0  0  0  0  0  0  0  0  0  0  0
  148.2559  142.1920  158.1588 C   0  0  0  0  0  0  0  0  0  0  0  0
  148.1474  141.1222  157.0524 C   0  0  0  0  0  0  0  0  0  0  0  0
  148.6002  141.6807  155.7818 N   0  5  0  0  0  0  0  0  0  0  0  0
  149.5755  141.1242  155.0050 C   0  0  0  0  0  0  0  0  0  0  0  0
  149.6301  141.0309  153.7735 O   0  0  0  0  0  0  0  0  0  0  0  0
  150.7194  140.5659  155.8234 C   0  0  0  0  0  0  0  0  0  0  0  0
  151.1029  141.2579  156.9269 N   0  0  0  0  0  0  0  0  0  0  0  0
  152.1201  140.8006  157.6635 C   0  0  0  0  0  0  0  0  0  0  0  0
  152.4818  141.5392  158.7978 N   0  0  0  0  0  0  0  0  0  0  0  0
  153.5102  141.0746  159.7317 C   0  0  0  0  0  0  0  0  0  0  0  0
  153.2076  141.5552  161.1611 C   0  0  0  0  0  0  0  0  0  0  0  0
  153.0636  142.9700  161.1731 O   0  0  0  0  0  0  0  0  0  0  0  0
  151.9760  143.3901  160.3583 C   0  0  0  0  0  0  0  0  0  0  0  0
  152.2272  142.9787  158.8978 C   0  0  0  0  0  0  0  0  0  0  0  0
  152.8167  139.6903  157.3963 N   0  0  0  0  0  0  0  0  0  0  0  0
  152.4596  138.9778  156.3085 C   0  0  0  0  0  0  0  0  0  0  0  0
  151.3997  139.3692  155.4683 C   0  0  0  0  0  0  0  0  0  0  0  0
  150.9833  138.3752  154.1133 Cl  0  0  0  0  0  0  0  0  0  0  0  0
  145.8843  143.4003  161.7884 H   0  0  0  0  0  0  0  0  0  0  0  0
  144.9292  142.6804  160.4920 H   0  0  0  0  0  0  0  0  0  0  0  0
  145.5714  144.3242  160.3188 H   0  0  0  0  0  0  0  0  0  0  0  0
  146.1395  141.9510  158.4846 H   0  0  0  0  0  0  0  0  0  0  0  0
  146.6010  143.6256  158.2806 H   0  0  0  0  0  0  0  0  0  0  0  0
  148.8159  143.0516  157.7877 H   0  0  0  0  0  0  0  0  0  0  0  0
  148.8461  141.7817  158.9796 H   0  0  0  0  0  0  0  0  0  0  0  0
  148.7399  140.2530  157.3401 H   0  0  0  0  0  0  0  0  0  0  0  0
  147.1148  140.7752  156.9970 H   0  0  0  0  0  0  0  0  0  0  0  0
  153.5933  139.9885  159.7467 H   0  0  0  0  0  0  0  0  0  0  0  0
  154.4763  141.4602  159.4043 H   0  0  0  0  0  0  0  0  0  0  0  0
  152.3034  141.0819  161.5476 H   0  0  0  0  0  0  0  0  0  0  0  0
  154.0223  141.2772  161.8299 H   0  0  0  0  0  0  0  0  0  0  0  0
  151.0422  142.9622  160.7268 H   0  0  0  0  0  0  0  0  0  0  0  0
  151.8784  144.4733  160.4290 H   0  0  0  0  0  0  0  0  0  0  0  0
  153.0894  143.5143  158.4992 H   0  0  0  0  0  0  0  0  0  0  0  0
  151.3634  143.2840  158.3071 H   0  0  0  0  0  0  0  0  0  0  0  0
  153.0241  138.0786  156.1109 H   0  0  0  0  0  0  0  0  0  0  0  0
  1  2  1  0  0  0  0
  1 22  1  0  0  0  0
  1 23  1  0  0  0  0
  1 24  1  0  0  0  0
  2  3  1  0  0  0  0
  3  4  1  0  0  0  0
  3 25  1  0  0  0  0
  3 26  1  0  0  0  0
  4  5  1  0  0  0  0
  4 27  1  0  0  0  0
  4 28  1  0  0  0  0
  5  6  1  0  0  0  0
  5 29  1  0  0  0  0
  5 30  1  0  0  0  0
  6  7  1  0  0  0  0
  7  8  2  0  0  0  0
  7  9  1  0  0  0  0
  9 20  1  0  0  0  0
  9 10  2  0  0  0  0
 10 11  1  0  0  0  0
 11 12  1  0  0  0  0
 11 18  2  0  0  0  0
 12 17  1  0  0  0  0
 12 13  1  0  0  0  0
 13 14  1  0  0  0  0
 13 31  1  0  0  0  0
 13 32  1  0  0  0  0
 14 15  1  0  0  0  0
 14 33  1  0  0  0  0
 14 34  1  0  0  0  0
 15 16  1  0  0  0  0
 16 17  1  0  0  0  0
 16 35  1  0  0  0  0
 16 36  1  0  0  0  0
 17 37  1  0  0  0  0
 17 38  1  0  0  0  0
 18 19  1  0  0  0  0
 19 20  2  0  0  0  0
 19 39  1  0  0  0  0
 20 21  1  0  0  0  0
M  CHG  1   6  -1
M  END
> <s_m_source_file>
AV-unprocessed.smi

> <i_m_source_file_index>
570

> <i_lp_mmshare_version>
43012

> <i_f3d_flags>
0

> <s_epik_input>
W0NIM11PW0NIMl1bQ0gyXVtDSDJdW05IXUMoPU8pYzFuYyhuW2NIXWMxQ2wpTjJbQ0gyXVtDSDJdT1tDSDJdW0NIMl0y

> <s_epik_cmdline>
J2VwaWtfcHl0aG9uJywgJy1waCcsICc3LjAnLCAnLXRuJywgJzgnLCAnLW1hJywgJzIwMCcsICctbWV0YWxfYmluZGluZycsICctaW1hZScsICc8aW5maWxlLm1hZT4nLCAnLW9tYWUnLCAnPG91dGZpbGUubWFlPic=

> <r_lp_tautomer_probability>
1

> <r_epik_Ionization_Penalty>
6.0123

> <r_epik_Ionization_Penalty_Charging>
6.01228

> <r_epik_Ionization_Penalty_Neutral>
2.47988e-05

> <r_epik_State_Penalty>
6.01226

> <r_epik_Charging_Adjusted_Penalty>
12.0245

> <i_epik_Tot_Q>
-1

> <i_epik_Tot_abs_Q>
1

> <r_epik_Metal_State_Penalty>
1.96418

> <b_epik_Metal_Only>
1

> <s_lp_Force_Field>
OPLS_2005

> <r_lp_Energy>
20.8632

> <b_lp_Chiralities_Consistent>
1

> <s_lp_Variant>
AV-unprocessed.smi:570-2

> <Gold.Version>
5.8.1

> <Gold.Id.Protein>
6NUR|6NUR_protein|mol2

> <Gold.PLP.Fitness>
47.3082

> <Gold.PLP.PLP>
-38.5112

> <Gold.PLP.part.hbond>
-5.0000

> <Gold.PLP.part.metal>
0.0000

> <Gold.PLP.part.buried>
-5.5860

> <Gold.PLP.part.nonpolar>
-30.4056

> <Gold.PLP.part.repulsive>
3.2658

> <Gold.PLP.ligand.clash>
0.0000

> <Gold.PLP.ligand.torsion>
1.6899

> <Gold.PLP.Chemscore.Hbond>
3.9655

> <Gold.PLP.Chemscore.CHOScore>
0.0000

> <Gold.PLP.Chemscore.Metal>
0.0000

> <Gold.Chemscore.Hbonds>
donor molecule, donor type, donor heavy atom, donor atom, acceptor molecule, acceptor atom, score
      P1  H  6933  6944       L1     2  0.83
      P1  H  6934  6946       L1     2  0.88
      P1  H  7989  7998       L1     8  0.35
      P1  H  7997  8009       L1    18  0.85
      P1  H  8011  8017       L1     8  0.94

> <Gold.PLP.Chemscore.Internal.Correction>
0.2802

> <Gold.Rescore>
     Score         DG    S(hbond)    S(metal)    S(lipo)     H(rot)  DE(clash)    DE(int)     intcor
     14.27     -17.80       2.16        0.00      78.63       1.59       1.60       1.92       ----

> <Gold.Chemscore.Fitness>
14.2727

> <Gold.Chemscore.DG>
-17.7966

> <Gold.Chemscore.ZeroCoef>
-5.4800

> <Gold.Chemscore.Hbond>
2.1557

> <Gold.Chemscore.Metal>
0.0000

> <Gold.Chemscore.Lipo>
78.6290

> <Gold.Chemscore.Internal_Hbond>
0.0000

> <Gold.Chemscore.DEClash>
1.5993

> <Gold.Chemscore.DEInternal>
1.9247

> <Gold.Chemscore.Rot>
1.5949

> <Gold.Chemscore.Internal.Correction>
   9.000000E+99

> <Gold.Chemscore.Hbonds>
donor molecule, donor type, donor heavy atom, donor atom, acceptor molecule, acceptor atom, score
      P1  H  6933  6944       L1     2  0.74
      P1  H  6934  6946       L1     2  0.11
      P1  H  7989  7998       L1     8  0.11
      P1  H  7997  8009       L1    18  0.12
      P1  H  8011  8017       L1     8  0.87

> <Gold.Chemscore.Hbond.Weighted>
-7.2000

> <Gold.Chemscore.Metal.Weighted>
-0.0000

> <Gold.Chemscore.Lipo.Weighted>
-9.1996

> <Gold.Chemscore.Internal_Hbond.Weighted>
0.0000

> <Gold.Chemscore.DEClash.Weighted>
1.5993

> <Gold.Chemscore.DEInternal.Weighted>
1.9247

> <Gold.Chemscore.Rot.Weighted>
4.0830

> <Gold.Chemscore.Internal.Correction.Weighted>
   9.000000E+99

> <Gold.Protein.RotatedTorsions>
[ 6907 6896 6895 6894 ] final  112.27 input  -60.11 | X-H torsion
[ 7974 7965 7964 7962 ] final   87.59 input  175.53 | X-H torsion
[ 8008 7997 7996 7995 ] final  165.13 input   59.86 | X-H torsion
[ 10167 10162 10161 10158 ] final  174.77 input  -65.29 | X-H torsion
[ 10718 10713 10712 10709 ] final  105.97 input   66.30 | X-H torsion
[ 10763 10752 10751 10750 ] final -170.14 input  -60.55 | X-H torsion
[ 11005 11000 10999 10996 ] final  -18.70 input  -57.11 | X-H torsion

> <Gold.Protein.ActiveResidues>
 VAL166  LYS551  ARG553  GLY616  TRP617  ASP618  TYR619  PRO620  LYS621  CYS622 
 ASP623  PHE694  ASN695  SER759  ASP760  ASP761  ALA762  ILE779  LEU786  VAL792 
 PHE793  MET794  SER795  GLU796  ALA797  LYS798  CYS799  TRP800  GLU811  SER814 

> <Gold.Protein.RotatedAtoms>
  152.4925  133.8540  159.7215 H   0  0  0  0  0  0  0  0  0  0  0  0  # atno 6907 bound_to 6896
  150.9069  133.7037  159.2871 H   0  0  0  0  0  0  0  0  0  0  0  0  # atno 6908 bound_to 6896
  151.4460  135.1029  159.9736 H   0  0  0  0  0  0  0  0  0  0  0  0  # atno 6909 bound_to 6896
  145.5569  139.2300  143.2481 H   0  0  0  0  0  0  0  0  0  0  0  0  # atno 7974 bound_to 7965
  156.1825  140.1678  156.8247 H   0  0  0  0  0  0  0  0  0  0  0  0  # atno 8008 bound_to 7997
  154.5377  140.0743  156.8488 H   0  0  0  0  0  0  0  0  0  0  0  0  # atno 8009 bound_to 7997
  155.3278  140.3377  155.4242 H   0  0  0  0  0  0  0  0  0  0  0  0  # atno 8010 bound_to 7997
  139.5153  144.3108  152.0293 H   0  0  0  0  0  0  0  0  0  0  0  0  # atno 10167 bound_to 10162
  157.6686  131.0840  150.5936 H   0  0  0  0  0  0  0  0  0  0  0  0  # atno 10718 bound_to 10713
  154.6448  135.2903  155.0060 H   0  0  0  0  0  0  0  0  0  0  0  0  # atno 10763 bound_to 10752
  154.1174  135.6553  153.4900 H   0  0  0  0  0  0  0  0  0  0  0  0  # atno 10764 bound_to 10752
  153.0345  135.5279  154.7330 H   0  0  0  0  0  0  0  0  0  0  0  0  # atno 10765 bound_to 10752
  140.8294  133.8008  155.9742 H   0  0  0  0  0  0  0  0  0  0  0  0  # atno 11005 bound_to 11000
  146.1878  140.6393  142.9159 LP  0  0  0  0  0  0  0  0  0  0  0  0  # atno 17320 bound_to 7965
  144.7502  140.5171  143.6807 LP  0  0  0  0  0  0  0  0  0  0  0  0  # atno 17321 bound_to 7965
  140.2553  144.4126  150.6206 LP  0  0  0  0  0  0  0  0  0  0  0  0  # atno 17342 bound_to 10162
  140.6196  143.2175  151.6721 LP  0  0  0  0  0  0  0  0  0  0  0  0  # atno 17343 bound_to 10162
  156.6237  130.4413  149.5812 LP  0  0  0  0  0  0  0  0  0  0  0  0  # atno 17370 bound_to 10713
  156.2336  130.6809  151.1487 LP  0  0  0  0  0  0  0  0  0  0  0  0  # atno 17371 bound_to 10713
  140.9014  134.2373  157.5039 LP  0  0  0  0  0  0  0  0  0  0  0  0  # atno 17394 bound_to 11000
  139.8705  134.9708  156.4715 LP  0  0  0  0  0  0  0  0  0  0  0  0  # atno 17395 bound_to 11000

$$$$
