AV-unprocessed.smi:864|AV-procd|sdf|3986|dock9
  -GOLD-   22720 1463D 1   1.00000     0.00000
 Structure written by MMmdl.
 44 46  0  0  0  0  0  0  0  0  1 V2000
  152.4149  142.2880  158.8451 C   0  0  0  0  0  0  0  0  0  0  0  0
  151.8505  141.4605  157.7093 C   0  0  0  0  0  0  0  0  0  0  0  0
  150.7577  141.9252  156.9475 C   0  0  0  0  0  0  0  0  0  0  0  0
  150.2716  141.1117  155.9059 C   0  0  0  0  0  0  0  0  0  0  0  0
  150.8951  139.8706  155.6656 C   0  0  0  0  0  0  0  0  0  0  0  0
  150.3987  138.9495  154.5638 C   0  0  0  0  0  0  0  0  0  0  0  0
  149.1130  139.4505  153.8730 C   0  0  0  0  0  0  0  0  0  0  0  0
  148.4059  138.3975  153.1499 N   0  0  0  0  0  0  0  0  0  0  0  0
  147.0749  138.3151  153.0211 C   0  0  0  0  0  0  0  0  0  0  0  0
  146.2803  139.0918  153.5513 O   0  0  0  0  0  0  0  0  0  0  0  0
  146.7153  137.3104  152.2111 N   0  0  0  0  0  0  0  0  0  0  0  0
  145.3472  137.0492  151.7735 C   0  0  2  0  0  0  0  0  0  0  0  0
  144.3663  137.0095  152.9526 C   0  0  0  0  0  0  0  0  0  0  0  0
  143.5995  135.7147  152.7421 C   0  0  0  0  0  0  0  0  0  0  0  0
  142.6800  135.3644  153.4810 O   0  0  0  0  0  0  0  0  0  0  0  0
  144.0601  135.0368  151.6841 N   0  0  0  0  0  0  0  0  0  0  0  0
  143.6385  133.7161  151.3140 C   0  0  0  0  0  0  0  0  0  0  0  0
  144.5147  132.5048  151.5740 C   0  0  0  0  0  0  0  0  0  0  0  0
  144.3575  133.0357  150.1710 C   0  0  0  0  0  0  0  0  0  0  0  0
  145.2297  135.6714  151.0935 C   0  0  0  0  0  0  0  0  0  0  0  0
  151.9866  139.5025  156.4816 C   0  0  0  0  0  0  0  0  0  0  0  0
  152.4563  140.2736  157.4853 N   0  0  0  0  0  0  0  0  0  0  0  0
  151.8374  143.2006  158.9947 H   0  0  0  0  0  0  0  0  0  0  0  0
  153.4468  142.5686  158.6327 H   0  0  0  0  0  0  0  0  0  0  0  0
  152.3972  141.7186  159.7750 H   0  0  0  0  0  0  0  0  0  0  0  0
  150.2994  142.8811  157.1550 H   0  0  0  0  0  0  0  0  0  0  0  0
  149.4332  141.4338  155.3059 H   0  0  0  0  0  0  0  0  0  0  0  0
  151.1886  138.8253  153.8224 H   0  0  0  0  0  0  0  0  0  0  0  0
  150.2289  137.9580  154.9855 H   0  0  0  0  0  0  0  0  0  0  0  0
  148.4272  139.8387  154.6265 H   0  0  0  0  0  0  0  0  0  0  0  0
  149.3382  140.2818  153.2031 H   0  0  0  0  0  0  0  0  0  0  0  0
  148.9745  137.7145  152.6711 H   0  0  0  0  0  0  0  0  0  0  0  0
  147.4403  136.7241  151.8240 H   0  0  0  0  0  0  0  0  0  0  0  0
  145.0258  137.8294  151.0804 H   0  0  0  0  0  0  0  0  0  0  0  0
  144.8742  136.9745  153.9175 H   0  0  0  0  0  0  0  0  0  0  0  0
  143.6907  137.8653  152.9482 H   0  0  0  0  0  0  0  0  0  0  0  0
  142.5680  133.5276  151.3822 H   0  0  0  0  0  0  0  0  0  0  0  0
  145.4852  132.6347  152.0475 H   0  0  0  0  0  0  0  0  0  0  0  0
  144.0117  131.5699  151.8120 H   0  0  0  0  0  0  0  0  0  0  0  0
  143.7562  132.4525  149.4767 H   0  0  0  0  0  0  0  0  0  0  0  0
  145.2113  133.5476  149.7313 H   0  0  0  0  0  0  0  0  0  0  0  0
  145.1157  135.7828  150.0146 H   0  0  0  0  0  0  0  0  0  0  0  0
  146.1056  135.0464  151.2792 H   0  0  0  0  0  0  0  0  0  0  0  0
  152.4898  138.5579  156.3350 H   0  0  0  0  0  0  0  0  0  0  0  0
  1  2  1  0  0  0  0
  1 23  1  0  0  0  0
  1 24  1  0  0  0  0
  1 25  1  0  0  0  0
  2 22  1  0  0  0  0
  2  3  2  0  0  0  0
  3  4  1  0  0  0  0
  3 26  1  0  0  0  0
  4  5  2  0  0  0  0
  4 27  1  0  0  0  0
  5  6  1  0  0  0  0
  5 21  1  0  0  0  0
  6  7  1  0  0  0  0
  6 28  1  0  0  0  0
  6 29  1  0  0  0  0
  7  8  1  0  0  0  0
  7 30  1  0  0  0  0
  7 31  1  0  0  0  0
  8  9  1  0  0  0  0
  8 32  1  0  0  0  0
  9 10  2  0  0  0  0
  9 11  1  0  0  0  0
 11 12  1  0  0  0  0
 11 33  1  0  0  0  0
 12 20  1  0  0  0  0
 12 13  1  0  0  0  0
 12 34  1  0  0  0  0
 13 14  1  0  0  0  0
 13 35  1  0  0  0  0
 13 36  1  0  0  0  0
 14 15  2  0  0  0  0
 14 16  1  0  0  0  0
 16 17  1  0  0  0  0
 16 20  1  0  0  0  0
 17 19  1  0  0  0  0
 17 18  1  0  0  0  0
 17 37  1  0  0  0  0
 18 19  1  0  0  0  0
 18 38  1  0  0  0  0
 18 39  1  0  0  0  0
 19 40  1  0  0  0  0
 19 41  1  0  0  0  0
 20 42  1  0  0  0  0
 20 43  1  0  0  0  0
 21 22  2  0  0  0  0
 21 44  1  0  0  0  0
M  END
> <s_m_source_file>
AV-unprocessed.smi

> <i_m_source_file_index>
864

> <i_lp_mmshare_version>
43012

> <i_f3d_flags>
0

> <s_epik_input>
W0NIM11jMVtjSF1bY0hdYyhbY0hdbjEpW0NIMl1bQ0gyXVtOSF1DKD1PKVtOSF1bQ0BASF0yW0NIMl1DKD1PKU4oW0NIMl0yKVtDSF0zW0NIMl1bQ0gyXTM=

> <s_epik_cmdline>
J2VwaWtfcHl0aG9uJywgJy1waCcsICc3LjAnLCAnLXRuJywgJzgnLCAnLW1hJywgJzIwMCcsICctbWV0YWxfYmluZGluZycsICctaW1hZScsICc8aW5maWxlLm1hZT4nLCAnLW9tYWUnLCAnPG91dGZpbGUubWFlPic=

> <r_epik_Ionization_Penalty>
0.0559435

> <r_epik_Ionization_Penalty_Charging>
0

> <r_epik_Ionization_Penalty_Neutral>
0.0559435

> <r_epik_State_Penalty>
0.0481757

> <r_epik_Charging_Adjusted_Penalty>
0.0481757

> <i_epik_Tot_Q>
0

> <i_epik_Tot_abs_Q>
0

> <r_epik_Metal_State_Penalty>
0.0439988

> <b_epik_Metal_Only>
0

> <s_lp_Force_Field>
OPLS_2005

> <r_lp_Energy>
33.3792

> <b_lp_Chiralities_Consistent>
1

> <s_lp_Variant>
AV-unprocessed.smi:864-1

> <Gold.Version>
5.8.1

> <Gold.Id.Protein>
6NUR|6NUR_protein|mol2

> <Gold.PLP.Fitness>
45.7929

> <Gold.PLP.PLP>
-38.7392

> <Gold.PLP.part.hbond>
-3.9326

> <Gold.PLP.part.metal>
0.0000

> <Gold.PLP.part.buried>
-0.3548

> <Gold.PLP.part.nonpolar>
-35.5106

> <Gold.PLP.part.repulsive>
0.4468

> <Gold.PLP.ligand.clash>
0.0000

> <Gold.PLP.ligand.torsion>
0.5455

> <Gold.PLP.Chemscore.Hbond>
2.6200

> <Gold.PLP.Chemscore.CHOScore>
0.0000

> <Gold.PLP.Chemscore.Metal>
0.0000

> <Gold.Chemscore.Hbonds>
donor molecule, donor type, donor heavy atom, donor atom, acceptor molecule, acceptor atom, score
      L1  H     8    32       P1  7948  0.93
      L1  H    11    33       P1  7948  1.00
      P1  H  7997  8009       L1    22  0.51

> <Gold.PLP.Chemscore.Internal.Correction>
0.2846

> <Gold.Rescore>
     Score         DG    S(hbond)    S(metal)    S(lipo)     H(rot)  DE(clash)    DE(int)     intcor
     16.18     -18.03       1.89        0.00      91.48       1.75       0.11       1.73       ----

> <Gold.Chemscore.Fitness>
16.1816

> <Gold.Chemscore.DG>
-18.0268

> <Gold.Chemscore.ZeroCoef>
-5.4800

> <Gold.Chemscore.Hbond>
1.8945

> <Gold.Chemscore.Metal>
0.0000

> <Gold.Chemscore.Lipo>
91.4838

> <Gold.Chemscore.Internal_Hbond>
0.0000

> <Gold.Chemscore.DEClash>
0.1139

> <Gold.Chemscore.DEInternal>
1.7313

> <Gold.Chemscore.Rot>
1.7518

> <Gold.Chemscore.Internal.Correction>
   9.000000E+99

> <Gold.Chemscore.Hbonds>
donor molecule, donor type, donor heavy atom, donor atom, acceptor molecule, acceptor atom, score
      L1  H     8    32       P1  7948  0.89
      L1  H    11    33       P1  7948  0.91
      P1  H  7997  8009       L1    22  0.04

> <Gold.Chemscore.Hbond.Weighted>
-6.3278

> <Gold.Chemscore.Metal.Weighted>
-0.0000

> <Gold.Chemscore.Lipo.Weighted>
-10.7036

> <Gold.Chemscore.Internal_Hbond.Weighted>
0.0000

> <Gold.Chemscore.DEClash.Weighted>
0.1139

> <Gold.Chemscore.DEInternal.Weighted>
1.7313

> <Gold.Chemscore.Rot.Weighted>
4.4846

> <Gold.Chemscore.Internal.Correction.Weighted>
   9.000000E+99

> <Gold.Protein.RotatedTorsions>
[ 6907 6896 6895 6894 ] final   77.50 input  -60.11 | X-H torsion
[ 7974 7965 7964 7962 ] final   64.03 input  175.53 | X-H torsion
[ 8008 7997 7996 7995 ] final  168.29 input   59.86 | X-H torsion
[ 10167 10162 10161 10158 ] final  -96.62 input  -65.29 | X-H torsion
[ 10718 10713 10712 10709 ] final -159.47 input   66.30 | X-H torsion
[ 10763 10752 10751 10750 ] final   28.48 input  -60.55 | X-H torsion
[ 11005 11000 10999 10996 ] final  -59.97 input  -57.11 | X-H torsion

> <Gold.Protein.ActiveResidues>
 VAL166  LYS551  ARG553  GLY616  TRP617  ASP618  TYR619  PRO620  LYS621  CYS622 
 ASP623  PHE694  ASN695  SER759  ASP760  ASP761  ALA762  ILE779  LEU786  VAL792 
 PHE793  MET794  SER795  GLU796  ALA797  LYS798  CYS799  TRP800  GLU811  SER814 

> <Gold.Protein.RotatedAtoms>
  152.5120  134.3807  159.9349 H   0  0  0  0  0  0  0  0  0  0  0  0  # atno 6907 bound_to 6896
  151.3764  133.3830  159.2713 H   0  0  0  0  0  0  0  0  0  0  0  0  # atno 6908 bound_to 6896
  150.9538  134.8955  159.7747 H   0  0  0  0  0  0  0  0  0  0  0  0  # atno 6909 bound_to 6896
  145.8550  139.3278  143.0853 H   0  0  0  0  0  0  0  0  0  0  0  0  # atno 7974 bound_to 7965
  156.1559  140.1594  156.8693 H   0  0  0  0  0  0  0  0  0  0  0  0  # atno 8008 bound_to 7997
  154.5115  140.0800  156.8034 H   0  0  0  0  0  0  0  0  0  0  0  0  # atno 8009 bound_to 7997
  155.3803  140.3405  155.4249 H   0  0  0  0  0  0  0  0  0  0  0  0  # atno 8010 bound_to 7997
  140.2919  143.3216  152.0337 H   0  0  0  0  0  0  0  0  0  0  0  0  # atno 10167 bound_to 10162
  156.5686  130.8678  151.2831 H   0  0  0  0  0  0  0  0  0  0  0  0  # atno 10718 bound_to 10713
  153.0489  135.6512  154.0744 H   0  0  0  0  0  0  0  0  0  0  0  0  # atno 10763 bound_to 10752
  154.0436  135.2901  155.3353 H   0  0  0  0  0  0  0  0  0  0  0  0  # atno 10764 bound_to 10752
  154.6765  135.5336  153.8273 H   0  0  0  0  0  0  0  0  0  0  0  0  # atno 10765 bound_to 10752
  141.1269  133.6619  156.5152 H   0  0  0  0  0  0  0  0  0  0  0  0  # atno 11005 bound_to 11000
  145.9314  140.9045  143.0354 LP  0  0  0  0  0  0  0  0  0  0  0  0  # atno 17320 bound_to 7965
  144.6728  140.1424  143.7436 LP  0  0  0  0  0  0  0  0  0  0  0  0  # atno 17321 bound_to 7965
  139.4936  144.6518  151.6658 LP  0  0  0  0  0  0  0  0  0  0  0  0  # atno 17342 bound_to 10162
  140.5725  144.0085  150.6224 LP  0  0  0  0  0  0  0  0  0  0  0  0  # atno 17343 bound_to 10162
  157.7353  130.9760  150.2075 LP  0  0  0  0  0  0  0  0  0  0  0  0  # atno 17370 bound_to 10713
  156.2735  130.3724  149.8007 LP  0  0  0  0  0  0  0  0  0  0  0  0  # atno 17371 bound_to 10713
  140.4336  134.7079  157.4955 LP  0  0  0  0  0  0  0  0  0  0  0  0  # atno 17394 bound_to 11000
  140.0277  134.6453  155.9150 LP  0  0  0  0  0  0  0  0  0  0  0  0  # atno 17395 bound_to 11000

$$$$
