#       Name:                AV-unprocessed.smi:1736
#       Creating user name   scv26
#       Creation time:       Fri Mar 27 08:20:40 2020


#       File generated by GOLD software.
#

@<TRIPOS>MOLECULE
AV-unprocessed.smi:1736
    49    50     1
SMALL
NO_CHARGES


@<TRIPOS>ATOM
      1 ****        -3.1526  -2.8940   2.9014 C.3            1 S1                 0.0000
      2 ****        -2.2145  -2.0387   3.6203 N.3            1 S1                 0.0000
      3 ****        -0.8244  -2.2273   3.2082 C.3            1 S1                 0.0000
      4 ****        -0.5578  -1.6677   1.7961 C.3            1 S1                 0.0000
      5 ****        -0.8870  -0.2139   1.7274 N.4            1 S1                 1.0000
      6 ****        -0.4597   0.4870   0.4594 C.3            1 S1                 0.0000
      7 ****        -0.9591  -0.2766  -0.7922 C.3            1 S1                 0.0000
      8 ****        -1.0370   1.9265   0.3944 C.3            1 S1                 0.0000
      9 ****         1.0972   0.5999   0.4571 C.3            1 S1                 0.0000
     10 ****         1.6452   1.3332  -0.6845 N.am           1 S1                 0.0000
     11 ****         2.1229   0.7860  -1.8115 C.2            1 S1                 0.0000
     12 ****         2.1612  -0.4272  -2.0162 O.2            1 S1                 0.0000
     13 ****         2.5363   1.7295  -2.6730 N.am           1 S1                 0.0000
     14 ****         3.0608   1.5356  -3.9757 C.2            1 S1                 0.0000
     15 ****         3.4665   2.5823  -4.8475 C.2            1 S1                 0.0000
     16 ****         3.9132   2.1054  -6.0005 N.2            1 S1                 0.0000
     17 ****         3.7966   0.7643  -5.8728 N.pl3          1 S1                 0.0000
     18 ****         3.2822   0.3716  -4.6568 C.2            1 S1                 0.0000
     19 ****        -2.3063  -0.0210   2.1453 C.3            1 S1                 0.0000
     20 ****        -2.5579  -0.6200   3.5458 C.3            1 S1                 0.0000
     21 ****         4.0697   0.1369  -6.6159 H              1 S1                 0.0000
     22 ****        -2.8816  -3.9424   3.0297 H              1 S1                 0.0000
     23 ****        -3.1822  -2.6819   1.8332 H              1 S1                 0.0000
     24 ****        -4.1603  -2.7638   3.2975 H              1 S1                 0.0000
     25 ****        -0.1753  -1.7273   3.9285 H              1 S1                 0.0000
     26 ****        -0.5727  -3.2876   3.2503 H              1 S1                 0.0000
     27 ****         0.4897  -1.8467   1.5661 H              1 S1                 0.0000
     28 ****        -1.1317  -2.2275   1.0579 H              1 S1                 0.0000
     29 ****        -0.7795   0.2924  -1.7045 H              1 S1                 0.0000
     30 ****        -2.0313  -0.4673  -0.7489 H              1 S1                 0.0000
     31 ****        -0.4548  -1.2351  -0.9163 H              1 S1                 0.0000
     32 ****        -0.6566   2.4840  -0.4614 H              1 S1                 0.0000
     33 ****        -0.7877   2.4987   1.2888 H              1 S1                 0.0000
     34 ****        -2.1208   1.9309   0.2773 H              1 S1                 0.0000
     35 ****         1.4236   1.1207   1.3581 H              1 S1                 0.0000
     36 ****         1.5756  -0.3775   0.4972 H              1 S1                 0.0000
     37 ****         1.6576   2.3401  -0.6098 H              1 S1                 0.0000
     38 ****         2.4534   2.6898  -2.3726 H              1 S1                 0.0000
     39 ****         3.4509   3.6501  -4.6853 H              1 S1                 0.0000
     40 ****         3.1280  -0.6665  -4.4024 H              1 S1                 0.0000
     41 ****        -2.5538   1.0355   2.2255 H              1 S1                 0.0000
     42 ****        -2.9840  -0.4489   1.4065 H              1 S1                 0.0000
     43 ****        -3.5998  -0.4805   3.8367 H              1 S1                 0.0000
     44 ****        -1.9598  -0.0818   4.2823 H              1 S1                 0.0000
     45 ****        -0.3440   0.2222   2.4588 H              1 S1                 0.0000
     46 ****        -2.2984  -2.3332   4.5722 LP             1 S1                 0.0000
     47 ****         1.8243  -1.0624  -1.3213 LP             1 S1                 0.0000
     48 ****         2.5293  -0.7776  -2.8775 LP             1 S1                 0.0000
     49 ****         4.2579   2.6199  -6.7857 LP             1 S1                 0.0000
@<TRIPOS>BOND
    1    1    2 1     
    2    1   22 1     
    3    1   23 1     
    4    1   24 1     
    5    2   20 1     
    6    2    3 1     
    7    3    4 1     
    8    3   25 1     
    9    3   26 1     
   10    4    5 1     
   11    4   27 1     
   12    4   28 1     
   13    5    6 1     
   14    5   19 1     
   15    5   45 1     
   16    6    7 1     
   17    6    8 1     
   18    6    9 1     
   19    7   29 1     
   20    7   30 1     
   21    7   31 1     
   22    8   32 1     
   23    8   33 1     
   24    8   34 1     
   25    9   10 1     
   26    9   35 1     
   27    9   36 1     
   28   10   11 am    
   29   10   37 1     
   30   11   12 2     
   31   11   13 am    
   32   13   14 1     
   33   13   38 1     
   34   14   18 2     
   35   14   15 1     
   36   15   16 2     
   37   15   39 1     
   38   16   17 1     
   39   17   21 1     
   40   17   18 1     
   41   18   40 1     
   42   19   20 1     
   43   19   41 1     
   44   19   42 1     
   45   20   43 1     
   46   20   44 1     
   47    2   46 1     
   48   12   47 1     
   49   12   48 1     
   50   16   49 1     
@<TRIPOS>SUBSTRUCTURE
      1 S1             1
@<TRIPOS>SET
LONE_PAIRS      STATIC     ATOMS    <user>   **** ""
4 46 47 48 49
DONOR_HYDROGENS      STATIC     ATOMS    <user>   **** ""
4 45 37 38 21
ATOM$BLUE        STATIC     ATOMS    COLORGROUP SYSTEM
4 46 47 48 49
ATOM$RED        STATIC     ATOMS    COLORGROUP SYSTEM
4 45 37 38 21
