#       Name:                AV-unprocessed.smi:47
#       Creating user name   scv26
#       Creation time:       Thu Mar 26 16:31:05 2020


#       File generated by GOLD software.
#

@<TRIPOS>MOLECULE
AV-unprocessed.smi:47
    36    38     1
SMALL
NO_CHARGES


@<TRIPOS>ATOM
      1 ****        -4.3059   0.1692  -3.1408 O.3            1 S1                 0.0000
      2 ****        -3.8432   0.3846  -1.8245 C.3            1 S1                 0.0000
      3 ****        -3.4637   1.8494  -1.5776 C.3            1 S1                 0.0000
      4 ****        -2.3824   1.8303  -0.5715 N.4            1 S1                 1.0000
      5 ****        -1.9624   0.4273  -0.3703 C.3            1 S1                 0.0000
      6 ****        -0.4642   0.4620  -0.3118 C.2            1 S1                 0.0000
      7 ****         0.3330   1.1575  -1.1267 N.2            1 S1                 0.0000
      8 ****         1.6192   0.8743  -0.7080 N.2            1 S1                 0.0000
      9 ****         1.5064   0.0268   0.3249 C.2            1 S1                 0.0000
     10 ****         2.6443  -0.5273   1.0620 C.ar           1 S1                 0.0000
     11 ****         2.4347  -1.3141   2.2187 C.ar           1 S1                 0.0000
     12 ****         3.5283  -1.8502   2.9259 C.ar           1 S1                 0.0000
     13 ****         4.8421  -1.6076   2.4838 C.ar           1 S1                 0.0000
     14 ****         5.0614  -0.8276   1.3333 C.ar           1 S1                 0.0000
     15 ****         3.9687  -0.2900   0.6257 C.ar           1 S1                 0.0000
     16 ****         0.2180  -0.2491   0.5960 N.pl3          1 S1                 0.0000
     17 ****        -2.5455  -0.3660  -1.5418 C.3            1 S1                 0.0000
     18 ****        -4.6098   0.0754  -1.1125 H              1 S1                 0.0000
     19 ****        -2.3747   0.0721   0.5754 H              1 S1                 0.0000
     20 ****        -0.1456  -0.8579   1.3150 H              1 S1                 0.0000
     21 ****        -4.5142  -0.7472  -3.2447 H              1 S1                 0.0000
     22 ****        -3.0638   2.3035  -2.4857 H              1 S1                 0.0000
     23 ****        -4.3115   2.4497  -1.2471 H              1 S1                 0.0000
     24 ****        -1.6004   2.3658  -0.9223 H              1 S1                 0.0000
     25 ****         1.4356  -1.5133   2.5770 H              1 S1                 0.0000
     26 ****         3.3590  -2.4485   3.8091 H              1 S1                 0.0000
     27 ****         5.6805  -2.0194   3.0265 H              1 S1                 0.0000
     28 ****         6.0691  -0.6415   0.9920 H              1 S1                 0.0000
     29 ****         4.1601   0.3040  -0.2559 H              1 S1                 0.0000
     30 ****        -2.6882  -1.4235  -1.3172 H              1 S1                 0.0000
     31 ****        -1.8867  -0.2925  -2.4095 H              1 S1                 0.0000
     32 ****        -2.6996   2.2225   0.3033 H              1 S1                 0.0000
     33 ****        -3.5941   0.4282  -3.7937 LP             1 S1                 0.0000
     34 ****        -5.1242   0.7204  -3.3037 LP             1 S1                 0.0000
     35 ****         0.0580   1.7557  -1.8794 LP             1 S1                 0.0000
     36 ****         2.4677   1.2314  -1.0988 LP             1 S1                 0.0000
@<TRIPOS>BOND
    1    1    2 1     
    2    1   21 1     
    3    2   18 1     
    4    2   17 1     
    5    2    3 1     
    6    3    4 1     
    7    3   22 1     
    8    3   23 1     
    9    4    5 1     
   10    4   24 1     
   11    4   32 1     
   12    5   19 1     
   13    5   17 1     
   14    5    6 1     
   15    6    7 2     
   16    6   16 1     
   17    7    8 1     
   18    8    9 2     
   19    9   16 1     
   20    9   10 1     
   21   10   15 ar    
   22   10   11 ar    
   23   11   12 ar    
   24   11   25 1     
   25   12   13 ar    
   26   12   26 1     
   27   13   14 ar    
   28   13   27 1     
   29   14   15 ar    
   30   14   28 1     
   31   15   29 1     
   32   16   20 1     
   33   17   30 1     
   34   17   31 1     
   35    1   33 1     
   36    1   34 1     
   37    7   35 1     
   38    8   36 1     
@<TRIPOS>SUBSTRUCTURE
      1 S1             1
@<TRIPOS>SET
LONE_PAIRS      STATIC     ATOMS    <user>   **** ""
4 33 34 35 36
DONOR_HYDROGENS      STATIC     ATOMS    <user>   **** ""
4 21 24 32 20
ATOM$BLUE        STATIC     ATOMS    COLORGROUP SYSTEM
4 33 34 35 36
ATOM$RED        STATIC     ATOMS    COLORGROUP SYSTEM
4 21 24 32 20
