#       Name:                AV-unprocessed.smi:1965
#       Creating user name   scv26
#       Creation time:       Fri Mar 27 10:11:03 2020


#       File generated by GOLD software.
#

@<TRIPOS>MOLECULE
AV-unprocessed.smi:1965
    40    42     1
SMALL
NO_CHARGES


@<TRIPOS>ATOM
      1 ****        -2.5024  -2.7792  -0.9569 O.2            1 S1                 0.0000
      2 ****        -1.2925  -2.7810  -0.7337 C.2            1 S1                 0.0000
      3 ****        -0.5308  -3.9057  -0.7413 N.pl3          1 S1                -1.0000
      4 ****         0.7783  -3.8960  -0.4287 C.2            1 S1                 0.0000
      5 ****         1.7504  -3.8034  -1.3436 N.2            1 S1                 0.0000
      6 ****         3.0332  -3.8075  -0.7929 C.2            1 S1                 0.0000
      7 ****         3.0378  -3.9082   0.5730 C.2            1 S1                 0.0000
      8 ****         1.4218  -4.0047   1.2119 S.3            1 S1                 0.0000
      9 ****        -0.6795  -1.6127  -0.4675 N.am           1 S1                 0.0000
     10 ****        -1.3220  -0.3078  -0.3802 C.3            1 S1                 0.0000
     11 ****        -1.7651   0.2747  -1.7363 C.3            1 S1                 0.0000
     12 ****        -1.4808   1.7871  -1.6415 C.3            1 S1                 0.0000
     13 ****        -0.9918   2.0073  -0.2666 N.4            1 S1                 1.0000
     14 ****        -0.1327   3.1889  -0.0353 C.3            1 S1                 0.0000
     15 ****         0.2121   3.2825   1.4653 C.3            1 S1                 0.0000
     16 ****         0.8159   1.9668   1.9991 C.3            1 S1                 0.0000
     17 ****        -0.0805   0.7629   1.6502 C.3            1 S1                 0.0000
     18 ****        -0.3494   0.7483   0.1371 C.3            1 S1                 0.0000
     19 ****         3.8880  -3.7359  -1.4490 H              1 S1                 0.0000
     20 ****         3.8871  -3.9348   1.2390 H              1 S1                 0.0000
     21 ****         0.3155  -1.6435  -0.2991 H              1 S1                 0.0000
     22 ****        -2.1823  -0.3642   0.2900 H              1 S1                 0.0000
     23 ****        -1.1938  -0.1572  -2.5596 H              1 S1                 0.0000
     24 ****        -2.8192   0.0687  -1.9260 H              1 S1                 0.0000
     25 ****        -0.7132   2.0685  -2.3641 H              1 S1                 0.0000
     26 ****        -2.3679   2.3903  -1.8367 H              1 S1                 0.0000
     27 ****         0.7770   3.1093  -0.6325 H              1 S1                 0.0000
     28 ****        -0.6546   4.0900  -0.3591 H              1 S1                 0.0000
     29 ****         0.9024   4.1083   1.6396 H              1 S1                 0.0000
     30 ****        -0.6929   3.5148   2.0284 H              1 S1                 0.0000
     31 ****         1.8057   1.8196   1.5646 H              1 S1                 0.0000
     32 ****         0.9589   2.0287   3.0784 H              1 S1                 0.0000
     33 ****         0.4005  -0.1664   1.9576 H              1 S1                 0.0000
     34 ****        -1.0206   0.8273   2.1998 H              1 S1                 0.0000
     35 ****         0.5984   0.6551  -0.3990 H              1 S1                 0.0000
     36 ****        -1.8101   2.1075   0.3167 H              1 S1                 0.0000
     37 ****        -2.9752  -3.6373  -1.1574 LP             1 S1                 0.0000
     38 ****        -3.0131  -1.9196  -0.9379 LP             1 S1                 0.0000
     39 ****        -0.9594  -4.7746  -0.9888 LP             1 S1                 0.0000
     40 ****         1.5750  -3.7376  -2.3259 LP             1 S1                 0.0000
@<TRIPOS>BOND
    1    1    2 2     
    2    2    3 1     
    3    2    9 am    
    4    3    4 1     
    5    4    8 1     
    6    4    5 2     
    7    5    6 1     
    8    6    7 2     
    9    6   19 1     
   10    7    8 1     
   11    7   20 1     
   12    9   10 1     
   13    9   21 1     
   14   10   18 1     
   15   10   11 1     
   16   10   22 1     
   17   11   12 1     
   18   11   23 1     
   19   11   24 1     
   20   12   13 1     
   21   12   25 1     
   22   12   26 1     
   23   13   18 1     
   24   13   14 1     
   25   13   36 1     
   26   14   15 1     
   27   14   27 1     
   28   14   28 1     
   29   15   16 1     
   30   15   29 1     
   31   15   30 1     
   32   16   17 1     
   33   16   31 1     
   34   16   32 1     
   35   17   18 1     
   36   17   33 1     
   37   17   34 1     
   38   18   35 1     
   39    1   37 1     
   40    1   38 1     
   41    3   39 1     
   42    5   40 1     
@<TRIPOS>SUBSTRUCTURE
      1 S1             1
@<TRIPOS>SET
LONE_PAIRS      STATIC     ATOMS    <user>   **** ""
4 37 38 39 40
DONOR_HYDROGENS      STATIC     ATOMS    <user>   **** ""
2 21 36
ATOM$BLUE        STATIC     ATOMS    COLORGROUP SYSTEM
4 37 38 39 40
ATOM$RED        STATIC     ATOMS    COLORGROUP SYSTEM
2 21 36
