AV-unprocessed.smi:2559|AV-procd|sdf|10037|dock6
  -GOLD-   2272014 83D 1   1.00000     0.00000
 Structure written by MMmdl.
 43 45  0  0  0  0  0  0  0  0  2 V2000
  153.5013  136.9540  159.4611 C   0  0  0  0  0  0  0  0  0  0  0  0
  152.8966  137.3130  158.1745 N   0  0  0  0  0  0  0  0  0  0  0  0
  152.7564  136.4245  157.1393 C   0  0  0  0  0  0  0  0  0  0  0  0
  153.1464  135.2672  157.2951 O   0  0  0  0  0  0  0  0  0  0  0  0
  152.1882  136.8401  155.9542 N   0  5  0  0  0  0  0  0  0  0  0  0
  151.7300  138.1014  155.6767 C   0  0  0  0  0  0  0  0  0  0  0  0
  151.2542  138.4890  154.6114 O   0  0  0  0  0  0  0  0  0  0  0  0
  151.8767  139.0158  156.8324 C   0  0  0  0  0  0  0  0  0  0  0  0
  152.4424  138.6481  158.0127 C   0  0  0  0  0  0  0  0  0  0  0  0
  152.4961  139.7102  158.9007 N   0  0  0  0  0  0  0  0  0  0  0  0
  151.9246  140.7013  158.2140 C   0  0  0  0  0  0  0  0  0  0  0  0
  151.7743  141.9912  158.7258 N   0  0  0  0  0  0  0  0  0  0  0  0
  152.5002  142.4807  159.8967 C   0  0  0  0  0  0  0  0  0  0  0  0
  153.1208  143.8655  159.6382 C   0  0  0  0  0  0  0  0  0  0  0  0
  152.0413  144.8791  159.2352 C   0  0  0  0  0  0  0  0  0  0  0  0
  151.2104  144.3224  158.0716 C   0  0  0  0  0  0  0  0  0  0  0  0
  150.6851  142.9156  158.4081 C   0  0  0  0  0  0  0  0  0  0  0  0
  151.5337  140.3683  156.9531 N   0  0  0  0  0  0  0  0  0  0  0  0
  150.9440  141.2382  155.9343 C   0  0  0  0  0  0  0  0  0  0  0  0
  149.4213  141.0341  155.7841 C   0  0  1  0  0  0  0  0  0  0  0  0
  148.7777  142.2849  155.6394 O   0  0  0  0  0  0  0  0  0  0  0  0
  149.0546  140.1724  154.5643 C   0  0  0  0  0  0  0  0  0  0  0  0
  149.5019  140.7760  153.3690 O   0  0  0  0  0  0  0  0  0  0  0  0
  153.7612  135.8996  159.5587 H   0  0  0  0  0  0  0  0  0  0  0  0
  152.8149  137.1920  160.2742 H   0  0  0  0  0  0  0  0  0  0  0  0
  154.4138  137.5312  159.6136 H   0  0  0  0  0  0  0  0  0  0  0  0
  151.8227  142.5210  160.7506 H   0  0  0  0  0  0  0  0  0  0  0  0
  153.2882  141.7734  160.1579 H   0  0  0  0  0  0  0  0  0  0  0  0
  153.6463  144.2124  160.5282 H   0  0  0  0  0  0  0  0  0  0  0  0
  153.8670  143.7888  158.8463 H   0  0  0  0  0  0  0  0  0  0  0  0
  151.3905  145.0776  160.0876 H   0  0  0  0  0  0  0  0  0  0  0  0
  152.4957  145.8305  158.9580 H   0  0  0  0  0  0  0  0  0  0  0  0
  150.3778  144.9912  157.8526 H   0  0  0  0  0  0  0  0  0  0  0  0
  151.8229  144.2835  157.1713 H   0  0  0  0  0  0  0  0  0  0  0  0
  150.0815  142.5241  157.5901 H   0  0  0  0  0  0  0  0  0  0  0  0
  150.0143  142.9703  159.2666 H   0  0  0  0  0  0  0  0  0  0  0  0
  151.1714  142.2767  156.1623 H   0  0  0  0  0  0  0  0  0  0  0  0
  151.4368  141.0654  154.9821 H   0  0  0  0  0  0  0  0  0  0  0  0
  149.0245  140.5685  156.6871 H   0  0  0  0  0  0  0  0  0  0  0  0
  149.3852  142.8907  155.2408 H   0  0  0  0  0  0  0  0  0  0  0  0
  149.5185  139.1881  154.6404 H   0  0  0  0  0  0  0  0  0  0  0  0
  147.9766  140.0172  154.5070 H   0  0  0  0  0  0  0  0  0  0  0  0
  149.3390  140.1800  152.6540 H   0  0  0  0  0  0  0  0  0  0  0  0
  1  2  1  0  0  0  0
  1 24  1  0  0  0  0
  1 25  1  0  0  0  0
  1 26  1  0  0  0  0
  2  9  1  0  0  0  0
  2  3  1  0  0  0  0
  3  4  2  0  0  0  0
  3  5  1  0  0  0  0
  5  6  1  0  0  0  0
  6  7  2  0  0  0  0
  6  8  1  0  0  0  0
  8 18  1  0  0  0  0
  8  9  2  0  0  0  0
  9 10  1  0  0  0  0
 10 11  2  0  0  0  0
 11 12  1  0  0  0  0
 11 18  1  0  0  0  0
 12 17  1  0  0  0  0
 12 13  1  0  0  0  0
 13 14  1  0  0  0  0
 13 27  1  0  0  0  0
 13 28  1  0  0  0  0
 14 15  1  0  0  0  0
 14 29  1  0  0  0  0
 14 30  1  0  0  0  0
 15 16  1  0  0  0  0
 15 31  1  0  0  0  0
 15 32  1  0  0  0  0
 16 17  1  0  0  0  0
 16 33  1  0  0  0  0
 16 34  1  0  0  0  0
 17 35  1  0  0  0  0
 17 36  1  0  0  0  0
 18 19  1  0  0  0  0
 19 20  1  0  0  0  0
 19 37  1  0  0  0  0
 19 38  1  0  0  0  0
 20 21  1  0  0  0  0
 20 22  1  0  0  0  0
 20 39  1  0  0  0  0
 21 40  1  0  0  0  0
 22 23  1  0  0  0  0
 22 41  1  0  0  0  0
 22 42  1  0  0  0  0
 23 43  1  0  0  0  0
M  CHG  1   5  -1
M  END
> <s_m_source_file>
AV-unprocessed.smi

> <i_m_source_file_index>
2559

> <i_lp_mmshare_version>
43012

> <i_f3d_flags>
0

> <s_epik_input>
Tz1jMVtuSF1jKD1PKW4oW0NIM10pYyhjMTIpbmMobjJbQ0gyXVtDQEhdKFtPSF0pW0NIMl1bT0hdKU4zW0NIMl1bQ0gyXVtDSDJdW0NIMl1bQ0gyXTM=

> <s_epik_cmdline>
J2VwaWtfcHl0aG9uJywgJy1waCcsICc3LjAnLCAnLXRuJywgJzgnLCAnLW1hJywgJzIwMCcsICctbWV0YWxfYmluZGluZycsICctaW1hZScsICc8aW5maWxlLm1hZT4nLCAnLW9tYWUnLCAnPG91dGZpbGUubWFlPic=

> <r_lp_tautomer_probability>
1

> <r_epik_Ionization_Penalty>
5.90509

> <r_epik_Ionization_Penalty_Charging>
0.0759636

> <r_epik_Ionization_Penalty_Neutral>
5.82913

> <r_epik_State_Penalty>
5.18635

> <r_epik_Charging_Adjusted_Penalty>
5.26231

> <i_epik_Tot_Q>
-1

> <i_epik_Tot_abs_Q>
1

> <r_epik_Metal_State_Penalty>
1.25614

> <b_epik_Metal_Only>
1

> <s_lp_Force_Field>
OPLS_2005

> <r_lp_Energy>
39.3002

> <b_lp_Chiralities_Consistent>
1

> <s_lp_Variant>
AV-unprocessed.smi:2559-4

> <Gold.Version>
5.8.1

> <Gold.Id.Protein>
6NUR|6NUR_protein|mol2

> <Gold.PLP.Fitness>
53.3119

> <Gold.PLP.PLP>
-42.1901

> <Gold.PLP.part.hbond>
-5.3886

> <Gold.PLP.part.metal>
0.0000

> <Gold.PLP.part.buried>
-7.3710

> <Gold.PLP.part.nonpolar>
-30.4004

> <Gold.PLP.part.repulsive>
0.1444

> <Gold.PLP.ligand.clash>
0.0000

> <Gold.PLP.ligand.torsion>
1.1093

> <Gold.PLP.Chemscore.Hbond>
4.2321

> <Gold.PLP.Chemscore.CHOScore>
0.0000

> <Gold.PLP.Chemscore.Metal>
0.0000

> <Gold.Chemscore.Hbonds>
donor molecule, donor type, donor heavy atom, donor atom, acceptor molecule, acceptor atom, score
      L1  H    21    40       P1  8028  0.21
      L1  H    23    43       P1  7957  0.79
      P1  H  7989  7998       L1    23  0.25
      P1  H  8011  8017       L1    23  0.90
      P1  H 10752 10764       L1     5  1.59

> <Gold.PLP.Chemscore.Internal.Correction>
0.6440

> <Gold.Rescore>
     Score         DG    S(hbond)    S(metal)    S(lipo)     H(rot)  DE(clash)    DE(int)     intcor
     12.75     -14.53       2.12        0.00      81.15       2.93       0.26       1.52       ----

> <Gold.Chemscore.Fitness>
12.7544

> <Gold.Chemscore.DG>
-14.5328

> <Gold.Chemscore.ZeroCoef>
-5.4800

> <Gold.Chemscore.Hbond>
2.1158

> <Gold.Chemscore.Metal>
0.0000

> <Gold.Chemscore.Lipo>
81.1494

> <Gold.Chemscore.Internal_Hbond>
0.0000

> <Gold.Chemscore.DEClash>
0.2614

> <Gold.Chemscore.DEInternal>
1.5170

> <Gold.Chemscore.Rot>
2.9330

> <Gold.Chemscore.Internal.Correction>
   9.000000E+99

> <Gold.Chemscore.Hbonds>
donor molecule, donor type, donor heavy atom, donor atom, acceptor molecule, acceptor atom, score
      L1  H    21    40       P1  8028  0.22
      L1  H    23    43       P1  7957  0.73
      P1  H  7989  7998       L1    23  0.07
      P1  H  8011  8017       L1    23  0.18
      P1  H 10752 10764       L1     5  0.11

> <Gold.Chemscore.Hbond.Weighted>
-7.0667

> <Gold.Chemscore.Metal.Weighted>
-0.0000

> <Gold.Chemscore.Lipo.Weighted>
-9.4945

> <Gold.Chemscore.Internal_Hbond.Weighted>
0.0000

> <Gold.Chemscore.DEClash.Weighted>
0.2614

> <Gold.Chemscore.DEInternal.Weighted>
1.5170

> <Gold.Chemscore.Rot.Weighted>
7.5084

> <Gold.Chemscore.Internal.Correction.Weighted>
   9.000000E+99

> <Gold.Protein.RotatedTorsions>
[ 6907 6896 6895 6894 ] final  107.03 input  -60.11 | X-H torsion
[ 7974 7965 7964 7962 ] final  179.01 input  175.53 | X-H torsion
[ 8008 7997 7996 7995 ] final  -11.01 input   59.86 | X-H torsion
[ 10167 10162 10161 10158 ] final   73.64 input  -65.29 | X-H torsion
[ 10718 10713 10712 10709 ] final   71.05 input   66.30 | X-H torsion
[ 10763 10752 10751 10750 ] final  -44.28 input  -60.55 | X-H torsion
[ 11005 11000 10999 10996 ] final  141.25 input  -57.11 | X-H torsion

> <Gold.Protein.ActiveResidues>
 VAL166  LYS551  ARG553  GLY616  TRP617  ASP618  TYR619  PRO620  LYS621  CYS622 
 ASP623  PHE694  ASN695  SER759  ASP760  ASP761  ALA762  ILE779  LEU786  VAL792 
 PHE793  MET794  SER795  GLU796  ALA797  LYS798  CYS799  TRP800  GLU811  SER814 

> <Gold.Protein.RotatedAtoms>
  152.5170  133.9293  159.7572 H   0  0  0  0  0  0  0  0  0  0  0  0  # atno 6907 bound_to 6896
  150.9647  133.6399  159.2755 H   0  0  0  0  0  0  0  0  0  0  0  0  # atno 6908 bound_to 6896
  151.3631  135.0913  159.9494 H   0  0  0  0  0  0  0  0  0  0  0  0  # atno 6909 bound_to 6896
  144.7150  140.0483  143.6436 H   0  0  0  0  0  0  0  0  0  0  0  0  # atno 7974 bound_to 7965
  154.5503  140.2314  155.8495 H   0  0  0  0  0  0  0  0  0  0  0  0  # atno 8008 bound_to 7997
  156.1941  140.3069  155.9352 H   0  0  0  0  0  0  0  0  0  0  0  0  # atno 8009 bound_to 7997
  155.3083  140.0434  157.3024 H   0  0  0  0  0  0  0  0  0  0  0  0  # atno 8010 bound_to 7997
  140.0223  144.5531  150.7572 H   0  0  0  0  0  0  0  0  0  0  0  0  # atno 10167 bound_to 10162
  157.6431  130.9508  150.0735 H   0  0  0  0  0  0  0  0  0  0  0  0  # atno 10718 bound_to 10713
  154.0094  135.6683  153.4764 H   0  0  0  0  0  0  0  0  0  0  0  0  # atno 10763 bound_to 10752
  153.0627  135.5018  154.8126 H   0  0  0  0  0  0  0  0  0  0  0  0  # atno 10764 bound_to 10752
  154.7004  135.3078  154.9313 H   0  0  0  0  0  0  0  0  0  0  0  0  # atno 10765 bound_to 10752
  140.0387  134.9315  157.0803 H   0  0  0  0  0  0  0  0  0  0  0  0  # atno 11005 bound_to 11000
  145.9966  139.3057  143.0953 LP  0  0  0  0  0  0  0  0  0  0  0  0  # atno 17320 bound_to 7965
  145.8842  140.9344  143.0585 LP  0  0  0  0  0  0  0  0  0  0  0  0  # atno 17321 bound_to 7965
  140.7337  143.2720  151.3858 LP  0  0  0  0  0  0  0  0  0  0  0  0  # atno 17342 bound_to 10162
  139.6131  144.1057  152.2319 LP  0  0  0  0  0  0  0  0  0  0  0  0  # atno 17343 bound_to 10162
  156.1732  130.3647  149.9136 LP  0  0  0  0  0  0  0  0  0  0  0  0  # atno 17370 bound_to 10713
  156.7107  130.8969  151.3609 LP  0  0  0  0  0  0  0  0  0  0  0  0  # atno 17371 bound_to 10713
  140.4104  134.1987  155.7163 LP  0  0  0  0  0  0  0  0  0  0  0  0  # atno 17394 bound_to 11000
  141.1871  133.8287  157.1042 LP  0  0  0  0  0  0  0  0  0  0  0  0  # atno 17395 bound_to 11000

$$$$
