AV-unprocessed.smi:2932|AV-procd|sdf|11251|dock8
  -GOLD-   2272016143D 1   1.00000     0.00000
 Structure written by MMmdl.
 30 30  0  0  0  0  0  0  0  0  2 V2000
  153.7197  140.6752  160.6703 C   0  0  0  0  0  0  0  0  0  0  0  0
  153.0396  141.8160  159.9710 C   0  0  0  0  0  0  0  0  0  0  0  0
  152.6671  141.6896  158.7066 N   0  0  0  0  0  0  0  0  0  0  0  0
  152.1041  142.8796  158.3747 N   0  0  0  0  0  0  0  0  0  0  0  0
  151.6008  143.0673  157.0213 C   0  0  0  0  0  0  0  0  0  0  0  0
  150.7610  141.8736  156.5599 C   0  0  0  0  0  0  0  0  0  0  0  0
  149.5402  141.8867  156.7172 O   0  0  0  0  0  0  0  0  0  0  0  0
  151.4250  140.8555  155.9903 N   0  0  0  0  0  0  0  0  0  0  0  0
  150.8288  139.6323  155.4622 C   0  0  1  0  0  0  0  0  0  0  0  0
  149.7903  139.9568  154.3752 C   0  0  0  0  0  0  0  0  0  0  0  0
  151.9251  138.6699  154.9967 C   0  0  0  0  0  0  0  0  0  0  0  0
  151.5630  137.5601  154.5486 O   0  0  0  0  0  0  0  0  0  0  0  0
  153.1100  139.0595  155.0967 O   0  5  0  0  0  0  0  0  0  0  0  0
  152.1064  143.7729  159.4350 C   0  0  0  0  0  0  0  0  0  0  0  0
  151.5481  145.1565  159.3463 C   0  0  0  0  0  0  0  0  0  0  0  0
  152.7058  143.1050  160.4614 C   0  0  0  0  0  0  0  0  0  0  0  0
  153.0062  143.7113  162.0494 Cl  0  0  0  0  0  0  0  0  0  0  0  0
  150.3035  139.1339  156.2795 H   0  0  0  0  0  0  0  0  0  0  0  0
  153.6739  140.7909  161.7532 H   0  0  0  0  0  0  0  0  0  0  0  0
  154.7705  140.6155  160.3865 H   0  0  0  0  0  0  0  0  0  0  0  0
  153.2521  139.7224  160.4207 H   0  0  0  0  0  0  0  0  0  0  0  0
  150.9966  143.9747  156.9756 H   0  0  0  0  0  0  0  0  0  0  0  0
  152.4472  143.2143  156.3493 H   0  0  0  0  0  0  0  0  0  0  0  0
  152.4294  140.9304  155.9095 H   0  0  0  0  0  0  0  0  0  0  0  0
  149.3475  139.0456  153.9718 H   0  0  0  0  0  0  0  0  0  0  0  0
  150.2409  140.5034  153.5458 H   0  0  0  0  0  0  0  0  0  0  0  0
  148.9788  140.5669  154.7726 H   0  0  0  0  0  0  0  0  0  0  0  0
  151.5381  145.6397  160.3232 H   0  0  0  0  0  0  0  0  0  0  0  0
  150.5248  145.1412  158.9713 H   0  0  0  0  0  0  0  0  0  0  0  0
  152.1465  145.7726  158.6751 H   0  0  0  0  0  0  0  0  0  0  0  0
  1  2  1  0  0  0  0
  1 19  1  0  0  0  0
  1 20  1  0  0  0  0
  1 21  1  0  0  0  0
  2 16  1  0  0  0  0
  2  3  2  0  0  0  0
  3  4  1  0  0  0  0
  4  5  1  0  0  0  0
  4 14  1  0  0  0  0
  5  6  1  0  0  0  0
  5 22  1  0  0  0  0
  5 23  1  0  0  0  0
  6  7  2  0  0  0  0
  6  8  1  0  0  0  0
  8  9  1  0  0  0  0
  8 24  1  0  0  0  0
  9 18  1  0  0  0  0
  9 10  1  0  0  0  0
  9 11  1  0  0  0  0
 10 25  1  0  0  0  0
 10 26  1  0  0  0  0
 10 27  1  0  0  0  0
 11 12  2  0  0  0  0
 11 13  1  0  0  0  0
 14 15  1  0  0  0  0
 14 16  2  0  0  0  0
 15 28  1  0  0  0  0
 15 29  1  0  0  0  0
 15 30  1  0  0  0  0
 16 17  1  0  0  0  0
M  CHG  1  13  -1
M  END
> <s_m_source_file>
AV-unprocessed.smi

> <i_m_source_file_index>
2932

> <i_lp_mmshare_version>
43012

> <i_f3d_flags>
0

> <s_epik_input>
W0NIM11jMW5uKGMoW0NIM10pYzFDbClbQ0gyXUMoPU8pW05IXVtDQEhdKFtDSDNdKUMoPU8pW09IXQ==

> <s_epik_cmdline>
J2VwaWtfcHl0aG9uJywgJy1waCcsICc3LjAnLCAnLXRuJywgJzgnLCAnLW1hJywgJzIwMCcsICctbWV0YWxfYmluZGluZycsICctaW1hZScsICc8aW5maWxlLm1hZT4nLCAnLW9tYWUnLCAnPG91dGZpbGUubWFlPic=

> <r_lp_tautomer_probability>
1

> <r_epik_Ionization_Penalty>
0.000148999

> <r_epik_Ionization_Penalty_Charging>
0.000144005

> <r_epik_Ionization_Penalty_Neutral>
4.99331e-06

> <r_epik_State_Penalty>
-0

> <r_epik_Charging_Adjusted_Penalty>
0.000144005

> <i_epik_Tot_Q>
-1

> <i_epik_Tot_abs_Q>
1

> <r_epik_Metal_State_Penalty>
-0

> <b_epik_Metal_Only>
0

> <s_lp_Force_Field>
OPLS_2005

> <r_lp_Energy>
1.5608

> <b_lp_Chiralities_Consistent>
1

> <s_lp_Variant>
AV-unprocessed.smi:2932-2

> <Gold.Version>
5.8.1

> <Gold.Id.Protein>
6NUR|6NUR_protein|mol2

> <Gold.PLP.Fitness>
50.8542

> <Gold.PLP.PLP>
-41.0101

> <Gold.PLP.part.hbond>
-2.0000

> <Gold.PLP.part.metal>
0.0000

> <Gold.PLP.part.buried>
-6.3248

> <Gold.PLP.part.nonpolar>
-33.1580

> <Gold.PLP.part.repulsive>
0.3571

> <Gold.PLP.ligand.clash>
0.0000

> <Gold.PLP.ligand.torsion>
0.5550

> <Gold.PLP.Chemscore.Hbond>
3.6320

> <Gold.PLP.Chemscore.CHOScore>
0.0000

> <Gold.PLP.Chemscore.Metal>
0.0000

> <Gold.Chemscore.Hbonds>
donor molecule, donor type, donor heavy atom, donor atom, acceptor molecule, acceptor atom, score
      P1  H  7997  8008       L1    13  2.00
      P1  H 10752 10765       L1    12  0.39

> <Gold.PLP.Chemscore.Internal.Correction>
0.0581

> <Gold.Rescore>
     Score         DG    S(hbond)    S(metal)    S(lipo)     H(rot)  DE(clash)    DE(int)     intcor
     15.77     -16.45       1.85        0.00      88.06       2.15       0.02       0.66       ----

> <Gold.Chemscore.Fitness>
15.7732

> <Gold.Chemscore.DG>
-16.4541

> <Gold.Chemscore.ZeroCoef>
-5.4800

> <Gold.Chemscore.Hbond>
1.8521

> <Gold.Chemscore.Metal>
0.0000

> <Gold.Chemscore.Lipo>
88.0561

> <Gold.Chemscore.Internal_Hbond>
0.0000

> <Gold.Chemscore.DEClash>
0.0178

> <Gold.Chemscore.DEInternal>
0.6631

> <Gold.Chemscore.Rot>
2.1542

> <Gold.Chemscore.Internal.Correction>
   9.000000E+99

> <Gold.Chemscore.Hbonds>
donor molecule, donor type, donor heavy atom, donor atom, acceptor molecule, acceptor atom, score
      P1  H  7997  8008       L1    13  0.99
      P1  H 10752 10765       L1    12  0.20

> <Gold.Chemscore.Hbond.Weighted>
-6.1862

> <Gold.Chemscore.Metal.Weighted>
-0.0000

> <Gold.Chemscore.Lipo.Weighted>
-10.3026

> <Gold.Chemscore.Internal_Hbond.Weighted>
0.0000

> <Gold.Chemscore.DEClash.Weighted>
0.0178

> <Gold.Chemscore.DEInternal.Weighted>
0.6631

> <Gold.Chemscore.Rot.Weighted>
5.5146

> <Gold.Chemscore.Internal.Correction.Weighted>
   9.000000E+99

> <Gold.Protein.RotatedTorsions>
[ 6907 6896 6895 6894 ] final -130.17 input  -60.11 | X-H torsion
[ 7974 7965 7964 7962 ] final  151.48 input  175.53 | X-H torsion
[ 8008 7997 7996 7995 ] final  -10.47 input   59.86 | X-H torsion
[ 10167 10162 10161 10158 ] final  -46.56 input  -65.29 | X-H torsion
[ 10718 10713 10712 10709 ] final  -68.45 input   66.30 | X-H torsion
[ 10763 10752 10751 10750 ] final  164.75 input  -60.55 | X-H torsion
[ 11005 11000 10999 10996 ] final -152.96 input  -57.11 | X-H torsion

> <Gold.Protein.ActiveResidues>
 VAL166  LYS551  ARG553  GLY616  TRP617  ASP618  TYR619  PRO620  LYS621  CYS622 
 ASP623  PHE694  ASN695  SER759  ASP760  ASP761  ALA762  ILE779  LEU786  VAL792 
 PHE793  MET794  SER795  GLU796  ALA797  LYS798  CYS799  TRP800  GLU811  SER814 

> <Gold.Protein.RotatedAtoms>
  150.9368  133.6703  159.2798 H   0  0  0  0  0  0  0  0  0  0  0  0  # atno 6907 bound_to 6896
  151.4106  135.0983  159.9593 H   0  0  0  0  0  0  0  0  0  0  0  0  # atno 6908 bound_to 6896
  152.5051  133.8841  159.7416 H   0  0  0  0  0  0  0  0  0  0  0  0  # atno 6909 bound_to 6896
  144.8289  139.6544  143.6067 H   0  0  0  0  0  0  0  0  0  0  0  0  # atno 7974 bound_to 7965
  154.5551  140.2328  155.8423 H   0  0  0  0  0  0  0  0  0  0  0  0  # atno 8008 bound_to 7997
  156.1981  140.3060  155.9430 H   0  0  0  0  0  0  0  0  0  0  0  0  # atno 8009 bound_to 7997
  155.2995  140.0430  157.3019 H   0  0  0  0  0  0  0  0  0  0  0  0  # atno 8010 bound_to 7997
  140.6812  143.2825  151.3800 H   0  0  0  0  0  0  0  0  0  0  0  0  # atno 10167 bound_to 10162
  156.0505  130.4295  150.2002 H   0  0  0  0  0  0  0  0  0  0  0  0  # atno 10718 bound_to 10713
  154.3137  135.2757  155.2553 H   0  0  0  0  0  0  0  0  0  0  0  0  # atno 10763 bound_to 10752
  154.4937  135.5826  153.6482 H   0  0  0  0  0  0  0  0  0  0  0  0  # atno 10764 bound_to 10752
  152.9885  135.6141  154.3316 H   0  0  0  0  0  0  0  0  0  0  0  0  # atno 10765 bound_to 10752
  140.7132  134.3809  157.5194 H   0  0  0  0  0  0  0  0  0  0  0  0  # atno 11005 bound_to 11000
  146.2593  139.6374  142.9373 LP  0  0  0  0  0  0  0  0  0  0  0  0  # atno 17320 bound_to 7965
  145.4939  141.0438  143.2578 LP  0  0  0  0  0  0  0  0  0  0  0  0  # atno 17321 bound_to 7965
  139.6136  144.1047  152.2324 LP  0  0  0  0  0  0  0  0  0  0  0  0  # atno 17342 bound_to 10162
  140.0469  144.5963  150.7366 LP  0  0  0  0  0  0  0  0  0  0  0  0  # atno 17343 bound_to 10162
  157.0086  130.9944  151.3372 LP  0  0  0  0  0  0  0  0  0  0  0  0  # atno 17370 bound_to 10713
  157.5426  130.8129  149.8047 LP  0  0  0  0  0  0  0  0  0  0  0  0  # atno 17371 bound_to 10713
  139.8866  134.8904  156.2574 LP  0  0  0  0  0  0  0  0  0  0  0  0  # atno 17394 bound_to 11000
  141.0066  133.7120  156.1045 LP  0  0  0  0  0  0  0  0  0  0  0  0  # atno 17395 bound_to 11000

$$$$
