AV-unprocessed.smi:1680|AV-procd|sdf|6740|dock6
  -GOLD-   22720 7493D 1   1.00000     0.00000
 Structure written by MMmdl.
 38 39  0  0  0  0  0  0  0  0  3 V2000
  152.4935  144.0562  161.9112 C   0  0  0  0  0  0  0  0  0  0  0  0
  152.1387  144.4307  160.4705 C   0  0  0  0  0  0  0  0  0  0  0  0
  151.5951  145.5171  160.2723 O   0  0  0  0  0  0  0  0  0  0  0  0
  152.4288  143.5654  159.4691 N   0  0  0  0  0  0  0  0  0  0  0  0
  152.0761  143.8214  158.0699 C   0  0  0  0  0  0  0  0  0  0  0  0
  151.0064  142.8070  157.6265 C   0  0  0  0  0  0  0  0  0  0  0  0
  151.4572  141.4065  157.8457 N   0  3  0  0  0  0  0  0  0  0  0  0
  150.4399  140.4185  157.4087 C   0  0  0  0  0  0  0  0  0  0  0  0
  150.8875  138.9652  157.6526 C   0  0  0  0  0  0  0  0  0  0  0  0
  149.7583  138.1184  158.0183 N   0  0  0  0  0  0  0  0  0  0  0  0
  149.7368  137.2381  159.0292 C   0  0  0  0  0  0  0  0  0  0  0  0
  150.7319  137.1008  159.7446 O   0  0  0  0  0  0  0  0  0  0  0  0
  148.5680  136.5688  159.1428 N   0  5  0  0  0  0  0  0  0  0  0  0
  148.0786  136.2735  160.3585 C   0  0  0  0  0  0  0  0  0  0  0  0
  147.8905  137.2094  161.3026 N   0  0  0  0  0  0  0  0  0  0  0  0
  147.3718  136.6969  162.4839 N   0  0  0  0  0  0  0  0  0  0  0  0
  147.1741  135.3817  162.3974 C   0  0  0  0  0  0  0  0  0  0  0  0
  147.5998  134.6506  160.8643 S   0  0  0  0  0  0  0  0  0  0  0  0
  151.9543  141.1736  159.2305 C   0  0  0  0  0  0  0  0  0  0  0  0
  153.0017  142.2264  159.6383 C   0  0  0  0  0  0  0  0  0  0  0  0
  151.9779  143.1440  162.2128 H   0  0  0  0  0  0  0  0  0  0  0  0
  152.1956  144.8488  162.5988 H   0  0  0  0  0  0  0  0  0  0  0  0
  153.5687  143.9100  162.0193 H   0  0  0  0  0  0  0  0  0  0  0  0
  151.7127  144.8361  157.9019 H   0  0  0  0  0  0  0  0  0  0  0  0
  152.9687  143.7197  157.4510 H   0  0  0  0  0  0  0  0  0  0  0  0
  150.0816  142.9792  158.1798 H   0  0  0  0  0  0  0  0  0  0  0  0
  150.7781  142.9582  156.5708 H   0  0  0  0  0  0  0  0  0  0  0  0
  149.4895  140.6198  157.9053 H   0  0  0  0  0  0  0  0  0  0  0  0
  150.2614  140.5498  156.3404 H   0  0  0  0  0  0  0  0  0  0  0  0
  151.3872  138.5625  156.7698 H   0  0  0  0  0  0  0  0  0  0  0  0
  151.6063  138.9107  158.4692 H   0  0  0  0  0  0  0  0  0  0  0  0
  148.9206  138.2035  157.4609 H   0  0  0  0  0  0  0  0  0  0  0  0
  146.7726  134.8394  163.2403 H   0  0  0  0  0  0  0  0  0  0  0  0
  151.1142  141.2022  159.9266 H   0  0  0  0  0  0  0  0  0  0  0  0
  152.3986  140.1824  159.3112 H   0  0  0  0  0  0  0  0  0  0  0  0
  153.8842  142.1372  159.0030 H   0  0  0  0  0  0  0  0  0  0  0  0
  153.3506  142.0225  160.6495 H   0  0  0  0  0  0  0  0  0  0  0  0
  152.2503  141.2803  157.2329 H   0  0  0  0  0  0  0  0  0  0  0  0
  1  2  1  0  0  0  0
  1 21  1  0  0  0  0
  1 22  1  0  0  0  0
  1 23  1  0  0  0  0
  2  3  2  0  0  0  0
  2  4  1  0  0  0  0
  4 20  1  0  0  0  0
  4  5  1  0  0  0  0
  5  6  1  0  0  0  0
  5 24  1  0  0  0  0
  5 25  1  0  0  0  0
  6  7  1  0  0  0  0
  6 26  1  0  0  0  0
  6 27  1  0  0  0  0
  7  8  1  0  0  0  0
  7 19  1  0  0  0  0
  7 38  1  0  0  0  0
  8  9  1  0  0  0  0
  8 28  1  0  0  0  0
  8 29  1  0  0  0  0
  9 10  1  0  0  0  0
  9 30  1  0  0  0  0
  9 31  1  0  0  0  0
 10 11  1  0  0  0  0
 10 32  1  0  0  0  0
 11 12  2  0  0  0  0
 11 13  1  0  0  0  0
 13 14  1  0  0  0  0
 14 18  1  0  0  0  0
 14 15  2  0  0  0  0
 15 16  1  0  0  0  0
 16 17  2  0  0  0  0
 17 18  1  0  0  0  0
 17 33  1  0  0  0  0
 19 20  1  0  0  0  0
 19 34  1  0  0  0  0
 19 35  1  0  0  0  0
 20 36  1  0  0  0  0
 20 37  1  0  0  0  0
M  CHG  1   7   1
M  CHG  1  13  -1
M  END
> <s_m_source_file>
AV-unprocessed.smi

> <i_m_source_file_index>
1680

> <i_lp_mmshare_version>
43012

> <i_f3d_flags>
0

> <s_epik_input>
W0NIM11DKD1PKU4xW0NIMl1bQ0gyXU4oW0NIMl1bQ0gyXTEpW0NIMl1bQ0gyXVtOSF1DKD1PKVtOSF1jMm5uW2NIXXMy

> <s_epik_cmdline>
J2VwaWtfcHl0aG9uJywgJy1waCcsICc3LjAnLCAnLXRuJywgJzgnLCAnLW1hJywgJzIwMCcsICctbWV0YWxfYmluZGluZycsICctaW1hZScsICc8aW5maWxlLm1hZT4nLCAnLW9tYWUnLCAnPG91dGZpbGUubWFlPic=

> <r_lp_tautomer_probability>
1

> <r_epik_Ionization_Penalty>
3.68953

> <r_epik_Ionization_Penalty_Charging>
3.65812

> <r_epik_Ionization_Penalty_Neutral>
0.0314116

> <r_epik_State_Penalty>
3.68215

> <r_epik_Charging_Adjusted_Penalty>
7.34027

> <i_epik_Tot_Q>
0

> <i_epik_Tot_abs_Q>
2

> <r_epik_Metal_State_Penalty>
1.11495

> <b_epik_Metal_Only>
1

> <s_lp_Force_Field>
OPLS_2005

> <r_lp_Energy>
32.4697

> <b_lp_Chiralities_Consistent>
1

> <s_lp_Variant>
AV-unprocessed.smi:1680-4

> <Gold.Version>
5.8.1

> <Gold.Id.Protein>
6NUR|6NUR_protein|mol2

> <Gold.PLP.Fitness>
48.2130

> <Gold.PLP.PLP>
-42.3079

> <Gold.PLP.part.hbond>
-3.5371

> <Gold.PLP.part.metal>
0.0000

> <Gold.PLP.part.buried>
-7.0454

> <Gold.PLP.part.nonpolar>
-31.1600

> <Gold.PLP.part.repulsive>
0.3691

> <Gold.PLP.ligand.clash>
0.0000

> <Gold.PLP.ligand.torsion>
1.1052

> <Gold.PLP.Chemscore.Hbond>
2.6880

> <Gold.PLP.Chemscore.CHOScore>
0.0000

> <Gold.PLP.Chemscore.Metal>
0.0000

> <Gold.Chemscore.Hbonds>
donor molecule, donor type, donor heavy atom, donor atom, acceptor molecule, acceptor atom, score
      P1  H  6896  6909       L1    12  0.98
      P1  H  6931  6943       L1    15  1.00
      P1  H  6934  6947       L1    15  0.74

> <Gold.PLP.Chemscore.Internal.Correction>
0.0514

> <Gold.Rescore>
     Score         DG    S(hbond)    S(metal)    S(lipo)     H(rot)  DE(clash)    DE(int)     intcor
     16.64     -17.87       2.44        0.00      75.61       1.80       0.01       1.23       ----

> <Gold.Chemscore.Fitness>
16.6352

> <Gold.Chemscore.DG>
-17.8709

> <Gold.Chemscore.ZeroCoef>
-5.4800

> <Gold.Chemscore.Hbond>
2.4410

> <Gold.Chemscore.Metal>
0.0000

> <Gold.Chemscore.Lipo>
75.6129

> <Gold.Chemscore.Internal_Hbond>
0.0000

> <Gold.Chemscore.DEClash>
0.0067

> <Gold.Chemscore.DEInternal>
1.2291

> <Gold.Chemscore.Rot>
1.8003

> <Gold.Chemscore.Internal.Correction>
   9.000000E+99

> <Gold.Chemscore.Hbonds>
donor molecule, donor type, donor heavy atom, donor atom, acceptor molecule, acceptor atom, score
      P1  H  6896  6909       L1    12  0.72
      P1  H  6931  6943       L1    15  0.24
      P1  H  6934  6947       L1    15  0.56

> <Gold.Chemscore.Hbond.Weighted>
-8.1530

> <Gold.Chemscore.Metal.Weighted>
-0.0000

> <Gold.Chemscore.Lipo.Weighted>
-8.8467

> <Gold.Chemscore.Internal_Hbond.Weighted>
0.0000

> <Gold.Chemscore.DEClash.Weighted>
0.0067

> <Gold.Chemscore.DEInternal.Weighted>
1.2291

> <Gold.Chemscore.Rot.Weighted>
4.6088

> <Gold.Chemscore.Internal.Correction.Weighted>
   9.000000E+99

> <Gold.Protein.RotatedTorsions>
[ 6907 6896 6895 6894 ] final  100.35 input  -60.11 | X-H torsion
[ 7974 7965 7964 7962 ] final   63.64 input  175.53 | X-H torsion
[ 8008 7997 7996 7995 ] final -106.92 input   59.86 | X-H torsion
[ 10167 10162 10161 10158 ] final  162.68 input  -65.29 | X-H torsion
[ 10718 10713 10712 10709 ] final  122.96 input   66.30 | X-H torsion
[ 10763 10752 10751 10750 ] final   99.98 input  -60.55 | X-H torsion
[ 11005 11000 10999 10996 ] final  107.13 input  -57.11 | X-H torsion

> <Gold.Protein.ActiveResidues>
 VAL166  LYS551  ARG553  GLY616  TRP617  ASP618  TYR619  PRO620  LYS621  CYS622 
 ASP623  PHE694  ASN695  SER759  ASP760  ASP761  ALA762  ILE779  LEU786  VAL792 
 PHE793  MET794  SER795  GLU796  ALA797  LYS798  CYS799  TRP800  GLU811  SER814 

> <Gold.Protein.RotatedAtoms>
  152.5374  134.0291  159.8016 H   0  0  0  0  0  0  0  0  0  0  0  0  # atno 6907 bound_to 6896
  151.0464  133.5653  159.2653 H   0  0  0  0  0  0  0  0  0  0  0  0  # atno 6908 bound_to 6896
  151.2604  135.0659  159.9149 H   0  0  0  0  0  0  0  0  0  0  0  0  # atno 6909 bound_to 6896
  145.8595  139.3306  143.0827 H   0  0  0  0  0  0  0  0  0  0  0  0  # atno 7974 bound_to 7965
  154.9216  140.0407  157.2001 H   0  0  0  0  0  0  0  0  0  0  0  0  # atno 8008 bound_to 7997
  154.8248  140.2889  155.5741 H   0  0  0  0  0  0  0  0  0  0  0  0  # atno 8009 bound_to 7997
  156.2982  140.2512  156.3162 H   0  0  0  0  0  0  0  0  0  0  0  0  # atno 8010 bound_to 7997
  139.4863  144.4413  151.8947 H   0  0  0  0  0  0  0  0  0  0  0  0  # atno 10167 bound_to 10162
  157.5702  131.1084  150.8382 H   0  0  0  0  0  0  0  0  0  0  0  0  # atno 10718 bound_to 10713
  153.3082  135.4094  155.1313 H   0  0  0  0  0  0  0  0  0  0  0  0  # atno 10763 bound_to 10752
  154.8569  135.3558  154.5759 H   0  0  0  0  0  0  0  0  0  0  0  0  # atno 10764 bound_to 10752
  153.6186  135.7065  153.5377 H   0  0  0  0  0  0  0  0  0  0  0  0  # atno 10765 bound_to 10752
  139.8823  134.9391  156.5772 H   0  0  0  0  0  0  0  0  0  0  0  0  # atno 11005 bound_to 11000
  145.9264  140.9079  143.0378 LP  0  0  0  0  0  0  0  0  0  0  0  0  # atno 17320 bound_to 7965
  144.6727  140.1359  143.7440 LP  0  0  0  0  0  0  0  0  0  0  0  0  # atno 17321 bound_to 7965
  140.3865  144.2669  150.5903 LP  0  0  0  0  0  0  0  0  0  0  0  0  # atno 17342 bound_to 10162
  140.5185  143.2272  151.8426 LP  0  0  0  0  0  0  0  0  0  0  0  0  # atno 17343 bound_to 10162
  156.8855  130.5194  149.5288 LP  0  0  0  0  0  0  0  0  0  0  0  0  # atno 17370 bound_to 10713
  156.0747  130.5772  150.9451 LP  0  0  0  0  0  0  0  0  0  0  0  0  # atno 17371 bound_to 10713
  140.8054  133.8472  155.8763 LP  0  0  0  0  0  0  0  0  0  0  0  0  # atno 17394 bound_to 11000
  140.9555  134.1724  157.4695 LP  0  0  0  0  0  0  0  0  0  0  0  0  # atno 17395 bound_to 11000

$$$$
