AV-unprocessed.smi:624|AV-procd|sdf|3099|dock2
  -GOLD-   22720 0 23D 1   1.00000     0.00000
 Structure written by MMmdl.
 30 32  0  0  0  0  0  0  0  0  1 V2000
  151.8085  141.2574  156.8477 O   0  0  0  0  0  0  0  0  0  0  0  0
  150.9186  142.0891  156.6720 C   0  0  0  0  0  0  0  0  0  0  0  0
  149.8955  141.9611  155.8116 N   0  0  0  0  0  0  0  0  0  0  0  0
  149.6007  140.8639  154.9643 C   0  0  0  0  0  0  0  0  0  0  0  0
  150.5976  140.0286  154.6488 N   0  0  0  0  0  0  0  0  0  0  0  0
  150.1729  139.0033  153.8126 N   0  0  0  0  0  0  0  0  0  0  0  0
  148.8709  139.1071  153.5286 C   0  0  0  0  0  0  0  0  0  0  0  0
  148.0327  140.4664  154.2555 S   0  0  0  0  0  0  0  0  0  0  0  0
  150.8521  143.2551  157.3312 N   0  0  0  0  0  0  0  0  0  0  0  0
  151.7862  143.7091  158.3568 C   0  0  0  0  0  0  0  0  0  0  0  0
  151.9151  142.7206  159.5052 C   0  0  0  0  0  0  0  0  0  0  0  0
  153.0984  142.7531  160.4443 C   0  0  0  0  0  0  0  0  0  0  0  0
  152.9336  141.6048  159.4764 C   0  0  0  0  0  0  0  0  0  0  0  0
  151.4051  145.0806  158.8847 C   0  0  0  0  0  0  0  0  0  0  0  0
  151.7971  145.5176  160.2759 C   0  0  0  0  0  0  0  0  0  0  0  0
  150.3452  145.2531  159.9471 C   0  0  0  0  0  0  0  0  0  0  0  0
  149.2444  142.7309  155.7656 H   0  0  0  0  0  0  0  0  0  0  0  0
  148.4013  138.3774  152.8856 H   0  0  0  0  0  0  0  0  0  0  0  0
  150.0862  143.8764  157.1149 H   0  0  0  0  0  0  0  0  0  0  0  0
  152.7712  143.8096  157.8959 H   0  0  0  0  0  0  0  0  0  0  0  0
  150.9615  142.4751  159.9692 H   0  0  0  0  0  0  0  0  0  0  0  0
  153.8967  143.4636  160.2400 H   0  0  0  0  0  0  0  0  0  0  0  0
  152.9095  142.5541  161.4973 H   0  0  0  0  0  0  0  0  0  0  0  0
  152.6324  140.6415  159.8823 H   0  0  0  0  0  0  0  0  0  0  0  0
  153.6214  141.5611  158.6344 H   0  0  0  0  0  0  0  0  0  0  0  0
  151.4318  145.8582  158.1231 H   0  0  0  0  0  0  0  0  0  0  0  0
  152.3061  144.7950  160.9110 H   0  0  0  0  0  0  0  0  0  0  0  0
  152.1029  146.5532  160.4094 H   0  0  0  0  0  0  0  0  0  0  0  0
  149.6828  146.1120  159.8597 H   0  0  0  0  0  0  0  0  0  0  0  0
  149.8946  144.3589  160.3729 H   0  0  0  0  0  0  0  0  0  0  0  0
  1  2  2  0  0  0  0
  2  3  1  0  0  0  0
  2  9  1  0  0  0  0
  3  4  1  0  0  0  0
  3 17  1  0  0  0  0
  4  8  1  0  0  0  0
  4  5  2  0  0  0  0
  5  6  1  0  0  0  0
  6  7  2  0  0  0  0
  7  8  1  0  0  0  0
  7 18  1  0  0  0  0
  9 10  1  0  0  0  0
  9 19  1  0  0  0  0
 10 11  1  0  0  0  0
 10 14  1  0  0  0  0
 10 20  1  0  0  0  0
 11 13  1  0  0  0  0
 11 12  1  0  0  0  0
 11 21  1  0  0  0  0
 12 13  1  0  0  0  0
 12 22  1  0  0  0  0
 12 23  1  0  0  0  0
 13 24  1  0  0  0  0
 13 25  1  0  0  0  0
 14 16  1  0  0  0  0
 14 15  1  0  0  0  0
 14 26  1  0  0  0  0
 15 16  1  0  0  0  0
 15 27  1  0  0  0  0
 15 28  1  0  0  0  0
 16 29  1  0  0  0  0
 16 30  1  0  0  0  0
M  END
> <s_m_source_file>
AV-unprocessed.smi

> <i_m_source_file_index>
624

> <i_lp_mmshare_version>
43012

> <i_f3d_flags>
0

> <s_epik_input>
W0NIMl0xW0NIMl1bQ0hdMVtDSF0oW0NIXTJbQ0gyXVtDSDJdMilbTkhdQyg9TylbTkhdYzNubltjSF1zMw==

> <s_epik_cmdline>
J2VwaWtfcHl0aG9uJywgJy1waCcsICc3LjAnLCAnLXRuJywgJzgnLCAnLW1hJywgJzIwMCcsICctbWV0YWxfYmluZGluZycsICctaW1hZScsICc8aW5maWxlLm1hZT4nLCAnLW9tYWUnLCAnPG91dGZpbGUubWFlPic=

> <r_lp_tautomer_probability>
1

> <r_epik_Ionization_Penalty>
0.000305758

> <r_epik_Ionization_Penalty_Charging>
0

> <r_epik_Ionization_Penalty_Neutral>
0.000305758

> <r_epik_State_Penalty>
-0

> <r_epik_Charging_Adjusted_Penalty>
0

> <i_epik_Tot_Q>
0

> <i_epik_Tot_abs_Q>
0

> <r_epik_Metal_State_Penalty>
0.165203

> <b_epik_Metal_Only>
0

> <s_lp_Force_Field>
OPLS_2005

> <r_lp_Energy>
21.213

> <b_lp_Chiralities_Consistent>
1

> <s_lp_Variant>
AV-unprocessed.smi:624-1

> <Gold.Version>
5.8.1

> <Gold.Id.Protein>
6NUR|6NUR_protein|mol2

> <Gold.PLP.Fitness>
47.0457

> <Gold.PLP.PLP>
-35.3354

> <Gold.PLP.part.hbond>
-3.0000

> <Gold.PLP.part.metal>
0.0000

> <Gold.PLP.part.buried>
-2.5211

> <Gold.PLP.part.nonpolar>
-31.2203

> <Gold.PLP.part.repulsive>
0.5066

> <Gold.PLP.ligand.clash>
0.0000

> <Gold.PLP.ligand.torsion>
1.1876

> <Gold.PLP.Chemscore.Hbond>
2.9913

> <Gold.PLP.Chemscore.CHOScore>
1.0000

> <Gold.PLP.Chemscore.Metal>
0.0000

> <Gold.Chemscore.Hbonds>
donor molecule, donor type, donor heavy atom, donor atom, acceptor molecule, acceptor atom, score
      L1  H     3    17       P1  8028  1.00
      L1  H     9    19       P1  8028  0.92
      P1  H  7989  7998       L1     5  0.90
      L1  C     7    18       P1  7948  1.00

> <Gold.PLP.Chemscore.Internal.Correction>
2.1117

> <Gold.Rescore>
     Score         DG    S(hbond)    S(metal)    S(lipo)     H(rot)  DE(clash)    DE(int)     intcor
     13.32     -19.05       2.09        0.00      89.65       1.52       1.13       4.60       ----

> <Gold.Chemscore.Fitness>
13.3234

> <Gold.Chemscore.DG>
-19.0535

> <Gold.Chemscore.ZeroCoef>
-5.4800

> <Gold.Chemscore.Hbond>
2.0907

> <Gold.Chemscore.Metal>
0.0000

> <Gold.Chemscore.Lipo>
89.6464

> <Gold.Chemscore.Internal_Hbond>
0.0000

> <Gold.Chemscore.DEClash>
1.1296

> <Gold.Chemscore.DEInternal>
4.6005

> <Gold.Chemscore.Rot>
1.5227

> <Gold.Chemscore.Internal.Correction>
   9.000000E+99

> <Gold.Chemscore.Hbonds>
donor molecule, donor type, donor heavy atom, donor atom, acceptor molecule, acceptor atom, score
      L1  H     3    17       P1  8028  0.89
      L1  H     9    19       P1  8028  0.78
      P1  H  7989  7998       L1     5  0.11

> <Gold.Chemscore.Hbond.Weighted>
-6.9830

> <Gold.Chemscore.Metal.Weighted>
-0.0000

> <Gold.Chemscore.Lipo.Weighted>
-10.4886

> <Gold.Chemscore.Internal_Hbond.Weighted>
0.0000

> <Gold.Chemscore.DEClash.Weighted>
1.1296

> <Gold.Chemscore.DEInternal.Weighted>
4.6005

> <Gold.Chemscore.Rot.Weighted>
3.8982

> <Gold.Chemscore.Internal.Correction.Weighted>
   9.000000E+99

> <Gold.Protein.RotatedTorsions>
[ 6907 6896 6895 6894 ] final  140.95 input  -60.11 | X-H torsion
[ 7974 7965 7964 7962 ] final  158.14 input  175.53 | X-H torsion
[ 8008 7997 7996 7995 ] final  172.99 input   59.86 | X-H torsion
[ 10167 10162 10161 10158 ] final  -33.67 input  -65.29 | X-H torsion
[ 10718 10713 10712 10709 ] final -171.79 input   66.30 | X-H torsion
[ 10763 10752 10751 10750 ] final -152.48 input  -60.55 | X-H torsion
[ 11005 11000 10999 10996 ] final -162.27 input  -57.11 | X-H torsion

> <Gold.Protein.ActiveResidues>
 VAL166  LYS551  ARG553  GLY616  TRP617  ASP618  TYR619  PRO620  LYS621  CYS622 
 ASP623  PHE694  ASN695  SER759  ASP760  ASP761  ALA762  ILE779  LEU786  VAL792 
 PHE793  MET794  SER795  GLU796  ALA797  LYS798  CYS799  TRP800  GLU811  SER814 

> <Gold.Protein.RotatedAtoms>
  152.2368  133.5103  159.5247 H   0  0  0  0  0  0  0  0  0  0  0  0  # atno 6907 bound_to 6896
  150.7053  134.1142  159.4020 H   0  0  0  0  0  0  0  0  0  0  0  0  # atno 6908 bound_to 6896
  151.9063  135.0357  160.0561 H   0  0  0  0  0  0  0  0  0  0  0  0  # atno 6909 bound_to 6896
  144.7863  139.7437  143.6239 H   0  0  0  0  0  0  0  0  0  0  0  0  # atno 7974 bound_to 7965
  156.1120  140.1471  156.9325 H   0  0  0  0  0  0  0  0  0  0  0  0  # atno 8008 bound_to 7997
  154.4773  140.0890  156.7337 H   0  0  0  0  0  0  0  0  0  0  0  0  # atno 8009 bound_to 7997
  155.4580  140.3437  155.4311 H   0  0  0  0  0  0  0  0  0  0  0  0  # atno 8010 bound_to 7997
  140.7200  143.3603  151.1976 H   0  0  0  0  0  0  0  0  0  0  0  0  # atno 10167 bound_to 10162
  156.7461  130.9360  151.3112 H   0  0  0  0  0  0  0  0  0  0  0  0  # atno 10718 bound_to 10713
  154.7991  135.3235  154.7594 H   0  0  0  0  0  0  0  0  0  0  0  0  # atno 10763 bound_to 10752
  153.8265  135.6883  153.4824 H   0  0  0  0  0  0  0  0  0  0  0  0  # atno 10764 bound_to 10752
  153.1698  135.4627  154.9830 H   0  0  0  0  0  0  0  0  0  0  0  0  # atno 10765 bound_to 10752
  140.6112  134.4848  157.5215 H   0  0  0  0  0  0  0  0  0  0  0  0  # atno 11005 bound_to 11000
  146.2095  139.5442  142.9690 LP  0  0  0  0  0  0  0  0  0  0  0  0  # atno 17320 bound_to 7965
  145.5914  141.0369  143.2068 LP  0  0  0  0  0  0  0  0  0  0  0  0  # atno 17321 bound_to 7965
  139.7154  143.9309  152.2964 LP  0  0  0  0  0  0  0  0  0  0  0  0  # atno 17342 bound_to 10162
  139.9048  144.6891  150.8626 LP  0  0  0  0  0  0  0  0  0  0  0  0  # atno 17343 bound_to 10162
  157.6797  130.9128  150.0238 LP  0  0  0  0  0  0  0  0  0  0  0  0  # atno 17370 bound_to 10713
  156.1432  130.3642  149.9550 LP  0  0  0  0  0  0  0  0  0  0  0  0  # atno 17371 bound_to 10713
  139.9191  134.8184  156.1267 LP  0  0  0  0  0  0  0  0  0  0  0  0  # atno 17394 bound_to 11000
  141.0807  133.6755  156.2330 LP  0  0  0  0  0  0  0  0  0  0  0  0  # atno 17395 bound_to 11000

$$$$
