#       Name:                AV-unprocessed.smi:912
#       Creating user name   scv26
#       Creation time:       Fri Mar 27 02:05:06 2020


#       File generated by GOLD software.
#

@<TRIPOS>MOLECULE
AV-unprocessed.smi:912
    30    30     1
SMALL
NO_CHARGES


@<TRIPOS>ATOM
      1 ****        -2.2334   2.1325  -0.1713 C.3            1 S1                 0.0000
      2 ****        -1.5267   0.9045  -0.5322 N.3            1 S1                 0.0000
      3 ****        -0.0978   0.7982  -0.1790 C.3            1 S1                 0.0000
      4 ****         0.6540   1.5730  -1.2938 C.3            1 S1                 0.0000
      5 ****         0.2093   1.3937   1.2228 C.2            1 S1                 0.0000
      6 ****        -0.3981   0.8371   2.2769 N.am           1 S1                 0.0000
      7 ****         0.9854   2.3382   1.3579 O.2            1 S1                 0.0000
      8 ****         0.3753  -0.6710  -0.1642 C.ar           1 S1                 0.0000
      9 ****        -0.5345  -1.7586  -0.2441 C.ar           1 S1                 0.0000
     10 ****        -0.0504  -3.0824  -0.2220 C.ar           1 S1                 0.0000
     11 ****         1.2748  -3.3141  -0.1206 N.pl3          1 S1                 1.0000
     12 ****         2.1823  -2.3197  -0.0343 C.ar           1 S1                 0.0000
     13 ****         1.7559  -0.9767  -0.0514 C.ar           1 S1                 0.0000
     14 ****        -3.2303   2.1086  -0.6111 H              1 S1                 0.0000
     15 ****        -1.7305   3.0218  -0.5503 H              1 S1                 0.0000
     16 ****        -2.3649   2.2359   0.9055 H              1 S1                 0.0000
     17 ****        -1.5860   0.8390  -1.5385 H              1 S1                 0.0000
     18 ****         1.7332   1.5807  -1.1409 H              1 S1                 0.0000
     19 ****         0.3472   2.6174  -1.3542 H              1 S1                 0.0000
     20 ****         0.4742   1.1266  -2.2727 H              1 S1                 0.0000
     21 ****        -0.2085   1.1816   3.2069 H              1 S1                 0.0000
     22 ****        -1.0282   0.0599   2.1397 H              1 S1                 0.0000
     23 ****        -1.6002  -1.6024  -0.3193 H              1 S1                 0.0000
     24 ****        -0.6813  -3.9573  -0.2801 H              1 S1                 0.0000
     25 ****         3.2151  -2.6253   0.0486 H              1 S1                 0.0000
     26 ****         2.4915  -0.1902   0.0296 H              1 S1                 0.0000
     27 ****         1.6035  -4.2801  -0.1053 H              1 S1                 0.0000
     28 ****        -1.9672   0.1778  -0.0051 LP             1 S1                 0.0000
     29 ****         1.4319   2.7370   0.5569 LP             1 S1                 0.0000
     30 ****         1.1700   2.7073   2.2688 LP             1 S1                 0.0000
@<TRIPOS>BOND
    1    1    2 1     
    2    1   14 1     
    3    1   15 1     
    4    1   16 1     
    5    2    3 1     
    6    2   17 1     
    7    3    4 1     
    8    3    5 1     
    9    3    8 1     
   10    4   18 1     
   11    4   19 1     
   12    4   20 1     
   13    5    6 am    
   14    5    7 2     
   15    6   21 1     
   16    6   22 1     
   17    8   13 ar    
   18    8    9 ar    
   19    9   10 ar    
   20    9   23 1     
   21   10   11 ar    
   22   10   24 1     
   23   11   12 ar    
   24   11   27 1     
   25   12   13 ar    
   26   12   25 1     
   27   13   26 1     
   28    2   28 1     
   29    7   29 1     
   30    7   30 1     
@<TRIPOS>SUBSTRUCTURE
      1 S1             1
@<TRIPOS>SET
LONE_PAIRS      STATIC     ATOMS    <user>   **** ""
3 28 29 30
DONOR_HYDROGENS      STATIC     ATOMS    <user>   **** ""
4 17 21 22 27
ATOM$BLUE        STATIC     ATOMS    COLORGROUP SYSTEM
3 28 29 30
ATOM$RED        STATIC     ATOMS    COLORGROUP SYSTEM
4 17 21 22 27
