AV-unprocessed.smi:2669|AV-procd|sdf|10344|dock10
  -GOLD-   2272014373D 1   1.00000     0.00000
 Structure written by MMmdl.
 39 41  0  0  0  0  0  0  0  0  1 V2000
  146.5079  136.8975  155.5087 C   0  0  0  0  0  0  0  0  0  0  0  0
  147.7123  137.5322  154.9976 N   0  0  0  0  0  0  0  0  0  0  0  0
  148.9728  136.9660  155.2352 C   0  0  0  0  0  0  0  0  0  0  0  0
  149.0688  135.6887  155.6724 N   0  0  0  0  0  0  0  0  0  0  0  0
  150.2936  135.1896  155.8847 C   0  0  0  0  0  0  0  0  0  0  0  0
  151.4876  135.7811  155.7241 N   0  0  0  0  0  0  0  0  0  0  0  0
  151.4032  137.0465  155.2913 C   0  0  0  0  0  0  0  0  0  0  0  0
  152.4701  137.8918  155.0392 N   0  0  0  0  0  0  0  0  0  0  0  0
  151.8491  138.9998  154.6425 C   0  0  0  0  0  0  0  0  0  0  0  0
  150.5020  138.9789  154.6050 N   0  0  0  0  0  0  0  0  0  0  0  0
  149.6281  140.0694  154.2066 C   0  0  0  0  0  0  0  0  0  0  0  0
  150.0563  141.4223  154.8096 C   0  0  1  0  0  0  0  0  0  0  0  0
  148.9428  142.2953  154.8196 O   0  0  0  0  0  0  0  0  0  0  0  0
  150.5747  141.2705  156.2486 C   0  0  0  0  0  0  0  0  0  0  0  0
  151.2904  142.4456  156.6051 O   0  0  0  0  0  0  0  0  0  0  0  0
  151.7707  142.5539  157.8925 C   0  0  0  0  0  0  0  0  0  0  0  0
  151.7620  141.3828  158.6781 C   0  0  0  0  0  0  0  0  0  0  0  0
  152.2318  141.4009  160.0054 C   0  0  0  0  0  0  0  0  0  0  0  0
  152.7187  142.5978  160.5627 C   0  0  0  0  0  0  0  0  0  0  0  0
  153.2950  142.6230  162.1889 Cl  0  0  0  0  0  0  0  0  0  0  0  0
  152.7343  143.7739  159.7899 C   0  0  0  0  0  0  0  0  0  0  0  0
  152.2638  143.7554  158.4623 C   0  0  0  0  0  0  0  0  0  0  0  0
  150.1598  137.6963  155.0276 C   0  0  0  0  0  0  0  0  0  0  0  0
  145.6335  137.4933  155.2471 H   0  0  0  0  0  0  0  0  0  0  0  0
  146.5478  136.8093  156.5949 H   0  0  0  0  0  0  0  0  0  0  0  0
  146.3837  135.9026  155.0801 H   0  0  0  0  0  0  0  0  0  0  0  0
  147.6356  138.4099  154.5046 H   0  0  0  0  0  0  0  0  0  0  0  0
  150.3245  134.1682  156.2337 H   0  0  0  0  0  0  0  0  0  0  0  0
  152.4075  139.8819  154.3649 H   0  0  0  0  0  0  0  0  0  0  0  0
  149.6154  140.1267  153.1171 H   0  0  0  0  0  0  0  0  0  0  0  0
  148.6114  139.8198  154.5113 H   0  0  0  0  0  0  0  0  0  0  0  0
  150.8370  141.8588  154.1855 H   0  0  0  0  0  0  0  0  0  0  0  0
  148.9828  142.8261  155.6001 H   0  0  0  0  0  0  0  0  0  0  0  0
  149.7522  141.0719  156.9381 H   0  0  0  0  0  0  0  0  0  0  0  0
  151.2618  140.4241  156.2964 H   0  0  0  0  0  0  0  0  0  0  0  0
  151.3898  140.4594  158.2590 H   0  0  0  0  0  0  0  0  0  0  0  0
  152.2171  140.4955  160.5942 H   0  0  0  0  0  0  0  0  0  0  0  0
  153.1069  144.6946  160.2144 H   0  0  0  0  0  0  0  0  0  0  0  0
  152.2913  144.6778  157.9025 H   0  0  0  0  0  0  0  0  0  0  0  0
  1  2  1  0  0  0  0
  1 24  1  0  0  0  0
  1 25  1  0  0  0  0
  1 26  1  0  0  0  0
  2  3  1  0  0  0  0
  2 27  1  0  0  0  0
  3 23  1  0  0  0  0
  3  4  2  0  0  0  0
  4  5  1  0  0  0  0
  5  6  2  0  0  0  0
  5 28  1  0  0  0  0
  6  7  1  0  0  0  0
  7 23  2  0  0  0  0
  7  8  1  0  0  0  0
  8  9  2  0  0  0  0
  9 10  1  0  0  0  0
  9 29  1  0  0  0  0
 10 11  1  0  0  0  0
 10 23  1  0  0  0  0
 11 12  1  0  0  0  0
 11 30  1  0  0  0  0
 11 31  1  0  0  0  0
 12 13  1  0  0  0  0
 12 14  1  0  0  0  0
 12 32  1  0  0  0  0
 13 33  1  0  0  0  0
 14 15  1  0  0  0  0
 14 34  1  0  0  0  0
 14 35  1  0  0  0  0
 15 16  1  0  0  0  0
 16 22  1  0  0  0  0
 16 17  2  0  0  0  0
 17 18  1  0  0  0  0
 17 36  1  0  0  0  0
 18 19  2  0  0  0  0
 18 37  1  0  0  0  0
 19 20  1  0  0  0  0
 19 21  1  0  0  0  0
 21 22  2  0  0  0  0
 21 38  1  0  0  0  0
 22 39  1  0  0  0  0
M  END
> <s_m_source_file>
AV-unprocessed.smi

> <i_m_source_file_index>
2669

> <i_lp_mmshare_version>
43012

> <i_f3d_flags>
0

> <s_epik_input>
bjFbY0hdbmMoW05IXVtDSDNdKWMoYzEyKW4oW2NIXW4yKVtDSDJdW0NASF0oW09IXSlbQ0gyXU9jM1tjSF1bY0hdYyhDbClbY0hdW2NIXTM=

> <s_epik_cmdline>
J2VwaWtfcHl0aG9uJywgJy1waCcsICc3LjAnLCAnLXRuJywgJzgnLCAnLW1hJywgJzIwMCcsICctbWV0YWxfYmluZGluZycsICctaW1hZScsICc8aW5maWxlLm1hZT4nLCAnLW9tYWUnLCAnPG91dGZpbGUubWFlPic=

> <r_lp_tautomer_probability>
1

> <r_epik_Ionization_Penalty>
0.00733592

> <r_epik_Ionization_Penalty_Charging>
0

> <r_epik_Ionization_Penalty_Neutral>
0.00733592

> <r_epik_State_Penalty>
-0

> <r_epik_Charging_Adjusted_Penalty>
0

> <i_epik_Tot_Q>
0

> <i_epik_Tot_abs_Q>
0

> <r_epik_Metal_State_Penalty>
-0

> <b_epik_Metal_Only>
0

> <s_lp_Force_Field>
OPLS_2005

> <r_lp_Energy>
13.4458

> <b_lp_Chiralities_Consistent>
1

> <s_lp_Variant>
AV-unprocessed.smi:2669-2

> <Gold.Version>
5.8.1

> <Gold.Id.Protein>
6NUR|6NUR_protein|mol2

> <Gold.PLP.Fitness>
44.9573

> <Gold.PLP.PLP>
-43.9576

> <Gold.PLP.part.hbond>
-2.2560

> <Gold.PLP.part.metal>
0.0000

> <Gold.PLP.part.buried>
-4.4223

> <Gold.PLP.part.nonpolar>
-36.5595

> <Gold.PLP.part.repulsive>
0.2934

> <Gold.PLP.ligand.clash>
1.5692

> <Gold.PLP.ligand.torsion>
0.7526

> <Gold.PLP.Chemscore.Hbond>
1.3360

> <Gold.PLP.Chemscore.CHOScore>
0.0000

> <Gold.PLP.Chemscore.Metal>
0.0000

> <Gold.Chemscore.Hbonds>
donor molecule, donor type, donor heavy atom, donor atom, acceptor molecule, acceptor atom, score
      L1  H    13    33       P1  8028  0.50
      P1  H 10752 10765       L1     6  0.60

> <Gold.PLP.Chemscore.Internal.Correction>
0.0661

> <Gold.Rescore>
     Score         DG    S(hbond)    S(metal)    S(lipo)     H(rot)  DE(clash)    DE(int)     intcor
     11.39     -13.50       1.14        0.00     101.17       2.97       1.50       0.62       ----

> <Gold.Chemscore.Fitness>
11.3879

> <Gold.Chemscore.DG>
-13.4985

> <Gold.Chemscore.ZeroCoef>
-5.4800

> <Gold.Chemscore.Hbond>
1.1366

> <Gold.Chemscore.Metal>
0.0000

> <Gold.Chemscore.Lipo>
101.1744

> <Gold.Chemscore.Internal_Hbond>
0.0000

> <Gold.Chemscore.DEClash>
1.4955

> <Gold.Chemscore.DEInternal>
0.6152

> <Gold.Chemscore.Rot>
2.9746

> <Gold.Chemscore.Internal.Correction>
   9.000000E+99

> <Gold.Chemscore.Hbonds>
donor molecule, donor type, donor heavy atom, donor atom, acceptor molecule, acceptor atom, score
      L1  H    13    33       P1  8028  0.50
      P1  H 10752 10765       L1     6  0.04

> <Gold.Chemscore.Hbond.Weighted>
-3.7961

> <Gold.Chemscore.Metal.Weighted>
-0.0000

> <Gold.Chemscore.Lipo.Weighted>
-11.8374

> <Gold.Chemscore.Internal_Hbond.Weighted>
0.0000

> <Gold.Chemscore.DEClash.Weighted>
1.4955

> <Gold.Chemscore.DEInternal.Weighted>
0.6152

> <Gold.Chemscore.Rot.Weighted>
7.6150

> <Gold.Chemscore.Internal.Correction.Weighted>
   9.000000E+99

> <Gold.Protein.RotatedTorsions>
[ 6907 6896 6895 6894 ] final   11.78 input  -60.11 | X-H torsion
[ 7974 7965 7964 7962 ] final  -24.41 input  175.53 | X-H torsion
[ 8008 7997 7996 7995 ] final   64.97 input   59.86 | X-H torsion
[ 10167 10162 10161 10158 ] final -173.67 input  -65.29 | X-H torsion
[ 10718 10713 10712 10709 ] final  -51.36 input   66.30 | X-H torsion
[ 10763 10752 10751 10750 ] final -164.49 input  -60.55 | X-H torsion
[ 11005 11000 10999 10996 ] final   18.83 input  -57.11 | X-H torsion

> <Gold.Protein.ActiveResidues>
 VAL166  LYS551  ARG553  GLY616  TRP617  ASP618  TYR619  PRO620  LYS621  CYS622 
 ASP623  PHE694  ASN695  SER759  ASP760  ASP761  ALA762  ILE779  LEU786  VAL792 
 PHE793  MET794  SER795  GLU796  ALA797  LYS798  CYS799  TRP800  GLU811  SER814 

> <Gold.Protein.RotatedAtoms>
  151.7598  135.0813  160.0343 H   0  0  0  0  0  0  0  0  0  0  0  0  # atno 6907 bound_to 6896
  152.3360  133.6008  159.5851 H   0  0  0  0  0  0  0  0  0  0  0  0  # atno 6908 bound_to 6896
  150.7451  133.9711  159.3587 H   0  0  0  0  0  0  0  0  0  0  0  0  # atno 6909 bound_to 6896
  146.1556  140.4748  142.8593 H   0  0  0  0  0  0  0  0  0  0  0  0  # atno 7974 bound_to 7965
  155.6543  140.3497  155.4759 H   0  0  0  0  0  0  0  0  0  0  0  0  # atno 8008 bound_to 7997
  155.9821  140.1176  157.0739 H   0  0  0  0  0  0  0  0  0  0  0  0  # atno 8009 bound_to 7997
  154.4194  140.1136  156.5436 H   0  0  0  0  0  0  0  0  0  0  0  0  # atno 8010 bound_to 7997
  139.5675  144.1720  152.1335 H   0  0  0  0  0  0  0  0  0  0  0  0  # atno 10167 bound_to 10162
  156.1717  130.4149  149.9638 H   0  0  0  0  0  0  0  0  0  0  0  0  # atno 10718 bound_to 10713
  154.7024  135.2990  154.9322 H   0  0  0  0  0  0  0  0  0  0  0  0  # atno 10763 bound_to 10752
  154.0250  135.6677  153.4779 H   0  0  0  0  0  0  0  0  0  0  0  0  # atno 10764 bound_to 10752
  153.0691  135.5071  154.8175 H   0  0  0  0  0  0  0  0  0  0  0  0  # atno 10765 bound_to 10752
  140.4204  134.1524  155.7672 H   0  0  0  0  0  0  0  0  0  0  0  0  # atno 11005 bound_to 11000
  144.7959  140.6122  143.6510 LP  0  0  0  0  0  0  0  0  0  0  0  0  # atno 17320 bound_to 7965
  145.4716  139.1503  143.3811 LP  0  0  0  0  0  0  0  0  0  0  0  0  # atno 17321 bound_to 7965
  140.1246  144.5343  150.6841 LP  0  0  0  0  0  0  0  0  0  0  0  0  # atno 17342 bound_to 10162
  140.6959  143.2404  151.5001 LP  0  0  0  0  0  0  0  0  0  0  0  0  # atno 17343 bound_to 10162
  156.7436  130.9088  151.3633 LP  0  0  0  0  0  0  0  0  0  0  0  0  # atno 17370 bound_to 10713
  157.6807  130.9137  150.0260 LP  0  0  0  0  0  0  0  0  0  0  0  0  # atno 17371 bound_to 10713
  141.1786  133.8462  157.1336 LP  0  0  0  0  0  0  0  0  0  0  0  0  # atno 17394 bound_to 11000
  140.0204  134.9948  157.0580 LP  0  0  0  0  0  0  0  0  0  0  0  0  # atno 17395 bound_to 11000

$$$$
