AV-unprocessed.smi:153|AV-procd|sdf|1264|dock5
  -GOLD-   2262018513D 1   1.00000     0.00000
 Structure written by MMmdl.
 59 62  0  0  0  0  0  0  0  0  1 V2000
  152.3859  143.2511  160.9134 C   0  0  0  0  0  0  0  0  0  0  0  0
  152.6993  142.7788  159.4801 C   0  0  2  0  0  0  0  0  0  0  0  0
  153.4359  143.8161  158.8402 O   0  0  0  0  0  0  0  0  0  0  0  0
  152.5616  144.6694  158.1062 C   0  0  0  0  0  0  0  0  0  0  0  0
  151.1942  143.9810  158.0862 C   0  0  0  0  0  0  0  0  0  0  0  0
  151.4740  142.5597  158.5673 C   0  0  2  0  0  0  0  0  0  0  0  0
  150.3578  142.0780  159.2926 O   0  0  0  0  0  0  0  0  0  0  0  0
  151.7199  141.5378  157.4222 C   0  0  0  0  0  0  0  0  0  0  0  0
  150.5877  141.3392  156.5311 N   0  0  0  0  0  0  0  0  0  0  0  0
  149.4750  142.1408  156.4215 C   0  0  0  0  0  0  0  0  0  0  0  0
  148.5772  141.7284  155.5711 N   0  0  0  0  0  0  0  0  0  0  0  0
  149.1116  140.5586  155.0416 C   0  0  0  0  0  0  0  0  0  0  0  0
  148.6605  139.5928  154.0929 C   0  0  0  0  0  0  0  0  0  0  0  0
  147.4306  139.6206  153.5090 N   0  0  0  0  0  0  0  0  0  0  0  0
  146.8787  140.9180  153.1275 C   0  0  0  0  0  0  0  0  0  0  0  0
  147.0437  138.4597  152.7051 C   0  0  0  0  0  0  0  0  0  0  0  0
  145.7013  137.8237  153.1363 C   0  0  1  0  0  0  0  0  0  0  0  0
  144.6583  138.1466  152.2371 O   0  0  0  0  0  0  0  0  0  0  0  0
  145.7733  136.2858  153.2718 C   0  0  0  0  0  0  0  0  0  0  0  0
  145.7539  135.5112  152.0257 N   0  0  0  0  0  0  0  0  0  0  0  0
  144.4029  135.2410  151.5352 C   0  0  0  0  0  0  0  0  0  0  0  0
  144.4144  134.4015  150.2460 C   0  0  0  0  0  0  0  0  0  0  0  0
  145.1281  133.1898  150.4665 O   0  0  0  0  0  0  0  0  0  0  0  0
  146.4666  133.4134  150.8966 C   0  0  0  0  0  0  0  0  0  0  0  0
  146.4579  134.2436  152.1917 C   0  0  0  0  0  0  0  0  0  0  0  0
  149.5133  138.5758  153.7939 N   0  0  0  0  0  0  0  0  0  0  0  0
  150.7022  138.4848  154.3952 C   0  0  0  0  0  0  0  0  0  0  0  0
  151.2331  139.2880  155.3176 N   0  0  0  0  0  0  0  0  0  0  0  0
  150.3954  140.3220  155.6121 C   0  0  0  0  0  0  0  0  0  0  0  0
  151.8532  142.4848  161.4766 H   0  0  0  0  0  0  0  0  0  0  0  0
  151.7774  144.1554  160.9203 H   0  0  0  0  0  0  0  0  0  0  0  0
  153.3060  143.4700  161.4555 H   0  0  0  0  0  0  0  0  0  0  0  0
  153.3090  141.8774  159.5444 H   0  0  0  0  0  0  0  0  0  0  0  0
  152.5037  145.6509  158.5773 H   0  0  0  0  0  0  0  0  0  0  0  0
  152.9563  144.8060  157.0995 H   0  0  0  0  0  0  0  0  0  0  0  0
  150.5363  144.4967  158.7877 H   0  0  0  0  0  0  0  0  0  0  0  0
  150.7105  144.0212  157.1105 H   0  0  0  0  0  0  0  0  0  0  0  0
  149.8893  141.4636  158.7485 H   0  0  0  0  0  0  0  0  0  0  0  0
  152.5701  141.8555  156.8169 H   0  0  0  0  0  0  0  0  0  0  0  0
  151.9943  140.5680  157.8394 H   0  0  0  0  0  0  0  0  0  0  0  0
  149.3392  143.0370  157.0088 H   0  0  0  0  0  0  0  0  0  0  0  0
  146.9310  141.6222  153.9588 H   0  0  0  0  0  0  0  0  0  0  0  0
  145.8308  140.8208  152.8433 H   0  0  0  0  0  0  0  0  0  0  0  0
  147.4213  141.3395  152.2806 H   0  0  0  0  0  0  0  0  0  0  0  0
  147.0461  138.6823  151.6410 H   0  0  0  0  0  0  0  0  0  0  0  0
  147.8300  137.7149  152.8311 H   0  0  0  0  0  0  0  0  0  0  0  0
  145.4085  138.2235  154.1075 H   0  0  0  0  0  0  0  0  0  0  0  0
  144.3118  138.9930  152.4743 H   0  0  0  0  0  0  0  0  0  0  0  0
  146.7130  136.0687  153.7815 H   0  0  0  0  0  0  0  0  0  0  0  0
  144.9925  135.9329  153.9475 H   0  0  0  0  0  0  0  0  0  0  0  0
  143.8264  134.7212  152.3019 H   0  0  0  0  0  0  0  0  0  0  0  0
  143.8804  136.1731  151.3253 H   0  0  0  0  0  0  0  0  0  0  0  0
  143.3954  134.1650  149.9394 H   0  0  0  0  0  0  0  0  0  0  0  0
  144.8738  134.9588  149.4281 H   0  0  0  0  0  0  0  0  0  0  0  0
  146.9520  132.4522  151.0651 H   0  0  0  0  0  0  0  0  0  0  0  0
  147.0287  133.9242  150.1133 H   0  0  0  0  0  0  0  0  0  0  0  0
  147.4861  134.4293  152.5038 H   0  0  0  0  0  0  0  0  0  0  0  0
  145.9909  133.6622  152.9881 H   0  0  0  0  0  0  0  0  0  0  0  0
  151.3104  137.6417  154.1030 H   0  0  0  0  0  0  0  0  0  0  0  0
  1  2  1  0  0  0  0
  1 30  1  0  0  0  0
  1 31  1  0  0  0  0
  1 32  1  0  0  0  0
  2  6  1  0  0  0  0
  2  3  1  0  0  0  0
  2 33  1  0  0  0  0
  3  4  1  0  0  0  0
  4  5  1  0  0  0  0
  4 34  1  0  0  0  0
  4 35  1  0  0  0  0
  5  6  1  0  0  0  0
  5 36  1  0  0  0  0
  5 37  1  0  0  0  0
  6  7  1  0  0  0  0
  6  8  1  0  0  0  0
  7 38  1  0  0  0  0
  8  9  1  0  0  0  0
  8 39  1  0  0  0  0
  8 40  1  0  0  0  0
  9 29  1  0  0  0  0
  9 10  1  0  0  0  0
 10 11  2  0  0  0  0
 10 41  1  0  0  0  0
 11 12  1  0  0  0  0
 12 29  2  0  0  0  0
 12 13  1  0  0  0  0
 13 14  1  0  0  0  0
 13 26  2  0  0  0  0
 14 15  1  0  0  0  0
 14 16  1  0  0  0  0
 15 42  1  0  0  0  0
 15 43  1  0  0  0  0
 15 44  1  0  0  0  0
 16 17  1  0  0  0  0
 16 45  1  0  0  0  0
 16 46  1  0  0  0  0
 17 18  1  0  0  0  0
 17 19  1  0  0  0  0
 17 47  1  0  0  0  0
 18 48  1  0  0  0  0
 19 20  1  0  0  0  0
 19 49  1  0  0  0  0
 19 50  1  0  0  0  0
 20 25  1  0  0  0  0
 20 21  1  0  0  0  0
 21 22  1  0  0  0  0
 21 51  1  0  0  0  0
 21 52  1  0  0  0  0
 22 23  1  0  0  0  0
 22 53  1  0  0  0  0
 22 54  1  0  0  0  0
 23 24  1  0  0  0  0
 24 25  1  0  0  0  0
 24 55  1  0  0  0  0
 24 56  1  0  0  0  0
 25 57  1  0  0  0  0
 25 58  1  0  0  0  0
 26 27  1  0  0  0  0
 27 28  2  0  0  0  0
 27 59  1  0  0  0  0
 28 29  1  0  0  0  0
M  END
> <s_m_source_file>
AV-unprocessed.smi

> <i_m_source_file_index>
153

> <i_lp_mmshare_version>
43012

> <i_f3d_flags>
0

> <s_epik_input>
W0NIMl0xW0NIMl1PW0NAQEhdKFtDSDNdKVtDQEBdMShbT0hdKVtDSDJdbihbY0hdbjIpYyhjMjMpbltjSF1uYzNOKFtDSDNdKVtDSDJdW0NASF0oW09IXSlbQ0gyXU40W0NIMl1bQ0gyXU9bQ0gyXVtDSDJdNA==

> <s_epik_cmdline>
J2VwaWtfcHl0aG9uJywgJy1waCcsICc3LjAnLCAnLXRuJywgJzgnLCAnLW1hJywgJzIwMCcsICctbWV0YWxfYmluZGluZycsICctaW1hZScsICc8aW5maWxlLm1hZT4nLCAnLW9tYWUnLCAnPG91dGZpbGUubWFlPic=

> <r_lp_tautomer_probability>
1

> <r_epik_Ionization_Penalty>
0.424123

> <r_epik_Ionization_Penalty_Charging>
0

> <r_epik_Ionization_Penalty_Neutral>
0.424123

> <r_epik_State_Penalty>
0.421495

> <r_epik_Charging_Adjusted_Penalty>
0.421495

> <i_epik_Tot_Q>
0

> <i_epik_Tot_abs_Q>
0

> <r_epik_Metal_State_Penalty>
0.421223

> <b_epik_Metal_Only>
0

> <s_lp_Force_Field>
OPLS_2005

> <r_lp_Energy>
59.2103

> <b_lp_Chiralities_Consistent>
1

> <s_lp_Variant>
AV-unprocessed.smi:153-15

> <Gold.Version>
5.8.1

> <Gold.Id.Protein>
6NUR|6NUR_protein|mol2

> <Gold.PLP.Fitness>
49.1044

> <Gold.PLP.PLP>
-47.1387

> <Gold.PLP.part.hbond>
-3.0000

> <Gold.PLP.part.metal>
0.0000

> <Gold.PLP.part.buried>
0.1187

> <Gold.PLP.part.nonpolar>
-45.6385

> <Gold.PLP.part.repulsive>
2.6044

> <Gold.PLP.ligand.clash>
0.0000

> <Gold.PLP.ligand.torsion>
1.7463

> <Gold.PLP.Chemscore.Hbond>
1.0000

> <Gold.PLP.Chemscore.CHOScore>
0.5802

> <Gold.PLP.Chemscore.Metal>
0.0000

> <Gold.Chemscore.Hbonds>
donor molecule, donor type, donor heavy atom, donor atom, acceptor molecule, acceptor atom, score
      L1  H    18    48       P1 10175  1.00
      L1  C    10    41       P1  8028  0.60

> <Gold.PLP.Chemscore.Internal.Correction>
0.7177

> <Gold.Rescore>
     Score         DG    S(hbond)    S(metal)    S(lipo)     H(rot)  DE(clash)    DE(int)     intcor
      7.15     -12.89       1.00        0.00     111.89       3.52       1.12       4.62       ----

> <Gold.Chemscore.Fitness>
7.1550

> <Gold.Chemscore.DG>
-12.8946

> <Gold.Chemscore.ZeroCoef>
-5.4800

> <Gold.Chemscore.Hbond>
0.9961

> <Gold.Chemscore.Metal>
0.0000

> <Gold.Chemscore.Lipo>
111.8905

> <Gold.Chemscore.Internal_Hbond>
0.0000

> <Gold.Chemscore.DEClash>
1.1242

> <Gold.Chemscore.DEInternal>
4.6154

> <Gold.Chemscore.Rot>
3.5170

> <Gold.Chemscore.Internal.Correction>
   9.000000E+99

> <Gold.Chemscore.Hbonds>
donor molecule, donor type, donor heavy atom, donor atom, acceptor molecule, acceptor atom, score
      L1  H    18    48       P1 10175  0.98

> <Gold.Chemscore.Hbond.Weighted>
-3.3270

> <Gold.Chemscore.Metal.Weighted>
-0.0000

> <Gold.Chemscore.Lipo.Weighted>
-13.0912

> <Gold.Chemscore.Internal_Hbond.Weighted>
0.0000

> <Gold.Chemscore.DEClash.Weighted>
1.1242

> <Gold.Chemscore.DEInternal.Weighted>
4.6154

> <Gold.Chemscore.Rot.Weighted>
9.0036

> <Gold.Chemscore.Internal.Correction.Weighted>
   9.000000E+99

> <Gold.Protein.RotatedTorsions>
[ 6907 6896 6895 6894 ] final  -88.66 input  -60.11 | X-H torsion
[ 7974 7965 7964 7962 ] final   15.70 input  175.53 | X-H torsion
[ 8008 7997 7996 7995 ] final   54.98 input   59.86 | X-H torsion
[ 10167 10162 10161 10158 ] final    8.05 input  -65.29 | X-H torsion
[ 10718 10713 10712 10709 ] final -143.13 input   66.30 | X-H torsion
[ 10763 10752 10751 10750 ] final  130.95 input  -60.55 | X-H torsion
[ 11005 11000 10999 10996 ] final  144.43 input  -57.11 | X-H torsion

> <Gold.Protein.ActiveResidues>
 VAL166  LYS551  ARG553  GLY616  TRP617  ASP618  TYR619  PRO620  LYS621  CYS622 
 ASP623  PHE694  ASN695  SER759  ASP760  ASP761  ALA762  ILE779  LEU786  VAL792 
 PHE793  MET794  SER795  GLU796  ALA797  LYS798  CYS799  TRP800  GLU811  SER814 

> <Gold.Protein.RotatedAtoms>
  150.6870  134.2706  159.4586 H   0  0  0  0  0  0  0  0  0  0  0  0  # atno 6907 bound_to 6896
  152.0629  134.9580  160.0584 H   0  0  0  0  0  0  0  0  0  0  0  0  # atno 6908 bound_to 6896
  152.1000  133.4210  159.4620 H   0  0  0  0  0  0  0  0  0  0  0  0  # atno 6909 bound_to 6896
  146.2271  139.8855  142.8563 H   0  0  0  0  0  0  0  0  0  0  0  0  # atno 7974 bound_to 7965
  155.4936  140.3472  155.4359 H   0  0  0  0  0  0  0  0  0  0  0  0  # atno 8008 bound_to 7997
  156.0960  140.1423  156.9558 H   0  0  0  0  0  0  0  0  0  0  0  0  # atno 8009 bound_to 7997
  154.4664  140.0916  156.7009 H   0  0  0  0  0  0  0  0  0  0  0  0  # atno 8010 bound_to 7997
  140.6336  143.7937  150.7329 H   0  0  0  0  0  0  0  0  0  0  0  0  # atno 10167 bound_to 10162
  156.3542  130.7704  151.1861 H   0  0  0  0  0  0  0  0  0  0  0  0  # atno 10718 bound_to 10713
  153.7663  135.3188  155.3345 H   0  0  0  0  0  0  0  0  0  0  0  0  # atno 10763 bound_to 10752
  154.8212  135.4602  154.0788 H   0  0  0  0  0  0  0  0  0  0  0  0  # atno 10764 bound_to 10752
  153.2034  135.6925  153.8287 H   0  0  0  0  0  0  0  0  0  0  0  0  # atno 10765 bound_to 10752
  140.0632  134.9193  157.1220 H   0  0  0  0  0  0  0  0  0  0  0  0  # atno 11005 bound_to 11000
  145.2469  141.0030  143.3903 LP  0  0  0  0  0  0  0  0  0  0  0  0  # atno 17320 bound_to 7965
  144.9406  139.4194  143.6451 LP  0  0  0  0  0  0  0  0  0  0  0  0  # atno 17321 bound_to 7965
  140.1553  143.4322  152.2104 LP  0  0  0  0  0  0  0  0  0  0  0  0  # atno 17342 bound_to 10162
  139.5548  144.7365  151.4326 LP  0  0  0  0  0  0  0  0  0  0  0  0  # atno 17343 bound_to 10162
  157.7465  131.0419  150.4667 LP  0  0  0  0  0  0  0  0  0  0  0  0  # atno 17370 bound_to 10713
  156.4867  130.4086  149.6430 LP  0  0  0  0  0  0  0  0  0  0  0  0  # atno 17371 bound_to 10713
  140.3739  134.2361  155.7176 LP  0  0  0  0  0  0  0  0  0  0  0  0  # atno 17394 bound_to 11000
  141.1982  133.8042  157.0594 LP  0  0  0  0  0  0  0  0  0  0  0  0  # atno 17395 bound_to 11000

$$$$
