#       Name:                AV-unprocessed.smi:2551
#       Creating user name   scv26
#       Creation time:       Fri Mar 27 14:05:56 2020


#       File generated by GOLD software.
#

@<TRIPOS>MOLECULE
AV-unprocessed.smi:2551
    30    31     1
SMALL
NO_CHARGES


@<TRIPOS>ATOM
      1 ****        -2.2073  -1.9002  -0.2623 O.2            1 S1                 0.0000
      2 ****        -0.9939  -1.7005  -0.2444 C.2            1 S1                 0.0000
      3 ****        -0.1237  -2.7244  -0.1096 N.am           1 S1                 0.0000
      4 ****        -0.3228  -4.1301   0.0221 C.2            1 S1                 0.0000
      5 ****        -1.5223  -4.7253   0.1279 N.2            1 S1                 0.0000
      6 ****        -1.4142  -6.1036   0.2524 N.2            1 S1                 0.0000
      7 ****        -0.1380  -6.4973   0.2416 C.2            1 S1                 0.0000
      8 ****         1.0553  -5.2212   0.0786 S.3            1 S1                 0.0000
      9 ****        -0.4608  -0.4719  -0.3458 N.am           1 S1                 0.0000
     10 ****        -1.2128   0.7707  -0.4943 C.3            1 S1                 0.0000
     11 ****        -0.3052   1.8936  -1.0341 C.3            1 S1                 0.0000
     12 ****        -0.5146   3.0937  -0.1085 C.3            1 S1                 0.0000
     13 ****        -0.8889   2.4760   1.2348 C.3            1 S1                 0.0000
     14 ****        -1.7512   1.2706   0.8610 C.3            1 S1                 0.0000
     15 ****         0.8455  -2.4419  -0.0936 H              1 S1                 0.0000
     16 ****         0.1024  -7.5462   0.3324 H              1 S1                 0.0000
     17 ****         0.5460  -0.3930  -0.3203 H              1 S1                 0.0000
     18 ****        -2.0452   0.6116  -1.1823 H              1 S1                 0.0000
     19 ****         0.7437   1.5944  -0.9952 H              1 S1                 0.0000
     20 ****        -0.5296   2.1388  -2.0725 H              1 S1                 0.0000
     21 ****         0.3654   3.7344  -0.0463 H              1 S1                 0.0000
     22 ****        -1.3436   3.7005  -0.4752 H              1 S1                 0.0000
     23 ****         0.0124   2.1390   1.7487 H              1 S1                 0.0000
     24 ****        -1.4065   3.1762   1.8912 H              1 S1                 0.0000
     25 ****        -2.7850   1.5954   0.7363 H              1 S1                 0.0000
     26 ****        -1.7488   0.5079   1.6408 H              1 S1                 0.0000
     27 ****        -2.5621  -2.8312  -0.1764 LP             1 S1                 0.0000
     28 ****        -2.8391  -1.1316  -0.3628 LP             1 S1                 0.0000
     29 ****        -2.3924  -4.2325   0.1181 LP             1 S1                 0.0000
     30 ****        -2.1938  -6.7238   0.3392 LP             1 S1                 0.0000
@<TRIPOS>BOND
    1    1    2 2     
    2    2    3 am    
    3    2    9 am    
    4    3    4 1     
    5    3   15 1     
    6    4    8 1     
    7    4    5 2     
    8    5    6 1     
    9    6    7 2     
   10    7    8 1     
   11    7   16 1     
   12    9   10 1     
   13    9   17 1     
   14   10   14 1     
   15   10   11 1     
   16   10   18 1     
   17   11   12 1     
   18   11   19 1     
   19   11   20 1     
   20   12   13 1     
   21   12   21 1     
   22   12   22 1     
   23   13   14 1     
   24   13   23 1     
   25   13   24 1     
   26   14   25 1     
   27   14   26 1     
   28    1   27 1     
   29    1   28 1     
   30    5   29 1     
   31    6   30 1     
@<TRIPOS>SUBSTRUCTURE
      1 S1             1
@<TRIPOS>SET
LONE_PAIRS      STATIC     ATOMS    <user>   **** ""
4 27 28 29 30
DONOR_HYDROGENS      STATIC     ATOMS    <user>   **** ""
2 15 17
ATOM$BLUE        STATIC     ATOMS    COLORGROUP SYSTEM
4 27 28 29 30
ATOM$RED        STATIC     ATOMS    COLORGROUP SYSTEM
2 15 17
