AV-unprocessed.smi:1743|AV-procd|sdf|7022|dock1
  -GOLD-   22720 8243D 1   1.00000     0.00000
 Structure written by MMmdl.
 38 39  0  0  0  0  0  0  0  0  1 V2000
  152.2477  130.7594  157.9573 C   0  0  0  0  0  0  0  0  0  0  0  0
  152.1945  132.1571  157.6939 O   0  0  0  0  0  0  0  0  0  0  0  0
  151.3709  132.6021  156.6803 C   0  0  0  0  0  0  0  0  0  0  0  0
  150.8874  131.6656  155.7451 C   0  0  0  0  0  0  0  0  0  0  0  0
  150.0474  132.1108  154.7065 C   0  0  0  0  0  0  0  0  0  0  0  0
  149.7221  133.4860  154.6327 C   0  0  0  0  0  0  0  0  0  0  0  0
  148.8671  134.0506  153.6484 N   0  0  0  0  0  0  0  0  0  0  0  0
  147.7889  133.4984  153.0662 C   0  0  0  0  0  0  0  0  0  0  0  0
  147.3814  132.3549  153.2696 O   0  0  0  0  0  0  0  0  0  0  0  0
  147.2156  134.3521  152.2057 N   0  0  0  0  0  0  0  0  0  0  0  0
  146.0381  134.0794  151.3853 C   0  0  2  0  0  0  0  0  0  0  0  0
  144.8625  133.6480  152.2836 C   0  0  0  0  0  0  0  0  0  0  0  0
  143.6286  133.2634  151.4508 C   0  0  0  0  0  0  0  0  0  0  0  0
  143.9707  132.1718  150.4219 C   0  0  1  0  0  0  0  0  0  0  0  0
  142.8340  131.8973  149.6309 O   0  0  0  0  0  0  0  0  0  0  0  0
  145.1337  132.6120  149.5162 C   0  0  0  0  0  0  0  0  0  0  0  0
  146.3695  132.9893  150.3488 C   0  0  0  0  0  0  0  0  0  0  0  0
  150.2453  134.3390  155.6265 C   0  0  0  0  0  0  0  0  0  0  0  0
  151.0525  133.9190  156.6233 N   0  0  0  0  0  0  0  0  0  0  0  0
  152.9393  130.5737  158.7791 H   0  0  0  0  0  0  0  0  0  0  0  0
  152.6067  130.2021  157.0908 H   0  0  0  0  0  0  0  0  0  0  0  0
  151.2713  130.3726  158.2532 H   0  0  0  0  0  0  0  0  0  0  0  0
  151.1526  130.6218  155.8252 H   0  0  0  0  0  0  0  0  0  0  0  0
  149.6598  131.3911  154.0022 H   0  0  0  0  0  0  0  0  0  0  0  0
  149.1379  134.9624  153.3102 H   0  0  0  0  0  0  0  0  0  0  0  0
  147.6289  135.2677  152.1067 H   0  0  0  0  0  0  0  0  0  0  0  0
  145.7393  134.9776  150.8416 H   0  0  0  0  0  0  0  0  0  0  0  0
  145.1597  132.7980  152.8997 H   0  0  0  0  0  0  0  0  0  0  0  0
  144.6034  134.4532  152.9721 H   0  0  0  0  0  0  0  0  0  0  0  0
  142.8308  132.9205  152.1105 H   0  0  0  0  0  0  0  0  0  0  0  0
  143.2481  134.1491  150.9396 H   0  0  0  0  0  0  0  0  0  0  0  0
  144.2458  131.2549  150.9451 H   0  0  0  0  0  0  0  0  0  0  0  0
  142.2818  132.6640  149.6218 H   0  0  0  0  0  0  0  0  0  0  0  0
  145.3892  131.8150  148.8173 H   0  0  0  0  0  0  0  0  0  0  0  0
  144.8302  133.4685  148.9120 H   0  0  0  0  0  0  0  0  0  0  0  0
  147.1662  133.3326  149.6878 H   0  0  0  0  0  0  0  0  0  0  0  0
  146.7485  132.0998  150.8542 H   0  0  0  0  0  0  0  0  0  0  0  0
  150.0143  135.3942  155.6208 H   0  0  0  0  0  0  0  0  0  0  0  0
  1  2  1  0  0  0  0
  1 20  1  0  0  0  0
  1 21  1  0  0  0  0
  1 22  1  0  0  0  0
  2  3  1  0  0  0  0
  3 19  1  0  0  0  0
  3  4  2  0  0  0  0
  4  5  1  0  0  0  0
  4 23  1  0  0  0  0
  5  6  2  0  0  0  0
  5 24  1  0  0  0  0
  6  7  1  0  0  0  0
  6 18  1  0  0  0  0
  7  8  1  0  0  0  0
  7 25  1  0  0  0  0
  8  9  2  0  0  0  0
  8 10  1  0  0  0  0
 10 11  1  0  0  0  0
 10 26  1  0  0  0  0
 11 17  1  0  0  0  0
 11 12  1  0  0  0  0
 11 27  1  0  0  0  0
 12 13  1  0  0  0  0
 12 28  1  0  0  0  0
 12 29  1  0  0  0  0
 13 14  1  0  0  0  0
 13 30  1  0  0  0  0
 13 31  1  0  0  0  0
 14 15  1  0  0  0  0
 14 16  1  0  0  0  0
 14 32  1  0  0  0  0
 15 33  1  0  0  0  0
 16 17  1  0  0  0  0
 16 34  1  0  0  0  0
 16 35  1  0  0  0  0
 17 36  1  0  0  0  0
 17 37  1  0  0  0  0
 18 19  2  0  0  0  0
 18 38  1  0  0  0  0
M  END
> <s_m_source_file>
AV-unprocessed.smi

> <i_m_source_file_index>
1743

> <i_lp_mmshare_version>
43012

> <i_f3d_flags>
0

> <s_epik_input>
W0NIM11PYzFbY0hdW2NIXWMoW2NIXW4xKVtOSF1DKD1PKVtOSF1bQ0BASF0yW0NIMl1bQ0gyXVtDQEBIXShbT0hdKVtDSDJdW0NIMl0y

> <s_epik_cmdline>
J2VwaWtfcHl0aG9uJywgJy1waCcsICc3LjAnLCAnLXRuJywgJzgnLCAnLW1hJywgJzIwMCcsICctbWV0YWxfYmluZGluZycsICctaW1hZScsICc8aW5maWxlLm1hZT4nLCAnLW9tYWUnLCAnPG91dGZpbGUubWFlPic=

> <r_lp_tautomer_probability>
1

> <r_epik_Ionization_Penalty>
9.95686e-05

> <r_epik_Ionization_Penalty_Charging>
0

> <r_epik_Ionization_Penalty_Neutral>
9.95686e-05

> <r_epik_State_Penalty>
-0

> <r_epik_Charging_Adjusted_Penalty>
0

> <i_epik_Tot_Q>
0

> <i_epik_Tot_abs_Q>
0

> <r_epik_Metal_State_Penalty>
-0

> <b_epik_Metal_Only>
0

> <s_lp_Force_Field>
OPLS_2005

> <r_lp_Energy>
11.6996

> <b_lp_Chiralities_Consistent>
1

> <s_lp_Variant>
AV-unprocessed.smi:1743-1

> <Gold.Version>
5.8.1

> <Gold.Id.Protein>
6NUR|6NUR_protein|mol2

> <Gold.PLP.Fitness>
48.1502

> <Gold.PLP.PLP>
-34.5335

> <Gold.PLP.part.hbond>
-5.9098

> <Gold.PLP.part.metal>
0.0000

> <Gold.PLP.part.buried>
-3.3160

> <Gold.PLP.part.nonpolar>
-25.2645

> <Gold.PLP.part.repulsive>
0.1269

> <Gold.PLP.ligand.clash>
0.0000

> <Gold.PLP.ligand.torsion>
0.4772

> <Gold.PLP.Chemscore.Hbond>
4.8551

> <Gold.PLP.Chemscore.CHOScore>
0.0000

> <Gold.PLP.Chemscore.Metal>
0.0000

> <Gold.Chemscore.Hbonds>
donor molecule, donor type, donor heavy atom, donor atom, acceptor molecule, acceptor atom, score
      L1  H     7    25       P1  7948  0.72
      L1  H    10    26       P1  7948  0.98
      L1  H    15    33       P1 10186  0.67
      P1  H  6896  6909       L1     2  0.99
      P1  H 10785 10796       L1    15  1.00

> <Gold.PLP.Chemscore.Internal.Correction>
0.0060

> <Gold.Rescore>
     Score         DG    S(hbond)    S(metal)    S(lipo)     H(rot)  DE(clash)    DE(int)     intcor
     18.68     -20.43       3.38        0.00      70.03       1.77       0.01       1.74       ----

> <Gold.Chemscore.Fitness>
18.6799

> <Gold.Chemscore.DG>
-20.4345

> <Gold.Chemscore.ZeroCoef>
-5.4800

> <Gold.Chemscore.Hbond>
3.3820

> <Gold.Chemscore.Metal>
0.0000

> <Gold.Chemscore.Lipo>
70.0271

> <Gold.Chemscore.Internal_Hbond>
0.0000

> <Gold.Chemscore.DEClash>
0.0144

> <Gold.Chemscore.DEInternal>
1.7402

> <Gold.Chemscore.Rot>
1.7714

> <Gold.Chemscore.Internal.Correction>
   9.000000E+99

> <Gold.Chemscore.Hbonds>
donor molecule, donor type, donor heavy atom, donor atom, acceptor molecule, acceptor atom, score
      L1  H     7    25       P1  7948  0.10
      L1  H    10    26       P1  7948  0.91
      L1  H    15    33       P1 10186  0.67
      P1  H  6896  6909       L1     2  0.62
      P1  H 10785 10796       L1    15  0.53

> <Gold.Chemscore.Hbond.Weighted>
-11.2960

> <Gold.Chemscore.Metal.Weighted>
-0.0000

> <Gold.Chemscore.Lipo.Weighted>
-8.1932

> <Gold.Chemscore.Internal_Hbond.Weighted>
0.0000

> <Gold.Chemscore.DEClash.Weighted>
0.0144

> <Gold.Chemscore.DEInternal.Weighted>
1.7402

> <Gold.Chemscore.Rot.Weighted>
4.5347

> <Gold.Chemscore.Internal.Correction.Weighted>
   9.000000E+99

> <Gold.Protein.RotatedTorsions>
[ 6907 6896 6895 6894 ] final  -77.89 input  -60.11 | X-H torsion
[ 7974 7965 7964 7962 ] final   -1.21 input  175.53 | X-H torsion
[ 8008 7997 7996 7995 ] final   75.57 input   59.86 | X-H torsion
[ 10167 10162 10161 10158 ] final   -0.79 input  -65.29 | X-H torsion
[ 10718 10713 10712 10709 ] final  -49.81 input   66.30 | X-H torsion
[ 10763 10752 10751 10750 ] final -116.49 input  -60.55 | X-H torsion
[ 11005 11000 10999 10996 ] final -170.82 input  -57.11 | X-H torsion

> <Gold.Protein.ActiveResidues>
 VAL166  LYS551  ARG553  GLY616  TRP617  ASP618  TYR619  PRO620  LYS621  CYS622 
 ASP623  PHE694  ASN695  SER759  ASP760  ASP761  ALA762  ILE779  LEU786  VAL792 
 PHE793  MET794  SER795  GLU796  ALA797  LYS798  CYS799  TRP800  GLU811  SER814 

> <Gold.Protein.RotatedAtoms>
  150.6987  134.4355  159.5267 H   0  0  0  0  0  0  0  0  0  0  0  0  # atno 6907 bound_to 6896
  152.2074  134.8530  160.0510 H   0  0  0  0  0  0  0  0  0  0  0  0  # atno 6908 bound_to 6896
  151.9427  133.3608  159.4008 H   0  0  0  0  0  0  0  0  0  0  0  0  # atno 6909 bound_to 6896
  146.2419  140.1386  142.8336 H   0  0  0  0  0  0  0  0  0  0  0  0  # atno 7974 bound_to 7965
  155.8148  140.3472  155.5479 H   0  0  0  0  0  0  0  0  0  0  0  0  # atno 8008 bound_to 7997
  155.8403  140.0940  157.1758 H   0  0  0  0  0  0  0  0  0  0  0  0  # atno 8009 bound_to 7997
  154.4005  140.1395  156.3708 H   0  0  0  0  0  0  0  0  0  0  0  0  # atno 8010 bound_to 7997
  140.6782  143.6853  150.8072 H   0  0  0  0  0  0  0  0  0  0  0  0  # atno 10167 bound_to 10162
  156.1859  130.4151  149.9440 H   0  0  0  0  0  0  0  0  0  0  0  0  # atno 10718 bound_to 10713
  154.8521  135.4343  154.1830 H   0  0  0  0  0  0  0  0  0  0  0  0  # atno 10763 bound_to 10752
  153.2916  135.6962  153.7293 H   0  0  0  0  0  0  0  0  0  0  0  0  # atno 10764 bound_to 10752
  153.6458  135.3460  155.3060 H   0  0  0  0  0  0  0  0  0  0  0  0  # atno 10765 bound_to 10752
  140.5151  134.5763  157.5031 H   0  0  0  0  0  0  0  0  0  0  0  0  # atno 11005 bound_to 11000
  145.0266  140.8837  143.5135 LP  0  0  0  0  0  0  0  0  0  0  0  0  # atno 17320 bound_to 7965
  145.1443  139.2553  143.5474 LP  0  0  0  0  0  0  0  0  0  0  0  0  # atno 17321 bound_to 7965
  140.0549  143.5212  152.2656 LP  0  0  0  0  0  0  0  0  0  0  0  0  # atno 17342 bound_to 10162
  139.6088  144.7603  151.3000 LP  0  0  0  0  0  0  0  0  0  0  0  0  # atno 17343 bound_to 10162
  156.7196  130.9001  151.3617 LP  0  0  0  0  0  0  0  0  0  0  0  0  # atno 17370 bound_to 10713
  157.6898  130.9222  150.0483 LP  0  0  0  0  0  0  0  0  0  0  0  0  # atno 17371 bound_to 10713
  139.9637  134.7410  156.0184 LP  0  0  0  0  0  0  0  0  0  0  0  0  # atno 17394 bound_to 11000
  141.1364  133.6574  156.3606 LP  0  0  0  0  0  0  0  0  0  0  0  0  # atno 17395 bound_to 11000

$$$$
