AV-unprocessed.smi:1824|AV-procd|sdf|7403|dock7
  -GOLD-   22720 9 73D 1   1.00000     0.00000
 Structure written by MMmdl.
 45 47  0  0  0  0  0  0  0  0  2 V2000
  151.9553  139.0066  154.8660 C   0  0  0  0  0  0  0  0  0  0  0  0
  150.9721  137.8929  154.4895 C   0  0  2  0  0  0  0  0  0  0  0  0
  149.5109  138.3804  154.4940 C   0  0  0  0  0  0  0  0  0  0  0  0
  148.5878  137.2589  154.2008 N   0  3  2  0  0  0  0  0  0  0  0  0
  147.1696  137.6936  154.1250 C   0  0  0  0  0  0  0  0  0  0  0  0
  146.9900  138.9950  153.3185 C   0  0  2  0  0  0  0  0  0  0  0  0
  146.1573  139.8713  154.0540 O   0  0  0  0  0  0  0  0  0  0  0  0
  146.3582  138.7278  151.9389 C   0  0  0  0  0  0  0  0  0  0  0  0
  145.8544  137.3716  151.8104 N   0  0  0  0  0  0  0  0  0  0  0  0
  146.4752  136.3300  151.2239 C   0  0  0  0  0  0  0  0  0  0  0  0
  145.8331  135.1657  151.2129 N   0  0  0  0  0  0  0  0  0  0  0  0
  144.6598  135.4862  151.8738 C   0  0  0  0  0  0  0  0  0  0  0  0
  143.5415  134.6852  152.1976 C   0  0  0  0  0  0  0  0  0  0  0  0
  142.4413  135.2384  152.8855 C   0  0  0  0  0  0  0  0  0  0  0  0
  141.3778  134.4569  153.1882 F   0  0  0  0  0  0  0  0  0  0  0  0
  142.4429  136.5992  153.2584 C   0  0  0  0  0  0  0  0  0  0  0  0
  141.3825  137.1226  153.9178 F   0  0  0  0  0  0  0  0  0  0  0  0
  143.5458  137.4169  152.9459 C   0  0  0  0  0  0  0  0  0  0  0  0
  144.6418  136.8602  152.2612 C   0  0  0  0  0  0  0  0  0  0  0  0
  148.8184  136.1410  155.1488 C   0  0  0  0  0  0  0  0  0  0  0  0
  150.2981  135.7127  155.1272 C   0  0  2  0  0  0  0  0  0  0  0  0
  150.5974  134.6126  156.1514 C   0  0  0  0  0  0  0  0  0  0  0  0
  151.1122  136.8386  155.4357 O   0  0  0  0  0  0  0  0  0  0  0  0
  151.8907  139.8406  154.1669 H   0  0  0  0  0  0  0  0  0  0  0  0
  152.9821  138.6404  154.8520 H   0  0  0  0  0  0  0  0  0  0  0  0
  151.7530  139.3911  155.8662 H   0  0  0  0  0  0  0  0  0  0  0  0
  151.2332  137.5218  153.4969 H   0  0  0  0  0  0  0  0  0  0  0  0
  149.2586  138.8152  155.4629 H   0  0  0  0  0  0  0  0  0  0  0  0
  149.3847  139.1649  153.7465 H   0  0  0  0  0  0  0  0  0  0  0  0
  146.5705  136.8895  153.6950 H   0  0  0  0  0  0  0  0  0  0  0  0
  146.7800  137.8552  155.1317 H   0  0  0  0  0  0  0  0  0  0  0  0
  147.9513  139.4857  153.1680 H   0  0  0  0  0  0  0  0  0  0  0  0
  145.3894  140.0619  153.5361 H   0  0  0  0  0  0  0  0  0  0  0  0
  145.5287  139.4151  151.7669 H   0  0  0  0  0  0  0  0  0  0  0  0
  147.0814  138.9096  151.1426 H   0  0  0  0  0  0  0  0  0  0  0  0
  147.4535  136.4332  150.7770 H   0  0  0  0  0  0  0  0  0  0  0  0
  143.5290  133.6425  151.9167 H   0  0  0  0  0  0  0  0  0  0  0  0
  143.5476  138.4586  153.2300 H   0  0  0  0  0  0  0  0  0  0  0  0
  148.5331  136.4525  156.1551 H   0  0  0  0  0  0  0  0  0  0  0  0
  148.1922  135.2879  154.8904 H   0  0  0  0  0  0  0  0  0  0  0  0
  150.5589  135.3415  154.1344 H   0  0  0  0  0  0  0  0  0  0  0  0
  150.0066  133.7182  155.9519 H   0  0  0  0  0  0  0  0  0  0  0  0
  150.3716  134.9441  157.1654 H   0  0  0  0  0  0  0  0  0  0  0  0
  151.6494  134.3280  156.1212 H   0  0  0  0  0  0  0  0  0  0  0  0
  148.8330  136.9258  153.2789 H   0  0  0  0  0  0  0  0  0  0  0  0
  1  2  1  0  0  0  0
  1 24  1  0  0  0  0
  1 25  1  0  0  0  0
  1 26  1  0  0  0  0
  2 23  1  0  0  0  0
  2  3  1  0  0  0  0
  2 27  1  0  0  0  0
  3  4  1  0  0  0  0
  3 28  1  0  0  0  0
  3 29  1  0  0  0  0
  4  5  1  0  0  0  0
  4 20  1  0  0  0  0
  4 45  1  0  0  0  0
  5  6  1  0  0  0  0
  5 30  1  0  0  0  0
  5 31  1  0  0  0  0
  6  7  1  0  0  0  0
  6  8  1  0  0  0  0
  6 32  1  0  0  0  0
  7 33  1  0  0  0  0
  8  9  1  0  0  0  0
  8 34  1  0  0  0  0
  8 35  1  0  0  0  0
  9 19  1  0  0  0  0
  9 10  1  0  0  0  0
 10 11  2  0  0  0  0
 10 36  1  0  0  0  0
 11 12  1  0  0  0  0
 12 19  2  0  0  0  0
 12 13  1  0  0  0  0
 13 14  2  0  0  0  0
 13 37  1  0  0  0  0
 14 15  1  0  0  0  0
 14 16  1  0  0  0  0
 16 17  1  0  0  0  0
 16 18  2  0  0  0  0
 18 19  1  0  0  0  0
 18 38  1  0  0  0  0
 20 21  1  0  0  0  0
 20 39  1  0  0  0  0
 20 40  1  0  0  0  0
 21 22  1  0  0  0  0
 21 23  1  0  0  0  0
 21 41  1  0  0  0  0
 22 42  1  0  0  0  0
 22 43  1  0  0  0  0
 22 44  1  0  0  0  0
M  CHG  1   4   1
M  END
> <s_m_source_file>
AV-unprocessed.smi

> <i_m_source_file_index>
1824

> <i_lp_mmshare_version>
43012

> <i_f3d_flags>
0

> <s_epik_input>
W0NIM11bQ0BASF0xW0NIMl1OKFtDSDJdW0NASF0oTzEpW0NIM10pW0NIMl1bQ0BIXShbT0hdKVtDSDJdbihbY0hdbjIpYyhjMjMpW2NIXWMoRiljKEYpW2NIXTM=

> <s_epik_cmdline>
J2VwaWtfcHl0aG9uJywgJy1waCcsICc3LjAnLCAnLXRuJywgJzgnLCAnLW1hJywgJzIwMCcsICctbWV0YWxfYmluZGluZycsICctaW1hZScsICc8aW5maWxlLm1hZT4nLCAnLW9tYWUnLCAnPG91dGZpbGUubWFlPic=

> <r_epik_Ionization_Penalty>
0.61967

> <r_epik_Ionization_Penalty_Charging>
0.608065

> <r_epik_Ionization_Penalty_Neutral>
0.0116057

> <r_epik_State_Penalty>
0.664205

> <r_epik_Charging_Adjusted_Penalty>
1.27227

> <i_epik_Tot_Q>
1

> <i_epik_Tot_abs_Q>
1

> <r_epik_Metal_State_Penalty>
0.654947

> <b_epik_Metal_Only>
0

> <s_lp_Force_Field>
OPLS_2005

> <r_lp_Energy>
19.9364

> <b_lp_Chiralities_Consistent>
1

> <s_lp_Variant>
AV-unprocessed.smi:1824-11

> <Gold.Version>
5.8.1

> <Gold.Id.Protein>
6NUR|6NUR_protein|mol2

> <Gold.PLP.Fitness>
41.6008

> <Gold.PLP.PLP>
-34.9574

> <Gold.PLP.part.hbond>
-2.0000

> <Gold.PLP.part.metal>
0.0000

> <Gold.PLP.part.buried>
3.9002

> <Gold.PLP.part.nonpolar>
-36.6722

> <Gold.PLP.part.repulsive>
0.2974

> <Gold.PLP.ligand.clash>
0.0000

> <Gold.PLP.ligand.torsion>
1.7498

> <Gold.PLP.Chemscore.Hbond>
3.0000

> <Gold.PLP.Chemscore.CHOScore>
0.3699

> <Gold.PLP.Chemscore.Metal>
0.0000

> <Gold.Chemscore.Hbonds>
donor molecule, donor type, donor heavy atom, donor atom, acceptor molecule, acceptor atom, score
      L1  H     4    45       P1  7948  2.00
      L1  H     7    33       P1 10175  0.94
      L1  C    10    36       P1  7948  0.34

> <Gold.PLP.Chemscore.Internal.Correction>
0.0333

> <Gold.Rescore>
     Score         DG    S(hbond)    S(metal)    S(lipo)     H(rot)  DE(clash)    DE(int)     intcor
     11.80     -15.27       1.96        0.00      78.49       2.33       1.77       1.69       ----

> <Gold.Chemscore.Fitness>
11.8026

> <Gold.Chemscore.DG>
-15.2670

> <Gold.Chemscore.ZeroCoef>
-5.4800

> <Gold.Chemscore.Hbond>
1.9628

> <Gold.Chemscore.Metal>
0.0000

> <Gold.Chemscore.Lipo>
78.4917

> <Gold.Chemscore.Internal_Hbond>
0.0000

> <Gold.Chemscore.DEClash>
1.7713

> <Gold.Chemscore.DEInternal>
1.6931

> <Gold.Chemscore.Rot>
2.3251

> <Gold.Chemscore.Internal.Correction>
   9.000000E+99

> <Gold.Chemscore.Hbonds>
donor molecule, donor type, donor heavy atom, donor atom, acceptor molecule, acceptor atom, score
      L1  H     4    45       P1  7948  0.97
      L1  H     7    33       P1 10175  0.90

> <Gold.Chemscore.Hbond.Weighted>
-6.5558

> <Gold.Chemscore.Metal.Weighted>
-0.0000

> <Gold.Chemscore.Lipo.Weighted>
-9.1835

> <Gold.Chemscore.Internal_Hbond.Weighted>
0.0000

> <Gold.Chemscore.DEClash.Weighted>
1.7713

> <Gold.Chemscore.DEInternal.Weighted>
1.6931

> <Gold.Chemscore.Rot.Weighted>
5.9523

> <Gold.Chemscore.Internal.Correction.Weighted>
   9.000000E+99

> <Gold.Protein.RotatedTorsions>
[ 6907 6896 6895 6894 ] final -111.14 input  -60.11 | X-H torsion
[ 7974 7965 7964 7962 ] final   32.69 input  175.53 | X-H torsion
[ 8008 7997 7996 7995 ] final  157.30 input   59.86 | X-H torsion
[ 10167 10162 10161 10158 ] final -158.49 input  -65.29 | X-H torsion
[ 10718 10713 10712 10709 ] final   65.45 input   66.30 | X-H torsion
[ 10763 10752 10751 10750 ] final  112.82 input  -60.55 | X-H torsion
[ 11005 11000 10999 10996 ] final -100.91 input  -57.11 | X-H torsion

> <Gold.Protein.ActiveResidues>
 VAL166  LYS551  ARG553  GLY616  TRP617  ASP618  TYR619  PRO620  LYS621  CYS622 
 ASP623  PHE694  ASN695  SER759  ASP760  ASP761  ALA762  ILE779  LEU786  VAL792 
 PHE793  MET794  SER795  GLU796  ALA797  LYS798  CYS799  TRP800  GLU811  SER814 

> <Gold.Protein.RotatedAtoms>
  150.7670  133.9279  159.3417 H   0  0  0  0  0  0  0  0  0  0  0  0  # atno 6907 bound_to 6896
  151.7174  135.0899  160.0287 H   0  0  0  0  0  0  0  0  0  0  0  0  # atno 6908 bound_to 6896
  152.3671  133.6333  159.6094 H   0  0  0  0  0  0  0  0  0  0  0  0  # atno 6909 bound_to 6896
  146.1470  139.6493  142.9125 H   0  0  0  0  0  0  0  0  0  0  0  0  # atno 7974 bound_to 7965
  156.2372  140.1889  156.7088 H   0  0  0  0  0  0  0  0  0  0  0  0  # atno 8008 bound_to 7997
  154.6128  140.0619  156.9543 H   0  0  0  0  0  0  0  0  0  0  0  0  # atno 8009 bound_to 7997
  155.1988  140.3290  155.4349 H   0  0  0  0  0  0  0  0  0  0  0  0  # atno 8010 bound_to 7997
  139.6688  143.9782  152.2271 H   0  0  0  0  0  0  0  0  0  0  0  0  # atno 10167 bound_to 10162
  157.6106  130.9215  149.9979 H   0  0  0  0  0  0  0  0  0  0  0  0  # atno 10718 bound_to 10713
  153.4834  135.3674  155.2454 H   0  0  0  0  0  0  0  0  0  0  0  0  # atno 10763 bound_to 10752
  154.8754  135.3960  154.3673 H   0  0  0  0  0  0  0  0  0  0  0  0  # atno 10764 bound_to 10752
  153.4280  135.7082  153.6314 H   0  0  0  0  0  0  0  0  0  0  0  0  # atno 10765 bound_to 10752
  141.1252  133.8436  157.1164 H   0  0  0  0  0  0  0  0  0  0  0  0  # atno 11005 bound_to 11000
  145.4914  141.0438  143.2591 LP  0  0  0  0  0  0  0  0  0  0  0  0  # atno 17320 bound_to 7965
  144.7858  139.6430  143.7135 LP  0  0  0  0  0  0  0  0  0  0  0  0  # atno 17321 bound_to 7965
  139.9541  144.6601  150.8143 LP  0  0  0  0  0  0  0  0  0  0  0  0  # atno 17342 bound_to 10162
  140.7610  143.3164  151.2724 LP  0  0  0  0  0  0  0  0  0  0  0  0  # atno 17343 bound_to 10162
  156.1208  130.3646  149.9890 LP  0  0  0  0  0  0  0  0  0  0  0  0  # atno 17370 bound_to 10713
  156.7971  130.9277  151.3646 LP  0  0  0  0  0  0  0  0  0  0  0  0  # atno 17371 bound_to 10713
  140.0243  134.9931  157.0655 LP  0  0  0  0  0  0  0  0  0  0  0  0  # atno 17394 bound_to 11000
  140.4388  134.1703  155.7172 LP  0  0  0  0  0  0  0  0  0  0  0  0  # atno 17395 bound_to 11000

$$$$
