AV-unprocessed.smi:114|AV-procd|sdf|1114|dock9
  -GOLD-   2262018233D 1   1.00000     0.00000
 Structure written by MMmdl.
 32 34  0  0  0  0  0  0  0  0  1 V2000
  146.0312  136.7767  156.4503 N   0  0  0  0  0  0  0  0  0  0  0  0
  146.4546  135.9661  155.4703 C   0  0  0  0  0  0  0  0  0  0  0  0
  147.6778  135.3987  155.5869 N   0  0  0  0  0  0  0  0  0  0  0  0
  148.1392  134.5841  154.6300 C   0  0  0  0  0  0  0  0  0  0  0  0
  149.3718  134.0609  154.8274 F   0  0  0  0  0  0  0  0  0  0  0  0
  147.5186  134.2274  153.5006 N   0  0  0  0  0  0  0  0  0  0  0  0
  146.2842  134.7961  153.3792 C   0  0  0  0  0  0  0  0  0  0  0  0
  145.6829  135.6759  154.3186 C   0  0  0  0  0  0  0  0  0  0  0  0
  144.4273  136.0620  153.8698 N   0  0  0  0  0  0  0  0  0  0  0  0
  144.2986  135.4428  152.7266 C   0  0  0  0  0  0  0  0  0  0  0  0
  145.3675  134.6559  152.3568 N   0  0  0  0  0  0  0  0  0  0  0  0
  145.5111  133.8372  151.1148 C   0  0  1  0  0  0  0  0  0  0  0  0
  146.0260  132.5934  151.4770 O   0  0  0  0  0  0  0  0  0  0  0  0
  145.3626  131.5680  150.7476 C   0  0  1  0  0  0  0  0  0  0  0  0
  145.4610  130.2408  151.5148 C   0  0  0  0  0  0  0  0  0  0  0  0
  146.8122  129.8503  151.6365 O   0  0  0  0  0  0  0  0  0  0  0  0
  143.9354  132.1084  150.6408 C   0  0  2  0  0  0  0  0  0  0  0  0
  143.1960  131.5004  149.5976 O   0  0  0  0  0  0  0  0  0  0  0  0
  144.1468  133.6086  150.4424 C   0  0  2  0  0  0  0  0  0  0  0  0
  144.1937  133.9671  149.0731 O   0  0  0  0  0  0  0  0  0  0  0  0
  146.2212  134.3879  150.4960 H   0  0  0  0  0  0  0  0  0  0  0  0
  145.8029  131.4886  149.7514 H   0  0  0  0  0  0  0  0  0  0  0  0
  143.4084  131.9408  151.5801 H   0  0  0  0  0  0  0  0  0  0  0  0
  143.3641  134.1928  150.9287 H   0  0  0  0  0  0  0  0  0  0  0  0
  145.1221  137.2120  156.3853 H   0  0  0  0  0  0  0  0  0  0  0  0
  146.6222  136.9529  157.2499 H   0  0  0  0  0  0  0  0  0  0  0  0
  143.4112  135.5425  152.1185 H   0  0  0  0  0  0  0  0  0  0  0  0
  144.9946  130.3149  152.4979 H   0  0  0  0  0  0  0  0  0  0  0  0
  144.9416  129.4525  150.9694 H   0  0  0  0  0  0  0  0  0  0  0  0
  147.3222  130.3333  151.0043 H   0  0  0  0  0  0  0  0  0  0  0  0
  142.2762  131.6455  149.7591 H   0  0  0  0  0  0  0  0  0  0  0  0
  145.0798  134.2178  148.8606 H   0  0  0  0  0  0  0  0  0  0  0  0
  1  2  1  0  0  0  0
  1 25  1  0  0  0  0
  1 26  1  0  0  0  0
  2  8  1  0  0  0  0
  2  3  2  0  0  0  0
  3  4  1  0  0  0  0
  4  5  1  0  0  0  0
  4  6  2  0  0  0  0
  6  7  1  0  0  0  0
  7 11  1  0  0  0  0
  7  8  2  0  0  0  0
  8  9  1  0  0  0  0
  9 10  2  0  0  0  0
 10 11  1  0  0  0  0
 10 27  1  0  0  0  0
 11 12  1  0  0  0  0
 12 21  1  0  0  0  0
 12 19  1  0  0  0  0
 12 13  1  0  0  0  0
 13 14  1  0  0  0  0
 14 22  1  0  0  0  0
 14 15  1  0  0  0  0
 14 17  1  0  0  0  0
 15 16  1  0  0  0  0
 15 28  1  0  0  0  0
 15 29  1  0  0  0  0
 16 30  1  0  0  0  0
 17 23  1  0  0  0  0
 17 18  1  0  0  0  0
 17 19  1  0  0  0  0
 18 31  1  0  0  0  0
 19 24  1  0  0  0  0
 19 20  1  0  0  0  0
 20 32  1  0  0  0  0
M  END
> <s_m_source_file>
AV-unprocessed.smi

> <i_m_source_file_index>
114

> <i_lp_mmshare_version>
43012

> <i_f3d_flags>
0

> <s_epik_input>
RmMobjEpbmMoW05IMl0pYyhjMTIpbltjSF1uMltDQEBIXTNPW0NASF0oW0NIMl1bT0hdKVtDQEBIXShbT0hdKVtDQEBIXTNbT0hd

> <s_epik_cmdline>
J2VwaWtfcHl0aG9uJywgJy1waCcsICc3LjAnLCAnLXRuJywgJzgnLCAnLW1hJywgJzIwMCcsICctbWV0YWxfYmluZGluZycsICctaW1hZScsICc8aW5maWxlLm1hZT4nLCAnLW9tYWUnLCAnPG91dGZpbGUubWFlPic=

> <r_lp_tautomer_probability>
1

> <r_epik_Ionization_Penalty>
1.13199e-05

> <r_epik_Ionization_Penalty_Charging>
0

> <r_epik_Ionization_Penalty_Neutral>
1.13199e-05

> <r_epik_State_Penalty>
-0

> <r_epik_Charging_Adjusted_Penalty>
0

> <i_epik_Tot_Q>
0

> <i_epik_Tot_abs_Q>
0

> <r_epik_Metal_State_Penalty>
-0

> <b_epik_Metal_Only>
0

> <s_epik_Chemistry_Notes>
This compound contains an acetal/aminal-like group ( X-CH(R)-Y where X, Y are N, S, or O) that may be acid/base labile, releasing an aldehyde.

> <s_lp_Force_Field>
OPLS_2005

> <r_lp_Energy>
39.1669

> <b_lp_Chiralities_Consistent>
1

> <s_lp_Variant>
AV-unprocessed.smi:114-8

> <Gold.Version>
5.8.1

> <Gold.Id.Protein>
6NUR|6NUR_protein|mol2

> <Gold.PLP.Fitness>
36.6009

> <Gold.PLP.PLP>
-27.0191

> <Gold.PLP.part.hbond>
-4.2800

> <Gold.PLP.part.metal>
0.0000

> <Gold.PLP.part.buried>
-7.2293

> <Gold.PLP.part.nonpolar>
-16.7673

> <Gold.PLP.part.repulsive>
1.5838

> <Gold.PLP.ligand.clash>
0.0000

> <Gold.PLP.ligand.torsion>
0.4236

> <Gold.PLP.Chemscore.Hbond>
3.4720

> <Gold.PLP.Chemscore.CHOScore>
0.0000

> <Gold.PLP.Chemscore.Metal>
0.0000

> <Gold.Chemscore.Hbonds>
donor molecule, donor type, donor heavy atom, donor atom, acceptor molecule, acceptor atom, score
      L1  H    16    30       P1 10747  1.00
      L1  H    18    31       P1 10952  0.56
      L1  H    20    32       P1  7921  0.91
      P1  H 10785 10796       L1    18  1.00

> <Gold.PLP.Chemscore.Internal.Correction>
0.0130

> <Gold.Rescore>
     Score         DG    S(hbond)    S(metal)    S(lipo)     H(rot)  DE(clash)    DE(int)     intcor
      8.20     -10.04       3.10        0.00      38.65       4.03       0.03       1.81       ----

> <Gold.Chemscore.Fitness>
8.2023

> <Gold.Chemscore.DG>
-10.0390

> <Gold.Chemscore.ZeroCoef>
-5.4800

> <Gold.Chemscore.Hbond>
3.0982

> <Gold.Chemscore.Metal>
0.0000

> <Gold.Chemscore.Lipo>
38.6501

> <Gold.Chemscore.Internal_Hbond>
0.0000

> <Gold.Chemscore.DEClash>
0.0269

> <Gold.Chemscore.DEInternal>
1.8099

> <Gold.Chemscore.Rot>
4.0277

> <Gold.Chemscore.Internal.Correction>
   9.000000E+99

> <Gold.Chemscore.Hbonds>
donor molecule, donor type, donor heavy atom, donor atom, acceptor molecule, acceptor atom, score
      L1  H    16    30       P1 10747  0.95
      L1  H    18    31       P1 10952  0.55
      L1  H    20    32       P1  7921  0.88
      P1  H 10785 10796       L1    18  0.39

> <Gold.Chemscore.Hbond.Weighted>
-10.3479

> <Gold.Chemscore.Metal.Weighted>
-0.0000

> <Gold.Chemscore.Lipo.Weighted>
-4.5221

> <Gold.Chemscore.Internal_Hbond.Weighted>
0.0000

> <Gold.Chemscore.DEClash.Weighted>
0.0269

> <Gold.Chemscore.DEInternal.Weighted>
1.8099

> <Gold.Chemscore.Rot.Weighted>
10.3110

> <Gold.Chemscore.Internal.Correction.Weighted>
   9.000000E+99

> <Gold.Protein.RotatedTorsions>
[ 6907 6896 6895 6894 ] final -179.54 input  -60.11 | X-H torsion
[ 7974 7965 7964 7962 ] final  -97.52 input  175.53 | X-H torsion
[ 8008 7997 7996 7995 ] final    2.50 input   59.86 | X-H torsion
[ 10167 10162 10161 10158 ] final  102.84 input  -65.29 | X-H torsion
[ 10718 10713 10712 10709 ] final -176.34 input   66.30 | X-H torsion
[ 10763 10752 10751 10750 ] final   97.00 input  -60.55 | X-H torsion
[ 11005 11000 10999 10996 ] final   -9.01 input  -57.11 | X-H torsion

> <Gold.Protein.ActiveResidues>
 VAL166  LYS551  ARG553  GLY616  TRP617  ASP618  TYR619  PRO620  LYS621  CYS622 
 ASP623  PHE694  ASN695  SER759  ASP760  ASP761  ALA762  ILE779  LEU786  VAL792 
 PHE793  MET794  SER795  GLU796  ALA797  LYS798  CYS799  TRP800  GLU811  SER814 

> <Gold.Protein.RotatedAtoms>
  151.6550  133.3319  159.3160 H   0  0  0  0  0  0  0  0  0  0  0  0  # atno 6907 bound_to 6896
  150.7941  134.6992  159.6550 H   0  0  0  0  0  0  0  0  0  0  0  0  # atno 6908 bound_to 6896
  152.4026  134.6265  160.0116 H   0  0  0  0  0  0  0  0  0  0  0  0  # atno 6909 bound_to 6896
  145.3327  140.9444  143.2652 H   0  0  0  0  0  0  0  0  0  0  0  0  # atno 7974 bound_to 7965
  154.6924  140.2656  155.6800 H   0  0  0  0  0  0  0  0  0  0  0  0  # atno 8008 bound_to 7997
  156.2736  140.2788  156.1429 H   0  0  0  0  0  0  0  0  0  0  0  0  # atno 8009 bound_to 7997
  155.0879  140.0373  157.2649 H   0  0  0  0  0  0  0  0  0  0  0  0  # atno 8010 bound_to 7997
  139.7315  144.7035  151.0715 H   0  0  0  0  0  0  0  0  0  0  0  0  # atno 10167 bound_to 10162
  156.8133  130.9594  151.3115 H   0  0  0  0  0  0  0  0  0  0  0  0  # atno 10718 bound_to 10713
  153.2716  135.4199  155.0993 H   0  0  0  0  0  0  0  0  0  0  0  0  # atno 10763 bound_to 10752
  154.8458  135.3473  154.6236 H   0  0  0  0  0  0  0  0  0  0  0  0  # atno 10764 bound_to 10752
  153.6656  135.7046  153.5221 H   0  0  0  0  0  0  0  0  0  0  0  0  # atno 10765 bound_to 10752
  140.7295  133.8760  155.8882 H   0  0  0  0  0  0  0  0  0  0  0  0  # atno 11005 bound_to 11000
  144.8851  139.4850  143.6704 LP  0  0  0  0  0  0  0  0  0  0  0  0  # atno 17320 bound_to 7965
  146.3039  139.7516  142.9071 LP  0  0  0  0  0  0  0  0  0  0  0  0  # atno 17321 bound_to 7965
  140.7772  143.5037  150.9739 LP  0  0  0  0  0  0  0  0  0  0  0  0  # atno 17342 bound_to 10162
  139.8725  143.7174  152.3165 LP  0  0  0  0  0  0  0  0  0  0  0  0  # atno 17343 bound_to 10162
  157.6495  130.8872  149.9604 LP  0  0  0  0  0  0  0  0  0  0  0  0  # atno 17370 bound_to 10713
  156.1032  130.3654  150.0181 LP  0  0  0  0  0  0  0  0  0  0  0  0  # atno 17371 bound_to 10713
  140.9933  134.1249  157.4387 LP  0  0  0  0  0  0  0  0  0  0  0  0  # atno 17394 bound_to 11000
  139.8829  135.0047  156.6265 LP  0  0  0  0  0  0  0  0  0  0  0  0  # atno 17395 bound_to 11000

$$$$
