#       Name:                AV-unprocessed.smi:3185
#       Creating user name   scv26
#       Creation time:       Fri Mar 27 18:00:24 2020


#       File generated by GOLD software.
#

@<TRIPOS>MOLECULE
AV-unprocessed.smi:3185
    40    41     1
SMALL
NO_CHARGES


@<TRIPOS>ATOM
      1 ****        -6.1427   2.3263  -1.1764 N.1            1 S1                 0.0000
      2 ****        -4.9927   2.3919  -1.0719 C.1            1 S1                 0.0000
      3 ****        -3.5306   2.4739  -0.9388 C.3            1 S1                 0.0000
      4 ****        -2.8480   1.1095  -1.0876 C.3            1 S1                 0.0000
      5 ****        -1.3256   1.2020  -0.9347 C.3            1 S1                 0.0000
      6 ****        -0.7031  -0.1333  -1.0480 N.4            1 S1                 1.0000
      7 ****         0.7765  -0.1614  -0.9688 C.3            1 S1                 0.0000
      8 ****         1.2999  -1.5402  -1.4306 C.3            1 S1                 0.0000
      9 ****         2.8283  -1.6440  -1.3206 C.3            1 S1                 0.0000
     10 ****         3.3098  -1.3190   0.1002 C.3            1 S1                 0.0000
     11 ****         2.8438   0.0817   0.5274 C.3            1 S1                 0.0000
     12 ****         1.3132   0.2616   0.4335 C.3            1 S1                 0.0000
     13 ****         0.6229  -0.3525   1.5692 N.pl3          1 S1                 0.0000
     14 ****         0.2431   0.2631   2.7454 C.2            1 S1                 0.0000
     15 ****        -0.3494  -0.6796   3.5352 C.2            1 S1                 0.0000
     16 ****        -0.2697  -1.8672   2.7582 C.2            1 S1                 0.0000
     17 ****         0.3157  -1.6692   1.5890 N.2            1 S1                 0.0000
     18 ****        -3.1645   3.1695  -1.6944 H              1 S1                 0.0000
     19 ****        -3.3093   2.9077   0.0367 H              1 S1                 0.0000
     20 ****        -3.2497   0.4242  -0.3400 H              1 S1                 0.0000
     21 ****        -3.0948   0.6859  -2.0620 H              1 S1                 0.0000
     22 ****        -0.9131   1.8612  -1.6995 H              1 S1                 0.0000
     23 ****        -1.0882   1.6405   0.0345 H              1 S1                 0.0000
     24 ****        -1.0696  -0.7282  -0.3180 H              1 S1                 0.0000
     25 ****         1.1479   0.5659  -1.6928 H              1 S1                 0.0000
     26 ****         0.8425  -2.3437  -0.8544 H              1 S1                 0.0000
     27 ****         1.0031  -1.7160  -2.4651 H              1 S1                 0.0000
     28 ****         3.1530  -2.6462  -1.6026 H              1 S1                 0.0000
     29 ****         3.2936  -0.9583  -2.0298 H              1 S1                 0.0000
     30 ****         2.9410  -2.0696   0.7996 H              1 S1                 0.0000
     31 ****         4.3981  -1.3730   0.1409 H              1 S1                 0.0000
     32 ****         3.1884   0.2970   1.5396 H              1 S1                 0.0000
     33 ****         3.3261   0.8189  -0.1156 H              1 S1                 0.0000
     34 ****         1.1352   1.3331   0.5326 H              1 S1                 0.0000
     35 ****         0.4214   1.3140   2.9212 H              1 S1                 0.0000
     36 ****        -0.7683  -0.5433   4.5212 H              1 S1                 0.0000
     37 ****        -0.6147  -2.8598   3.0073 H              1 S1                 0.0000
     38 ****        -0.9709  -0.5223  -1.9408 H              1 S1                 0.0000
     39 ****        -7.1370   2.2696  -1.2667 LP             1 S1                 0.0000
     40 ****         0.4928  -2.3463   0.8747 LP             1 S1                 0.0000
@<TRIPOS>BOND
    1    1    2 3     
    2    2    3 1     
    3    3    4 1     
    4    3   18 1     
    5    3   19 1     
    6    4    5 1     
    7    4   20 1     
    8    4   21 1     
    9    5    6 1     
   10    5   22 1     
   11    5   23 1     
   12    6    7 1     
   13    6   24 1     
   14    6   38 1     
   15    7   12 1     
   16    7    8 1     
   17    7   25 1     
   18    8    9 1     
   19    8   26 1     
   20    8   27 1     
   21    9   10 1     
   22    9   28 1     
   23    9   29 1     
   24   10   11 1     
   25   10   30 1     
   26   10   31 1     
   27   11   12 1     
   28   11   32 1     
   29   11   33 1     
   30   12   13 1     
   31   12   34 1     
   32   13   17 1     
   33   13   14 1     
   34   14   15 2     
   35   14   35 1     
   36   15   16 1     
   37   15   36 1     
   38   16   17 2     
   39   16   37 1     
   40    1   39 1     
   41   17   40 1     
@<TRIPOS>SUBSTRUCTURE
      1 S1             1
@<TRIPOS>SET
LONE_PAIRS      STATIC     ATOMS    <user>   **** ""
2 39 40
DONOR_HYDROGENS      STATIC     ATOMS    <user>   **** ""
2 24 38
ATOM$BLUE        STATIC     ATOMS    COLORGROUP SYSTEM
2 39 40
ATOM$RED        STATIC     ATOMS    COLORGROUP SYSTEM
2 24 38
