AV-unprocessed.smi:3117|AV-procd|sdf|11885|dock9
  -GOLD-   2272017273D 1   1.00000     0.00000
 Structure written by MMmdl.
 36 36  0  0  0  0  0  0  0  0  1 V2000
  149.1546  142.6327  158.3874 C   0  0  0  0  0  0  0  0  0  0  0  0
  150.3200  142.0419  157.5767 C   0  0  1  0  0  0  0  0  0  0  0  0
  149.8914  141.9394  156.1746 N   0  0  0  0  0  0  0  0  0  0  0  0
  148.9369  140.8776  155.8559 C   0  0  0  0  0  0  0  0  0  0  0  0
  148.4202  140.9837  154.4066 C   0  0  0  0  0  0  0  0  0  0  0  0
  147.7250  139.6935  153.9367 C   0  0  0  0  0  0  0  0  0  0  0  0
  147.5316  142.2229  154.1967 C   0  0  0  0  0  0  0  0  0  0  0  0
  149.5594  141.1540  153.5880 O   0  0  0  0  0  0  0  0  0  0  0  0
  151.6328  142.8539  157.8043 C   0  0  1  0  0  0  0  0  0  0  0  0
  151.5222  144.3544  157.4620 C   0  0  0  0  0  0  0  0  0  0  0  0
  152.2643  142.6005  159.0987 N   0  0  0  0  0  0  0  0  0  0  0  0
  153.4476  141.9345  159.3473 C   0  0  0  0  0  0  0  0  0  0  0  0
  153.6309  141.9074  160.7001 C   0  0  0  0  0  0  0  0  0  0  0  0
  152.4878  142.5838  161.2080 C   0  0  0  0  0  0  0  0  0  0  0  0
  151.6731  142.9946  160.2508 N   0  0  0  0  0  0  0  0  0  0  0  0
  149.3918  142.6738  159.4507 H   0  0  0  0  0  0  0  0  0  0  0  0
  148.2558  142.0247  158.2807 H   0  0  0  0  0  0  0  0  0  0  0  0
  148.9081  143.6431  158.0608 H   0  0  0  0  0  0  0  0  0  0  0  0
  150.4770  141.0353  157.9661 H   0  0  0  0  0  0  0  0  0  0  0  0
  149.5106  142.8305  155.8734 H   0  0  0  0  0  0  0  0  0  0  0  0
  149.3999  139.9022  155.9823 H   0  0  0  0  0  0  0  0  0  0  0  0
  148.0946  140.9188  156.5479 H   0  0  0  0  0  0  0  0  0  0  0  0
  146.8106  139.5053  154.5004 H   0  0  0  0  0  0  0  0  0  0  0  0
  148.3731  138.8250  154.0598 H   0  0  0  0  0  0  0  0  0  0  0  0
  147.4497  139.7532  152.8831 H   0  0  0  0  0  0  0  0  0  0  0  0
  146.6120  142.1556  154.7786 H   0  0  0  0  0  0  0  0  0  0  0  0
  147.2468  142.3346  153.1499 H   0  0  0  0  0  0  0  0  0  0  0  0
  148.0448  143.1363  154.4999 H   0  0  0  0  0  0  0  0  0  0  0  0
  150.2818  140.6883  153.9809 H   0  0  0  0  0  0  0  0  0  0  0  0
  152.3452  142.4835  157.0656 H   0  0  0  0  0  0  0  0  0  0  0  0
  151.1385  144.4939  156.4513 H   0  0  0  0  0  0  0  0  0  0  0  0
  152.5023  144.8307  157.5037 H   0  0  0  0  0  0  0  0  0  0  0  0
  150.8705  144.9051  158.1359 H   0  0  0  0  0  0  0  0  0  0  0  0
  154.0553  141.5376  158.5477 H   0  0  0  0  0  0  0  0  0  0  0  0
  154.4536  141.4674  161.2438 H   0  0  0  0  0  0  0  0  0  0  0  0
  152.2267  142.7858  162.2363 H   0  0  0  0  0  0  0  0  0  0  0  0
  1  2  1  0  0  0  0
  1 16  1  0  0  0  0
  1 17  1  0  0  0  0
  1 18  1  0  0  0  0
  2  3  1  0  0  0  0
  2  9  1  0  0  0  0
  2 19  1  0  0  0  0
  3  4  1  0  0  0  0
  3 20  1  0  0  0  0
  4  5  1  0  0  0  0
  4 21  1  0  0  0  0
  4 22  1  0  0  0  0
  5  6  1  0  0  0  0
  5  7  1  0  0  0  0
  5  8  1  0  0  0  0
  6 23  1  0  0  0  0
  6 24  1  0  0  0  0
  6 25  1  0  0  0  0
  7 26  1  0  0  0  0
  7 27  1  0  0  0  0
  7 28  1  0  0  0  0
  8 29  1  0  0  0  0
  9 10  1  0  0  0  0
  9 11  1  0  0  0  0
  9 30  1  0  0  0  0
 10 31  1  0  0  0  0
 10 32  1  0  0  0  0
 10 33  1  0  0  0  0
 11 15  1  0  0  0  0
 11 12  1  0  0  0  0
 12 13  2  0  0  0  0
 12 34  1  0  0  0  0
 13 14  1  0  0  0  0
 13 35  1  0  0  0  0
 14 15  2  0  0  0  0
 14 36  1  0  0  0  0
M  END
> <s_m_source_file>
AV-unprocessed.smi

> <i_m_source_file_index>
3117

> <i_lp_mmshare_version>
43012

> <i_f3d_flags>
0

> <s_epik_input>
W0NIM11DKFtDSDNdKShbT0hdKVtDSDJdW05IXVtDQEBIXShbQ0gzXSlbQ0BIXShbQ0gzXSluMVtjSF1bY0hdW2NIXW4x

> <s_epik_cmdline>
J2VwaWtfcHl0aG9uJywgJy1waCcsICc3LjAnLCAnLXRuJywgJzgnLCAnLW1hJywgJzIwMCcsICctbWV0YWxfYmluZGluZycsICctaW1hZScsICc8aW5maWxlLm1hZT4nLCAnLW9tYWUnLCAnPG91dGZpbGUubWFlPic=

> <r_lp_tautomer_probability>
1

> <r_epik_Ionization_Penalty>
2.13419

> <r_epik_Ionization_Penalty_Charging>
0

> <r_epik_Ionization_Penalty_Neutral>
2.13419

> <r_epik_State_Penalty>
2.27148

> <r_epik_Charging_Adjusted_Penalty>
2.27148

> <i_epik_Tot_Q>
0

> <i_epik_Tot_abs_Q>
0

> <r_epik_Metal_State_Penalty>
2.27029

> <b_epik_Metal_Only>
0

> <s_lp_Force_Field>
OPLS_2005

> <r_lp_Energy>
16.3619

> <b_lp_Chiralities_Consistent>
1

> <s_lp_Variant>
AV-unprocessed.smi:3117-8

> <Gold.Version>
5.8.1

> <Gold.Id.Protein>
6NUR|6NUR_protein|mol2

> <Gold.PLP.Fitness>
41.7361

> <Gold.PLP.PLP>
-36.4373

> <Gold.PLP.part.hbond>
-4.0000

> <Gold.PLP.part.metal>
0.0000

> <Gold.PLP.part.buried>
-2.9435

> <Gold.PLP.part.nonpolar>
-27.5208

> <Gold.PLP.part.repulsive>
0.0431

> <Gold.PLP.ligand.clash>
0.0000

> <Gold.PLP.ligand.torsion>
0.4875

> <Gold.PLP.Chemscore.Hbond>
1.9920

> <Gold.PLP.Chemscore.CHOScore>
0.0000

> <Gold.PLP.Chemscore.Metal>
0.0000

> <Gold.Chemscore.Hbonds>
donor molecule, donor type, donor heavy atom, donor atom, acceptor molecule, acceptor atom, score
      L1  H     3    20       P1  8028  1.00
      P1  H  8011  8017       L1     8  0.98

> <Gold.PLP.Chemscore.Internal.Correction>
0.2978

> <Gold.Rescore>
     Score         DG    S(hbond)    S(metal)    S(lipo)     H(rot)  DE(clash)    DE(int)     intcor
     16.55     -17.08       1.92        0.00      92.16       2.19       0.08       0.45       ----

> <Gold.Chemscore.Fitness>
16.5533

> <Gold.Chemscore.DG>
-17.0842

> <Gold.Chemscore.ZeroCoef>
-5.4800

> <Gold.Chemscore.Hbond>
1.9231

> <Gold.Chemscore.Metal>
0.0000

> <Gold.Chemscore.Lipo>
92.1602

> <Gold.Chemscore.Internal_Hbond>
0.0000

> <Gold.Chemscore.DEClash>
0.0782

> <Gold.Chemscore.DEInternal>
0.4527

> <Gold.Chemscore.Rot>
2.1882

> <Gold.Chemscore.Internal.Correction>
   9.000000E+99

> <Gold.Chemscore.Hbonds>
donor molecule, donor type, donor heavy atom, donor atom, acceptor molecule, acceptor atom, score
      L1  H     3    20       P1  8028  0.96
      P1  H  8011  8017       L1     8  0.92

> <Gold.Chemscore.Hbond.Weighted>
-6.4232

> <Gold.Chemscore.Metal.Weighted>
-0.0000

> <Gold.Chemscore.Lipo.Weighted>
-10.7827

> <Gold.Chemscore.Internal_Hbond.Weighted>
0.0000

> <Gold.Chemscore.DEClash.Weighted>
0.0782

> <Gold.Chemscore.DEInternal.Weighted>
0.4527

> <Gold.Chemscore.Rot.Weighted>
5.6018

> <Gold.Chemscore.Internal.Correction.Weighted>
   9.000000E+99

> <Gold.Protein.RotatedTorsions>
[ 6907 6896 6895 6894 ] final   13.82 input  -60.11 | X-H torsion
[ 7974 7965 7964 7962 ] final  116.38 input  175.53 | X-H torsion
[ 8008 7997 7996 7995 ] final -103.81 input   59.86 | X-H torsion
[ 10167 10162 10161 10158 ] final   59.73 input  -65.29 | X-H torsion
[ 10718 10713 10712 10709 ] final  103.43 input   66.30 | X-H torsion
[ 10763 10752 10751 10750 ] final  -53.38 input  -60.55 | X-H torsion
[ 11005 11000 10999 10996 ] final  -14.22 input  -57.11 | X-H torsion

> <Gold.Protein.ActiveResidues>
 VAL166  LYS551  ARG553  GLY616  TRP617  ASP618  TYR619  PRO620  LYS621  CYS622 
 ASP623  PHE694  ASN695  SER759  ASP760  ASP761  ALA762  ILE779  LEU786  VAL792 
 PHE793  MET794  SER795  GLU796  ALA797  LYS798  CYS799  TRP800  GLU811  SER814 

> <Gold.Protein.RotatedAtoms>
  151.7924  135.0732  160.0388 H   0  0  0  0  0  0  0  0  0  0  0  0  # atno 6907 bound_to 6896
  152.3147  133.5785  159.5712 H   0  0  0  0  0  0  0  0  0  0  0  0  # atno 6908 bound_to 6896
  150.7338  134.0017  159.3682 H   0  0  0  0  0  0  0  0  0  0  0  0  # atno 6909 bound_to 6896
  145.1803  139.3053  143.4421 H   0  0  0  0  0  0  0  0  0  0  0  0  # atno 7974 bound_to 7965
  154.8763  140.0421  157.1755 H   0  0  0  0  0  0  0  0  0  0  0  0  # atno 8008 bound_to 7997
  154.8686  140.2955  155.5474 H   0  0  0  0  0  0  0  0  0  0  0  0  # atno 8009 bound_to 7997
  156.2999  140.2433  156.3671 H   0  0  0  0  0  0  0  0  0  0  0  0  # atno 8010 bound_to 7997
  140.1732  144.4256  150.6651 H   0  0  0  0  0  0  0  0  0  0  0  0  # atno 10167 bound_to 10162
  157.6772  131.0779  150.5554 H   0  0  0  0  0  0  0  0  0  0  0  0  # atno 10718 bound_to 10713
  154.1579  135.6479  153.4979 H   0  0  0  0  0  0  0  0  0  0  0  0  # atno 10763 bound_to 10752
  153.0119  135.5354  154.6740 H   0  0  0  0  0  0  0  0  0  0  0  0  # atno 10764 bound_to 10752
  154.6046  135.2947  155.0470 H   0  0  0  0  0  0  0  0  0  0  0  0  # atno 10765 bound_to 10752
  140.7841  133.8339  155.9319 H   0  0  0  0  0  0  0  0  0  0  0  0  # atno 11005 bound_to 11000
  146.3454  140.1980  142.8589 LP  0  0  0  0  0  0  0  0  0  0  0  0  # atno 17320 bound_to 7965
  145.0143  140.8740  143.5205 LP  0  0  0  0  0  0  0  0  0  0  0  0  # atno 17321 bound_to 7965
  140.6568  143.2240  151.5950 LP  0  0  0  0  0  0  0  0  0  0  0  0  # atno 17342 bound_to 10162
  139.5328  144.2866  152.1186 LP  0  0  0  0  0  0  0  0  0  0  0  0  # atno 17343 bound_to 10162
  156.5858  130.4316  149.5957 LP  0  0  0  0  0  0  0  0  0  0  0  0  # atno 17370 bound_to 10713
  156.2624  130.6970  151.1742 LP  0  0  0  0  0  0  0  0  0  0  0  0  # atno 17371 bound_to 10713
  140.9453  134.1848  157.4768 LP  0  0  0  0  0  0  0  0  0  0  0  0  # atno 17394 bound_to 11000
  139.8739  134.9888  156.5429 LP  0  0  0  0  0  0  0  0  0  0  0  0  # atno 17395 bound_to 11000

$$$$
