#       Name:                AV-unprocessed.smi:2069
#       Creating user name   scv26
#       Creation time:       Fri Mar 27 11:13:18 2020


#       File generated by GOLD software.
#

@<TRIPOS>MOLECULE
AV-unprocessed.smi:2069
    45    46     1
SMALL
NO_CHARGES


@<TRIPOS>ATOM
      1 ****        -6.4919   3.2899   0.2429 C.3            1 S1                 0.0000
      2 ****        -5.5161   2.3478   0.8603 C.2            1 S1                 0.0000
      3 ****        -5.2841   2.3077   2.1745 N.2            1 S1                 0.0000
      4 ****        -4.3337   1.3538   2.5088 N.2            1 S1                 0.0000
      5 ****        -3.8535   0.6945   1.4451 C.2            1 S1                 0.0000
      6 ****        -2.9267  -0.2717   1.5555 N.pl3          1 S1                -1.0000
      7 ****        -1.6263   0.0071   1.3099 C.2            1 S1                 0.0000
      8 ****        -1.1639   1.1002   0.9747 O.2            1 S1                 0.0000
      9 ****        -0.8114  -1.0475   1.4568 N.am           1 S1                 0.0000
     10 ****         0.6340  -1.0501   1.2419 C.3            1 S1                 0.0000
     11 ****         1.0384  -1.0395  -0.2617 C.3            1 S1                 0.0000
     12 ****         0.3554  -2.2360  -0.9721 C.3            1 S1                 0.0000
     13 ****         2.5045  -1.0090  -0.4766 N.3            1 S1                 0.0000
     14 ****         3.1515   0.1327   0.1802 C.3            1 S1                 0.0000
     15 ****         4.6681   0.1872  -0.0727 C.3            1 S1                 0.0000
     16 ****         4.9221   0.2210  -1.4703 O.3            1 S1                 0.0000
     17 ****         4.3791  -0.9102  -2.1366 C.3            1 S1                 0.0000
     18 ****         2.8603  -0.9719  -1.8999 C.3            1 S1                 0.0000
     19 ****        -4.5750   1.2038  -0.0816 S.3            1 S1                 0.0000
     20 ****        -6.0528   4.2850   0.1701 H              1 S1                 0.0000
     21 ****        -7.3965   3.3479   0.8489 H              1 S1                 0.0000
     22 ****        -6.7640   2.9523  -0.7573 H              1 S1                 0.0000
     23 ****        -1.2322  -1.9221   1.7341 H              1 S1                 0.0000
     24 ****         1.0299  -0.1895   1.7794 H              1 S1                 0.0000
     25 ****         1.0457  -1.9337   1.7301 H              1 S1                 0.0000
     26 ****         0.6201  -0.1316  -0.6992 H              1 S1                 0.0000
     27 ****        -0.7143  -2.2836  -0.7718 H              1 S1                 0.0000
     28 ****         0.7904  -3.1836  -0.6528 H              1 S1                 0.0000
     29 ****         0.4364  -2.1754  -2.0562 H              1 S1                 0.0000
     30 ****         2.6929   1.0634  -0.1575 H              1 S1                 0.0000
     31 ****         3.0159   0.0844   1.2585 H              1 S1                 0.0000
     32 ****         5.0963   1.0773   0.3884 H              1 S1                 0.0000
     33 ****         5.1653  -0.6749   0.3748 H              1 S1                 0.0000
     34 ****         4.5929  -0.8308  -3.2024 H              1 S1                 0.0000
     35 ****         4.8634  -1.8207  -1.7799 H              1 S1                 0.0000
     36 ****         2.4946  -1.8607  -2.4108 H              1 S1                 0.0000
     37 ****         2.3854  -0.1134  -2.3773 H              1 S1                 0.0000
     38 ****        -5.7421   2.8967   2.8404 LP             1 S1                 0.0000
     39 ****        -4.0373   1.1763   3.4473 LP             1 S1                 0.0000
     40 ****        -3.1984  -1.1972   1.8194 LP             1 S1                 0.0000
     41 ****        -1.7713   1.8864   0.8609 LP             1 S1                 0.0000
     42 ****        -0.1816   1.2003   0.8168 LP             1 S1                 0.0000
     43 ****         2.8366  -1.8587  -0.0670 LP             1 S1                 0.0000
     44 ****         5.9109   0.2393  -1.6185 LP             1 S1                 0.0000
     45 ****         4.5122   1.0489  -1.8531 LP             1 S1                 0.0000
@<TRIPOS>BOND
    1    1    2 1     
    2    1   20 1     
    3    1   21 1     
    4    1   22 1     
    5    2   19 1     
    6    2    3 2     
    7    3    4 1     
    8    4    5 2     
    9    5    6 1     
   10    5   19 1     
   11    6    7 1     
   12    7    8 2     
   13    7    9 am    
   14    9   10 1     
   15    9   23 1     
   16   10   11 1     
   17   10   24 1     
   18   10   25 1     
   19   11   12 1     
   20   11   13 1     
   21   11   26 1     
   22   12   27 1     
   23   12   28 1     
   24   12   29 1     
   25   13   18 1     
   26   13   14 1     
   27   14   15 1     
   28   14   30 1     
   29   14   31 1     
   30   15   16 1     
   31   15   32 1     
   32   15   33 1     
   33   16   17 1     
   34   17   18 1     
   35   17   34 1     
   36   17   35 1     
   37   18   36 1     
   38   18   37 1     
   39    3   38 1     
   40    4   39 1     
   41    6   40 1     
   42    8   41 1     
   43    8   42 1     
   44   13   43 1     
   45   16   44 1     
   46   16   45 1     
@<TRIPOS>SUBSTRUCTURE
      1 S1             1
@<TRIPOS>SET
LONE_PAIRS      STATIC     ATOMS    <user>   **** ""
8 38 39 40 41 42 43 44 45
DONOR_HYDROGENS      STATIC     ATOMS    <user>   **** ""
1 23
ATOM$BLUE        STATIC     ATOMS    COLORGROUP SYSTEM
8 38 39 40 41 42 43 44 45
ATOM$RED        STATIC     ATOMS    COLORGROUP SYSTEM
1 23
