AV-unprocessed.smi:2891|AV-procd|sdf|11117|dock7
  -GOLD-   2272015583D 1   1.00000     0.00000
 Structure written by MMmdl.
 35 36  0  0  0  0  0  0  0  0  1 V2000
  151.0364  135.9460  156.0105 C   0  0  0  0  0  0  0  0  0  0  0  0
  151.2279  136.3665  154.6709 O   0  0  0  0  0  0  0  0  0  0  0  0
  150.7556  137.6835  154.4438 C   0  0  0  0  0  0  0  0  0  0  0  0
  149.2246  137.6917  154.5679 C   0  0  0  0  0  0  0  0  0  0  0  0
  148.6779  139.0412  154.3731 N   0  0  0  0  0  0  0  0  0  0  0  0
  149.2813  140.0859  155.0986 C   0  0  0  0  0  0  0  0  0  0  0  0
  148.8800  141.3665  155.0038 C   0  0  0  0  0  0  0  0  0  0  0  0
  149.5614  142.3224  155.7709 N   0  0  0  0  0  0  0  0  0  0  0  0
  150.6693  142.1797  156.5217 C   0  0  0  0  0  0  0  0  0  0  0  0
  151.3035  141.1376  156.6834 O   0  0  0  0  0  0  0  0  0  0  0  0
  151.0076  143.3427  157.0950 N   0  0  0  0  0  0  0  0  0  0  0  0
  152.1225  143.5466  157.9631 C   0  0  0  0  0  0  0  0  0  0  0  0
  151.8328  143.9178  159.4016 C   0  0  0  0  0  0  0  0  0  0  0  0
  152.3798  144.9534  158.4585 C   0  0  0  0  0  0  0  0  0  0  0  0
  147.7666  141.6397  154.1065 C   0  0  0  0  0  0  0  0  0  0  0  0
  147.1890  140.6472  153.4014 C   0  0  0  0  0  0  0  0  0  0  0  0
  147.6469  139.2596  153.5044 C   0  0  0  0  0  0  0  0  0  0  0  0
  147.1352  138.3512  152.8494 O   0  0  0  0  0  0  0  0  0  0  0  0
  151.4128  134.9308  156.1339 H   0  0  0  0  0  0  0  0  0  0  0  0
  149.9786  135.9473  156.2769 H   0  0  0  0  0  0  0  0  0  0  0  0
  151.5739  136.5914  156.7065 H   0  0  0  0  0  0  0  0  0  0  0  0
  151.1956  138.3668  155.1721 H   0  0  0  0  0  0  0  0  0  0  0  0
  151.0579  138.0201  153.4508 H   0  0  0  0  0  0  0  0  0  0  0  0
  148.7896  136.9928  153.8510 H   0  0  0  0  0  0  0  0  0  0  0  0
  148.9361  137.3073  155.5473 H   0  0  0  0  0  0  0  0  0  0  0  0
  150.1005  139.7767  155.7327 H   0  0  0  0  0  0  0  0  0  0  0  0
  149.1526  143.2452  155.7528 H   0  0  0  0  0  0  0  0  0  0  0  0
  150.4296  144.1485  156.9064 H   0  0  0  0  0  0  0  0  0  0  0  0
  153.0043  142.9286  157.7993 H   0  0  0  0  0  0  0  0  0  0  0  0
  150.7913  144.0129  159.7037 H   0  0  0  0  0  0  0  0  0  0  0  0
  152.5041  143.5299  160.1651 H   0  0  0  0  0  0  0  0  0  0  0  0
  153.4167  145.2558  158.5910 H   0  0  0  0  0  0  0  0  0  0  0  0
  151.7032  145.7414  158.1327 H   0  0  0  0  0  0  0  0  0  0  0  0
  147.3673  142.6326  153.9809 H   0  0  0  0  0  0  0  0  0  0  0  0
  146.3635  140.8788  152.7446 H   0  0  0  0  0  0  0  0  0  0  0  0
  1  2  1  0  0  0  0
  1 19  1  0  0  0  0
  1 20  1  0  0  0  0
  1 21  1  0  0  0  0
  2  3  1  0  0  0  0
  3  4  1  0  0  0  0
  3 22  1  0  0  0  0
  3 23  1  0  0  0  0
  4  5  1  0  0  0  0
  4 24  1  0  0  0  0
  4 25  1  0  0  0  0
  5 17  1  0  0  0  0
  5  6  1  0  0  0  0
  6  7  2  0  0  0  0
  6 26  1  0  0  0  0
  7  8  1  0  0  0  0
  7 15  1  0  0  0  0
  8  9  1  0  0  0  0
  8 27  1  0  0  0  0
  9 10  2  0  0  0  0
  9 11  1  0  0  0  0
 11 12  1  0  0  0  0
 11 28  1  0  0  0  0
 12 14  1  0  0  0  0
 12 13  1  0  0  0  0
 12 29  1  0  0  0  0
 13 14  1  0  0  0  0
 13 30  1  0  0  0  0
 13 31  1  0  0  0  0
 14 32  1  0  0  0  0
 14 33  1  0  0  0  0
 15 16  2  0  0  0  0
 15 34  1  0  0  0  0
 16 17  1  0  0  0  0
 16 35  1  0  0  0  0
 17 18  2  0  0  0  0
M  END
> <s_m_source_file>
AV-unprocessed.smi

> <i_m_source_file_index>
2891

> <i_lp_mmshare_version>
43012

> <i_f3d_flags>
0

> <s_epik_input>
W0NIM11PW0NIMl1bQ0gyXW4xW2NIXWMoW2NIXVtjSF1jMT1PKVtOSF1DKD1PKVtOSF1bQ0hdMltDSDJdW0NIMl0y

> <s_epik_cmdline>
J2VwaWtfcHl0aG9uJywgJy1waCcsICc3LjAnLCAnLXRuJywgJzgnLCAnLW1hJywgJzIwMCcsICctbWV0YWxfYmluZGluZycsICctaW1hZScsICc8aW5maWxlLm1hZT4nLCAnLW9tYWUnLCAnPG91dGZpbGUubWFlPic=

> <r_lp_tautomer_probability>
1

> <r_epik_Ionization_Penalty>
2.77726e-05

> <r_epik_Ionization_Penalty_Charging>
5.82689e-06

> <r_epik_Ionization_Penalty_Neutral>
2.19457e-05

> <r_epik_State_Penalty>
-0

> <r_epik_Charging_Adjusted_Penalty>
5.82689e-06

> <i_epik_Tot_Q>
0

> <i_epik_Tot_abs_Q>
0

> <r_epik_Metal_State_Penalty>
-0

> <b_epik_Metal_Only>
0

> <s_lp_Force_Field>
OPLS_2005

> <r_lp_Energy>
28.443

> <b_lp_Chiralities_Consistent>
1

> <s_lp_Variant>
AV-unprocessed.smi:2891-1

> <Gold.Version>
5.8.1

> <Gold.Id.Protein>
6NUR|6NUR_protein|mol2

> <Gold.PLP.Fitness>
42.4875

> <Gold.PLP.PLP>
-34.5280

> <Gold.PLP.part.hbond>
-2.8747

> <Gold.PLP.part.metal>
0.0000

> <Gold.PLP.part.buried>
-4.5630

> <Gold.PLP.part.nonpolar>
-30.5752

> <Gold.PLP.part.repulsive>
1.8624

> <Gold.PLP.ligand.clash>
0.0000

> <Gold.PLP.ligand.torsion>
0.1501

> <Gold.PLP.Chemscore.Hbond>
2.7375

> <Gold.PLP.Chemscore.CHOScore>
0.0000

> <Gold.PLP.Chemscore.Metal>
0.0000

> <Gold.Chemscore.Hbonds>
donor molecule, donor type, donor heavy atom, donor atom, acceptor molecule, acceptor atom, score
      L1  H     8    27       P1  8028  0.93
      L1  H    11    28       P1  8028  0.80
      P1  H 10752 10765       L1     2  1.00

> <Gold.PLP.Chemscore.Internal.Correction>
0.0475

> <Gold.Rescore>
     Score         DG    S(hbond)    S(metal)    S(lipo)     H(rot)  DE(clash)    DE(int)     intcor
     16.52     -18.87       2.47        0.00      80.56       1.67       0.72       1.63       ----

> <Gold.Chemscore.Fitness>
16.5235

> <Gold.Chemscore.DG>
-18.8745

> <Gold.Chemscore.ZeroCoef>
-5.4800

> <Gold.Chemscore.Hbond>
2.4705

> <Gold.Chemscore.Metal>
0.0000

> <Gold.Chemscore.Lipo>
80.5633

> <Gold.Chemscore.Internal_Hbond>
0.0000

> <Gold.Chemscore.DEClash>
0.7209

> <Gold.Chemscore.DEInternal>
1.6301

> <Gold.Chemscore.Rot>
1.6730

> <Gold.Chemscore.Internal.Correction>
   9.000000E+99

> <Gold.Chemscore.Hbonds>
donor molecule, donor type, donor heavy atom, donor atom, acceptor molecule, acceptor atom, score
      L1  H     8    27       P1  8028  0.89
      L1  H    11    28       P1  8028  0.73
      P1  H 10752 10765       L1     2  0.26

> <Gold.Chemscore.Hbond.Weighted>
-8.2514

> <Gold.Chemscore.Metal.Weighted>
-0.0000

> <Gold.Chemscore.Lipo.Weighted>
-9.4259

> <Gold.Chemscore.Internal_Hbond.Weighted>
0.0000

> <Gold.Chemscore.DEClash.Weighted>
0.7209

> <Gold.Chemscore.DEInternal.Weighted>
1.6301

> <Gold.Chemscore.Rot.Weighted>
4.2828

> <Gold.Chemscore.Internal.Correction.Weighted>
   9.000000E+99

> <Gold.Protein.RotatedTorsions>
[ 6907 6896 6895 6894 ] final   80.30 input  -60.11 | X-H torsion
[ 7974 7965 7964 7962 ] final -119.64 input  175.53 | X-H torsion
[ 8008 7997 7996 7995 ] final -156.20 input   59.86 | X-H torsion
[ 10167 10162 10161 10158 ] final   95.89 input  -65.29 | X-H torsion
[ 10718 10713 10712 10709 ] final  -85.32 input   66.30 | X-H torsion
[ 10763 10752 10751 10750 ] final  165.66 input  -60.55 | X-H torsion
[ 11005 11000 10999 10996 ] final -151.12 input  -57.11 | X-H torsion

> <Gold.Protein.ActiveResidues>
 VAL166  LYS551  ARG553  GLY616  TRP617  ASP618  TYR619  PRO620  LYS621  CYS622 
 ASP623  PHE694  ASN695  SER759  ASP760  ASP761  ALA762  ILE779  LEU786  VAL792 
 PHE793  MET794  SER795  GLU796  ALA797  LYS798  CYS799  TRP800  GLU811  SER814 

> <Gold.Protein.RotatedAtoms>
  152.5230  134.3379  159.9206 H   0  0  0  0  0  0  0  0  0  0  0  0  # atno 6907 bound_to 6896
  151.3328  133.3987  159.2672 H   0  0  0  0  0  0  0  0  0  0  0  0  # atno 6908 bound_to 6896
  150.9866  134.9228  159.7933 H   0  0  0  0  0  0  0  0  0  0  0  0  # atno 6909 bound_to 6896
  145.0603  140.8285  143.4156 H   0  0  0  0  0  0  0  0  0  0  0  0  # atno 7974 bound_to 7965
  155.7136  140.0781  157.2360 H   0  0  0  0  0  0  0  0  0  0  0  0  # atno 8008 bound_to 7997
  154.4055  140.1625  156.2377 H   0  0  0  0  0  0  0  0  0  0  0  0  # atno 8009 bound_to 7997
  155.9260  140.3394  155.6214 H   0  0  0  0  0  0  0  0  0  0  0  0  # atno 8010 bound_to 7997
  139.7946  144.6838  150.9847 H   0  0  0  0  0  0  0  0  0  0  0  0  # atno 10167 bound_to 10162
  155.9998  130.4727  150.4545 H   0  0  0  0  0  0  0  0  0  0  0  0  # atno 10718 bound_to 10713
  154.3274  135.2755  155.2489 H   0  0  0  0  0  0  0  0  0  0  0  0  # atno 10763 bound_to 10752
  154.4816  135.5857  153.6397 H   0  0  0  0  0  0  0  0  0  0  0  0  # atno 10764 bound_to 10752
  152.9870  135.6113  154.3463 H   0  0  0  0  0  0  0  0  0  0  0  0  # atno 10765 bound_to 10752
  140.7330  134.3600  157.5163 H   0  0  0  0  0  0  0  0  0  0  0  0  # atno 11005 bound_to 11000
  145.1417  139.2568  143.5487 LP  0  0  0  0  0  0  0  0  0  0  0  0  # atno 17320 bound_to 7965
  146.3524  140.1096  142.8604 LP  0  0  0  0  0  0  0  0  0  0  0  0  # atno 17321 bound_to 7965
  140.7820  143.4345  151.0644 LP  0  0  0  0  0  0  0  0  0  0  0  0  # atno 17342 bound_to 10162
  139.8020  143.8070  152.3164 LP  0  0  0  0  0  0  0  0  0  0  0  0  # atno 17343 bound_to 10162
  157.2575  131.0559  151.2341 LP  0  0  0  0  0  0  0  0  0  0  0  0  # atno 17370 bound_to 10713
  157.3468  130.7061  149.6415 LP  0  0  0  0  0  0  0  0  0  0  0  0  # atno 17371 bound_to 10713
  139.8822  134.9030  156.2846 LP  0  0  0  0  0  0  0  0  0  0  0  0  # atno 17394 bound_to 11000
  140.9904  133.7212  156.0806 LP  0  0  0  0  0  0  0  0  0  0  0  0  # atno 17395 bound_to 11000

$$$$
