AV-unprocessed.smi:816|AV-procd|sdf|3826|dock10
  -GOLD-   22720 1263D 1   1.00000     0.00000
 Structure written by MMmdl.
 40 41  0  0  0  0  0  0  0  0  1 V2000
  148.2084  135.3965  155.0568 C   0  0  0  0  0  0  0  0  0  0  0  0
  148.9825  136.0349  156.1784 C   0  0  0  0  0  0  0  0  0  0  0  0
  150.1045  136.5940  155.8636 N   0  0  0  0  0  0  0  0  0  0  0  0
  150.8940  137.2087  156.8157 N   0  0  0  0  0  0  0  0  0  0  0  0
  152.1378  137.7766  156.2838 C   0  0  0  0  0  0  0  0  0  0  0  0
  151.9398  139.2302  155.7969 C   0  0  2  0  0  0  0  0  0  0  0  0
  153.0520  139.6082  155.0110 O   0  0  0  0  0  0  0  0  0  0  0  0
  151.8518  140.2288  156.9609 C   0  0  0  0  0  0  0  0  0  0  0  0
  152.9953  140.0644  157.7898 O   0  0  0  0  0  0  0  0  0  0  0  0
  153.0447  140.7557  158.9808 C   0  0  0  0  0  0  0  0  0  0  0  0
  153.8084  140.1856  160.0198 C   0  0  0  0  0  0  0  0  0  0  0  0
  153.9183  140.8249  161.2699 C   0  0  0  0  0  0  0  0  0  0  0  0
  153.2593  142.0494  161.4952 C   0  0  0  0  0  0  0  0  0  0  0  0
  153.3704  142.7129  162.7835 C   0  0  0  0  0  0  0  0  0  0  0  0
  153.4588  143.2410  163.8092 N   0  0  0  0  0  0  0  0  0  0  0  0
  152.4907  142.6280  160.4658 C   0  0  0  0  0  0  0  0  0  0  0  0
  152.3821  141.9870  159.2163 C   0  0  0  0  0  0  0  0  0  0  0  0
  150.5978  137.2770  158.1443 C   0  0  0  0  0  0  0  0  0  0  0  0
  151.3449  137.8144  158.9631 O   0  0  0  0  0  0  0  0  0  0  0  0
  149.3216  136.6486  158.4936 C   0  0  0  0  0  0  0  0  0  0  0  0
  148.9669  136.7066  159.8751 C   0  0  0  0  0  0  0  0  0  0  0  0
  148.6880  136.7713  160.9968 N   0  0  0  0  0  0  0  0  0  0  0  0
  148.5321  136.0503  157.5665 C   0  0  0  0  0  0  0  0  0  0  0  0
  147.2006  135.3808  157.8779 C   0  0  0  0  0  0  0  0  0  0  0  0
  147.2630  135.9147  154.8971 H   0  0  0  0  0  0  0  0  0  0  0  0
  147.9895  134.3524  155.2801 H   0  0  0  0  0  0  0  0  0  0  0  0
  148.7610  135.4201  154.1163 H   0  0  0  0  0  0  0  0  0  0  0  0
  152.8812  137.7584  157.0833 H   0  0  0  0  0  0  0  0  0  0  0  0
  152.5689  137.1490  155.5012 H   0  0  0  0  0  0  0  0  0  0  0  0
  151.0386  139.3184  155.1882 H   0  0  0  0  0  0  0  0  0  0  0  0
  152.8118  139.5415  154.0989 H   0  0  0  0  0  0  0  0  0  0  0  0
  151.7917  141.2486  156.5762 H   0  0  0  0  0  0  0  0  0  0  0  0
  150.9527  140.0332  157.5482 H   0  0  0  0  0  0  0  0  0  0  0  0
  154.3179  139.2471  159.8561 H   0  0  0  0  0  0  0  0  0  0  0  0
  154.5105  140.3700  162.0510 H   0  0  0  0  0  0  0  0  0  0  0  0
  151.9797  143.5664  160.6273 H   0  0  0  0  0  0  0  0  0  0  0  0
  151.7827  142.4610  158.4541 H   0  0  0  0  0  0  0  0  0  0  0  0
  146.9096  135.5056  158.9206 H   0  0  0  0  0  0  0  0  0  0  0  0
  147.2569  134.3104  157.6777 H   0  0  0  0  0  0  0  0  0  0  0  0
  146.4039  135.8047  157.2658 H   0  0  0  0  0  0  0  0  0  0  0  0
  1  2  1  0  0  0  0
  1 25  1  0  0  0  0
  1 26  1  0  0  0  0
  1 27  1  0  0  0  0
  2 23  1  0  0  0  0
  2  3  2  0  0  0  0
  3  4  1  0  0  0  0
  4  5  1  0  0  0  0
  4 18  1  0  0  0  0
  5  6  1  0  0  0  0
  5 28  1  0  0  0  0
  5 29  1  0  0  0  0
  6  7  1  0  0  0  0
  6  8  1  0  0  0  0
  6 30  1  0  0  0  0
  7 31  1  0  0  0  0
  8  9  1  0  0  0  0
  8 32  1  0  0  0  0
  8 33  1  0  0  0  0
  9 10  1  0  0  0  0
 10 17  1  0  0  0  0
 10 11  2  0  0  0  0
 11 12  1  0  0  0  0
 11 34  1  0  0  0  0
 12 13  2  0  0  0  0
 12 35  1  0  0  0  0
 13 14  1  0  0  0  0
 13 16  1  0  0  0  0
 14 15  3  0  0  0  0
 16 17  2  0  0  0  0
 16 36  1  0  0  0  0
 17 37  1  0  0  0  0
 18 19  2  0  0  0  0
 18 20  1  0  0  0  0
 20 21  1  0  0  0  0
 20 23  2  0  0  0  0
 21 22  3  0  0  0  0
 23 24  1  0  0  0  0
 24 38  1  0  0  0  0
 24 39  1  0  0  0  0
 24 40  1  0  0  0  0
M  END
> <s_m_source_file>
AV-unprocessed.smi

> <i_m_source_file_index>
816

> <i_lp_mmshare_version>
43012

> <i_f3d_flags>
0

> <s_epik_input>
TiNDYyhjMVtDSDNdKWMoPU8pbihuYzFbQ0gzXSlbQ0gyXVtDQEhdKFtPSF0pW0NIMl1PYzJbY0hdW2NIXWMoQyNOKVtjSF1bY0hdMg==

> <s_epik_cmdline>
J2VwaWtfcHl0aG9uJywgJy1waCcsICc3LjAnLCAnLXRuJywgJzgnLCAnLW1hJywgJzIwMCcsICctbWV0YWxfYmluZGluZycsICctaW1hZScsICc8aW5maWxlLm1hZT4nLCAnLW9tYWUnLCAnPG91dGZpbGUubWFlPic=

> <r_lp_tautomer_probability>
1

> <r_epik_Ionization_Penalty>
1.1732e-07

> <r_epik_Ionization_Penalty_Charging>
1.4567e-10

> <r_epik_Ionization_Penalty_Neutral>
1.17174e-07

> <r_epik_State_Penalty>
-0

> <r_epik_Charging_Adjusted_Penalty>
1.4567e-10

> <i_epik_Tot_Q>
0

> <i_epik_Tot_abs_Q>
0

> <r_epik_Metal_State_Penalty>
-0

> <b_epik_Metal_Only>
0

> <s_lp_Force_Field>
OPLS_2005

> <r_lp_Energy>
30.0039

> <b_lp_Chiralities_Consistent>
1

> <s_lp_Variant>
AV-unprocessed.smi:816-1

> <Gold.Version>
5.8.1

> <Gold.Id.Protein>
6NUR|6NUR_protein|mol2

> <Gold.PLP.Fitness>
44.5978

> <Gold.PLP.PLP>
-39.1634

> <Gold.PLP.part.hbond>
-4.1715

> <Gold.PLP.part.metal>
0.0000

> <Gold.PLP.part.buried>
-5.3169

> <Gold.PLP.part.nonpolar>
-29.3790

> <Gold.PLP.part.repulsive>
0.1916

> <Gold.PLP.ligand.clash>
0.0000

> <Gold.PLP.ligand.torsion>
0.8796

> <Gold.PLP.Chemscore.Hbond>
2.3920

> <Gold.PLP.Chemscore.CHOScore>
0.0000

> <Gold.PLP.Chemscore.Metal>
0.0000

> <Gold.Chemscore.Hbonds>
donor molecule, donor type, donor heavy atom, donor atom, acceptor molecule, acceptor atom, score
      P1  H  6931  6943       L1    22  1.00
      P1  H  7997  8008       L1     7  0.96
      P1  H  7997  8010       L1     9  0.40

> <Gold.PLP.Chemscore.Internal.Correction>
0.0176

> <Gold.Rescore>
     Score         DG    S(hbond)    S(metal)    S(lipo)     H(rot)  DE(clash)    DE(int)     intcor
     14.78     -15.62       2.04        0.00      85.84       2.62       0.05       0.79       ----

> <Gold.Chemscore.Fitness>
14.7823

> <Gold.Chemscore.DG>
-15.6222

> <Gold.Chemscore.ZeroCoef>
-5.4800

> <Gold.Chemscore.Hbond>
2.0393

> <Gold.Chemscore.Metal>
0.0000

> <Gold.Chemscore.Lipo>
85.8427

> <Gold.Chemscore.Internal_Hbond>
0.0000

> <Gold.Chemscore.DEClash>
0.0456

> <Gold.Chemscore.DEInternal>
0.7943

> <Gold.Chemscore.Rot>
2.6222

> <Gold.Chemscore.Internal.Correction>
   9.000000E+99

> <Gold.Chemscore.Hbonds>
donor molecule, donor type, donor heavy atom, donor atom, acceptor molecule, acceptor atom, score
      P1  H  6931  6943       L1    22  0.94
      P1  H  7997  8008       L1     7  0.92
      P1  H  7997  8010       L1     9  0.11

> <Gold.Chemscore.Hbond.Weighted>
-6.8113

> <Gold.Chemscore.Metal.Weighted>
-0.0000

> <Gold.Chemscore.Lipo.Weighted>
-10.0436

> <Gold.Chemscore.Internal_Hbond.Weighted>
0.0000

> <Gold.Chemscore.DEClash.Weighted>
0.0456

> <Gold.Chemscore.DEInternal.Weighted>
0.7943

> <Gold.Chemscore.Rot.Weighted>
6.7127

> <Gold.Chemscore.Internal.Correction.Weighted>
   9.000000E+99

> <Gold.Protein.RotatedTorsions>
[ 6907 6896 6895 6894 ] final -132.62 input  -60.11 | X-H torsion
[ 7974 7965 7964 7962 ] final  104.83 input  175.53 | X-H torsion
[ 8008 7997 7996 7995 ] final    6.72 input   59.86 | X-H torsion
[ 10167 10162 10161 10158 ] final -153.92 input  -65.29 | X-H torsion
[ 10718 10713 10712 10709 ] final -125.55 input   66.30 | X-H torsion
[ 10763 10752 10751 10750 ] final  169.12 input  -60.55 | X-H torsion
[ 11005 11000 10999 10996 ] final   40.18 input  -57.11 | X-H torsion

> <Gold.Protein.ActiveResidues>
 VAL166  LYS551  ARG553  GLY616  TRP617  ASP618  TYR619  PRO620  LYS621  CYS622 
 ASP623  PHE694  ASN695  SER759  ASP760  ASP761  ALA762  ILE779  LEU786  VAL792 
 PHE793  MET794  SER795  GLU796  ALA797  LYS798  CYS799  TRP800  GLU811  SER814 

> <Gold.Protein.RotatedAtoms>
  150.9644  133.6410  159.2748 H   0  0  0  0  0  0  0  0  0  0  0  0  # atno 6907 bound_to 6896
  151.3721  135.0923  159.9478 H   0  0  0  0  0  0  0  0  0  0  0  0  # atno 6908 bound_to 6896
  152.5160  133.9197  159.7583 H   0  0  0  0  0  0  0  0  0  0  0  0  # atno 6909 bound_to 6896
  145.3277  139.2495  143.3678 H   0  0  0  0  0  0  0  0  0  0  0  0  # atno 7974 bound_to 7965
  154.7446  140.2755  155.6344 H   0  0  0  0  0  0  0  0  0  0  0  0  # atno 8008 bound_to 7997
  156.2882  140.2690  156.2109 H   0  0  0  0  0  0  0  0  0  0  0  0  # atno 8009 bound_to 7997
  155.0214  140.0371  157.2428 H   0  0  0  0  0  0  0  0  0  0  0  0  # atno 8010 bound_to 7997
  139.7056  143.9191  152.2447 H   0  0  0  0  0  0  0  0  0  0  0  0  # atno 10167 bound_to 10162
  156.1685  130.6651  151.0148 H   0  0  0  0  0  0  0  0  0  0  0  0  # atno 10718 bound_to 10713
  154.3785  135.2753  155.2225 H   0  0  0  0  0  0  0  0  0  0  0  0  # atno 10763 bound_to 10752
  154.4342  135.5970  153.6091 H   0  0  0  0  0  0  0  0  0  0  0  0  # atno 10764 bound_to 10752
  152.9835  135.6003  154.4025 H   0  0  0  0  0  0  0  0  0  0  0  0  # atno 10765 bound_to 10752
  140.1956  134.3933  155.8123 H   0  0  0  0  0  0  0  0  0  0  0  0  # atno 11005 bound_to 11000
  146.3058  140.3848  142.8688 LP  0  0  0  0  0  0  0  0  0  0  0  0  # atno 17320 bound_to 7965
  144.8889  140.7498  143.5939 LP  0  0  0  0  0  0  0  0  0  0  0  0  # atno 17321 bound_to 7965
  139.9046  144.6892  150.8628 LP  0  0  0  0  0  0  0  0  0  0  0  0  # atno 17342 bound_to 10162
  140.7721  143.3488  151.2056 LP  0  0  0  0  0  0  0  0  0  0  0  0  # atno 17343 bound_to 10162
  157.6786  131.0844  150.7430 LP  0  0  0  0  0  0  0  0  0  0  0  0  # atno 17370 bound_to 10713
  156.7490  130.4763  149.5461 LP  0  0  0  0  0  0  0  0  0  0  0  0  # atno 17371 bound_to 10713
  141.2227  133.7068  156.8170 LP  0  0  0  0  0  0  0  0  0  0  0  0  # atno 17394 bound_to 11000
  140.2111  134.8827  157.3275 LP  0  0  0  0  0  0  0  0  0  0  0  0  # atno 17395 bound_to 11000

$$$$
