AV-unprocessed.smi:755|AV-procd|sdf|3611|dock3
  -GOLD-   22720 1 03D 1   1.00000     0.00000
 Structure written by MMmdl.
 33 34  0  0  0  0  0  0  0  0  1 V2000
  152.8487  139.3589  155.0688 O   0  0  0  0  0  0  0  0  0  0  0  0
  151.7828  138.8579  155.4258 C   0  0  0  0  0  0  0  0  0  0  0  0
  151.0754  137.8438  154.5243 C   0  0  0  0  0  0  0  0  0  0  0  0
  150.7984  136.6045  155.2298 N   0  0  0  0  0  0  0  0  0  0  0  0
  149.6747  135.8048  155.1410 C   0  0  0  0  0  0  0  0  0  0  0  0
  149.8982  134.7690  155.9957 C   0  0  0  0  0  0  0  0  0  0  0  0
  148.8393  133.4452  156.3130 Cl  0  0  0  0  0  0  0  0  0  0  0  0
  151.1733  134.9938  156.5737 C   0  0  0  0  0  0  0  0  0  0  0  0
  151.7127  136.1096  156.1044 N   0  0  0  0  0  0  0  0  0  0  0  0
  151.1860  139.1436  156.5941 N   0  0  0  0  0  0  0  0  0  0  0  0
  151.7063  140.0581  157.6080 C   0  0  0  0  0  0  0  0  0  0  0  0
  151.4454  141.5392  157.2785 C   0  0  0  0  0  0  0  0  0  0  0  0
  150.8536  141.8436  156.2411 O   0  0  0  0  0  0  0  0  0  0  0  0
  151.8942  142.4714  158.1444 N   0  0  0  0  0  0  0  0  0  0  0  0
  151.7430  143.9187  157.9967 C   0  0  0  0  0  0  0  0  0  0  0  0
  152.1934  144.5201  159.3284 C   0  0  0  0  0  0  0  0  0  0  0  0
  153.1465  143.4817  159.9038 C   0  0  0  0  0  0  0  0  0  0  0  0
  152.6081  142.1506  159.3788 C   0  0  0  0  0  0  0  0  0  0  0  0
  150.1323  138.2574  154.1645 H   0  0  0  0  0  0  0  0  0  0  0  0
  151.6912  137.6380  153.6474 H   0  0  0  0  0  0  0  0  0  0  0  0
  148.8399  136.0386  154.4967 H   0  0  0  0  0  0  0  0  0  0  0  0
  151.7121  134.4019  157.2988 H   0  0  0  0  0  0  0  0  0  0  0  0
  150.3144  138.6789  156.8045 H   0  0  0  0  0  0  0  0  0  0  0  0
  151.2853  139.8104  158.5838 H   0  0  0  0  0  0  0  0  0  0  0  0
  152.7825  139.9006  157.6800 H   0  0  0  0  0  0  0  0  0  0  0  0
  152.3882  144.2634  157.1874 H   0  0  0  0  0  0  0  0  0  0  0  0
  150.7174  144.2081  157.7634 H   0  0  0  0  0  0  0  0  0  0  0  0
  152.6546  145.5015  159.2148 H   0  0  0  0  0  0  0  0  0  0  0  0
  151.3330  144.6298  159.9900 H   0  0  0  0  0  0  0  0  0  0  0  0
  154.1499  143.6511  159.5106 H   0  0  0  0  0  0  0  0  0  0  0  0
  153.2038  143.5156  160.9922 H   0  0  0  0  0  0  0  0  0  0  0  0
  151.9052  141.7147  160.0904 H   0  0  0  0  0  0  0  0  0  0  0  0
  153.4140  141.4332  159.2151 H   0  0  0  0  0  0  0  0  0  0  0  0
  1  2  2  0  0  0  0
  2  3  1  0  0  0  0
  2 10  1  0  0  0  0
  3  4  1  0  0  0  0
  3 19  1  0  0  0  0
  3 20  1  0  0  0  0
  4  9  1  0  0  0  0
  4  5  1  0  0  0  0
  5  6  2  0  0  0  0
  5 21  1  0  0  0  0
  6  7  1  0  0  0  0
  6  8  1  0  0  0  0
  8  9  2  0  0  0  0
  8 22  1  0  0  0  0
 10 11  1  0  0  0  0
 10 23  1  0  0  0  0
 11 12  1  0  0  0  0
 11 24  1  0  0  0  0
 11 25  1  0  0  0  0
 12 13  2  0  0  0  0
 12 14  1  0  0  0  0
 14 18  1  0  0  0  0
 14 15  1  0  0  0  0
 15 16  1  0  0  0  0
 15 26  1  0  0  0  0
 15 27  1  0  0  0  0
 16 17  1  0  0  0  0
 16 28  1  0  0  0  0
 16 29  1  0  0  0  0
 17 18  1  0  0  0  0
 17 30  1  0  0  0  0
 17 31  1  0  0  0  0
 18 32  1  0  0  0  0
 18 33  1  0  0  0  0
M  END
> <s_m_source_file>
AV-unprocessed.smi

> <i_m_source_file_index>
755

> <i_lp_mmshare_version>
43012

> <i_f3d_flags>
0

> <s_epik_input>
bjFbY0hdYyhDbClbY0hdbjFbQ0gyXUMoPU8pW05IXVtDSDJdQyg9TylOMltDSDJdW0NIMl1bQ0gyXVtDSDJdMg==

> <s_epik_cmdline>
J2VwaWtfcHl0aG9uJywgJy1waCcsICc3LjAnLCAnLXRuJywgJzgnLCAnLW1hJywgJzIwMCcsICctbWV0YWxfYmluZGluZycsICctaW1hZScsICc8aW5maWxlLm1hZT4nLCAnLW9tYWUnLCAnPG91dGZpbGUubWFlPic=

> <r_lp_tautomer_probability>
1

> <r_epik_Ionization_Penalty>
4.35059e-07

> <r_epik_Ionization_Penalty_Charging>
0

> <r_epik_Ionization_Penalty_Neutral>
4.35059e-07

> <r_epik_State_Penalty>
-0

> <r_epik_Charging_Adjusted_Penalty>
0

> <i_epik_Tot_Q>
0

> <i_epik_Tot_abs_Q>
0

> <r_epik_Metal_State_Penalty>
-0

> <b_epik_Metal_Only>
0

> <s_lp_Force_Field>
OPLS_2005

> <r_lp_Energy>
27.1331

> <b_lp_Chiralities_Consistent>
1

> <s_lp_Variant>
AV-unprocessed.smi:755-1

> <Gold.Version>
5.8.1

> <Gold.Id.Protein>
6NUR|6NUR_protein|mol2

> <Gold.PLP.Fitness>
44.2862

> <Gold.PLP.PLP>
-36.2949

> <Gold.PLP.part.hbond>
-2.3480

> <Gold.PLP.part.metal>
0.0000

> <Gold.PLP.part.buried>
-5.3531

> <Gold.PLP.part.nonpolar>
-29.6723

> <Gold.PLP.part.repulsive>
0.1588

> <Gold.PLP.ligand.clash>
0.0000

> <Gold.PLP.ligand.torsion>
0.4738

> <Gold.PLP.Chemscore.Hbond>
1.9760

> <Gold.PLP.Chemscore.CHOScore>
1.0000

> <Gold.PLP.Chemscore.Metal>
0.0000

> <Gold.Chemscore.Hbonds>
donor molecule, donor type, donor heavy atom, donor atom, acceptor molecule, acceptor atom, score
      P1  H  7997  8010       L1     1  0.89
      P1  H 10752 10763       L1     9  1.00
      L1  C     5    21       P1  7948  0.67

> <Gold.PLP.Chemscore.Internal.Correction>
0.0109

> <Gold.Rescore>
     Score         DG    S(hbond)    S(metal)    S(lipo)     H(rot)  DE(clash)    DE(int)     intcor
     15.70     -16.09       1.94        0.00      74.57       1.80       0.05       0.35       ----

> <Gold.Chemscore.Fitness>
15.6957

> <Gold.Chemscore.DG>
-16.0910

> <Gold.Chemscore.ZeroCoef>
-5.4800

> <Gold.Chemscore.Hbond>
1.9433

> <Gold.Chemscore.Metal>
0.0000

> <Gold.Chemscore.Lipo>
74.5744

> <Gold.Chemscore.Internal_Hbond>
0.0000

> <Gold.Chemscore.DEClash>
0.0485

> <Gold.Chemscore.DEInternal>
0.3468

> <Gold.Chemscore.Rot>
1.7988

> <Gold.Chemscore.Internal.Correction>
   9.000000E+99

> <Gold.Chemscore.Hbonds>
donor molecule, donor type, donor heavy atom, donor atom, acceptor molecule, acceptor atom, score
      P1  H  7997  8010       L1     1  0.82
      P1  H 10752 10763       L1     9  0.24

> <Gold.Chemscore.Hbond.Weighted>
-6.4906

> <Gold.Chemscore.Metal.Weighted>
-0.0000

> <Gold.Chemscore.Lipo.Weighted>
-8.7252

> <Gold.Chemscore.Internal_Hbond.Weighted>
0.0000

> <Gold.Chemscore.DEClash.Weighted>
0.0485

> <Gold.Chemscore.DEInternal.Weighted>
0.3468

> <Gold.Chemscore.Rot.Weighted>
4.6048

> <Gold.Chemscore.Internal.Correction.Weighted>
   9.000000E+99

> <Gold.Protein.RotatedTorsions>
[ 6907 6896 6895 6894 ] final   41.47 input  -60.11 | X-H torsion
[ 7974 7965 7964 7962 ] final  -58.54 input  175.53 | X-H torsion
[ 8008 7997 7996 7995 ] final   78.84 input   59.86 | X-H torsion
[ 10167 10162 10161 10158 ] final -165.41 input  -65.29 | X-H torsion
[ 10718 10713 10712 10709 ] final  -87.05 input   66.30 | X-H torsion
[ 10763 10752 10751 10750 ] final   96.36 input  -60.55 | X-H torsion
[ 11005 11000 10999 10996 ] final -145.43 input  -57.11 | X-H torsion

> <Gold.Protein.ActiveResidues>
 VAL166  LYS551  ARG553  GLY616  TRP617  ASP618  TYR619  PRO620  LYS621  CYS622 
 ASP623  PHE694  ASN695  SER759  ASP760  ASP761  ALA762  ILE779  LEU786  VAL792 
 PHE793  MET794  SER795  GLU796  ALA797  LYS798  CYS799  TRP800  GLU811  SER814 

> <Gold.Protein.RotatedAtoms>
  152.1957  134.8632  160.0512 H   0  0  0  0  0  0  0  0  0  0  0  0  # atno 6907 bound_to 6896
  151.9504  133.3659  159.4006 H   0  0  0  0  0  0  0  0  0  0  0  0  # atno 6908 bound_to 6896
  150.6944  134.4270  159.5275 H   0  0  0  0  0  0  0  0  0  0  0  0  # atno 6909 bound_to 6896
  145.8381  140.8435  143.0049 H   0  0  0  0  0  0  0  0  0  0  0  0  # atno 7974 bound_to 7965
  155.8613  140.3453  155.5758 H   0  0  0  0  0  0  0  0  0  0  0  0  # atno 8008 bound_to 7997
  155.7930  140.0874  157.2018 H   0  0  0  0  0  0  0  0  0  0  0  0  # atno 8009 bound_to 7997
  154.4012  140.1479  156.3172 H   0  0  0  0  0  0  0  0  0  0  0  0  # atno 8010 bound_to 7997
  139.6184  144.0674  152.1909 H   0  0  0  0  0  0  0  0  0  0  0  0  # atno 10167 bound_to 10162
  155.9987  130.4786  150.4808 H   0  0  0  0  0  0  0  0  0  0  0  0  # atno 10718 bound_to 10713
  153.2641  135.4221  155.0923 H   0  0  0  0  0  0  0  0  0  0  0  0  # atno 10763 bound_to 10752
  154.8431  135.3456  154.6337 H   0  0  0  0  0  0  0  0  0  0  0  0  # atno 10764 bound_to 10752
  153.6757  135.7041  153.5190 H   0  0  0  0  0  0  0  0  0  0  0  0  # atno 10765 bound_to 10752
  140.7923  134.2954  157.5009 H   0  0  0  0  0  0  0  0  0  0  0  0  # atno 11005 bound_to 11000
  144.6735  140.0771  143.7471 LP  0  0  0  0  0  0  0  0  0  0  0  0  # atno 17320 bound_to 7965
  145.9496  139.2724  143.1220 LP  0  0  0  0  0  0  0  0  0  0  0  0  # atno 17321 bound_to 7965
  140.0309  144.6081  150.7488 LP  0  0  0  0  0  0  0  0  0  0  0  0  # atno 17342 bound_to 10162
  140.7366  143.2755  151.3756 LP  0  0  0  0  0  0  0  0  0  0  0  0  # atno 17343 bound_to 10162
  157.2813  131.0607  151.2195 LP  0  0  0  0  0  0  0  0  0  0  0  0  # atno 17370 bound_to 10713
  157.3241  130.6952  149.6286 LP  0  0  0  0  0  0  0  0  0  0  0  0  # atno 17371 bound_to 10713
  139.8730  134.9382  156.3707 LP  0  0  0  0  0  0  0  0  0  0  0  0  # atno 17394 bound_to 11000
  140.9377  133.7536  156.0106 LP  0  0  0  0  0  0  0  0  0  0  0  0  # atno 17395 bound_to 11000

$$$$
