AV-unprocessed.smi:2269|AV-procd|sdf|9153|dock8
  -GOLD-   2272012363D 1   1.00000     0.00000
 Structure written by MMmdl.
 41 42  0  0  0  0  0  0  0  0  1 V2000
  145.9974  136.4867  150.3079 C   0  0  0  0  0  0  0  0  0  0  0  0
  146.4551  137.5867  151.2496 C   0  0  0  0  0  0  0  0  0  0  0  0
  146.9482  138.7415  150.6348 N   0  0  0  0  0  0  0  0  0  0  0  0
  147.3586  139.7315  151.3579 C   0  0  0  0  0  0  0  0  0  0  0  0
  147.3229  139.6844  152.7606 N   0  0  0  0  0  0  0  0  0  0  0  0
  147.8239  140.8747  153.4657 C   0  0  0  0  0  0  0  0  0  0  0  0
  148.9627  140.5281  154.4527 C   0  0  1  0  0  0  0  0  0  0  0  0
  150.0976  140.1190  153.7164 O   0  0  0  0  0  0  0  0  0  0  0  0
  149.3787  141.7406  155.2976 C   0  0  0  0  0  0  0  0  0  0  0  0
  150.0077  141.2667  156.4794 O   0  0  0  0  0  0  0  0  0  0  0  0
  150.4553  142.2936  157.3515 C   0  0  0  0  0  0  0  0  0  0  0  0
  151.5263  141.8248  158.3257 C   0  0  0  0  0  0  0  0  0  0  0  0
  151.7105  140.4414  158.5377 C   0  0  0  0  0  0  0  0  0  0  0  0
  152.6937  139.9825  159.4349 C   0  0  0  0  0  0  0  0  0  0  0  0
  153.4981  140.9053  160.1288 C   0  0  0  0  0  0  0  0  0  0  0  0
  153.3165  142.2865  159.9263 C   0  0  0  0  0  0  0  0  0  0  0  0
  152.3333  142.7512  159.0296 C   0  0  0  0  0  0  0  0  0  0  0  0
  152.1385  144.4560  158.8162 Cl  0  0  0  0  0  0  0  0  0  0  0  0
  146.8665  138.5933  153.4412 C   0  0  0  0  0  0  0  0  0  0  0  0
  146.8555  138.5569  154.6732 O   0  0  0  0  0  0  0  0  0  0  0  0
  146.3995  137.4757  152.6051 C   0  0  0  0  0  0  0  0  0  0  0  0
  145.8745  136.2423  153.3298 C   0  0  0  0  0  0  0  0  0  0  0  0
  146.5744  135.5767  150.4743 H   0  0  0  0  0  0  0  0  0  0  0  0
  146.1263  136.7777  149.2646 H   0  0  0  0  0  0  0  0  0  0  0  0
  144.9414  136.2651  150.4641 H   0  0  0  0  0  0  0  0  0  0  0  0
  147.7568  140.6526  150.9285 H   0  0  0  0  0  0  0  0  0  0  0  0
  148.1345  141.6641  152.7776 H   0  0  0  0  0  0  0  0  0  0  0  0
  146.9894  141.3212  154.0090 H   0  0  0  0  0  0  0  0  0  0  0  0
  148.6760  139.7161  155.1225 H   0  0  0  0  0  0  0  0  0  0  0  0
  149.9095  139.2856  153.3125 H   0  0  0  0  0  0  0  0  0  0  0  0
  150.0861  142.3647  154.7492 H   0  0  0  0  0  0  0  0  0  0  0  0
  148.5070  142.3558  155.5260 H   0  0  0  0  0  0  0  0  0  0  0  0
  150.8779  143.0935  156.7430 H   0  0  0  0  0  0  0  0  0  0  0  0
  149.6081  142.7303  157.8825 H   0  0  0  0  0  0  0  0  0  0  0  0
  151.0993  139.7244  158.0095 H   0  0  0  0  0  0  0  0  0  0  0  0
  152.8304  138.9224  159.5905 H   0  0  0  0  0  0  0  0  0  0  0  0
  154.2527  140.5543  160.8173 H   0  0  0  0  0  0  0  0  0  0  0  0
  153.9338  142.9919  160.4628 H   0  0  0  0  0  0  0  0  0  0  0  0
  145.0239  136.5093  153.9576 H   0  0  0  0  0  0  0  0  0  0  0  0
  146.6507  135.8252  153.9719 H   0  0  0  0  0  0  0  0  0  0  0  0
  145.5489  135.4529  152.6545 H   0  0  0  0  0  0  0  0  0  0  0  0
  1  2  1  0  0  0  0
  1 23  1  0  0  0  0
  1 24  1  0  0  0  0
  1 25  1  0  0  0  0
  2 21  2  0  0  0  0
  2  3  1  0  0  0  0
  3  4  2  0  0  0  0
  4  5  1  0  0  0  0
  4 26  1  0  0  0  0
  5  6  1  0  0  0  0
  5 19  1  0  0  0  0
  6  7  1  0  0  0  0
  6 27  1  0  0  0  0
  6 28  1  0  0  0  0
  7  8  1  0  0  0  0
  7  9  1  0  0  0  0
  7 29  1  0  0  0  0
  8 30  1  0  0  0  0
  9 10  1  0  0  0  0
  9 31  1  0  0  0  0
  9 32  1  0  0  0  0
 10 11  1  0  0  0  0
 11 12  1  0  0  0  0
 11 33  1  0  0  0  0
 11 34  1  0  0  0  0
 12 17  1  0  0  0  0
 12 13  2  0  0  0  0
 13 14  1  0  0  0  0
 13 35  1  0  0  0  0
 14 15  2  0  0  0  0
 14 36  1  0  0  0  0
 15 16  1  0  0  0  0
 15 37  1  0  0  0  0
 16 17  2  0  0  0  0
 16 38  1  0  0  0  0
 17 18  1  0  0  0  0
 19 20  2  0  0  0  0
 19 21  1  0  0  0  0
 21 22  1  0  0  0  0
 22 39  1  0  0  0  0
 22 40  1  0  0  0  0
 22 41  1  0  0  0  0
M  END
> <s_m_source_file>
AV-unprocessed.smi

> <i_m_source_file_index>
2269

> <i_lp_mmshare_version>
43012

> <i_f3d_flags>
0

> <s_epik_input>
W0NIM11jMW5bY0hdbihjKD1PKWMxW0NIM10pW0NIMl1bQ0BIXShbT0hdKVtDSDJdT1tDSDJdYzJbY0hdW2NIXVtjSF1bY0hdYzJDbA==

> <s_epik_cmdline>
J2VwaWtfcHl0aG9uJywgJy1waCcsICc3LjAnLCAnLXRuJywgJzgnLCAnLW1hJywgJzIwMCcsICctbWV0YWxfYmluZGluZycsICctaW1hZScsICc8aW5maWxlLm1hZT4nLCAnLW9tYWUnLCAnPG91dGZpbGUubWFlPic=

> <r_lp_tautomer_probability>
1

> <r_epik_Ionization_Penalty>
5.36022e-05

> <r_epik_Ionization_Penalty_Charging>
1.17753e-07

> <r_epik_Ionization_Penalty_Neutral>
5.34845e-05

> <r_epik_State_Penalty>
-0

> <r_epik_Charging_Adjusted_Penalty>
1.17753e-07

> <i_epik_Tot_Q>
0

> <i_epik_Tot_abs_Q>
0

> <r_epik_Metal_State_Penalty>
-0

> <b_epik_Metal_Only>
0

> <s_lp_Force_Field>
OPLS_2005

> <r_lp_Energy>
21.6364

> <b_lp_Chiralities_Consistent>
1

> <s_lp_Variant>
AV-unprocessed.smi:2269-2

> <Gold.Version>
5.8.1

> <Gold.Id.Protein>
6NUR|6NUR_protein|mol2

> <Gold.PLP.Fitness>
49.9435

> <Gold.PLP.PLP>
-43.5848

> <Gold.PLP.part.hbond>
-3.0000

> <Gold.PLP.part.metal>
0.0000

> <Gold.PLP.part.buried>
1.8270

> <Gold.PLP.part.nonpolar>
-44.2113

> <Gold.PLP.part.repulsive>
1.0424

> <Gold.PLP.ligand.clash>
0.0000

> <Gold.PLP.ligand.torsion>
0.5914

> <Gold.PLP.Chemscore.Hbond>
1.8800

> <Gold.PLP.Chemscore.CHOScore>
0.5914

> <Gold.PLP.Chemscore.Metal>
0.0000

> <Gold.Chemscore.Hbonds>
donor molecule, donor type, donor heavy atom, donor atom, acceptor molecule, acceptor atom, score
      P1  H  7954  7966       L1     3  0.47
      P1  H  7989  7998       L1     8  0.77
      L1  C     4    26       P1  7957  0.17

> <Gold.PLP.Chemscore.Internal.Correction>
0.1275

> <Gold.Rescore>
     Score         DG    S(hbond)    S(metal)    S(lipo)     H(rot)  DE(clash)    DE(int)     intcor
     12.79     -15.80       1.11        0.00     111.45       2.52       1.47       1.53       ----

> <Gold.Chemscore.Fitness>
12.7937

> <Gold.Chemscore.DG>
-15.7966

> <Gold.Chemscore.ZeroCoef>
-5.4800

> <Gold.Chemscore.Hbond>
1.1134

> <Gold.Chemscore.Metal>
0.0000

> <Gold.Chemscore.Lipo>
111.4478

> <Gold.Chemscore.Internal_Hbond>
0.0000

> <Gold.Chemscore.DEClash>
1.4724

> <Gold.Chemscore.DEInternal>
1.5305

> <Gold.Chemscore.Rot>
2.5162

> <Gold.Chemscore.Internal.Correction>
   9.000000E+99

> <Gold.Chemscore.Hbonds>
donor molecule, donor type, donor heavy atom, donor atom, acceptor molecule, acceptor atom, score
      L1  H     8    30       P1  7957  0.01
      P1  H  7954  7966       L1     3  0.03
      P1  H  7989  7998       L1     8  0.74

> <Gold.Chemscore.Hbond.Weighted>
-3.7186

> <Gold.Chemscore.Metal.Weighted>
-0.0000

> <Gold.Chemscore.Lipo.Weighted>
-13.0394

> <Gold.Chemscore.Internal_Hbond.Weighted>
0.0000

> <Gold.Chemscore.DEClash.Weighted>
1.4724

> <Gold.Chemscore.DEInternal.Weighted>
1.5305

> <Gold.Chemscore.Rot.Weighted>
6.4414

> <Gold.Chemscore.Internal.Correction.Weighted>
   9.000000E+99

> <Gold.Protein.RotatedTorsions>
[ 6907 6896 6895 6894 ] final -140.75 input  -60.11 | X-H torsion
[ 7974 7965 7964 7962 ] final -125.56 input  175.53 | X-H torsion
[ 8008 7997 7996 7995 ] final  142.18 input   59.86 | X-H torsion
[ 10167 10162 10161 10158 ] final   77.88 input  -65.29 | X-H torsion
[ 10718 10713 10712 10709 ] final  152.88 input   66.30 | X-H torsion
[ 10763 10752 10751 10750 ] final  -34.38 input  -60.55 | X-H torsion
[ 11005 11000 10999 10996 ] final   47.02 input  -57.11 | X-H torsion

> <Gold.Protein.ActiveResidues>
 VAL166  LYS551  ARG553  GLY616  TRP617  ASP618  TYR619  PRO620  LYS621  CYS622 
 ASP623  PHE694  ASN695  SER759  ASP760  ASP761  ALA762  ILE779  LEU786  VAL792 
 PHE793  MET794  SER795  GLU796  ALA797  LYS798  CYS799  TRP800  GLU811  SER814 

> <Gold.Protein.RotatedAtoms>
  151.0648  133.5514  159.2631 H   0  0  0  0  0  0  0  0  0  0  0  0  # atno 6907 bound_to 6896
  151.2476  135.0610  159.9059 H   0  0  0  0  0  0  0  0  0  0  0  0  # atno 6908 bound_to 6896
  152.5403  134.0413  159.8122 H   0  0  0  0  0  0  0  0  0  0  0  0  # atno 6909 bound_to 6896
  144.9963  140.7779  143.4523 H   0  0  0  0  0  0  0  0  0  0  0  0  # atno 7974 bound_to 7965
  156.2954  140.2295  156.4686 H   0  0  0  0  0  0  0  0  0  0  0  0  # atno 8008 bound_to 7997
  154.7955  140.0451  157.1254 H   0  0  0  0  0  0  0  0  0  0  0  0  # atno 8009 bound_to 7997
  154.9594  140.3052  155.5041 H   0  0  0  0  0  0  0  0  0  0  0  0  # atno 8010 bound_to 7997
  139.9769  144.5855  150.7935 H   0  0  0  0  0  0  0  0  0  0  0  0  # atno 10167 bound_to 10162
  157.2520  131.0781  151.1723 H   0  0  0  0  0  0  0  0  0  0  0  0  # atno 10718 bound_to 10713
  153.8458  135.6853  153.4797 H   0  0  0  0  0  0  0  0  0  0  0  0  # atno 10763 bound_to 10752
  153.1426  135.4651  154.9517 H   0  0  0  0  0  0  0  0  0  0  0  0  # atno 10764 bound_to 10752
  154.7824  135.3273  154.7907 H   0  0  0  0  0  0  0  0  0  0  0  0  # atno 10765 bound_to 10752
  140.1317  134.4697  155.8516 H   0  0  0  0  0  0  0  0  0  0  0  0  # atno 11005 bound_to 11000
  145.2215  139.2157  143.5090 LP  0  0  0  0  0  0  0  0  0  0  0  0  # atno 17320 bound_to 7965
  146.3442  140.2074  142.8589 LP  0  0  0  0  0  0  0  0  0  0  0  0  # atno 17321 bound_to 7965
  140.7503  143.2953  151.3222 LP  0  0  0  0  0  0  0  0  0  0  0  0  # atno 17342 bound_to 10162
  139.6439  144.0487  152.2576 LP  0  0  0  0  0  0  0  0  0  0  0  0  # atno 17343 bound_to 10162
  157.3268  130.6965  149.6301 LP  0  0  0  0  0  0  0  0  0  0  0  0  # atno 17370 bound_to 10713
  155.9666  130.4319  150.4941 LP  0  0  0  0  0  0  0  0  0  0  0  0  # atno 17371 bound_to 10713
  141.2171  133.6798  156.7081 LP  0  0  0  0  0  0  0  0  0  0  0  0  # atno 17394 bound_to 11000
  140.2834  134.8298  157.3953 LP  0  0  0  0  0  0  0  0  0  0  0  0  # atno 17395 bound_to 11000

$$$$
