AV-unprocessed.smi:1445|AV-procd|sdf|5886|dock1
  -GOLD-   22720 5563D 1   1.00000     0.00000
 Structure written by MMmdl.
 46 47  0  0  0  0  0  0  0  0  2 V2000
  152.1746  138.4726  154.6151 C   0  0  0  0  0  0  0  0  0  0  0  0
  150.7971  138.3016  154.2997 O   0  0  0  0  0  0  0  0  0  0  0  0
  149.9453  139.3777  154.4617 C   0  0  0  0  0  0  0  0  0  0  0  0
  150.4663  140.5548  154.8906 N   0  0  0  0  0  0  0  0  0  0  0  0
  149.6352  141.6051  155.0516 C   0  0  0  0  0  0  0  0  0  0  0  0
  148.2519  141.5381  154.8040 C   0  0  0  0  0  0  0  0  0  0  0  0
  147.7092  140.3185  154.3590 C   0  0  0  0  0  0  0  0  0  0  0  0
  148.5716  139.2119  154.1681 C   0  0  0  0  0  0  0  0  0  0  0  0
  148.1210  137.9336  153.7381 N   0  0  0  0  0  0  0  0  0  0  0  0
  146.9634  137.3200  154.0353 C   0  0  0  0  0  0  0  0  0  0  0  0
  146.0775  137.7811  154.7554 O   0  0  0  0  0  0  0  0  0  0  0  0
  146.8681  136.1310  153.4229 N   0  0  0  0  0  0  0  0  0  0  0  0
  145.7183  135.2393  153.5230 C   0  0  0  0  0  0  0  0  0  0  0  0
  146.0957  133.7936  153.1458 C   0  0  0  0  0  0  0  0  0  0  0  0
  145.6524  133.4337  151.7760 N   0  3  2  0  0  0  0  0  0  0  0  0
  144.3843  134.1103  151.3993 C   0  0  0  0  0  0  0  0  0  0  0  0
  144.0255  133.8384  149.9300 C   0  0  0  0  0  0  0  0  0  0  0  0
  143.9461  132.3306  149.6532 C   0  0  0  0  0  0  0  0  0  0  0  0
  145.2338  131.6124  150.0973 C   0  0  1  0  0  0  0  0  0  0  0  0
  146.4180  131.8690  149.1491 C   0  0  0  0  0  0  0  0  0  0  0  0
  145.5721  131.9626  151.5611 C   0  0  0  0  0  0  0  0  0  0  0  0
  152.7050  137.5380  154.4336 H   0  0  0  0  0  0  0  0  0  0  0  0
  152.3148  138.7334  155.6650 H   0  0  0  0  0  0  0  0  0  0  0  0
  152.6343  139.2400  153.9906 H   0  0  0  0  0  0  0  0  0  0  0  0
  150.0857  142.5246  155.3952 H   0  0  0  0  0  0  0  0  0  0  0  0
  147.6209  142.4011  154.9570 H   0  0  0  0  0  0  0  0  0  0  0  0
  146.6461  140.2509  154.1876 H   0  0  0  0  0  0  0  0  0  0  0  0
  148.7105  137.4744  153.0592 H   0  0  0  0  0  0  0  0  0  0  0  0
  147.6394  135.8250  152.8475 H   0  0  0  0  0  0  0  0  0  0  0  0
  145.3516  135.2709  154.5493 H   0  0  0  0  0  0  0  0  0  0  0  0
  144.9125  135.6227  152.8964 H   0  0  0  0  0  0  0  0  0  0  0  0
  147.1705  133.6272  153.2354 H   0  0  0  0  0  0  0  0  0  0  0  0
  145.6226  133.1266  153.8681 H   0  0  0  0  0  0  0  0  0  0  0  0
  143.5801  133.7705  152.0540 H   0  0  0  0  0  0  0  0  0  0  0  0
  144.4808  135.1867  151.5472 H   0  0  0  0  0  0  0  0  0  0  0  0
  143.0722  134.3093  149.6883 H   0  0  0  0  0  0  0  0  0  0  0  0
  144.7672  134.2999  149.2772 H   0  0  0  0  0  0  0  0  0  0  0  0
  143.0976  131.9142  150.1975 H   0  0  0  0  0  0  0  0  0  0  0  0
  143.7494  132.1482  148.5961 H   0  0  0  0  0  0  0  0  0  0  0  0
  145.0364  130.5403  150.0560 H   0  0  0  0  0  0  0  0  0  0  0  0
  146.7137  132.9179  149.1394 H   0  0  0  0  0  0  0  0  0  0  0  0
  146.1686  131.5848  148.1265 H   0  0  0  0  0  0  0  0  0  0  0  0
  147.2889  131.2846  149.4468 H   0  0  0  0  0  0  0  0  0  0  0  0
  146.5092  131.4814  151.8392 H   0  0  0  0  0  0  0  0  0  0  0  0
  144.8084  131.5495  152.2224 H   0  0  0  0  0  0  0  0  0  0  0  0
  146.3567  133.7875  151.1442 H   0  0  0  0  0  0  0  0  0  0  0  0
  1  2  1  0  0  0  0
  1 22  1  0  0  0  0
  1 23  1  0  0  0  0
  1 24  1  0  0  0  0
  2  3  1  0  0  0  0
  3  8  1  0  0  0  0
  3  4  2  0  0  0  0
  4  5  1  0  0  0  0
  5  6  2  0  0  0  0
  5 25  1  0  0  0  0
  6  7  1  0  0  0  0
  6 26  1  0  0  0  0
  7  8  2  0  0  0  0
  7 27  1  0  0  0  0
  8  9  1  0  0  0  0
  9 10  1  0  0  0  0
  9 28  1  0  0  0  0
 10 11  2  0  0  0  0
 10 12  1  0  0  0  0
 12 13  1  0  0  0  0
 12 29  1  0  0  0  0
 13 14  1  0  0  0  0
 13 30  1  0  0  0  0
 13 31  1  0  0  0  0
 14 15  1  0  0  0  0
 14 32  1  0  0  0  0
 14 33  1  0  0  0  0
 15 21  1  0  0  0  0
 15 16  1  0  0  0  0
 15 46  1  0  0  0  0
 16 17  1  0  0  0  0
 16 34  1  0  0  0  0
 16 35  1  0  0  0  0
 17 18  1  0  0  0  0
 17 36  1  0  0  0  0
 17 37  1  0  0  0  0
 18 19  1  0  0  0  0
 18 38  1  0  0  0  0
 18 39  1  0  0  0  0
 19 20  1  0  0  0  0
 19 21  1  0  0  0  0
 19 40  1  0  0  0  0
 20 41  1  0  0  0  0
 20 42  1  0  0  0  0
 20 43  1  0  0  0  0
 21 44  1  0  0  0  0
 21 45  1  0  0  0  0
M  CHG  1  15   1
M  END
> <s_m_source_file>
AV-unprocessed.smi

> <i_m_source_file_index>
1445

> <i_lp_mmshare_version>
43012

> <i_f3d_flags>
0

> <s_epik_input>
W0NIM11PYzFuW2NIXVtjSF1bY0hdYzFbTkhdQyg9TylbTkhdW0NIMl1bQ0gyXU4yW0NIMl1bQ0gyXVtDSDJdW0NAQEhdKFtDSDNdKVtDSDJdMg==

> <s_epik_cmdline>
J2VwaWtfcHl0aG9uJywgJy1waCcsICc3LjAnLCAnLXRuJywgJzgnLCAnLW1hJywgJzIwMCcsICctbWV0YWxfYmluZGluZycsICctaW1hZScsICc8aW5maWxlLm1hZT4nLCAnLW9tYWUnLCAnPG91dGZpbGUubWFlPic=

> <r_lp_tautomer_probability>
1

> <r_epik_Ionization_Penalty>
0.00179544

> <r_epik_Ionization_Penalty_Charging>
0.00171832

> <r_epik_Ionization_Penalty_Neutral>
7.71118e-05

> <r_epik_State_Penalty>
0.0011618

> <r_epik_Charging_Adjusted_Penalty>
0.00288012

> <i_epik_Tot_Q>
1

> <i_epik_Tot_abs_Q>
1

> <r_epik_Metal_State_Penalty>
-0

> <b_epik_Metal_Only>
0

> <s_lp_Force_Field>
OPLS_2005

> <r_lp_Energy>
21.8434

> <b_lp_Chiralities_Consistent>
1

> <s_lp_Variant>
AV-unprocessed.smi:1445-2

> <Gold.Version>
5.8.1

> <Gold.Id.Protein>
6NUR|6NUR_protein|mol2

> <Gold.PLP.Fitness>
44.1846

> <Gold.PLP.PLP>
-34.4682

> <Gold.PLP.part.hbond>
-3.0000

> <Gold.PLP.part.metal>
0.0000

> <Gold.PLP.part.buried>
-0.7719

> <Gold.PLP.part.nonpolar>
-31.0916

> <Gold.PLP.part.repulsive>
0.3820

> <Gold.PLP.ligand.clash>
0.0000

> <Gold.PLP.ligand.torsion>
0.9562

> <Gold.PLP.Chemscore.Hbond>
2.9360

> <Gold.PLP.Chemscore.CHOScore>
0.9147

> <Gold.PLP.Chemscore.Metal>
0.0000

> <Gold.Chemscore.Hbonds>
donor molecule, donor type, donor heavy atom, donor atom, acceptor molecule, acceptor atom, score
      L1  H     9    28       P1  7948  1.00
      L1  H    12    29       P1  7948  0.99
      P1  H  7989  7998       L1     4  0.93
      L1  C     5    25       P1  8028  0.91

> <Gold.PLP.Chemscore.Internal.Correction>
0.0767

> <Gold.Rescore>
     Score         DG    S(hbond)    S(metal)    S(lipo)     H(rot)  DE(clash)    DE(int)     intcor
     16.76     -19.10       2.07        0.00      94.78       1.71       0.49       1.85       ----

> <Gold.Chemscore.Fitness>
16.7569

> <Gold.Chemscore.DG>
-19.0977

> <Gold.Chemscore.ZeroCoef>
-5.4800

> <Gold.Chemscore.Hbond>
2.0684

> <Gold.Chemscore.Metal>
0.0000

> <Gold.Chemscore.Lipo>
94.7753

> <Gold.Chemscore.Internal_Hbond>
0.0000

> <Gold.Chemscore.DEClash>
0.4901

> <Gold.Chemscore.DEInternal>
1.8507

> <Gold.Chemscore.Rot>
1.7107

> <Gold.Chemscore.Internal.Correction>
   9.000000E+99

> <Gold.Chemscore.Hbonds>
donor molecule, donor type, donor heavy atom, donor atom, acceptor molecule, acceptor atom, score
      L1  H     9    28       P1  7948  0.96
      L1  H    12    29       P1  7948  0.93
      P1  H  7989  7998       L1     4  0.15

> <Gold.Chemscore.Hbond.Weighted>
-6.9084

> <Gold.Chemscore.Metal.Weighted>
-0.0000

> <Gold.Chemscore.Lipo.Weighted>
-11.0887

> <Gold.Chemscore.Internal_Hbond.Weighted>
0.0000

> <Gold.Chemscore.DEClash.Weighted>
0.4901

> <Gold.Chemscore.DEInternal.Weighted>
1.8507

> <Gold.Chemscore.Rot.Weighted>
4.3794

> <Gold.Chemscore.Internal.Correction.Weighted>
   9.000000E+99

> <Gold.Protein.RotatedTorsions>
[ 6907 6896 6895 6894 ] final   35.33 input  -60.11 | X-H torsion
[ 7974 7965 7964 7962 ] final   58.00 input  175.53 | X-H torsion
[ 8008 7997 7996 7995 ] final  -55.15 input   59.86 | X-H torsion
[ 10167 10162 10161 10158 ] final  112.80 input  -65.29 | X-H torsion
[ 10718 10713 10712 10709 ] final -142.23 input   66.30 | X-H torsion
[ 10763 10752 10751 10750 ] final  169.83 input  -60.55 | X-H torsion
[ 11005 11000 10999 10996 ] final  111.10 input  -57.11 | X-H torsion

> <Gold.Protein.ActiveResidues>
 VAL166  LYS551  ARG553  GLY616  TRP617  ASP618  TYR619  PRO620  LYS621  CYS622 
 ASP623  PHE694  ASN695  SER759  ASP760  ASP761  ALA762  ILE779  LEU786  VAL792 
 PHE793  MET794  SER795  GLU796  ALA797  LYS798  CYS799  TRP800  GLU811  SER814 

> <Gold.Protein.RotatedAtoms>
  152.1147  134.9249  160.0565 H   0  0  0  0  0  0  0  0  0  0  0  0  # atno 6907 bound_to 6896
  152.0413  133.3974  159.4346 H   0  0  0  0  0  0  0  0  0  0  0  0  # atno 6908 bound_to 6896
  150.6845  134.3332  159.4880 H   0  0  0  0  0  0  0  0  0  0  0  0  # atno 6909 bound_to 6896
  145.9230  139.3744  143.0467 H   0  0  0  0  0  0  0  0  0  0  0  0  # atno 7974 bound_to 7965
  154.4185  140.1159  156.5431 H   0  0  0  0  0  0  0  0  0  0  0  0  # atno 8008 bound_to 7997
  155.6488  140.3496  155.4721 H   0  0  0  0  0  0  0  0  0  0  0  0  # atno 8009 bound_to 7997
  155.9810  140.1160  157.0716 H   0  0  0  0  0  0  0  0  0  0  0  0  # atno 8010 bound_to 7997
  139.6508  144.7128  151.2051 H   0  0  0  0  0  0  0  0  0  0  0  0  # atno 10167 bound_to 10162
  156.3434  130.7649  151.1790 H   0  0  0  0  0  0  0  0  0  0  0  0  # atno 10718 bound_to 10713
  154.3888  135.2754  155.2167 H   0  0  0  0  0  0  0  0  0  0  0  0  # atno 10763 bound_to 10752
  154.4242  135.5993  153.6032 H   0  0  0  0  0  0  0  0  0  0  0  0  # atno 10764 bound_to 10752
  152.9832  135.5980  154.4140 H   0  0  0  0  0  0  0  0  0  0  0  0  # atno 10765 bound_to 10752
  139.8896  134.9500  156.6381 H   0  0  0  0  0  0  0  0  0  0  0  0  # atno 11005 bound_to 11000
  145.8526  140.9520  143.0742 LP  0  0  0  0  0  0  0  0  0  0  0  0  # atno 17320 bound_to 7965
  144.6755  140.0426  143.7480 LP  0  0  0  0  0  0  0  0  0  0  0  0  # atno 17321 bound_to 7965
  140.7537  143.6153  150.8566 LP  0  0  0  0  0  0  0  0  0  0  0  0  # atno 17342 bound_to 10162
  139.9800  143.5961  152.2946 LP  0  0  0  0  0  0  0  0  0  0  0  0  # atno 17343 bound_to 10162
  157.7450  131.0448  150.4811 LP  0  0  0  0  0  0  0  0  0  0  0  0  # atno 17370 bound_to 10713
  156.4995  130.4114  149.6361 LP  0  0  0  0  0  0  0  0  0  0  0  0  # atno 17371 bound_to 10713
  140.7615  133.8814  155.8422 LP  0  0  0  0  0  0  0  0  0  0  0  0  # atno 17394 bound_to 11000
  140.9918  134.1268  157.4401 LP  0  0  0  0  0  0  0  0  0  0  0  0  # atno 17395 bound_to 11000

$$$$
