AV-unprocessed.smi:623|AV-procd|sdf|3096|dock4
  -GOLD-   22720 0 13D 1   1.00000     0.00000
 Structure written by MMmdl.
 44 46  0  0  0  0  0  0  0  0  2 V2000
  148.2746  133.2913  152.5864 C   0  0  0  0  0  0  0  0  0  0  0  0
  147.9013  132.8012  154.0139 C   0  0  0  0  0  0  0  0  0  0  0  0
  146.4488  133.3038  154.2482 C   0  0  0  0  0  0  0  0  0  0  0  0
  148.0916  131.2870  154.2352 C   0  0  1  0  0  0  0  0  0  0  0  0
  149.6123  131.0831  154.0493 C   0  0  0  0  0  0  0  0  0  0  0  0
  150.2002  132.3774  154.6501 C   0  0  0  0  0  0  0  0  0  0  0  0
  148.9357  133.1397  155.1244 C   0  0  1  0  0  0  0  0  0  0  0  0
  149.2036  134.6396  155.3620 C   0  0  0  0  0  0  0  0  0  0  0  0
  148.4388  132.3501  156.3742 C   0  0  1  0  0  0  0  0  0  0  0  0
  147.5137  133.1222  157.1947 N   0  0  0  0  0  0  0  0  0  0  0  0
  147.7869  133.7337  158.3572 C   0  0  0  0  0  0  0  0  0  0  0  0
  148.9053  133.7273  158.8702 O   0  0  0  0  0  0  0  0  0  0  0  0
  146.6263  134.4488  159.0720 C   0  0  0  0  0  0  0  0  0  0  0  0
  147.0192  135.1463  160.3115 N   0  0  0  0  0  0  0  0  0  0  0  0
  147.0826  134.3826  161.4904 C   0  0  0  0  0  0  0  0  0  0  0  0
  147.3801  134.9361  162.6813 C   0  0  0  0  0  0  0  0  0  0  0  0
  147.6424  136.3691  162.7296 C   0  0  0  0  0  0  0  0  0  0  0  0
  147.9118  136.8926  163.8087 O   0  0  0  0  0  0  0  0  0  0  0  0
  147.5726  137.0669  161.5583 N   0  5  0  0  0  0  0  0  0  0  0  0
  147.2639  136.4913  160.3552 C   0  0  0  0  0  0  0  0  0  0  0  0
  147.1850  137.1433  159.3140 O   0  0  0  0  0  0  0  0  0  0  0  0
  147.7977  131.0935  155.7406 C   0  0  0  0  0  0  0  0  0  0  0  0
  147.5895  132.8763  151.8467 H   0  0  0  0  0  0  0  0  0  0  0  0
  149.2769  133.0314  152.2543 H   0  0  0  0  0  0  0  0  0  0  0  0
  148.1981  134.3770  152.5190 H   0  0  0  0  0  0  0  0  0  0  0  0
  145.9839  132.9710  155.1717 H   0  0  0  0  0  0  0  0  0  0  0  0
  145.7920  132.9635  153.4472 H   0  0  0  0  0  0  0  0  0  0  0  0
  146.4098  134.3934  154.2522 H   0  0  0  0  0  0  0  0  0  0  0  0
  147.4869  130.6474  153.5916 H   0  0  0  0  0  0  0  0  0  0  0  0
  149.9754  130.1912  154.5612 H   0  0  0  0  0  0  0  0  0  0  0  0
  149.8779  130.9783  152.9971 H   0  0  0  0  0  0  0  0  0  0  0  0
  150.8982  132.1724  155.4627 H   0  0  0  0  0  0  0  0  0  0  0  0
  150.7575  132.9401  153.9007 H   0  0  0  0  0  0  0  0  0  0  0  0
  149.9171  134.7838  156.1738 H   0  0  0  0  0  0  0  0  0  0  0  0
  148.2938  135.1804  155.6233 H   0  0  0  0  0  0  0  0  0  0  0  0
  149.6178  135.1137  154.4724 H   0  0  0  0  0  0  0  0  0  0  0  0
  149.2812  132.0709  157.0099 H   0  0  0  0  0  0  0  0  0  0  0  0
  146.5666  133.1936  156.8505 H   0  0  0  0  0  0  0  0  0  0  0  0
  146.1818  135.1592  158.3737 H   0  0  0  0  0  0  0  0  0  0  0  0
  145.8397  133.7200  159.2734 H   0  0  0  0  0  0  0  0  0  0  0  0
  146.8639  133.3319  161.3687 H   0  0  0  0  0  0  0  0  0  0  0  0
  147.4177  134.3363  163.5786 H   0  0  0  0  0  0  0  0  0  0  0  0
  146.7262  131.0330  155.9322 H   0  0  0  0  0  0  0  0  0  0  0  0
  148.2359  130.1747  156.1320 H   0  0  0  0  0  0  0  0  0  0  0  0
  1  2  1  0  0  0  0
  1 23  1  0  0  0  0
  1 24  1  0  0  0  0
  1 25  1  0  0  0  0
  2  7  1  0  0  0  0
  2  3  1  0  0  0  0
  2  4  1  0  0  0  0
  3 26  1  0  0  0  0
  3 27  1  0  0  0  0
  3 28  1  0  0  0  0
  4 22  1  0  0  0  0
  4  5  1  0  0  0  0
  4 29  1  0  0  0  0
  5  6  1  0  0  0  0
  5 30  1  0  0  0  0
  5 31  1  0  0  0  0
  6  7  1  0  0  0  0
  6 32  1  0  0  0  0
  6 33  1  0  0  0  0
  7  8  1  0  0  0  0
  7  9  1  0  0  0  0
  8 34  1  0  0  0  0
  8 35  1  0  0  0  0
  8 36  1  0  0  0  0
  9 10  1  0  0  0  0
  9 22  1  0  0  0  0
  9 37  1  0  0  0  0
 10 11  1  0  0  0  0
 10 38  1  0  0  0  0
 11 12  2  0  0  0  0
 11 13  1  0  0  0  0
 13 14  1  0  0  0  0
 13 39  1  0  0  0  0
 13 40  1  0  0  0  0
 14 20  1  0  0  0  0
 14 15  1  0  0  0  0
 15 16  2  0  0  0  0
 15 41  1  0  0  0  0
 16 17  1  0  0  0  0
 16 42  1  0  0  0  0
 17 18  2  0  0  0  0
 17 19  1  0  0  0  0
 19 20  1  0  0  0  0
 20 21  2  0  0  0  0
 22 43  1  0  0  0  0
 22 44  1  0  0  0  0
M  CHG  1  19  -1
M  END
> <s_m_source_file>
AV-unprocessed.smi

> <i_m_source_file_index>
623

> <i_lp_mmshare_version>
43012

> <i_f3d_flags>
0

> <s_epik_input>
W0NIM11bQ0BdMTJDKFtDSDNdKShbQ0gzXSlbQ0BIXShbQ0gyXVtDSDJdMSlbQ0gyXVtDQEBIXTJbTkhdQyg9TylbQ0gyXW4zW2NIXVtjSF1jKD1PKVtuSF1jMz1P

> <s_epik_cmdline>
J2VwaWtfcHl0aG9uJywgJy1waCcsICc3LjAnLCAnLXRuJywgJzgnLCAnLW1hJywgJzIwMCcsICctbWV0YWxfYmluZGluZycsICctaW1hZScsICc8aW5maWxlLm1hZT4nLCAnLW9tYWUnLCAnPG91dGZpbGUubWFlPic=

> <r_lp_tautomer_probability>
0.999537

> <r_epik_Ionization_Penalty>
3.12624

> <r_epik_Ionization_Penalty_Charging>
3.01273e-08

> <r_epik_Ionization_Penalty_Neutral>
3.12624

> <r_epik_State_Penalty>
3.12534

> <r_epik_Charging_Adjusted_Penalty>
3.12534

> <i_epik_Tot_Q>
-1

> <i_epik_Tot_abs_Q>
1

> <r_epik_Metal_State_Penalty>
0.46406

> <b_epik_Metal_Only>
1

> <s_lp_Force_Field>
OPLS_2005

> <r_lp_Energy>
63.0449

> <b_lp_Chiralities_Consistent>
1

> <s_lp_Variant>
AV-unprocessed.smi:623-6

> <Gold.Version>
5.8.1

> <Gold.Id.Protein>
6NUR|6NUR_protein|mol2

> <Gold.PLP.Fitness>
39.6990

> <Gold.PLP.PLP>
-30.3842

> <Gold.PLP.part.hbond>
-3.8453

> <Gold.PLP.part.metal>
0.0000

> <Gold.PLP.part.buried>
-2.6941

> <Gold.PLP.part.nonpolar>
-24.8994

> <Gold.PLP.part.repulsive>
0.0538

> <Gold.PLP.ligand.clash>
0.0000

> <Gold.PLP.ligand.torsion>
0.5915

> <Gold.PLP.Chemscore.Hbond>
3.4948

> <Gold.PLP.Chemscore.CHOScore>
0.0000

> <Gold.PLP.Chemscore.Metal>
0.0000

> <Gold.Chemscore.Hbonds>
donor molecule, donor type, donor heavy atom, donor atom, acceptor molecule, acceptor atom, score
      P1  H  6896  6908       L1    12  0.61
      P1  H  6931  6943       L1    19  1.70
      P1  H  6934  6947       L1    19  1.15

> <Gold.PLP.Chemscore.Internal.Correction>
0.0134

> <Gold.Rescore>
     Score         DG    S(hbond)    S(metal)    S(lipo)     H(rot)  DE(clash)    DE(int)     intcor
     12.99     -13.68       1.48        0.00      63.51       1.63       0.24       0.45       ----

> <Gold.Chemscore.Fitness>
12.9924

> <Gold.Chemscore.DG>
-13.6818

> <Gold.Chemscore.ZeroCoef>
-5.4800

> <Gold.Chemscore.Hbond>
1.4819

> <Gold.Chemscore.Metal>
0.0000

> <Gold.Chemscore.Lipo>
63.5084

> <Gold.Chemscore.Internal_Hbond>
0.0000

> <Gold.Chemscore.DEClash>
0.2400

> <Gold.Chemscore.DEInternal>
0.4495

> <Gold.Chemscore.Rot>
1.6322

> <Gold.Chemscore.Internal.Correction>
   9.000000E+99

> <Gold.Chemscore.Hbonds>
donor molecule, donor type, donor heavy atom, donor atom, acceptor molecule, acceptor atom, score
      P1  H  6896  6908       L1    12  0.57
      P1  H  6931  6943       L1    19  0.14
      P1  H  6934  6947       L1    19  0.08

> <Gold.Chemscore.Hbond.Weighted>
-4.9496

> <Gold.Chemscore.Metal.Weighted>
-0.0000

> <Gold.Chemscore.Lipo.Weighted>
-7.4305

> <Gold.Chemscore.Internal_Hbond.Weighted>
0.0000

> <Gold.Chemscore.DEClash.Weighted>
0.2400

> <Gold.Chemscore.DEInternal.Weighted>
0.4495

> <Gold.Chemscore.Rot.Weighted>
4.1783

> <Gold.Chemscore.Internal.Correction.Weighted>
   9.000000E+99

> <Gold.Protein.RotatedTorsions>
[ 6907 6896 6895 6894 ] final  106.08 input  -60.11 | X-H torsion
[ 7974 7965 7964 7962 ] final  -58.76 input  175.53 | X-H torsion
[ 8008 7997 7996 7995 ] final  159.53 input   59.86 | X-H torsion
[ 10167 10162 10161 10158 ] final  -52.74 input  -65.29 | X-H torsion
[ 10718 10713 10712 10709 ] final   85.44 input   66.30 | X-H torsion
[ 10763 10752 10751 10750 ] final   73.17 input  -60.55 | X-H torsion
[ 11005 11000 10999 10996 ] final -158.39 input  -57.11 | X-H torsion

> <Gold.Protein.ActiveResidues>
 VAL166  LYS551  ARG553  GLY616  TRP617  ASP618  TYR619  PRO620  LYS621  CYS622 
 ASP623  PHE694  ASN695  SER759  ASP760  ASP761  ALA762  ILE779  LEU786  VAL792 
 PHE793  MET794  SER795  GLU796  ALA797  LYS798  CYS799  TRP800  GLU811  SER814 

> <Gold.Protein.RotatedAtoms>
  152.5207  133.9433  159.7636 H   0  0  0  0  0  0  0  0  0  0  0  0  # atno 6907 bound_to 6896
  150.9759  133.6288  159.2737 H   0  0  0  0  0  0  0  0  0  0  0  0  # atno 6908 bound_to 6896
  151.3482  135.0884  159.9447 H   0  0  0  0  0  0  0  0  0  0  0  0  # atno 6909 bound_to 6896
  145.8355  140.8452  143.0061 H   0  0  0  0  0  0  0  0  0  0  0  0  # atno 7974 bound_to 7965
  156.2233  140.1829  156.7425 H   0  0  0  0  0  0  0  0  0  0  0  0  # atno 8008 bound_to 7997
  154.5900  140.0652  156.9253 H   0  0  0  0  0  0  0  0  0  0  0  0  # atno 8009 bound_to 7997
  155.2353  140.3318  155.4301 H   0  0  0  0  0  0  0  0  0  0  0  0  # atno 8010 bound_to 7997
  140.6522  143.2573  151.4691 H   0  0  0  0  0  0  0  0  0  0  0  0  # atno 10167 bound_to 10162
  157.6914  131.0175  150.2823 H   0  0  0  0  0  0  0  0  0  0  0  0  # atno 10718 bound_to 10713
  153.0504  135.5073  154.7853 H   0  0  0  0  0  0  0  0  0  0  0  0  # atno 10763 bound_to 10752
  154.6720  135.2954  154.9732 H   0  0  0  0  0  0  0  0  0  0  0  0  # atno 10764 bound_to 10752
  154.0547  135.6699  153.4857 H   0  0  0  0  0  0  0  0  0  0  0  0  # atno 10765 bound_to 10752
  140.6541  134.4419  157.5235 H   0  0  0  0  0  0  0  0  0  0  0  0  # atno 11005 bound_to 11000
  144.6737  140.0734  143.7472 LP  0  0  0  0  0  0  0  0  0  0  0  0  # atno 17320 bound_to 7965
  145.9524  139.2743  143.1204 LP  0  0  0  0  0  0  0  0  0  0  0  0  # atno 17321 bound_to 7965
  139.5738  144.1866  152.1875 LP  0  0  0  0  0  0  0  0  0  0  0  0  # atno 17342 bound_to 10162
  140.1170  144.5407  150.6887 LP  0  0  0  0  0  0  0  0  0  0  0  0  # atno 17343 bound_to 10162
  156.3367  130.3809  149.7444 LP  0  0  0  0  0  0  0  0  0  0  0  0  # atno 17370 bound_to 10713
  156.4966  130.8109  151.3116 LP  0  0  0  0  0  0  0  0  0  0  0  0  # atno 17371 bound_to 10713
  139.9035  134.8501  156.1798 LP  0  0  0  0  0  0  0  0  0  0  0  0  # atno 17394 bound_to 11000
  141.0514  133.6887  156.1779 LP  0  0  0  0  0  0  0  0  0  0  0  0  # atno 17395 bound_to 11000

$$$$
