AV-unprocessed.smi:3057|AV-procd|sdf|11665|dock4
  -GOLD-   2272017 73D 1   1.00000     0.00000
 Structure written by MMmdl.
 41 43  0  0  0  0  0  0  0  0  2 V2000
  148.6261  138.0778  157.0208 C   0  0  0  0  0  0  0  0  0  0  0  0
  148.8294  138.0243  155.4943 C   0  0  1  0  0  0  0  0  0  0  0  0
  147.5092  138.2685  154.7410 C   0  0  0  0  0  0  0  0  0  0  0  0
  147.5225  139.7700  154.4174 C   0  0  0  0  0  0  0  0  0  0  0  0
  149.0061  140.0991  154.4550 C   0  0  0  0  0  0  0  0  0  0  0  0
  149.4875  141.1144  153.9543 O   0  0  0  0  0  0  0  0  0  0  0  0
  149.6849  139.1035  155.0393 N   0  0  0  0  0  0  0  0  0  0  0  0
  151.1259  138.8535  154.9543 C   0  0  1  0  0  0  0  0  0  0  0  0
  151.8852  139.7039  155.9868 C   0  0  0  0  0  0  0  0  0  0  0  0
  153.0642  139.4698  156.2559 O   0  0  0  0  0  0  0  0  0  0  0  0
  151.1890  140.6999  156.5536 N   0  0  0  0  0  0  0  0  0  0  0  0
  151.7129  141.6105  157.5630 C   0  0  0  0  0  0  0  0  0  0  0  0
  152.5549  140.8448  158.5928 C   0  0  0  0  0  0  0  0  0  0  0  0
  152.7271  141.6184  159.8857 C   0  0  0  0  0  0  0  0  0  0  0  0
  152.0758  142.8492  160.1197 C   0  0  0  0  0  0  0  0  0  0  0  0
  152.2825  143.5155  161.3459 C   0  0  0  0  0  0  0  0  0  0  0  0
  153.1353  142.9389  162.3100 C   0  0  0  0  0  0  0  0  0  0  0  0
  153.7613  141.7087  162.0232 C   0  0  0  0  0  0  0  0  0  0  0  0
  153.5374  141.1007  160.8375 N   0  3  0  0  0  0  0  0  0  0  0  0
  151.3278  137.3471  155.2539 C   0  0  0  0  0  0  0  0  0  0  0  0
  149.7221  136.5402  155.0015 S   0  0  0  0  0  0  0  0  0  0  0  0
  148.1894  139.0270  157.3325 H   0  0  0  0  0  0  0  0  0  0  0  0
  149.5658  137.9557  157.5594 H   0  0  0  0  0  0  0  0  0  0  0  0
  147.9578  137.2826  157.3522 H   0  0  0  0  0  0  0  0  0  0  0  0
  147.4856  137.6977  153.8114 H   0  0  0  0  0  0  0  0  0  0  0  0
  146.6326  137.9786  155.3216 H   0  0  0  0  0  0  0  0  0  0  0  0
  147.0792  139.9893  153.4458 H   0  0  0  0  0  0  0  0  0  0  0  0
  147.0052  140.3490  155.1830 H   0  0  0  0  0  0  0  0  0  0  0  0
  151.4656  139.0787  153.9414 H   0  0  0  0  0  0  0  0  0  0  0  0
  150.2273  140.8272  156.2732 H   0  0  0  0  0  0  0  0  0  0  0  0
  152.3233  142.3836  157.0928 H   0  0  0  0  0  0  0  0  0  0  0  0
  150.8781  142.1132  158.0530 H   0  0  0  0  0  0  0  0  0  0  0  0
  152.0938  139.8806  158.8112 H   0  0  0  0  0  0  0  0  0  0  0  0
  153.5419  140.6278  158.1812 H   0  0  0  0  0  0  0  0  0  0  0  0
  151.4255  143.2792  159.3716 H   0  0  0  0  0  0  0  0  0  0  0  0
  151.7931  144.4577  161.5443 H   0  0  0  0  0  0  0  0  0  0  0  0
  153.3070  143.4332  163.2551 H   0  0  0  0  0  0  0  0  0  0  0  0
  154.4289  141.1962  162.7006 H   0  0  0  0  0  0  0  0  0  0  0  0
  152.0886  136.8997  154.6140 H   0  0  0  0  0  0  0  0  0  0  0  0
  151.6233  137.1700  156.2893 H   0  0  0  0  0  0  0  0  0  0  0  0
  154.0009  140.2109  160.6512 H   0  0  0  0  0  0  0  0  0  0  0  0
  1  2  1  0  0  0  0
  1 22  1  0  0  0  0
  1 23  1  0  0  0  0
  1 24  1  0  0  0  0
  2  7  1  0  0  0  0
  2 21  1  0  0  0  0
  2  3  1  0  0  0  0
  3  4  1  0  0  0  0
  3 25  1  0  0  0  0
  3 26  1  0  0  0  0
  4  5  1  0  0  0  0
  4 27  1  0  0  0  0
  4 28  1  0  0  0  0
  5  6  2  0  0  0  0
  5  7  1  0  0  0  0
  7  8  1  0  0  0  0
  8  9  1  0  0  0  0
  8 20  1  0  0  0  0
  8 29  1  0  0  0  0
  9 10  2  0  0  0  0
  9 11  1  0  0  0  0
 11 12  1  0  0  0  0
 11 30  1  0  0  0  0
 12 13  1  0  0  0  0
 12 31  1  0  0  0  0
 12 32  1  0  0  0  0
 13 14  1  0  0  0  0
 13 33  1  0  0  0  0
 13 34  1  0  0  0  0
 14 19  1  0  0  0  0
 14 15  2  0  0  0  0
 15 16  1  0  0  0  0
 15 35  1  0  0  0  0
 16 17  2  0  0  0  0
 16 36  1  0  0  0  0
 17 18  1  0  0  0  0
 17 37  1  0  0  0  0
 18 19  2  0  0  0  0
 18 38  1  0  0  0  0
 19 41  1  0  0  0  0
 20 21  1  0  0  0  0
 20 39  1  0  0  0  0
 20 40  1  0  0  0  0
M  CHG  1  19   1
M  END
> <s_m_source_file>
AV-unprocessed.smi

> <i_m_source_file_index>
3057

> <i_lp_mmshare_version>
43012

> <i_f3d_flags>
0

> <s_epik_input>
W0NIMl0xW0NIMl1DKD1PKU4oW0NAQF0xMltDSDNdKVtDQEhdKFtDSDJdUzIpQyg9TylbTkhdW0NIMl1bQ0gyXWMzW2NIXVtjSF1bY0hdW2NIXW4z

> <s_epik_cmdline>
J2VwaWtfcHl0aG9uJywgJy1waCcsICc3LjAnLCAnLXRuJywgJzgnLCAnLW1hJywgJzIwMCcsICctbWV0YWxfYmluZGluZycsICctaW1hZScsICc8aW5maWxlLm1hZT4nLCAnLW9tYWUnLCAnPG91dGZpbGUubWFlPic=

> <r_epik_Ionization_Penalty>
1.8888

> <r_epik_Ionization_Penalty_Charging>
1.8888

> <r_epik_Ionization_Penalty_Neutral>
1.66252e-07

> <r_epik_State_Penalty>
2.00916

> <r_epik_Charging_Adjusted_Penalty>
3.89796

> <i_epik_Tot_Q>
1

> <i_epik_Tot_abs_Q>
1

> <r_epik_Metal_State_Penalty>
2.03343

> <b_epik_Metal_Only>
0

> <s_lp_Force_Field>
OPLS_2005

> <r_lp_Energy>
32.3191

> <b_lp_Chiralities_Consistent>
1

> <s_lp_Variant>
AV-unprocessed.smi:3057-5

> <Gold.Version>
5.8.1

> <Gold.Id.Protein>
6NUR|6NUR_protein|mol2

> <Gold.PLP.Fitness>
44.7190

> <Gold.PLP.PLP>
-39.2897

> <Gold.PLP.part.hbond>
-2.7322

> <Gold.PLP.part.metal>
0.0000

> <Gold.PLP.part.buried>
-5.9368

> <Gold.PLP.part.nonpolar>
-31.5501

> <Gold.PLP.part.repulsive>
1.4406

> <Gold.PLP.ligand.clash>
0.0000

> <Gold.PLP.ligand.torsion>
0.5129

> <Gold.PLP.Chemscore.Hbond>
2.1394

> <Gold.PLP.Chemscore.CHOScore>
0.0000

> <Gold.PLP.Chemscore.Metal>
0.0000

> <Gold.Chemscore.Hbonds>
donor molecule, donor type, donor heavy atom, donor atom, acceptor molecule, acceptor atom, score
      P1  H  7989  7998       L1     6  0.23
      P1  H  7997  8008       L1    10  0.94
      P1  H  8011  8017       L1     6  0.72

> <Gold.PLP.Chemscore.Internal.Correction>
0.0369

> <Gold.Rescore>
     Score         DG    S(hbond)    S(metal)    S(lipo)     H(rot)  DE(clash)    DE(int)     intcor
     16.27     -19.42       2.04        0.00      96.32       1.62       0.53       2.62       ----

> <Gold.Chemscore.Fitness>
16.2670

> <Gold.Chemscore.DG>
-19.4221

> <Gold.Chemscore.ZeroCoef>
-5.4800

> <Gold.Chemscore.Hbond>
2.0445

> <Gold.Chemscore.Metal>
0.0000

> <Gold.Chemscore.Lipo>
96.3175

> <Gold.Chemscore.Internal_Hbond>
0.0000

> <Gold.Chemscore.DEClash>
0.5328

> <Gold.Chemscore.DEInternal>
2.6223

> <Gold.Chemscore.Rot>
1.6234

> <Gold.Chemscore.Internal.Correction>
   9.000000E+99

> <Gold.Chemscore.Hbonds>
donor molecule, donor type, donor heavy atom, donor atom, acceptor molecule, acceptor atom, score
      P1  H  7989  7998       L1     6  0.20
      P1  H  7997  8008       L1    10  0.85
      P1  H  8011  8017       L1     6  0.68

> <Gold.Chemscore.Hbond.Weighted>
-6.8287

> <Gold.Chemscore.Metal.Weighted>
-0.0000

> <Gold.Chemscore.Lipo.Weighted>
-11.2691

> <Gold.Chemscore.Internal_Hbond.Weighted>
0.0000

> <Gold.Chemscore.DEClash.Weighted>
0.5328

> <Gold.Chemscore.DEInternal.Weighted>
2.6223

> <Gold.Chemscore.Rot.Weighted>
4.1558

> <Gold.Chemscore.Internal.Correction.Weighted>
   9.000000E+99

> <Gold.Protein.RotatedTorsions>
[ 6907 6896 6895 6894 ] final   -7.23 input  -60.11 | X-H torsion
[ 7974 7965 7964 7962 ] final   49.63 input  175.53 | X-H torsion
[ 8008 7997 7996 7995 ] final  -63.88 input   59.86 | X-H torsion
[ 10167 10162 10161 10158 ] final   16.54 input  -65.29 | X-H torsion
[ 10718 10713 10712 10709 ] final  -94.16 input   66.30 | X-H torsion
[ 10763 10752 10751 10750 ] final  -53.02 input  -60.55 | X-H torsion
[ 11005 11000 10999 10996 ] final -114.07 input  -57.11 | X-H torsion

> <Gold.Protein.ActiveResidues>
 VAL166  LYS551  ARG553  GLY616  TRP617  ASP618  TYR619  PRO620  LYS621  CYS622 
 ASP623  PHE694  ASN695  SER759  ASP760  ASP761  ALA762  ILE779  LEU786  VAL792 
 PHE793  MET794  SER795  GLU796  ALA797  LYS798  CYS799  TRP800  GLU811  SER814 

> <Gold.Protein.RotatedAtoms>
  151.4529  135.1031  159.9702 H   0  0  0  0  0  0  0  0  0  0  0  0  # atno 6907 bound_to 6896
  152.4881  133.8423  159.7169 H   0  0  0  0  0  0  0  0  0  0  0  0  # atno 6908 bound_to 6896
  150.9009  133.7059  159.2906 H   0  0  0  0  0  0  0  0  0  0  0  0  # atno 6909 bound_to 6896
  146.0090  139.4522  142.9968 H   0  0  0  0  0  0  0  0  0  0  0  0  # atno 7974 bound_to 7965
  154.4579  140.0965  156.6810 H   0  0  0  0  0  0  0  0  0  0  0  0  # atno 8008 bound_to 7997
  155.5082  140.3475  155.4365 H   0  0  0  0  0  0  0  0  0  0  0  0  # atno 8009 bound_to 7997
  156.0814  140.1374  156.9696 H   0  0  0  0  0  0  0  0  0  0  0  0  # atno 8010 bound_to 7997
  140.5790  143.9018  150.6773 H   0  0  0  0  0  0  0  0  0  0  0  0  # atno 10167 bound_to 10162
  156.0023  130.5056  150.5884 H   0  0  0  0  0  0  0  0  0  0  0  0  # atno 10718 bound_to 10713
  154.1521  135.6488  153.4966 H   0  0  0  0  0  0  0  0  0  0  0  0  # atno 10763 bound_to 10752
  153.0135  135.5340  154.6797 H   0  0  0  0  0  0  0  0  0  0  0  0  # atno 10764 bound_to 10752
  154.6088  135.2951  155.0426 H   0  0  0  0  0  0  0  0  0  0  0  0  # atno 10765 bound_to 10752
  141.0574  133.9590  157.2728 H   0  0  0  0  0  0  0  0  0  0  0  0  # atno 11005 bound_to 11000
  145.7371  141.0021  143.1321 LP  0  0  0  0  0  0  0  0  0  0  0  0  # atno 17320 bound_to 7965
  144.6946  139.9054  143.7461 LP  0  0  0  0  0  0  0  0  0  0  0  0  # atno 17321 bound_to 7965
  140.2512  143.3591  152.1404 LP  0  0  0  0  0  0  0  0  0  0  0  0  # atno 17342 bound_to 10162
  139.5159  144.6969  151.5605 LP  0  0  0  0  0  0  0  0  0  0  0  0  # atno 17343 bound_to 10162
  157.3753  131.0772  151.1523 LP  0  0  0  0  0  0  0  0  0  0  0  0  # atno 17370 bound_to 10713
  157.2263  130.6504  149.5831 LP  0  0  0  0  0  0  0  0  0  0  0  0  # atno 17371 bound_to 10713
  139.9402  135.0192  156.8685 LP  0  0  0  0  0  0  0  0  0  0  0  0  # atno 17394 bound_to 11000
  140.5936  134.0238  155.7509 LP  0  0  0  0  0  0  0  0  0  0  0  0  # atno 17395 bound_to 11000

$$$$
