AV-unprocessed.smi:35|AV-procd|sdf|250|dock2
  -GOLD-   2262016 13D 1   1.00000     0.00000
 Structure written by MMmdl.
 29 30  0  0  0  0  0  0  0  0  1 V2000
  153.1280  139.2915  157.3161 O   0  0  0  0  0  0  0  0  0  0  0  0
  152.1795  139.7899  156.7141 C   0  0  0  0  0  0  0  0  0  0  0  0
  151.4538  140.8394  157.2852 N   0  0  0  0  0  0  0  0  0  0  0  0
  150.3635  141.4845  156.6980 C   0  0  0  0  0  0  0  0  0  0  0  0
  149.7859  142.3897  157.2985 O   0  0  0  0  0  0  0  0  0  0  0  0
  149.9658  141.0455  155.4157 N   0  0  0  0  0  0  0  0  0  0  0  0
  148.7837  141.7255  154.7524 C   0  0  1  0  0  0  0  0  0  0  0  0
  148.5813  141.1711  153.4827 O   0  0  0  0  0  0  0  0  0  0  0  0
  147.3341  140.4868  153.4506 C   0  0  2  0  0  0  0  0  0  0  0  0
  146.8154  140.3649  152.0068 C   0  0  0  0  0  0  0  0  0  0  0  0
  147.1772  139.1345  151.4143 O   0  0  0  0  0  0  0  0  0  0  0  0
  146.4656  141.2591  154.4443 C   0  0  1  0  0  0  0  0  0  0  0  0
  145.3338  140.5312  154.8841 O   0  0  0  0  0  0  0  0  0  0  0  0
  147.4661  141.5686  155.5534 C   0  0  1  0  0  0  0  0  0  0  0  0
  147.5201  140.5388  156.5304 O   0  0  0  0  0  0  0  0  0  0  0  0
  150.6499  139.9965  154.8133 C   0  0  0  0  0  0  0  0  0  0  0  0
  151.7031  139.3788  155.3980 C   0  0  0  0  0  0  0  0  0  0  0  0
  152.5406  137.9019  154.3775 Br  0  0  0  0  0  0  0  0  0  0  0  0
  151.7403  141.1548  158.2005 H   0  0  0  0  0  0  0  0  0  0  0  0
  149.0752  142.7667  154.6015 H   0  0  0  0  0  0  0  0  0  0  0  0
  147.5120  139.4823  153.8387 H   0  0  0  0  0  0  0  0  0  0  0  0
  145.7317  140.4812  151.9783 H   0  0  0  0  0  0  0  0  0  0  0  0
  147.2378  141.1636  151.3971 H   0  0  0  0  0  0  0  0  0  0  0  0
  148.1023  139.1540  151.2213 H   0  0  0  0  0  0  0  0  0  0  0  0
  146.1309  142.2003  154.0073 H   0  0  0  0  0  0  0  0  0  0  0  0
  144.6516  140.6169  154.2359 H   0  0  0  0  0  0  0  0  0  0  0  0
  147.2302  142.5064  156.0574 H   0  0  0  0  0  0  0  0  0  0  0  0
  148.2925  140.0183  156.3713 H   0  0  0  0  0  0  0  0  0  0  0  0
  150.3417  139.6412  153.8422 H   0  0  0  0  0  0  0  0  0  0  0  0
  1  2  2  0  0  0  0
  2 17  1  0  0  0  0
  2  3  1  0  0  0  0
  3 19  1  0  0  0  0
  3  4  1  0  0  0  0
  4  5  2  0  0  0  0
  4  6  1  0  0  0  0
  6  7  1  0  0  0  0
  6 16  1  0  0  0  0
  7 14  1  0  0  0  0
  7  8  1  0  0  0  0
  7 20  1  0  0  0  0
  8  9  1  0  0  0  0
  9 10  1  0  0  0  0
  9 12  1  0  0  0  0
  9 21  1  0  0  0  0
 10 11  1  0  0  0  0
 10 22  1  0  0  0  0
 10 23  1  0  0  0  0
 11 24  1  0  0  0  0
 12 13  1  0  0  0  0
 12 14  1  0  0  0  0
 12 25  1  0  0  0  0
 13 26  1  0  0  0  0
 14 15  1  0  0  0  0
 14 27  1  0  0  0  0
 15 28  1  0  0  0  0
 16 17  2  0  0  0  0
 16 29  1  0  0  0  0
 17 18  1  0  0  0  0
M  END
> <s_m_source_file>
AV-unprocessed.smi

> <i_m_source_file_index>
35

> <i_lp_mmshare_version>
43012

> <i_f3d_flags>
0

> <s_epik_input>
Tz1jMVtuSF1jKD1PKW4oW2NIXWMxQnIpW0NAQEhdMk9bQ0BASF0oW0NIMl1bT0hdKVtDQEBIXShbT0hdKVtDQEhdMltPSF0=

> <s_epik_cmdline>
J2VwaWtfcHl0aG9uJywgJy1waCcsICc3LjAnLCAnLXRuJywgJzgnLCAnLW1hJywgJzIwMCcsICctbWV0YWxfYmluZGluZycsICctaW1hZScsICc8aW5maWxlLm1hZT4nLCAnLW9tYWUnLCAnPG91dGZpbGUubWFlPic=

> <r_lp_tautomer_probability>
0.999537

> <r_epik_Ionization_Penalty>
0.10812

> <r_epik_Ionization_Penalty_Charging>
0.108119

> <r_epik_Ionization_Penalty_Neutral>
4.93006e-07

> <r_epik_State_Penalty>
0.0979238

> <r_epik_Charging_Adjusted_Penalty>
0.206043

> <i_epik_Tot_Q>
0

> <i_epik_Tot_abs_Q>
0

> <r_epik_Metal_State_Penalty>
3.07911

> <b_epik_Metal_Only>
0

> <s_epik_Chemistry_Notes>
This compound contains an acetal/aminal-like group ( X-CH(R)-Y where X, Y are N, S, or O) that may be acid/base labile, releasing an aldehyde.

> <s_lp_Force_Field>
OPLS_2005

> <r_lp_Energy>
39.8494

> <b_lp_Chiralities_Consistent>
1

> <s_lp_Variant>
AV-unprocessed.smi:35-4

> <Gold.Version>
5.8.1

> <Gold.Id.Protein>
6NUR|6NUR_protein|mol2

> <Gold.PLP.Fitness>
36.3500

> <Gold.PLP.PLP>
-24.5192

> <Gold.PLP.part.hbond>
-4.9630

> <Gold.PLP.part.metal>
0.0000

> <Gold.PLP.part.buried>
5.6160

> <Gold.PLP.part.nonpolar>
-27.1186

> <Gold.PLP.part.repulsive>
3.7934

> <Gold.PLP.ligand.clash>
0.0000

> <Gold.PLP.ligand.torsion>
0.4639

> <Gold.PLP.Chemscore.Hbond>
3.8299

> <Gold.PLP.Chemscore.CHOScore>
0.4118

> <Gold.PLP.Chemscore.Metal>
0.0000

> <Gold.Chemscore.Hbonds>
donor molecule, donor type, donor heavy atom, donor atom, acceptor molecule, acceptor atom, score
      L1  H    11    24       P1  7957  1.00
      L1  H    13    26       P1 10175  1.00
      P1  H  7997  8009       L1     1  1.00
      P1  H  8011  8017       L1     8  0.80
      L1  C    16    29       P1  7957  0.32

> <Gold.PLP.Chemscore.Internal.Correction>
0.0333

> <Gold.Rescore>
     Score         DG    S(hbond)    S(metal)    S(lipo)     H(rot)  DE(clash)    DE(int)     intcor
      5.56     -12.03       2.98        0.00      51.32       3.67       3.98       2.49       ----

> <Gold.Chemscore.Fitness>
5.5598

> <Gold.Chemscore.DG>
-12.0288

> <Gold.Chemscore.ZeroCoef>
-5.4800

> <Gold.Chemscore.Hbond>
2.9760

> <Gold.Chemscore.Metal>
0.0000

> <Gold.Chemscore.Lipo>
51.3202

> <Gold.Chemscore.Internal_Hbond>
0.0000

> <Gold.Chemscore.DEClash>
3.9815

> <Gold.Chemscore.DEInternal>
2.4874

> <Gold.Chemscore.Rot>
3.6701

> <Gold.Chemscore.Internal.Correction>
   9.000000E+99

> <Gold.Chemscore.Hbonds>
donor molecule, donor type, donor heavy atom, donor atom, acceptor molecule, acceptor atom, score
      L1  H    11    24       P1  7957  0.57
      L1  H    13    26       P1 10175  0.96
      P1  H  7997  8009       L1     1  0.49
      P1  H  8011  8017       L1     8  0.23

> <Gold.Chemscore.Hbond.Weighted>
-9.9398

> <Gold.Chemscore.Metal.Weighted>
-0.0000

> <Gold.Chemscore.Lipo.Weighted>
-6.0045

> <Gold.Chemscore.Internal_Hbond.Weighted>
0.0000

> <Gold.Chemscore.DEClash.Weighted>
3.9815

> <Gold.Chemscore.DEInternal.Weighted>
2.4874

> <Gold.Chemscore.Rot.Weighted>
9.3955

> <Gold.Chemscore.Internal.Correction.Weighted>
   9.000000E+99

> <Gold.Protein.RotatedTorsions>
[ 6907 6896 6895 6894 ] final   40.24 input  -60.11 | X-H torsion
[ 7974 7965 7964 7962 ] final  -79.08 input  175.53 | X-H torsion
[ 8008 7997 7996 7995 ] final  172.85 input   59.86 | X-H torsion
[ 10167 10162 10161 10158 ] final  -10.16 input  -65.29 | X-H torsion
[ 10718 10713 10712 10709 ] final  -75.54 input   66.30 | X-H torsion
[ 10763 10752 10751 10750 ] final   83.59 input  -60.55 | X-H torsion
[ 11005 11000 10999 10996 ] final  -75.71 input  -57.11 | X-H torsion

> <Gold.Protein.ActiveResidues>
 VAL166  LYS551  ARG553  GLY616  TRP617  ASP618  TYR619  PRO620  LYS621  CYS622 
 ASP623  PHE694  ASN695  SER759  ASP760  ASP761  ALA762  ILE779  LEU786  VAL792 
 PHE793  MET794  SER795  GLU796  ALA797  LYS798  CYS799  TRP800  GLU811  SER814 

> <Gold.Protein.RotatedAtoms>
  152.1799  134.8762  160.0526 H   0  0  0  0  0  0  0  0  0  0  0  0  # atno 6907 bound_to 6896
  151.9690  133.3715  159.4072 H   0  0  0  0  0  0  0  0  0  0  0  0  # atno 6908 bound_to 6896
  150.6916  134.4083  159.5194 H   0  0  0  0  0  0  0  0  0  0  0  0  # atno 6909 bound_to 6896
  145.5779  140.9454  143.1360 H   0  0  0  0  0  0  0  0  0  0  0  0  # atno 7974 bound_to 7965
  156.1133  140.1475  156.9307 H   0  0  0  0  0  0  0  0  0  0  0  0  # atno 8008 bound_to 7997
  154.4783  140.0887  156.7358 H   0  0  0  0  0  0  0  0  0  0  0  0  # atno 8009 bound_to 7997
  155.4557  140.3436  155.4308 H   0  0  0  0  0  0  0  0  0  0  0  0  # atno 8010 bound_to 7997
  140.7106  143.5779  150.9023 H   0  0  0  0  0  0  0  0  0  0  0  0  # atno 10167 bound_to 10162
  156.0204  130.4443  150.3058 H   0  0  0  0  0  0  0  0  0  0  0  0  # atno 10718 bound_to 10713
  153.1304  135.4686  154.9340 H   0  0  0  0  0  0  0  0  0  0  0  0  # atno 10763 bound_to 10752
  154.7659  135.3144  154.8289 H   0  0  0  0  0  0  0  0  0  0  0  0  # atno 10764 bound_to 10752
  153.8833  135.6892  153.4819 H   0  0  0  0  0  0  0  0  0  0  0  0  # atno 10765 bound_to 10752
  141.1648  133.6956  156.7558 H   0  0  0  0  0  0  0  0  0  0  0  0  # atno 11005 bound_to 11000
  144.7407  139.7456  143.7312 LP  0  0  0  0  0  0  0  0  0  0  0  0  # atno 17320 bound_to 7965
  146.1737  139.4899  142.9911 LP  0  0  0  0  0  0  0  0  0  0  0  0  # atno 17321 bound_to 7965
  139.9505  143.6278  152.3030 LP  0  0  0  0  0  0  0  0  0  0  0  0  # atno 17342 bound_to 10162
  139.6794  144.7656  151.1635 LP  0  0  0  0  0  0  0  0  0  0  0  0  # atno 17343 bound_to 10162
  157.1161  131.0234  151.3028 LP  0  0  0  0  0  0  0  0  0  0  0  0  # atno 17370 bound_to 10713
  157.4666  130.7684  149.7284 LP  0  0  0  0  0  0  0  0  0  0  0  0  # atno 17371 bound_to 10713
  140.2570  134.8496  157.3723 LP  0  0  0  0  0  0  0  0  0  0  0  0  # atno 17394 bound_to 11000
  140.1647  134.4684  155.7871 LP  0  0  0  0  0  0  0  0  0  0  0  0  # atno 17395 bound_to 11000

$$$$
