AV-unprocessed.smi:2076|AV-procd|sdf|8457|dock6
  -GOLD-   2272011153D 1   1.00000     0.00000
 Structure written by MMmdl.
 44 45  0  0  0  0  0  0  0  0  1 V2000
  153.9221  141.6571  160.6871 C   0  0  0  0  0  0  0  0  0  0  0  0
  152.9960  142.5396  159.9036 C   0  0  0  0  0  0  0  0  0  0  0  0
  152.5885  143.8712  160.1962 C   0  0  0  0  0  0  0  0  0  0  0  0
  151.7438  144.1983  159.1731 C   0  0  0  0  0  0  0  0  0  0  0  0
  150.9829  145.4576  158.9180 C   0  0  0  0  0  0  0  0  0  0  0  0
  151.6814  143.0977  158.3367 N   0  0  0  0  0  0  0  0  0  0  0  0
  150.9059  142.9126  157.1191 C   0  0  0  0  0  0  0  0  0  0  0  0
  149.7910  141.8888  157.3356 C   0  0  0  0  0  0  0  0  0  0  0  0
  150.0646  140.7447  157.6974 O   0  0  0  0  0  0  0  0  0  0  0  0
  148.5415  142.3081  157.0837 N   0  0  0  0  0  0  0  0  0  0  0  0
  147.3547  141.4599  157.0816 C   0  0  0  0  0  0  0  0  0  0  0  0
  146.6332  141.4266  155.7019 C   0  0  2  0  0  0  0  0  0  0  0  0
  147.6982  141.4696  154.5749 C   0  0  0  0  0  0  0  0  0  0  0  0
  145.6005  142.4788  155.5571 N   0  0  0  0  0  0  0  0  0  0  0  0
  144.4713  142.2948  156.4764 C   0  0  0  0  0  0  0  0  0  0  0  0
  143.3799  143.3660  156.3056 C   0  0  0  0  0  0  0  0  0  0  0  0
  142.9202  143.3738  154.9614 O   0  0  0  0  0  0  0  0  0  0  0  0
  143.9714  143.6285  154.0404 C   0  0  0  0  0  0  0  0  0  0  0  0
  145.0643  142.5569  154.1931 C   0  0  0  0  0  0  0  0  0  0  0  0
  152.4521  142.0834  158.7876 N   0  0  0  0  0  0  0  0  0  0  0  0
  154.1822  142.1100  161.6439 H   0  0  0  0  0  0  0  0  0  0  0  0
  154.8486  141.4794  160.1411 H   0  0  0  0  0  0  0  0  0  0  0  0
  153.4642  140.6892  160.8930 H   0  0  0  0  0  0  0  0  0  0  0  0
  152.8703  144.4918  161.0340 H   0  0  0  0  0  0  0  0  0  0  0  0
  151.2054  146.2075  159.6773 H   0  0  0  0  0  0  0  0  0  0  0  0
  149.9088  145.2728  158.9357 H   0  0  0  0  0  0  0  0  0  0  0  0
  151.2403  145.8788  157.9461 H   0  0  0  0  0  0  0  0  0  0  0  0
  150.4858  143.8717  156.8143 H   0  0  0  0  0  0  0  0  0  0  0  0
  151.5621  142.5809  156.3127 H   0  0  0  0  0  0  0  0  0  0  0  0
  148.4160  143.2679  156.7947 H   0  0  0  0  0  0  0  0  0  0  0  0
  147.6731  140.4690  157.4031 H   0  0  0  0  0  0  0  0  0  0  0  0
  146.6731  141.8299  157.8478 H   0  0  0  0  0  0  0  0  0  0  0  0
  146.1338  140.4593  155.6251 H   0  0  0  0  0  0  0  0  0  0  0  0
  148.4751  140.7166  154.7038 H   0  0  0  0  0  0  0  0  0  0  0  0
  148.1891  142.4425  154.5340 H   0  0  0  0  0  0  0  0  0  0  0  0
  147.2723  141.2647  153.5940 H   0  0  0  0  0  0  0  0  0  0  0  0
  144.0335  141.3059  156.3327 H   0  0  0  0  0  0  0  0  0  0  0  0
  144.8032  142.3479  157.5110 H   0  0  0  0  0  0  0  0  0  0  0  0
  142.5390  143.1570  156.9668 H   0  0  0  0  0  0  0  0  0  0  0  0
  143.7610  144.3527  156.5744 H   0  0  0  0  0  0  0  0  0  0  0  0
  143.5679  143.6158  153.0280 H   0  0  0  0  0  0  0  0  0  0  0  0
  144.3812  144.6258  154.2088 H   0  0  0  0  0  0  0  0  0  0  0  0
  145.8522  142.8045  153.4840 H   0  0  0  0  0  0  0  0  0  0  0  0
  144.6634  141.5863  153.8965 H   0  0  0  0  0  0  0  0  0  0  0  0
  1  2  1  0  0  0  0
  1 21  1  0  0  0  0
  1 22  1  0  0  0  0
  1 23  1  0  0  0  0
  2 20  2  0  0  0  0
  2  3  1  0  0  0  0
  3  4  2  0  0  0  0
  3 24  1  0  0  0  0
  4  5  1  0  0  0  0
  4  6  1  0  0  0  0
  5 25  1  0  0  0  0
  5 26  1  0  0  0  0
  5 27  1  0  0  0  0
  6  7  1  0  0  0  0
  6 20  1  0  0  0  0
  7  8  1  0  0  0  0
  7 28  1  0  0  0  0
  7 29  1  0  0  0  0
  8  9  2  0  0  0  0
  8 10  1  0  0  0  0
 10 11  1  0  0  0  0
 10 30  1  0  0  0  0
 11 12  1  0  0  0  0
 11 31  1  0  0  0  0
 11 32  1  0  0  0  0
 12 13  1  0  0  0  0
 12 14  1  0  0  0  0
 12 33  1  0  0  0  0
 13 34  1  0  0  0  0
 13 35  1  0  0  0  0
 13 36  1  0  0  0  0
 14 19  1  0  0  0  0
 14 15  1  0  0  0  0
 15 16  1  0  0  0  0
 15 37  1  0  0  0  0
 15 38  1  0  0  0  0
 16 17  1  0  0  0  0
 16 39  1  0  0  0  0
 16 40  1  0  0  0  0
 17 18  1  0  0  0  0
 18 19  1  0  0  0  0
 18 41  1  0  0  0  0
 18 42  1  0  0  0  0
 19 43  1  0  0  0  0
 19 44  1  0  0  0  0
M  END
> <s_m_source_file>
AV-unprocessed.smi

> <i_m_source_file_index>
2076

> <i_lp_mmshare_version>
43012

> <i_f3d_flags>
0

> <s_epik_input>
W0NIM11jMVtjSF1jKFtDSDNdKW4objEpW0NIMl1DKD1PKVtOSF1bQ0gyXVtDQEhdKFtDSDNdKU4yW0NIMl1bQ0gyXU9bQ0gyXVtDSDJdMg==

> <s_epik_cmdline>
J2VwaWtfcHl0aG9uJywgJy1waCcsICc3LjAnLCAnLXRuJywgJzgnLCAnLW1hJywgJzIwMCcsICctbWV0YWxfYmluZGluZycsICctaW1hZScsICc8aW5maWxlLm1hZT4nLCAnLW9tYWUnLCAnPG91dGZpbGUubWFlPic=

> <r_lp_tautomer_probability>
1

> <r_epik_Ionization_Penalty>
0.197284

> <r_epik_Ionization_Penalty_Charging>
0

> <r_epik_Ionization_Penalty_Neutral>
0.197284

> <r_epik_State_Penalty>
0.186684

> <r_epik_Charging_Adjusted_Penalty>
0.186684

> <i_epik_Tot_Q>
0

> <i_epik_Tot_abs_Q>
0

> <r_epik_Metal_State_Penalty>
0.186636

> <b_epik_Metal_Only>
0

> <s_lp_Force_Field>
OPLS_2005

> <r_lp_Energy>
25.7273

> <b_lp_Chiralities_Consistent>
1

> <s_lp_Variant>
AV-unprocessed.smi:2076-1

> <Gold.Version>
5.8.1

> <Gold.Id.Protein>
6NUR|6NUR_protein|mol2

> <Gold.PLP.Fitness>
42.8192

> <Gold.PLP.PLP>
-40.7531

> <Gold.PLP.part.hbond>
-1.0000

> <Gold.PLP.part.metal>
0.0000

> <Gold.PLP.part.buried>
-5.8662

> <Gold.PLP.part.nonpolar>
-34.5312

> <Gold.PLP.part.repulsive>
0.2983

> <Gold.PLP.ligand.clash>
0.0000

> <Gold.PLP.ligand.torsion>
0.4818

> <Gold.PLP.Chemscore.Hbond>
1.0000

> <Gold.PLP.Chemscore.CHOScore>
0.0000

> <Gold.PLP.Chemscore.Metal>
0.0000

> <Gold.Chemscore.Hbonds>
donor molecule, donor type, donor heavy atom, donor atom, acceptor molecule, acceptor atom, score
      L1  H    10    30       P1  8028  1.00

> <Gold.PLP.Chemscore.Internal.Correction>
0.0298

> <Gold.Rescore>
     Score         DG    S(hbond)    S(metal)    S(lipo)     H(rot)  DE(clash)    DE(int)     intcor
     15.51     -16.25       0.97        0.00     101.55       1.70       0.04       0.71       ----

> <Gold.Chemscore.Fitness>
15.5057

> <Gold.Chemscore.DG>
-16.2515

> <Gold.Chemscore.ZeroCoef>
-5.4800

> <Gold.Chemscore.Hbond>
0.9701

> <Gold.Chemscore.Metal>
0.0000

> <Gold.Chemscore.Lipo>
101.5514

> <Gold.Chemscore.Internal_Hbond>
0.0000

> <Gold.Chemscore.DEClash>
0.0379

> <Gold.Chemscore.DEInternal>
0.7079

> <Gold.Chemscore.Rot>
1.6993

> <Gold.Chemscore.Internal.Correction>
   9.000000E+99

> <Gold.Chemscore.Hbonds>
donor molecule, donor type, donor heavy atom, donor atom, acceptor molecule, acceptor atom, score
      L1  H    10    30       P1  8028  0.33

> <Gold.Chemscore.Hbond.Weighted>
-3.2402

> <Gold.Chemscore.Metal.Weighted>
-0.0000

> <Gold.Chemscore.Lipo.Weighted>
-11.8815

> <Gold.Chemscore.Internal_Hbond.Weighted>
0.0000

> <Gold.Chemscore.DEClash.Weighted>
0.0379

> <Gold.Chemscore.DEInternal.Weighted>
0.7079

> <Gold.Chemscore.Rot.Weighted>
4.3502

> <Gold.Chemscore.Internal.Correction.Weighted>
   9.000000E+99

> <Gold.Protein.RotatedTorsions>
[ 6907 6896 6895 6894 ] final  177.77 input  -60.11 | X-H torsion
[ 7974 7965 7964 7962 ] final  -90.05 input  175.53 | X-H torsion
[ 8008 7997 7996 7995 ] final  -83.28 input   59.86 | X-H torsion
[ 10167 10162 10161 10158 ] final   88.21 input  -65.29 | X-H torsion
[ 10718 10713 10712 10709 ] final   71.23 input   66.30 | X-H torsion
[ 10763 10752 10751 10750 ] final -162.44 input  -60.55 | X-H torsion
[ 11005 11000 10999 10996 ] final  -98.02 input  -57.11 | X-H torsion

> <Gold.Protein.ActiveResidues>
 VAL166  LYS551  ARG553  GLY616  TRP617  ASP618  TYR619  PRO620  LYS621  CYS622 
 ASP623  PHE694  ASN695  SER759  ASP760  ASP761  ALA762  ILE779  LEU786  VAL792 
 PHE793  MET794  SER795  GLU796  ALA797  LYS798  CYS799  TRP800  GLU811  SER814 

> <Gold.Protein.RotatedAtoms>
  151.6986  133.3311  159.3260 H   0  0  0  0  0  0  0  0  0  0  0  0  # atno 6907 bound_to 6896
  150.7746  134.6636  159.6362 H   0  0  0  0  0  0  0  0  0  0  0  0  # atno 6908 bound_to 6896
  152.3784  134.6632  160.0204 H   0  0  0  0  0  0  0  0  0  0  0  0  # atno 6909 bound_to 6896
  145.4316  140.9556  143.2125 H   0  0  0  0  0  0  0  0  0  0  0  0  # atno 7974 bound_to 7965
  154.6174  140.0621  156.9572 H   0  0  0  0  0  0  0  0  0  0  0  0  # atno 8008 bound_to 7997
  155.1873  140.3304  155.4346 H   0  0  0  0  0  0  0  0  0  0  0  0  # atno 8009 bound_to 7997
  156.2412  140.1887  156.6965 H   0  0  0  0  0  0  0  0  0  0  0  0  # atno 8010 bound_to 7997
  139.8696  144.6500  150.8964 H   0  0  0  0  0  0  0  0  0  0  0  0  # atno 10167 bound_to 10162
  157.6441  130.9517  150.0760 H   0  0  0  0  0  0  0  0  0  0  0  0  # atno 10718 bound_to 10713
  154.7214  135.3026  154.9041 H   0  0  0  0  0  0  0  0  0  0  0  0  # atno 10763 bound_to 10752
  153.9912  135.6718  153.4758 H   0  0  0  0  0  0  0  0  0  0  0  0  # atno 10764 bound_to 10752
  153.0837  135.4995  154.8472 H   0  0  0  0  0  0  0  0  0  0  0  0  # atno 10765 bound_to 10752
  141.1359  133.8214  157.0784 H   0  0  0  0  0  0  0  0  0  0  0  0  # atno 11005 bound_to 11000
  144.8179  139.5844  143.7000 LP  0  0  0  0  0  0  0  0  0  0  0  0  # atno 17320 bound_to 7965
  146.2604  139.6397  142.9366 LP  0  0  0  0  0  0  0  0  0  0  0  0  # atno 17321 bound_to 7965
  140.7763  143.3675  151.1712 LP  0  0  0  0  0  0  0  0  0  0  0  0  # atno 17342 bound_to 10162
  139.7296  143.9093  152.3015 LP  0  0  0  0  0  0  0  0  0  0  0  0  # atno 17343 bound_to 10162
  156.1750  130.3648  149.9113 LP  0  0  0  0  0  0  0  0  0  0  0  0  # atno 17370 bound_to 10713
  156.7079  130.8958  151.3606 LP  0  0  0  0  0  0  0  0  0  0  0  0  # atno 17371 bound_to 10713
  140.0467  134.9826  157.1062 LP  0  0  0  0  0  0  0  0  0  0  0  0  # atno 17394 bound_to 11000
  140.4052  134.2040  155.7163 LP  0  0  0  0  0  0  0  0  0  0  0  0  # atno 17395 bound_to 11000

$$$$
