AV-unprocessed.smi:3171|AV-procd|sdf|12111|dock4
  -GOLD-   2272017553D 1   1.00000     0.00000
 Structure written by MMmdl.
 33 34  0  0  0  0  0  0  0  0  1 V2000
  151.8571  144.9962  159.8441 C   0  0  0  0  0  0  0  0  0  0  0  0
  151.7362  143.6383  159.1754 C   0  0  0  0  0  0  0  0  0  0  0  0
  150.9721  143.6169  158.0617 N   0  0  0  0  0  0  0  0  0  0  0  0
  150.8014  142.4826  157.3812 N   0  0  0  0  0  0  0  0  0  0  0  0
  151.3869  141.3299  157.7872 C   0  0  0  0  0  0  0  0  0  0  0  0
  151.1690  140.1769  157.0092 N   0  0  0  0  0  0  0  0  0  0  0  0
  150.8635  140.2807  155.5868 C   0  0  0  0  0  0  0  0  0  0  0  0
  149.5245  140.9914  155.3319 C   0  0  2  0  0  0  0  0  0  0  0  0
  148.3287  140.2760  155.9543 C   0  0  0  0  0  0  0  0  0  0  0  0
  147.1551  140.7784  155.1302 C   0  0  0  0  0  0  0  0  0  0  0  0
  147.8025  141.2968  153.8422 C   0  0  0  0  0  0  0  0  0  0  0  0
  149.1825  140.9751  153.9550 O   0  0  0  0  0  0  0  0  0  0  0  0
  152.2048  141.2810  158.9464 C   0  0  0  0  0  0  0  0  0  0  0  0
  152.8428  140.0374  159.3736 C   0  0  0  0  0  0  0  0  0  0  0  0
  153.3480  139.0529  159.7121 N   0  0  0  0  0  0  0  0  0  0  0  0
  152.3825  142.4828  159.6774 C   0  0  0  0  0  0  0  0  0  0  0  0
  153.2404  142.5296  160.9395 C   0  0  0  0  0  0  0  0  0  0  0  0
  152.9047  145.2816  159.9426 H   0  0  0  0  0  0  0  0  0  0  0  0
  151.4055  144.9741  160.8359 H   0  0  0  0  0  0  0  0  0  0  0  0
  151.3551  145.7728  159.2654 H   0  0  0  0  0  0  0  0  0  0  0  0
  150.8521  139.3447  157.4853 H   0  0  0  0  0  0  0  0  0  0  0  0
  151.6732  140.7601  155.0359 H   0  0  0  0  0  0  0  0  0  0  0  0
  150.8020  139.2626  155.2022 H   0  0  0  0  0  0  0  0  0  0  0  0
  149.5610  142.0240  155.6853 H   0  0  0  0  0  0  0  0  0  0  0  0
  148.4292  139.1972  155.8263 H   0  0  0  0  0  0  0  0  0  0  0  0
  148.2194  140.4803  157.0197 H   0  0  0  0  0  0  0  0  0  0  0  0
  146.4352  139.9822  154.9377 H   0  0  0  0  0  0  0  0  0  0  0  0
  146.6337  141.5868  155.6440 H   0  0  0  0  0  0  0  0  0  0  0  0
  147.3739  140.8438  152.9478 H   0  0  0  0  0  0  0  0  0  0  0  0
  147.6890  142.3787  153.7635 H   0  0  0  0  0  0  0  0  0  0  0  0
  152.9813  141.7122  161.6135 H   0  0  0  0  0  0  0  0  0  0  0  0
  153.1174  143.4516  161.5050 H   0  0  0  0  0  0  0  0  0  0  0  0
  154.2948  142.4356  160.6782 H   0  0  0  0  0  0  0  0  0  0  0  0
  1  2  1  0  0  0  0
  1 18  1  0  0  0  0
  1 19  1  0  0  0  0
  1 20  1  0  0  0  0
  2 16  1  0  0  0  0
  2  3  2  0  0  0  0
  3  4  1  0  0  0  0
  4  5  2  0  0  0  0
  5  6  1  0  0  0  0
  5 13  1  0  0  0  0
  6  7  1  0  0  0  0
  6 21  1  0  0  0  0
  7  8  1  0  0  0  0
  7 22  1  0  0  0  0
  7 23  1  0  0  0  0
  8 12  1  0  0  0  0
  8  9  1  0  0  0  0
  8 24  1  0  0  0  0
  9 10  1  0  0  0  0
  9 25  1  0  0  0  0
  9 26  1  0  0  0  0
 10 11  1  0  0  0  0
 10 27  1  0  0  0  0
 10 28  1  0  0  0  0
 11 12  1  0  0  0  0
 11 29  1  0  0  0  0
 11 30  1  0  0  0  0
 13 14  1  0  0  0  0
 13 16  2  0  0  0  0
 14 15  3  0  0  0  0
 16 17  1  0  0  0  0
 17 31  1  0  0  0  0
 17 32  1  0  0  0  0
 17 33  1  0  0  0  0
M  END
> <s_m_source_file>
AV-unprocessed.smi

> <i_m_source_file_index>
3171

> <i_lp_mmshare_version>
43012

> <i_f3d_flags>
0

> <s_epik_input>
W0NIM11jMW5uYyhjKEMjTiljMVtDSDNdKVtOSF1bQ0gyXVtDQEBIXTJbQ0gyXVtDSDJdW0NIMl1PMg==

> <s_epik_cmdline>
J2VwaWtfcHl0aG9uJywgJy1waCcsICc3LjAnLCAnLXRuJywgJzgnLCAnLW1hJywgJzIwMCcsICctbWV0YWxfYmluZGluZycsICctaW1hZScsICc8aW5maWxlLm1hZT4nLCAnLW9tYWUnLCAnPG91dGZpbGUubWFlPic=

> <r_lp_tautomer_probability>
1

> <r_epik_Ionization_Penalty>
0.00108228

> <r_epik_Ionization_Penalty_Charging>
0

> <r_epik_Ionization_Penalty_Neutral>
0.00108228

> <r_epik_State_Penalty>
-0

> <r_epik_Charging_Adjusted_Penalty>
0

> <i_epik_Tot_Q>
0

> <i_epik_Tot_abs_Q>
0

> <r_epik_Metal_State_Penalty>
-0

> <b_epik_Metal_Only>
0

> <s_lp_Force_Field>
OPLS_2005

> <r_lp_Energy>
28.7028

> <b_lp_Chiralities_Consistent>
1

> <s_lp_Variant>
AV-unprocessed.smi:3171-1

> <Gold.Version>
5.8.1

> <Gold.Id.Protein>
6NUR|6NUR_protein|mol2

> <Gold.PLP.Fitness>
36.1666

> <Gold.PLP.PLP>
-34.6212

> <Gold.PLP.part.hbond>
-1.6037

> <Gold.PLP.part.metal>
0.0000

> <Gold.PLP.part.buried>
-5.6583

> <Gold.PLP.part.nonpolar>
-27.9983

> <Gold.PLP.part.repulsive>
0.5285

> <Gold.PLP.ligand.clash>
0.0000

> <Gold.PLP.ligand.torsion>
0.1681

> <Gold.PLP.Chemscore.Hbond>
0.6240

> <Gold.PLP.Chemscore.CHOScore>
0.0000

> <Gold.PLP.Chemscore.Metal>
0.0000

> <Gold.Chemscore.Hbonds>
donor molecule, donor type, donor heavy atom, donor atom, acceptor molecule, acceptor atom, score
      P1  H  8011  8017       L1    12  0.29

> <Gold.PLP.Chemscore.Internal.Correction>
0.0097

> <Gold.Rescore>
     Score         DG    S(hbond)    S(metal)    S(lipo)     H(rot)  DE(clash)    DE(int)     intcor
     12.81     -13.19       0.41        0.00      80.86       1.22       0.05       0.33       ----

> <Gold.Chemscore.Fitness>
12.8094

> <Gold.Chemscore.DG>
-13.1863

> <Gold.Chemscore.ZeroCoef>
-5.4800

> <Gold.Chemscore.Hbond>
0.4083

> <Gold.Chemscore.Metal>
0.0000

> <Gold.Chemscore.Lipo>
80.8618

> <Gold.Chemscore.Internal_Hbond>
0.0000

> <Gold.Chemscore.DEClash>
0.0462

> <Gold.Chemscore.DEInternal>
0.3307

> <Gold.Chemscore.Rot>
1.2181

> <Gold.Chemscore.Internal.Correction>
   9.000000E+99

> <Gold.Chemscore.Hbonds>
donor molecule, donor type, donor heavy atom, donor atom, acceptor molecule, acceptor atom, score
      P1  H  8011  8017       L1    12  0.03

> <Gold.Chemscore.Hbond.Weighted>
-1.3637

> <Gold.Chemscore.Metal.Weighted>
-0.0000

> <Gold.Chemscore.Lipo.Weighted>
-9.4608

> <Gold.Chemscore.Internal_Hbond.Weighted>
0.0000

> <Gold.Chemscore.DEClash.Weighted>
0.0462

> <Gold.Chemscore.DEInternal.Weighted>
0.3307

> <Gold.Chemscore.Rot.Weighted>
3.1182

> <Gold.Chemscore.Internal.Correction.Weighted>
   9.000000E+99

> <Gold.Protein.RotatedTorsions>
[ 6907 6896 6895 6894 ] final -165.47 input  -60.11 | X-H torsion
[ 7974 7965 7964 7962 ] final   47.86 input  175.53 | X-H torsion
[ 8008 7997 7996 7995 ] final  164.87 input   59.86 | X-H torsion
[ 10167 10162 10161 10158 ] final  -25.59 input  -65.29 | X-H torsion
[ 10718 10713 10712 10709 ] final  100.57 input   66.30 | X-H torsion
[ 10763 10752 10751 10750 ] final  159.35 input  -60.55 | X-H torsion
[ 11005 11000 10999 10996 ] final  115.92 input  -57.11 | X-H torsion

> <Gold.Protein.ActiveResidues>
 VAL166  LYS551  ARG553  GLY616  TRP617  ASP618  TYR619  PRO620  LYS621  CYS622 
 ASP623  PHE694  ASN695  SER759  ASP760  ASP761  ALA762  ILE779  LEU786  VAL792 
 PHE793  MET794  SER795  GLU796  ALA797  LYS798  CYS799  TRP800  GLU811  SER814 

> <Gold.Protein.RotatedAtoms>
  151.4282  133.3678  159.2764 H   0  0  0  0  0  0  0  0  0  0  0  0  # atno 6907 bound_to 6896
  150.9244  134.8663  159.7521 H   0  0  0  0  0  0  0  0  0  0  0  0  # atno 6908 bound_to 6896
  152.4998  134.4222  159.9536 H   0  0  0  0  0  0  0  0  0  0  0  0  # atno 6909 bound_to 6896
  146.0258  139.4705  142.9868 H   0  0  0  0  0  0  0  0  0  0  0  0  # atno 7974 bound_to 7965
  156.1845  140.1685  156.8211 H   0  0  0  0  0  0  0  0  0  0  0  0  # atno 8008 bound_to 7997
  154.5398  140.0739  156.8524 H   0  0  0  0  0  0  0  0  0  0  0  0  # atno 8009 bound_to 7997
  155.3237  140.3375  155.4243 H   0  0  0  0  0  0  0  0  0  0  0  0  # atno 8010 bound_to 7997
  140.7286  143.4252  151.0889 H   0  0  0  0  0  0  0  0  0  0  0  0  # atno 10167 bound_to 10162
  157.6851  131.0702  150.5121 H   0  0  0  0  0  0  0  0  0  0  0  0  # atno 10718 bound_to 10713
  154.2304  135.2778  155.2892 H   0  0  0  0  0  0  0  0  0  0  0  0  # atno 10763 bound_to 10752
  154.5629  135.5642  153.7027 H   0  0  0  0  0  0  0  0  0  0  0  0  # atno 10764 bound_to 10752
  153.0021  135.6302  154.2446 H   0  0  0  0  0  0  0  0  0  0  0  0  # atno 10765 bound_to 10752
  139.9025  134.9591  156.7119 H   0  0  0  0  0  0  0  0  0  0  0  0  # atno 11005 bound_to 11000
  145.7120  141.0103  143.1448 LP  0  0  0  0  0  0  0  0  0  0  0  0  # atno 17320 bound_to 7965
  144.7009  139.8768  143.7444 LP  0  0  0  0  0  0  0  0  0  0  0  0  # atno 17321 bound_to 7965
  139.7902  143.8229  152.3150 LP  0  0  0  0  0  0  0  0  0  0  0  0  # atno 17342 bound_to 10162
  139.8211  144.7295  150.9572 LP  0  0  0  0  0  0  0  0  0  0  0  0  # atno 17343 bound_to 10162
  156.5438  130.4214  149.6141 LP  0  0  0  0  0  0  0  0  0  0  0  0  # atno 17370 bound_to 10713
  156.2962  130.7152  151.2013 LP  0  0  0  0  0  0  0  0  0  0  0  0  # atno 17371 bound_to 10713
  140.7069  133.9257  155.8059 LP  0  0  0  0  0  0  0  0  0  0  0  0  # atno 17394 bound_to 11000
  141.0330  134.0730  157.3992 LP  0  0  0  0  0  0  0  0  0  0  0  0  # atno 17395 bound_to 11000

$$$$
