AV-unprocessed.smi:287|AV-procd|sdf|2180|dock3
  -GOLD-   2262021553D 1   1.00000     0.00000
 Structure written by MMmdl.
 55 58  0  0  0  0  0  0  0  0  1 V2000
  151.6123  143.1789  157.9513 C   0  0  0  0  0  0  0  0  0  0  0  0
  150.8463  142.1287  157.2226 C   0  0  0  0  0  0  0  0  0  0  0  0
  150.5723  141.9033  155.9053 C   0  0  0  0  0  0  0  0  0  0  0  0
  149.7822  140.7175  155.8307 C   0  0  0  0  0  0  0  0  0  0  0  0
  149.2382  140.0848  154.5568 C   0  0  2  0  0  0  0  0  0  0  0  0
  149.8013  138.6625  154.4017 C   0  0  0  0  0  0  0  0  0  0  0  0
  149.6352  140.7744  153.3872 O   0  0  0  0  0  0  0  0  0  0  0  0
  147.6929  140.0511  154.5271 C   0  0  0  0  0  0  0  0  0  0  0  0
  147.1631  139.2334  153.4407 N   0  0  0  0  0  0  0  0  0  0  0  0
  146.5415  138.0665  153.7102 C   0  0  0  0  0  0  0  0  0  0  0  0
  146.3089  137.6759  154.9910 N   0  0  0  0  0  0  0  0  0  0  0  0
  145.6887  136.5165  155.2330 C   0  0  0  0  0  0  0  0  0  0  0  0
  145.2269  135.6178  154.3600 N   0  0  0  0  0  0  0  0  0  0  0  0
  145.4614  136.0083  153.0737 C   0  0  0  0  0  0  0  0  0  0  0  0
  146.1079  137.2077  152.6679 C   0  0  0  0  0  0  0  0  0  0  0  0
  146.1659  137.2640  151.2813 N   0  0  0  0  0  0  0  0  0  0  0  0
  145.5863  136.1585  150.8951 C   0  0  0  0  0  0  0  0  0  0  0  0
  145.1381  135.3416  151.9128 N   0  0  0  0  0  0  0  0  0  0  0  0
  144.4355  134.0193  151.8368 C   0  0  1  0  0  0  0  0  0  0  0  0
  144.1436  133.7535  150.4969 O   0  0  0  0  0  0  0  0  0  0  0  0
  145.0750  132.8099  149.9790 C   0  0  2  0  0  0  0  0  0  0  0  0
  144.4900  132.1268  148.7339 C   0  0  0  0  0  0  0  0  0  0  0  0
  143.9711  133.0991  147.8518 O   0  0  0  0  0  0  0  0  0  0  0  0
  145.2429  131.8753  151.1766 C   0  0  1  0  0  0  0  0  0  0  0  0
  146.3807  131.0398  151.0693 O   0  0  0  0  0  0  0  0  0  0  0  0
  145.3086  132.8487  152.3516 C   0  0  1  0  0  0  0  0  0  0  0  0
  146.6432  133.2184  152.6683 O   0  0  0  0  0  0  0  0  0  0  0  0
  149.6297  140.3156  157.1362 C   0  0  0  0  0  0  0  0  0  0  0  0
  148.9228  139.1775  157.7960 C   0  0  0  0  0  0  0  0  0  0  0  0
  150.2741  141.1640  157.9854 O   0  0  0  0  0  0  0  0  0  0  0  0
  143.5138  134.1641  152.4018 H   0  0  0  0  0  0  0  0  0  0  0  0
  146.0254  133.2984  149.7543 H   0  0  0  0  0  0  0  0  0  0  0  0
  144.3537  131.2512  151.2789 H   0  0  0  0  0  0  0  0  0  0  0  0
  144.8505  132.4193  153.2431 H   0  0  0  0  0  0  0  0  0  0  0  0
  152.1544  143.8188  157.2548 H   0  0  0  0  0  0  0  0  0  0  0  0
  152.3370  142.7293  158.6305 H   0  0  0  0  0  0  0  0  0  0  0  0
  150.9427  143.8083  158.5376 H   0  0  0  0  0  0  0  0  0  0  0  0
  150.9048  142.5188  155.0825 H   0  0  0  0  0  0  0  0  0  0  0  0
  149.5164  138.0308  155.2441 H   0  0  0  0  0  0  0  0  0  0  0  0
  150.8912  138.6707  154.3529 H   0  0  0  0  0  0  0  0  0  0  0  0
  149.4331  138.1819  153.4944 H   0  0  0  0  0  0  0  0  0  0  0  0
  149.6849  140.1539  152.6763 H   0  0  0  0  0  0  0  0  0  0  0  0
  147.2925  139.7179  155.4861 H   0  0  0  0  0  0  0  0  0  0  0  0
  147.3253  141.0665  154.3719 H   0  0  0  0  0  0  0  0  0  0  0  0
  147.2577  139.6142  152.5097 H   0  0  0  0  0  0  0  0  0  0  0  0
  145.5423  136.2740  156.2751 H   0  0  0  0  0  0  0  0  0  0  0  0
  145.4707  135.9147  149.8491 H   0  0  0  0  0  0  0  0  0  0  0  0
  145.2715  131.5855  148.2000 H   0  0  0  0  0  0  0  0  0  0  0  0
  143.7187  131.4037  149.0007 H   0  0  0  0  0  0  0  0  0  0  0  0
  144.6919  133.5895  147.4871 H   0  0  0  0  0  0  0  0  0  0  0  0
  147.0563  131.5121  150.6070 H   0  0  0  0  0  0  0  0  0  0  0  0
  147.0981  132.4517  152.9822 H   0  0  0  0  0  0  0  0  0  0  0  0
  147.8681  139.1664  157.5211 H   0  0  0  0  0  0  0  0  0  0  0  0
  148.9850  139.2494  158.8821 H   0  0  0  0  0  0  0  0  0  0  0  0
  149.3616  138.2257  157.4973 H   0  0  0  0  0  0  0  0  0  0  0  0
  1  2  1  0  0  0  0
  1 35  1  0  0  0  0
  1 36  1  0  0  0  0
  1 37  1  0  0  0  0
  2 30  1  0  0  0  0
  2  3  2  0  0  0  0
  3  4  1  0  0  0  0
  3 38  1  0  0  0  0
  4  5  1  0  0  0  0
  4 28  2  0  0  0  0
  5  6  1  0  0  0  0
  5  7  1  0  0  0  0
  5  8  1  0  0  0  0
  6 39  1  0  0  0  0
  6 40  1  0  0  0  0
  6 41  1  0  0  0  0
  7 42  1  0  0  0  0
  8  9  1  0  0  0  0
  8 43  1  0  0  0  0
  8 44  1  0  0  0  0
  9 10  1  0  0  0  0
  9 45  1  0  0  0  0
 10 15  1  0  0  0  0
 10 11  2  0  0  0  0
 11 12  1  0  0  0  0
 12 13  2  0  0  0  0
 12 46  1  0  0  0  0
 13 14  1  0  0  0  0
 14 18  1  0  0  0  0
 14 15  2  0  0  0  0
 15 16  1  0  0  0  0
 16 17  2  0  0  0  0
 17 18  1  0  0  0  0
 17 47  1  0  0  0  0
 18 19  1  0  0  0  0
 19 31  1  0  0  0  0
 19 26  1  0  0  0  0
 19 20  1  0  0  0  0
 20 21  1  0  0  0  0
 21 32  1  0  0  0  0
 21 22  1  0  0  0  0
 21 24  1  0  0  0  0
 22 23  1  0  0  0  0
 22 48  1  0  0  0  0
 22 49  1  0  0  0  0
 23 50  1  0  0  0  0
 24 33  1  0  0  0  0
 24 25  1  0  0  0  0
 24 26  1  0  0  0  0
 25 51  1  0  0  0  0
 26 34  1  0  0  0  0
 26 27  1  0  0  0  0
 27 52  1  0  0  0  0
 28 29  1  0  0  0  0
 28 30  1  0  0  0  0
 29 53  1  0  0  0  0
 29 54  1  0  0  0  0
 29 55  1  0  0  0  0
M  END
> <s_m_source_file>
AV-unprocessed.smi

> <i_m_source_file_index>
287

> <i_lp_mmshare_version>
43012

> <i_f3d_flags>
0

> <s_epik_input>
W0NIM11jMVtjSF1jKGMobzEpW0NIM10pW0NAQF0oW0NIM10pKFtPSF0pW0NIMl1bTkhdYyhuW2NIXW4yKWMoYzIzKW5bY0hdbjNbQ0BASF00T1tDQEhdKFtDSDJdW09IXSlbQ0BASF0oW09IXSlbQ0BIXTRbT0hd

> <s_epik_cmdline>
J2VwaWtfcHl0aG9uJywgJy1waCcsICc3LjAnLCAnLXRuJywgJzgnLCAnLW1hJywgJzIwMCcsICctbWV0YWxfYmluZGluZycsICctaW1hZScsICc8aW5maWxlLm1hZT4nLCAnLW9tYWUnLCAnPG91dGZpbGUubWFlPic=

> <r_lp_tautomer_probability>
1

> <r_epik_Ionization_Penalty>
0.000992612

> <r_epik_Ionization_Penalty_Charging>
0

> <r_epik_Ionization_Penalty_Neutral>
0.000992612

> <r_epik_State_Penalty>
-0

> <r_epik_Charging_Adjusted_Penalty>
0

> <i_epik_Tot_Q>
0

> <i_epik_Tot_abs_Q>
0

> <r_epik_Metal_State_Penalty>
-0

> <b_epik_Metal_Only>
0

> <s_epik_Chemistry_Notes>
This compound contains an acetal/aminal-like group ( X-CH(R)-Y where X, Y are N, S, or O) that may be acid/base labile, releasing an aldehyde.

> <s_lp_Force_Field>
OPLS_2005

> <r_lp_Energy>
46.7929

> <b_lp_Chiralities_Consistent>
1

> <s_lp_Variant>
AV-unprocessed.smi:287-4

> <Gold.Version>
5.8.1

> <Gold.Id.Protein>
6NUR|6NUR_protein|mol2

> <Gold.PLP.Fitness>
53.1188

> <Gold.PLP.PLP>
-40.7876

> <Gold.PLP.part.hbond>
-5.9459

> <Gold.PLP.part.metal>
0.0000

> <Gold.PLP.part.buried>
-6.2851

> <Gold.PLP.part.nonpolar>
-31.1218

> <Gold.PLP.part.repulsive>
2.1671

> <Gold.PLP.ligand.clash>
0.0000

> <Gold.PLP.ligand.torsion>
0.3769

> <Gold.PLP.Chemscore.Hbond>
3.3043

> <Gold.PLP.Chemscore.CHOScore>
0.9834

> <Gold.PLP.Chemscore.Metal>
0.0000

> <Gold.Chemscore.Hbonds>
donor molecule, donor type, donor heavy atom, donor atom, acceptor molecule, acceptor atom, score
      L1  H     7    42       P1  7957  0.83
      L1  H    23    50       P1  7921  1.00
      L1  H    25    51       P1 10747  0.50
      P1  H  7989  7998       L1     7  0.17
      P1  H  8011  8017       L1     7  0.90
      L1  C    17    47       P1  7921  0.96

> <Gold.PLP.Chemscore.Internal.Correction>
0.2219

> <Gold.Rescore>
     Score         DG    S(hbond)    S(metal)    S(lipo)     H(rot)  DE(clash)    DE(int)     intcor
      8.56     -11.52       2.46        0.00      96.72       5.27       1.69       1.27       ----

> <Gold.Chemscore.Fitness>
8.5646

> <Gold.Chemscore.DG>
-11.5181

> <Gold.Chemscore.ZeroCoef>
-5.4800

> <Gold.Chemscore.Hbond>
2.4568

> <Gold.Chemscore.Metal>
0.0000

> <Gold.Chemscore.Lipo>
96.7201

> <Gold.Chemscore.Internal_Hbond>
0.0000

> <Gold.Chemscore.DEClash>
1.6862

> <Gold.Chemscore.DEInternal>
1.2673

> <Gold.Chemscore.Rot>
5.2672

> <Gold.Chemscore.Internal.Correction>
   9.000000E+99

> <Gold.Chemscore.Hbonds>
donor molecule, donor type, donor heavy atom, donor atom, acceptor molecule, acceptor atom, score
      L1  H     7    42       P1  7957  0.77
      L1  H    23    50       P1  7921  0.83
      L1  H    25    51       P1 10747  0.47
      P1  H  7954  7966       L1    16  0.01
      P1  H  7989  7998       L1     7  0.01
      P1  H  8011  8017       L1     7  0.18

> <Gold.Chemscore.Hbond.Weighted>
-8.2058

> <Gold.Chemscore.Metal.Weighted>
-0.0000

> <Gold.Chemscore.Lipo.Weighted>
-11.3163

> <Gold.Chemscore.Internal_Hbond.Weighted>
0.0000

> <Gold.Chemscore.DEClash.Weighted>
1.6862

> <Gold.Chemscore.DEInternal.Weighted>
1.2673

> <Gold.Chemscore.Rot.Weighted>
13.4839

> <Gold.Chemscore.Internal.Correction.Weighted>
   9.000000E+99

> <Gold.Protein.RotatedTorsions>
[ 6907 6896 6895 6894 ] final -155.52 input  -60.11 | X-H torsion
[ 7974 7965 7964 7962 ] final  -39.60 input  175.53 | X-H torsion
[ 8008 7997 7996 7995 ] final   75.08 input   59.86 | X-H torsion
[ 10167 10162 10161 10158 ] final  156.01 input  -65.29 | X-H torsion
[ 10718 10713 10712 10709 ] final  -71.00 input   66.30 | X-H torsion
[ 10763 10752 10751 10750 ] final  -83.23 input  -60.55 | X-H torsion
[ 11005 11000 10999 10996 ] final   54.24 input  -57.11 | X-H torsion

> <Gold.Protein.ActiveResidues>
 VAL166  LYS551  ARG553  GLY616  TRP617  ASP618  TYR619  PRO620  LYS621  CYS622 
 ASP623  PHE694  ASN695  SER759  ASP760  ASP761  ALA762  ILE779  LEU786  VAL792 
 PHE793  MET794  SER795  GLU796  ALA797  LYS798  CYS799  TRP800  GLU811  SER814 

> <Gold.Protein.RotatedAtoms>
  151.2737  133.4243  159.2622 H   0  0  0  0  0  0  0  0  0  0  0  0  # atno 6907 bound_to 6896
  151.0422  134.9615  159.8178 H   0  0  0  0  0  0  0  0  0  0  0  0  # atno 6908 bound_to 6896
  152.5367  134.2695  159.9018 H   0  0  0  0  0  0  0  0  0  0  0  0  # atno 6909 bound_to 6896
  146.0382  140.6644  142.9100 H   0  0  0  0  0  0  0  0  0  0  0  0  # atno 7974 bound_to 7965
  155.8077  140.3474  155.5439 H   0  0  0  0  0  0  0  0  0  0  0  0  # atno 8008 bound_to 7997
  155.8473  140.0951  157.1717 H   0  0  0  0  0  0  0  0  0  0  0  0  # atno 8009 bound_to 7997
  154.4006  140.1383  156.3789 H   0  0  0  0  0  0  0  0  0  0  0  0  # atno 8010 bound_to 7997
  139.4821  144.5048  151.8115 H   0  0  0  0  0  0  0  0  0  0  0  0  # atno 10167 bound_to 10162
  156.0382  130.4342  150.2378 H   0  0  0  0  0  0  0  0  0  0  0  0  # atno 10718 bound_to 10713
  154.5852  135.5563  153.7224 H   0  0  0  0  0  0  0  0  0  0  0  0  # atno 10763 bound_to 10752
  153.0096  135.6330  154.1926 H   0  0  0  0  0  0  0  0  0  0  0  0  # atno 10764 bound_to 10752
  154.1867  135.2884  155.3015 H   0  0  0  0  0  0  0  0  0  0  0  0  # atno 10765 bound_to 10752
  140.0702  134.5480  155.9055 H   0  0  0  0  0  0  0  0  0  0  0  0  # atno 11005 bound_to 11000
  144.7062  140.3859  143.7116 LP  0  0  0  0  0  0  0  0  0  0  0  0  # atno 17320 bound_to 7965
  145.6929  139.1643  143.2637 LP  0  0  0  0  0  0  0  0  0  0  0  0  # atno 17321 bound_to 7965
  140.4544  144.1809  150.5900 LP  0  0  0  0  0  0  0  0  0  0  0  0  # atno 17342 bound_to 10162
  140.4550  143.2471  151.9296 LP  0  0  0  0  0  0  0  0  0  0  0  0  # atno 17343 bound_to 10162
  157.0476  131.0053  151.3264 LP  0  0  0  0  0  0  0  0  0  0  0  0  # atno 17370 bound_to 10713
  157.5164  130.7970  149.7761 LP  0  0  0  0  0  0  0  0  0  0  0  0  # atno 17371 bound_to 10713
  141.2009  133.6615  156.5920 LP  0  0  0  0  0  0  0  0  0  0  0  0  # atno 17394 bound_to 11000
  140.3638  134.7664  157.4552 LP  0  0  0  0  0  0  0  0  0  0  0  0  # atno 17395 bound_to 11000

$$$$
