AV-unprocessed.smi:2170|AV-procd|sdf|8824|dock6
  -GOLD-   2272012 13D 1   1.00000     0.00000
 Structure written by MMmdl.
 46 47  0  0  0  0  0  0  0  0  1 V2000
  149.0234  133.0140  153.4311 C   0  0  0  0  0  0  0  0  0  0  0  0
  149.8526  133.9075  154.3693 C   0  0  0  0  0  0  0  0  0  0  0  0
  150.2890  133.1687  155.6471 C   0  0  0  0  0  0  0  0  0  0  0  0
  149.1387  135.1696  154.6762 N   0  0  0  0  0  0  0  0  0  0  0  0
  147.7745  135.0175  155.2148 C   0  0  0  0  0  0  0  0  0  0  0  0
  150.0867  136.4804  155.3094 S   0  0  0  0  0  0  0  0  0  0  0  0
  149.3486  137.1058  156.4176 O   0  0  0  0  0  0  0  0  0  0  0  0
  151.4764  136.0319  155.4888 O   0  0  0  0  0  0  0  0  0  0  0  0
  150.0483  137.5482  153.9556 N   0  0  0  0  0  0  0  0  0  0  0  0
  149.4164  138.8604  154.0774 C   0  0  0  0  0  0  0  0  0  0  0  0
  150.1116  139.7521  155.0871 C   0  0  0  0  0  0  0  0  0  0  0  0
  151.3366  139.3707  155.6675 C   0  0  0  0  0  0  0  0  0  0  0  0
  151.9397  140.2256  156.6097 C   0  0  0  0  0  0  0  0  0  0  0  0
  151.3003  141.4429  156.9470 C   0  0  0  0  0  0  0  0  0  0  0  0
  151.8869  142.3153  157.8897 N   0  0  0  0  0  0  0  0  0  0  0  0
  151.4067  143.6947  157.8628 C   0  0  0  0  0  0  0  0  0  0  0  0
  152.3271  144.5991  158.7007 C   0  0  0  0  0  0  0  0  0  0  0  0
  152.4420  144.0798  160.0214 O   0  0  0  0  0  0  0  0  0  0  0  0
  153.0174  142.7776  160.0295 C   0  0  0  0  0  0  0  0  0  0  0  0
  152.1196  141.8089  159.2412 C   0  0  0  0  0  0  0  0  0  0  0  0
  150.1171  141.8012  156.3886 N   0  0  0  0  0  0  0  0  0  0  0  0
  149.5433  140.9782  155.4860 C   0  0  0  0  0  0  0  0  0  0  0  0
  149.6142  132.1640  153.0888 H   0  0  0  0  0  0  0  0  0  0  0  0
  148.7026  133.5652  152.5465 H   0  0  0  0  0  0  0  0  0  0  0  0
  148.1352  132.6117  153.9172 H   0  0  0  0  0  0  0  0  0  0  0  0
  150.7587  134.1615  153.8197 H   0  0  0  0  0  0  0  0  0  0  0  0
  150.9129  132.3093  155.4009 H   0  0  0  0  0  0  0  0  0  0  0  0
  149.4367  132.7976  156.2167 H   0  0  0  0  0  0  0  0  0  0  0  0
  150.8725  133.8191  156.2995 H   0  0  0  0  0  0  0  0  0  0  0  0
  147.8104  134.7442  156.2698 H   0  0  0  0  0  0  0  0  0  0  0  0
  147.2121  134.2562  154.6771 H   0  0  0  0  0  0  0  0  0  0  0  0
  147.2209  135.9513  155.1273 H   0  0  0  0  0  0  0  0  0  0  0  0
  149.9107  137.0839  153.0584 H   0  0  0  0  0  0  0  0  0  0  0  0
  149.4454  139.3518  153.1046 H   0  0  0  0  0  0  0  0  0  0  0  0
  148.3636  138.7353  154.3339 H   0  0  0  0  0  0  0  0  0  0  0  0
  151.8048  138.4348  155.4006 H   0  0  0  0  0  0  0  0  0  0  0  0
  152.8696  139.9310  157.0722 H   0  0  0  0  0  0  0  0  0  0  0  0
  151.3549  144.0861  156.8479 H   0  0  0  0  0  0  0  0  0  0  0  0
  150.3929  143.7212  158.2646 H   0  0  0  0  0  0  0  0  0  0  0  0
  153.3143  144.6807  158.2425 H   0  0  0  0  0  0  0  0  0  0  0  0
  151.9161  145.6074  158.7513 H   0  0  0  0  0  0  0  0  0  0  0  0
  154.0224  142.8091  159.6055 H   0  0  0  0  0  0  0  0  0  0  0  0
  153.1177  142.4401  161.0609 H   0  0  0  0  0  0  0  0  0  0  0  0
  151.1630  141.6880  159.7511 H   0  0  0  0  0  0  0  0  0  0  0  0
  152.5955  140.8284  159.2009 H   0  0  0  0  0  0  0  0  0  0  0  0
  148.6003  141.3080  155.0752 H   0  0  0  0  0  0  0  0  0  0  0  0
  1  2  1  0  0  0  0
  1 23  1  0  0  0  0
  1 24  1  0  0  0  0
  1 25  1  0  0  0  0
  2  3  1  0  0  0  0
  2  4  1  0  0  0  0
  2 26  1  0  0  0  0
  3 27  1  0  0  0  0
  3 28  1  0  0  0  0
  3 29  1  0  0  0  0
  4  5  1  0  0  0  0
  4  6  1  0  0  0  0
  5 30  1  0  0  0  0
  5 31  1  0  0  0  0
  5 32  1  0  0  0  0
  6  7  2  0  0  0  0
  6  8  2  0  0  0  0
  6  9  1  0  0  0  0
  9 10  1  0  0  0  0
  9 33  1  0  0  0  0
 10 11  1  0  0  0  0
 10 34  1  0  0  0  0
 10 35  1  0  0  0  0
 11 22  1  0  0  0  0
 11 12  2  0  0  0  0
 12 13  1  0  0  0  0
 12 36  1  0  0  0  0
 13 14  2  0  0  0  0
 13 37  1  0  0  0  0
 14 15  1  0  0  0  0
 14 21  1  0  0  0  0
 15 20  1  0  0  0  0
 15 16  1  0  0  0  0
 16 17  1  0  0  0  0
 16 38  1  0  0  0  0
 16 39  1  0  0  0  0
 17 18  1  0  0  0  0
 17 40  1  0  0  0  0
 17 41  1  0  0  0  0
 18 19  1  0  0  0  0
 19 20  1  0  0  0  0
 19 42  1  0  0  0  0
 19 43  1  0  0  0  0
 20 44  1  0  0  0  0
 20 45  1  0  0  0  0
 21 22  2  0  0  0  0
 22 46  1  0  0  0  0
M  END
> <s_m_source_file>
AV-unprocessed.smi

> <i_m_source_file_index>
2170

> <i_lp_mmshare_version>
43012

> <i_f3d_flags>
0

> <s_epik_input>
W0NIM11bQ0hdKFtDSDNdKU4oW0NIM10pUyg9TykoPU8pW05IXVtDSDJdYzFbY0hdW2NIXWMobltjSF0xKU4yW0NIMl1bQ0gyXU9bQ0gyXVtDSDJdMg==

> <s_epik_cmdline>
J2VwaWtfcHl0aG9uJywgJy1waCcsICc3LjAnLCAnLXRuJywgJzgnLCAnLW1hJywgJzIwMCcsICctbWV0YWxfYmluZGluZycsICctaW1hZScsICc8aW5maWxlLm1hZT4nLCAnLW9tYWUnLCAnPG91dGZpbGUubWFlPic=

> <r_lp_tautomer_probability>
1

> <r_epik_Ionization_Penalty>
0.00966832

> <r_epik_Ionization_Penalty_Charging>
0

> <r_epik_Ionization_Penalty_Neutral>
0.00966832

> <r_epik_State_Penalty>
0.00558185

> <r_epik_Charging_Adjusted_Penalty>
0.00558185

> <i_epik_Tot_Q>
0

> <i_epik_Tot_abs_Q>
0

> <r_epik_Metal_State_Penalty>
0.341978

> <b_epik_Metal_Only>
0

> <s_lp_Force_Field>
OPLS_2005

> <r_lp_Energy>
19.49

> <b_lp_Chiralities_Consistent>
1

> <s_lp_Variant>
AV-unprocessed.smi:2170-1

> <Gold.Version>
5.8.1

> <Gold.Id.Protein>
6NUR|6NUR_protein|mol2

> <Gold.PLP.Fitness>
45.5854

> <Gold.PLP.PLP>
-39.8865

> <Gold.PLP.part.hbond>
-2.5993

> <Gold.PLP.part.metal>
0.0000

> <Gold.PLP.part.buried>
-4.7592

> <Gold.PLP.part.nonpolar>
-33.9998

> <Gold.PLP.part.repulsive>
1.0441

> <Gold.PLP.ligand.clash>
0.0000

> <Gold.PLP.ligand.torsion>
0.9483

> <Gold.PLP.Chemscore.Hbond>
2.0000

> <Gold.PLP.Chemscore.CHOScore>
0.0000

> <Gold.PLP.Chemscore.Metal>
0.0000

> <Gold.Chemscore.Hbonds>
donor molecule, donor type, donor heavy atom, donor atom, acceptor molecule, acceptor atom, score
      L1  H     9    33       P1  7948  0.90
      P1  H 10752 10763       L1     8  1.00

> <Gold.PLP.Chemscore.Internal.Correction>
1.5955

> <Gold.Rescore>
     Score         DG    S(hbond)    S(metal)    S(lipo)     H(rot)  DE(clash)    DE(int)     intcor
     16.95     -17.95       1.94        0.00      94.58       1.98       0.15       0.85       ----

> <Gold.Chemscore.Fitness>
16.9479

> <Gold.Chemscore.DG>
-17.9486

> <Gold.Chemscore.ZeroCoef>
-5.4800

> <Gold.Chemscore.Hbond>
1.9379

> <Gold.Chemscore.Metal>
0.0000

> <Gold.Chemscore.Lipo>
94.5792

> <Gold.Chemscore.Internal_Hbond>
0.0000

> <Gold.Chemscore.DEClash>
0.1476

> <Gold.Chemscore.DEInternal>
0.8531

> <Gold.Chemscore.Rot>
1.9803

> <Gold.Chemscore.Internal.Correction>
   9.000000E+99

> <Gold.Chemscore.Hbonds>
donor molecule, donor type, donor heavy atom, donor atom, acceptor molecule, acceptor atom, score
      L1  H     9    33       P1  7948  0.18
      P1  H 10752 10763       L1     8  1.00

> <Gold.Chemscore.Hbond.Weighted>
-6.4724

> <Gold.Chemscore.Metal.Weighted>
-0.0000

> <Gold.Chemscore.Lipo.Weighted>
-11.0658

> <Gold.Chemscore.Internal_Hbond.Weighted>
0.0000

> <Gold.Chemscore.DEClash.Weighted>
0.1476

> <Gold.Chemscore.DEInternal.Weighted>
0.8531

> <Gold.Chemscore.Rot.Weighted>
5.0696

> <Gold.Chemscore.Internal.Correction.Weighted>
   9.000000E+99

> <Gold.Protein.RotatedTorsions>
[ 6907 6896 6895 6894 ] final    5.11 input  -60.11 | X-H torsion
[ 7974 7965 7964 7962 ] final   61.73 input  175.53 | X-H torsion
[ 8008 7997 7996 7995 ] final  123.63 input   59.86 | X-H torsion
[ 10167 10162 10161 10158 ] final  113.52 input  -65.29 | X-H torsion
[ 10718 10713 10712 10709 ] final   69.55 input   66.30 | X-H torsion
[ 10763 10752 10751 10750 ] final   81.50 input  -60.55 | X-H torsion
[ 11005 11000 10999 10996 ] final  -96.03 input  -57.11 | X-H torsion

> <Gold.Protein.ActiveResidues>
 VAL166  LYS551  ARG553  GLY616  TRP617  ASP618  TYR619  PRO620  LYS621  CYS622 
 ASP623  PHE694  ASN695  SER759  ASP760  ASP761  ALA762  ILE779  LEU786  VAL792 
 PHE793  MET794  SER795  GLU796  ALA797  LYS798  CYS799  TRP800  GLU811  SER814 

> <Gold.Protein.RotatedAtoms>
  151.6521  135.1000  160.0162 H   0  0  0  0  0  0  0  0  0  0  0  0  # atno 6907 bound_to 6896
  152.3995  133.6792  159.6312 H   0  0  0  0  0  0  0  0  0  0  0  0  # atno 6908 bound_to 6896
  150.7897  133.8733  159.3306 H   0  0  0  0  0  0  0  0  0  0  0  0  # atno 6909 bound_to 6896
  145.8814  139.3446  143.0704 H   0  0  0  0  0  0  0  0  0  0  0  0  # atno 7974 bound_to 7965
  156.2773  140.2758  156.1658 H   0  0  0  0  0  0  0  0  0  0  0  0  # atno 8008 bound_to 7997
  155.0706  140.0387  157.2625 H   0  0  0  0  0  0  0  0  0  0  0  0  # atno 8009 bound_to 7997
  154.7043  140.2655  155.6695 H   0  0  0  0  0  0  0  0  0  0  0  0  # atno 8010 bound_to 7997
  139.6455  144.7126  151.2151 H   0  0  0  0  0  0  0  0  0  0  0  0  # atno 10167 bound_to 10162
  157.6352  130.9431  150.0529 H   0  0  0  0  0  0  0  0  0  0  0  0  # atno 10718 bound_to 10713
  153.1122  135.4763  154.9055 H   0  0  0  0  0  0  0  0  0  0  0  0  # atno 10763 bound_to 10752
  154.7492  135.3102  154.8590 H   0  0  0  0  0  0  0  0  0  0  0  0  # atno 10764 bound_to 10752
  153.9176  135.6858  153.4802 H   0  0  0  0  0  0  0  0  0  0  0  0  # atno 10765 bound_to 10752
  141.1424  133.8068  157.0515 H   0  0  0  0  0  0  0  0  0  0  0  0  # atno 11005 bound_to 11000
  145.9019  140.9237  143.0499 LP  0  0  0  0  0  0  0  0  0  0  0  0  # atno 17320 bound_to 7965
  144.6727  140.1043  143.7459 LP  0  0  0  0  0  0  0  0  0  0  0  0  # atno 17321 bound_to 7965
  140.7512  143.6238  150.8488 LP  0  0  0  0  0  0  0  0  0  0  0  0  # atno 17342 bound_to 10162
  139.9880  143.5878  152.2920 LP  0  0  0  0  0  0  0  0  0  0  0  0  # atno 17343 bound_to 10162
  156.1585  130.3643  149.9334 LP  0  0  0  0  0  0  0  0  0  0  0  0  # atno 17370 bound_to 10713
  156.7337  130.9053  151.3627 LP  0  0  0  0  0  0  0  0  0  0  0  0  # atno 17371 bound_to 10713
  140.0629  134.9745  157.1335 LP  0  0  0  0  0  0  0  0  0  0  0  0  # atno 17394 bound_to 11000
  140.3823  134.2274  155.7170 LP  0  0  0  0  0  0  0  0  0  0  0  0  # atno 17395 bound_to 11000

$$$$
