#       Name:                AV-unprocessed.smi:199
#       Creating user name   scv26
#       Creation time:       Thu Mar 26 19:44:59 2020


#       File generated by GOLD software.
#

@<TRIPOS>MOLECULE
AV-unprocessed.smi:199
    61    65     1
SMALL
NO_CHARGES


@<TRIPOS>ATOM
      1 ****        -6.2185   1.6641  -1.0173 C.3            1 S1                 0.0000
      2 ****        -5.3806   1.9156   0.2470 C.3            1 S1                 0.0000
      3 ****        -5.5826   3.2444   0.7269 O.3            1 S1                 0.0000
      4 ****        -4.3445   3.9383   0.7768 C.3            1 S1                 0.0000
      5 ****        -3.3100   2.8406   0.9844 C.3            1 S1                 0.0000
      6 ****        -3.8518   1.7106   0.1196 C.3            1 S1                 0.0000
      7 ****        -3.4213   1.9271  -1.2149 O.3            1 S1                 0.0000
      8 ****        -3.3890   0.3010   0.5596 C.3            1 S1                 0.0000
      9 ****        -1.9427   0.1654   0.6415 N.pl3          1 S1                 0.0000
     10 ****        -1.1597   0.3771   1.7525 C.2            1 S1                 0.0000
     11 ****         0.1188   0.1921   1.5732 N.2            1 S1                 0.0000
     12 ****         0.2315  -0.1910   0.2412 C.ar           1 S1                 0.0000
     13 ****         1.3190  -0.5488  -0.6100 C.ar           1 S1                 0.0000
     14 ****         2.6223  -0.5931  -0.2150 N.3            1 S1                 0.0000
     15 ****         2.9871  -1.0871   1.1055 C.3            1 S1                 0.0000
     16 ****         2.7893  -2.6119   0.9998 C.3            1 S1                 0.0000
     17 ****         3.1994  -2.8649  -0.4588 C.3            1 S1                 0.0000
     18 ****         3.5783  -1.4381  -0.9203 C.3            1 S1                 0.0000
     19 ****         4.9134  -0.9718  -0.2959 C.3            1 S1                 0.0000
     20 ****         6.1484  -1.8680  -0.5067 C.3            1 S1                 0.0000
     21 ****         6.4306  -1.9994  -1.8835 O.3            1 S1                 0.0000
     22 ****         4.4955  -0.7855   1.1732 C.3            1 S1                 0.0000
     23 ****         1.0216  -0.8381  -1.9052 N.ar           1 S1                 0.0000
     24 ****        -0.2421  -0.8133  -2.3362 C.ar           1 S1                 0.0000
     25 ****        -1.3491  -0.5202  -1.6537 N.ar           1 S1                 0.0000
     26 ****        -1.0615  -0.2061  -0.3589 C.ar           1 S1                 0.0000
     27 ****        -6.0582   0.6561  -1.4007 H              1 S1                 0.0000
     28 ****        -5.9731   2.3715  -1.8100 H              1 S1                 0.0000
     29 ****        -7.2816   1.7720  -0.8020 H              1 S1                 0.0000
     30 ****        -5.7592   1.2646   1.0360 H              1 S1                 0.0000
     31 ****        -4.1812   4.4479  -0.1737 H              1 S1                 0.0000
     32 ****        -4.3339   4.6846   1.5712 H              1 S1                 0.0000
     33 ****        -2.2973   3.1507   0.7223 H              1 S1                 0.0000
     34 ****        -3.3090   2.5445   2.0343 H              1 S1                 0.0000
     35 ****        -2.4862   1.7960  -1.2547 H              1 S1                 0.0000
     36 ****        -3.7996   0.0613   1.5413 H              1 S1                 0.0000
     37 ****        -3.7735  -0.4576  -0.1238 H              1 S1                 0.0000
     38 ****        -1.5683   0.6805   2.7055 H              1 S1                 0.0000
     39 ****         2.4542  -0.6426   1.9437 H              1 S1                 0.0000
     40 ****         3.3979  -3.1672   1.7143 H              1 S1                 0.0000
     41 ****         1.7453  -2.8847   1.1598 H              1 S1                 0.0000
     42 ****         4.0024  -3.5926  -0.5628 H              1 S1                 0.0000
     43 ****         2.3491  -3.2420  -1.0285 H              1 S1                 0.0000
     44 ****         3.5724  -1.3214  -2.0048 H              1 S1                 0.0000
     45 ****         5.1445   0.0131  -0.7067 H              1 S1                 0.0000
     46 ****         7.0155  -1.4193  -0.0210 H              1 S1                 0.0000
     47 ****         6.0218  -2.8542  -0.0620 H              1 S1                 0.0000
     48 ****         7.2059  -2.5308  -1.9822 H              1 S1                 0.0000
     49 ****         4.6762   0.2413   1.4939 H              1 S1                 0.0000
     50 ****         5.0208  -1.4491   1.8615 H              1 S1                 0.0000
     51 ****        -0.3861  -1.0639  -3.3769 H              1 S1                 0.0000
     52 ****        -5.9787   3.2082   1.6444 LP             1 S1                 0.0000
     53 ****        -6.2075   3.7265   0.1129 LP             1 S1                 0.0000
     54 ****        -3.6427   2.8619  -1.4929 LP             1 S1                 0.0000
     55 ****        -3.8785   1.2806  -1.8255 LP             1 S1                 0.0000
     56 ****         0.8531   0.3013   2.2432 LP             1 S1                 0.0000
     57 ****         2.6783   0.3943  -0.3632 LP             1 S1                 0.0000
     58 ****         6.5878  -1.0962  -2.2831 LP             1 S1                 0.0000
     59 ****         5.6599  -2.4385  -2.3451 LP             1 S1                 0.0000
     60 ****         1.7569  -1.0718  -2.5414 LP             1 S1                 0.0000
     61 ****        -2.2709  -0.5295  -2.0413 LP             1 S1                 0.0000
@<TRIPOS>BOND
    1    1    2 1     
    2    1   27 1     
    3    1   28 1     
    4    1   29 1     
    5    2    6 1     
    6    2    3 1     
    7    2   30 1     
    8    3    4 1     
    9    4    5 1     
   10    4   31 1     
   11    4   32 1     
   12    5    6 1     
   13    5   33 1     
   14    5   34 1     
   15    6    7 1     
   16    6    8 1     
   17    7   35 1     
   18    8    9 1     
   19    8   36 1     
   20    8   37 1     
   21    9   26 1     
   22    9   10 1     
   23   10   11 2     
   24   10   38 1     
   25   11   12 1     
   26   12   26 ar    
   27   12   13 ar    
   28   13   14 1     
   29   13   23 ar    
   30   14   18 1     
   31   14   15 1     
   32   15   22 1     
   33   15   16 1     
   34   15   39 1     
   35   16   17 1     
   36   16   40 1     
   37   16   41 1     
   38   17   18 1     
   39   17   42 1     
   40   17   43 1     
   41   18   19 1     
   42   18   44 1     
   43   19   20 1     
   44   19   22 1     
   45   19   45 1     
   46   20   21 1     
   47   20   46 1     
   48   20   47 1     
   49   21   48 1     
   50   22   49 1     
   51   22   50 1     
   52   23   24 ar    
   53   24   25 ar    
   54   24   51 1     
   55   25   26 ar    
   56    3   52 1     
   57    3   53 1     
   58    7   54 1     
   59    7   55 1     
   60   11   56 1     
   61   14   57 1     
   62   21   58 1     
   63   21   59 1     
   64   23   60 1     
   65   25   61 1     
@<TRIPOS>SUBSTRUCTURE
      1 S1             1
@<TRIPOS>SET
LONE_PAIRS      STATIC     ATOMS    <user>   **** ""
10 52 53 54 55 56 57 58 59 60 61
DONOR_HYDROGENS      STATIC     ATOMS    <user>   **** ""
2 35 48
ATOM$BLUE        STATIC     ATOMS    COLORGROUP SYSTEM
10 52 53 54 55 56 57 58 59 60 61
ATOM$RED        STATIC     ATOMS    COLORGROUP SYSTEM
2 35 48
