AV-unprocessed.smi:618|AV-procd|sdf|3078|dock3
  -GOLD-   22720 0 03D 1   1.00000     0.00000
 Structure written by MMmdl.
 41 43  0  0  0  0  0  0  0  0  2 V2000
  149.4433  135.2052  156.1517 O   0  0  0  0  0  0  0  0  0  0  0  0
  149.2078  135.4839  154.9762 C   0  0  0  0  0  0  0  0  0  0  0  0
  148.4289  134.7338  154.1846 N   0  0  0  0  0  0  0  0  0  0  0  0
  147.7486  133.5109  154.5982 C   0  0  0  0  0  0  0  0  0  0  0  0
  147.6157  132.5087  153.4375 C   0  0  2  0  0  0  0  0  0  0  0  0
  147.0048  133.1558  152.1846 C   0  0  0  0  0  0  0  0  0  0  0  0
  146.8453  132.1675  151.0876 N   0  3  2  0  0  0  0  0  0  0  0  0
  146.0011  132.6829  149.9866 C   0  0  0  0  0  0  0  0  0  0  0  0
  144.5883  132.1105  150.2068 C   0  0  0  0  0  0  0  0  0  0  0  0
  144.6990  131.1929  151.4293 C   0  0  0  0  0  0  0  0  0  0  0  0
  146.1980  130.9119  151.5275 C   0  0  2  0  0  0  0  0  0  0  0  0
  146.7030  130.4089  152.8951 C   0  0  0  0  0  0  0  0  0  0  0  0
  146.7446  131.4620  153.8466 O   0  0  0  0  0  0  0  0  0  0  0  0
  149.6914  136.5493  154.3150 N   0  0  0  0  0  0  0  0  0  0  0  0
  150.5303  137.5872  154.8035 C   0  0  0  0  0  0  0  0  0  0  0  0
  151.4585  137.2653  155.8150 C   0  0  0  0  0  0  0  0  0  0  0  0
  152.3136  138.2693  156.3070 C   0  0  0  0  0  0  0  0  0  0  0  0
  152.2131  139.5621  155.7582 C   0  0  0  0  0  0  0  0  0  0  0  0
  151.3424  139.8843  154.7786 N   0  0  0  0  0  0  0  0  0  0  0  0
  150.5236  138.9166  154.3126 C   0  0  0  0  0  0  0  0  0  0  0  0
  148.2911  135.0312  153.2296 H   0  0  0  0  0  0  0  0  0  0  0  0
  148.3125  133.0647  155.4179 H   0  0  0  0  0  0  0  0  0  0  0  0
  146.7647  133.7604  154.9990 H   0  0  0  0  0  0  0  0  0  0  0  0
  148.5998  132.1041  153.1940 H   0  0  0  0  0  0  0  0  0  0  0  0
  146.0354  133.5888  152.4369 H   0  0  0  0  0  0  0  0  0  0  0  0
  147.6355  133.9741  151.8351 H   0  0  0  0  0  0  0  0  0  0  0  0
  146.0055  133.7727  149.9313 H   0  0  0  0  0  0  0  0  0  0  0  0
  146.4034  132.3113  149.0433 H   0  0  0  0  0  0  0  0  0  0  0  0
  143.8531  132.8984  150.3734 H   0  0  0  0  0  0  0  0  0  0  0  0
  144.2717  131.5456  149.3289 H   0  0  0  0  0  0  0  0  0  0  0  0
  144.3541  131.7195  152.3203 H   0  0  0  0  0  0  0  0  0  0  0  0
  144.1060  130.2833  151.3292 H   0  0  0  0  0  0  0  0  0  0  0  0
  146.4346  130.1520  150.7806 H   0  0  0  0  0  0  0  0  0  0  0  0
  146.0564  129.6142  153.2680 H   0  0  0  0  0  0  0  0  0  0  0  0
  147.6996  129.9760  152.7944 H   0  0  0  0  0  0  0  0  0  0  0  0
  149.4736  136.5974  153.3304 H   0  0  0  0  0  0  0  0  0  0  0  0
  151.5143  136.2632  156.2147 H   0  0  0  0  0  0  0  0  0  0  0  0
  153.0301  138.0536  157.0858 H   0  0  0  0  0  0  0  0  0  0  0  0
  152.8529  140.3573  156.1116 H   0  0  0  0  0  0  0  0  0  0  0  0
  149.8697  139.2291  153.5137 H   0  0  0  0  0  0  0  0  0  0  0  0
  147.7682  131.9544  150.7360 H   0  0  0  0  0  0  0  0  0  0  0  0
  1  2  2  0  0  0  0
  2  3  1  0  0  0  0
  2 14  1  0  0  0  0
  3  4  1  0  0  0  0
  3 21  1  0  0  0  0
  4  5  1  0  0  0  0
  4 22  1  0  0  0  0
  4 23  1  0  0  0  0
  5 13  1  0  0  0  0
  5  6  1  0  0  0  0
  5 24  1  0  0  0  0
  6  7  1  0  0  0  0
  6 25  1  0  0  0  0
  6 26  1  0  0  0  0
  7 11  1  0  0  0  0
  7  8  1  0  0  0  0
  7 41  1  0  0  0  0
  8  9  1  0  0  0  0
  8 27  1  0  0  0  0
  8 28  1  0  0  0  0
  9 10  1  0  0  0  0
  9 29  1  0  0  0  0
  9 30  1  0  0  0  0
 10 11  1  0  0  0  0
 10 31  1  0  0  0  0
 10 32  1  0  0  0  0
 11 12  1  0  0  0  0
 11 33  1  0  0  0  0
 12 13  1  0  0  0  0
 12 34  1  0  0  0  0
 12 35  1  0  0  0  0
 14 15  1  0  0  0  0
 14 36  1  0  0  0  0
 15 20  1  0  0  0  0
 15 16  2  0  0  0  0
 16 17  1  0  0  0  0
 16 37  1  0  0  0  0
 17 18  2  0  0  0  0
 17 38  1  0  0  0  0
 18 19  1  0  0  0  0
 18 39  1  0  0  0  0
 19 20  2  0  0  0  0
 20 40  1  0  0  0  0
M  CHG  1   7   1
M  END
> <s_m_source_file>
AV-unprocessed.smi

> <i_m_source_file_index>
618

> <i_lp_mmshare_version>
43012

> <i_f3d_flags>
0

> <s_epik_input>
W2NIXTFuW2NIXVtjSF1bY0hdYzFbTkhdQyg9TylbTkhdW0NIMl1bQ0BIXShbQ0gyXTIpT1tDSDJdW0NAQEhdKE4yMylbQ0gyXVtDSDJdW0NIMl0z

> <s_epik_cmdline>
J2VwaWtfcHl0aG9uJywgJy1waCcsICc3LjAnLCAnLXRuJywgJzgnLCAnLW1hJywgJzIwMCcsICctbWV0YWxfYmluZGluZycsICctaW1hZScsICc8aW5maWxlLm1hZT4nLCAnLW9tYWUnLCAnPG91dGZpbGUubWFlPic=

> <r_epik_Ionization_Penalty>
0.111044

> <r_epik_Ionization_Penalty_Charging>
0.10673

> <r_epik_Ionization_Penalty_Neutral>
0.00431361

> <r_epik_State_Penalty>
0.0978747

> <r_epik_Charging_Adjusted_Penalty>
0.204605

> <i_epik_Tot_Q>
1

> <i_epik_Tot_abs_Q>
1

> <r_epik_Metal_State_Penalty>
0.0947591

> <b_epik_Metal_Only>
0

> <s_lp_Force_Field>
OPLS_2005

> <r_lp_Energy>
38.4037

> <b_lp_Chiralities_Consistent>
1

> <s_lp_Variant>
AV-unprocessed.smi:618-5

> <Gold.Version>
5.8.1

> <Gold.Id.Protein>
6NUR|6NUR_protein|mol2

> <Gold.PLP.Fitness>
47.5242

> <Gold.PLP.PLP>
-33.7345

> <Gold.PLP.part.hbond>
-4.3066

> <Gold.PLP.part.metal>
0.0000

> <Gold.PLP.part.buried>
-2.9183

> <Gold.PLP.part.nonpolar>
-26.6799

> <Gold.PLP.part.repulsive>
0.3007

> <Gold.PLP.ligand.clash>
0.0000

> <Gold.PLP.ligand.torsion>
0.4268

> <Gold.PLP.Chemscore.Hbond>
3.8800

> <Gold.PLP.Chemscore.CHOScore>
1.0000

> <Gold.PLP.Chemscore.Metal>
0.0000

> <Gold.Chemscore.Hbonds>
donor molecule, donor type, donor heavy atom, donor atom, acceptor molecule, acceptor atom, score
      L1  H     3    21       P1  7948  0.88
      L1  H     7    41       P1 10747  1.00
      L1  H    14    36       P1  7948  1.00
      P1  H  7989  7998       L1    19  1.00
      L1  C    20    40       P1  7957  1.00

> <Gold.PLP.Chemscore.Internal.Correction>
0.0032

> <Gold.Rescore>
     Score         DG    S(hbond)    S(metal)    S(lipo)     H(rot)  DE(clash)    DE(int)     intcor
     22.17     -24.15       3.33        0.00      92.33       1.27       0.28       1.70       ----

> <Gold.Chemscore.Fitness>
22.1749

> <Gold.Chemscore.DG>
-24.1496

> <Gold.Chemscore.ZeroCoef>
-5.4800

> <Gold.Chemscore.Hbond>
3.3254

> <Gold.Chemscore.Metal>
0.0000

> <Gold.Chemscore.Lipo>
92.3306

> <Gold.Chemscore.Internal_Hbond>
0.0000

> <Gold.Chemscore.DEClash>
0.2757

> <Gold.Chemscore.DEInternal>
1.6991

> <Gold.Chemscore.Rot>
1.2656

> <Gold.Chemscore.Internal.Correction>
   9.000000E+99

> <Gold.Chemscore.Hbonds>
donor molecule, donor type, donor heavy atom, donor atom, acceptor molecule, acceptor atom, score
      L1  H     3    21       P1  7948  0.78
      L1  H     7    41       P1 10747  0.97
      L1  H    14    36       P1  7948  0.72
      P1  H  7989  7998       L1    19  0.55

> <Gold.Chemscore.Hbond.Weighted>
-11.1068

> <Gold.Chemscore.Metal.Weighted>
-0.0000

> <Gold.Chemscore.Lipo.Weighted>
-10.8027

> <Gold.Chemscore.Internal_Hbond.Weighted>
0.0000

> <Gold.Chemscore.DEClash.Weighted>
0.2757

> <Gold.Chemscore.DEInternal.Weighted>
1.6991

> <Gold.Chemscore.Rot.Weighted>
3.2399

> <Gold.Chemscore.Internal.Correction.Weighted>
   9.000000E+99

> <Gold.Protein.RotatedTorsions>
[ 6907 6896 6895 6894 ] final -164.27 input  -60.11 | X-H torsion
[ 7974 7965 7964 7962 ] final  -17.70 input  175.53 | X-H torsion
[ 8008 7997 7996 7995 ] final   98.24 input   59.86 | X-H torsion
[ 10167 10162 10161 10158 ] final -139.61 input  -65.29 | X-H torsion
[ 10718 10713 10712 10709 ] final  -80.86 input   66.30 | X-H torsion
[ 10763 10752 10751 10750 ] final -130.94 input  -60.55 | X-H torsion
[ 11005 11000 10999 10996 ] final   18.12 input  -57.11 | X-H torsion

> <Gold.Protein.ActiveResidues>
 VAL166  LYS551  ARG553  GLY616  TRP617  ASP618  TYR619  PRO620  LYS621  CYS622 
 ASP623  PHE694  ASN695  SER759  ASP760  ASP761  ALA762  ILE779  LEU786  VAL792 
 PHE793  MET794  SER795  GLU796  ALA797  LYS798  CYS799  TRP800  GLU811  SER814 

> <Gold.Protein.RotatedAtoms>
  151.4092  133.3733  159.2741 H   0  0  0  0  0  0  0  0  0  0  0  0  # atno 6907 bound_to 6896
  150.9376  134.8788  159.7602 H   0  0  0  0  0  0  0  0  0  0  0  0  # atno 6908 bound_to 6896
  152.5057  134.4040  159.9478 H   0  0  0  0  0  0  0  0  0  0  0  0  # atno 6909 bound_to 6896
  146.1928  140.3817  142.8451 H   0  0  0  0  0  0  0  0  0  0  0  0  # atno 7974 bound_to 7965
  156.0984  140.3246  155.7909 H   0  0  0  0  0  0  0  0  0  0  0  0  # atno 8008 bound_to 7997
  155.4878  140.0559  157.2975 H   0  0  0  0  0  0  0  0  0  0  0  0  # atno 8009 bound_to 7997
  154.4681  140.1998  156.0080 H   0  0  0  0  0  0  0  0  0  0  0  0  # atno 8010 bound_to 7997
  139.8363  143.7381  152.2665 H   0  0  0  0  0  0  0  0  0  0  0  0  # atno 10167 bound_to 10162
  156.0061  130.4586  150.3864 H   0  0  0  0  0  0  0  0  0  0  0  0  # atno 10718 bound_to 10713
  154.8753  135.3846  154.4164 H   0  0  0  0  0  0  0  0  0  0  0  0  # atno 10763 bound_to 10752
  153.4873  135.7030  153.5909 H   0  0  0  0  0  0  0  0  0  0  0  0  # atno 10764 bound_to 10752
  153.4298  135.3881  155.2131 H   0  0  0  0  0  0  0  0  0  0  0  0  # atno 10765 bound_to 10752
  140.4283  134.1447  155.7678 H   0  0  0  0  0  0  0  0  0  0  0  0  # atno 11005 bound_to 11000
  144.8520  140.7016  143.6162 LP  0  0  0  0  0  0  0  0  0  0  0  0  # atno 17320 bound_to 7965
  145.3738  139.1652  143.4317 LP  0  0  0  0  0  0  0  0  0  0  0  0  # atno 17321 bound_to 7965
  139.7604  144.7508  151.0373 LP  0  0  0  0  0  0  0  0  0  0  0  0  # atno 17342 bound_to 10162
  140.7802  143.4758  151.0085 LP  0  0  0  0  0  0  0  0  0  0  0  0  # atno 17343 bound_to 10162
  157.1941  131.0422  151.2685 LP  0  0  0  0  0  0  0  0  0  0  0  0  # atno 17370 bound_to 10713
  157.4035  130.7346  149.6784 LP  0  0  0  0  0  0  0  0  0  0  0  0  # atno 17371 bound_to 10713
  141.1756  133.8521  157.1431 LP  0  0  0  0  0  0  0  0  0  0  0  0  # atno 17394 bound_to 11000
  140.0152  134.9970  157.0478 LP  0  0  0  0  0  0  0  0  0  0  0  0  # atno 17395 bound_to 11000

$$$$
