#       Name:                AV-unprocessed.smi:2812
#       Creating user name   scv26
#       Creation time:       Fri Mar 27 15:27:11 2020


#       File generated by GOLD software.
#

@<TRIPOS>MOLECULE
AV-unprocessed.smi:2812
    59    60     1
SMALL
NO_CHARGES


@<TRIPOS>ATOM
      1 ****        -0.9776   4.4998  -1.0293 C.3            1 S1                 0.0000
      2 ****        -1.5974   4.2511   0.3368 C.2            1 S1                 0.0000
      3 ****        -1.7466   5.3606   1.2557 C.2            1 S1                 0.0000
      4 ****        -2.2796   5.1472   2.4660 C.2            1 S1                 0.0000
      5 ****        -2.7131   3.8751   2.8661 N.am           1 S1                 0.0000
      6 ****        -3.2928   3.7459   4.2057 C.3            1 S1                 0.0000
      7 ****        -2.6351   2.7870   2.0470 C.2            1 S1                 0.0000
      8 ****        -3.0913   1.6972   2.4005 O.2            1 S1                 0.0000
      9 ****        -1.9956   3.0117   0.7274 C.2            1 S1                 0.0000
     10 ****        -1.8672   1.9430  -0.1740 N.am           1 S1                 0.0000
     11 ****        -1.2394   0.7775   0.0610 C.2            1 S1                 0.0000
     12 ****        -0.6926   0.4721   1.1218 O.2            1 S1                 0.0000
     13 ****        -1.2515  -0.0141  -1.0206 N.am           1 S1                 0.0000
     14 ****        -0.6390  -1.3368  -1.0872 C.3            1 S1                 0.0000
     15 ****         0.9113  -1.2754  -1.1721 C.3            1 S1                 0.0000
     16 ****         1.4321  -0.4291  -2.3582 C.3            1 S1                 0.0000
     17 ****         1.2358  -1.1371  -3.7045 C.3            1 S1                 0.0000
     18 ****         1.8963  -2.5188  -3.6614 C.3            1 S1                 0.0000
     19 ****         1.3753  -3.3455  -2.4750 C.3            1 S1                 0.0000
     20 ****         1.5570  -2.6266  -1.1847 N.4            1 S1                 1.0000
     21 ****         1.2611  -3.5047  -0.0171 C.3            1 S1                 0.0000
     22 ****         1.6205  -2.8968   1.3581 C.3            1 S1                 0.0000
     23 ****         3.1129  -2.5407   1.4633 C.3            1 S1                 0.0000
     24 ****         1.2192  -3.8566   2.4878 C.3            1 S1                 0.0000
     25 ****        -0.7012   5.5473  -1.1526 H              1 S1                 0.0000
     26 ****        -1.6810   4.2435  -1.8221 H              1 S1                 0.0000
     27 ****        -0.0767   3.8984  -1.1564 H              1 S1                 0.0000
     28 ****        -1.4262   6.3534   0.9758 H              1 S1                 0.0000
     29 ****        -2.4136   5.9341   3.1937 H              1 S1                 0.0000
     30 ****        -2.7578   2.9906   4.7837 H              1 S1                 0.0000
     31 ****        -4.3401   3.4469   4.1426 H              1 S1                 0.0000
     32 ****        -3.2513   4.6755   4.7744 H              1 S1                 0.0000
     33 ****        -2.1702   2.1269  -1.1192 H              1 S1                 0.0000
     34 ****        -1.7194   0.3176  -1.8515 H              1 S1                 0.0000
     35 ****        -0.9639  -1.9010  -0.2128 H              1 S1                 0.0000
     36 ****        -1.0569  -1.8500  -1.9524 H              1 S1                 0.0000
     37 ****         1.2690  -0.7613  -0.2815 H              1 S1                 0.0000
     38 ****         0.9593   0.5529  -2.3795 H              1 S1                 0.0000
     39 ****         2.4966  -0.2377  -2.2149 H              1 S1                 0.0000
     40 ****         0.1732  -1.2359  -3.9285 H              1 S1                 0.0000
     41 ****         1.6680  -0.5404  -4.5083 H              1 S1                 0.0000
     42 ****         1.7118  -3.0496  -4.5957 H              1 S1                 0.0000
     43 ****         2.9781  -2.4041  -3.5801 H              1 S1                 0.0000
     44 ****         0.3235  -3.5952  -2.6189 H              1 S1                 0.0000
     45 ****         1.9158  -4.2924  -2.4443 H              1 S1                 0.0000
     46 ****         0.2114  -3.7988  -0.0373 H              1 S1                 0.0000
     47 ****         1.8257  -4.4306  -0.1363 H              1 S1                 0.0000
     48 ****         1.0396  -1.9880   1.5141 H              1 S1                 0.0000
     49 ****         3.7414  -3.4200   1.3195 H              1 S1                 0.0000
     50 ****         3.3468  -2.1235   2.4432 H              1 S1                 0.0000
     51 ****         3.4021  -1.7980   0.7196 H              1 S1                 0.0000
     52 ****         1.7634  -4.7994   2.4217 H              1 S1                 0.0000
     53 ****         0.1534  -4.0838   2.4513 H              1 S1                 0.0000
     54 ****         1.4269  -3.4212   3.4658 H              1 S1                 0.0000
     55 ****         2.5481  -2.4413  -1.1256 H              1 S1                 0.0000
     56 ****        -3.5246   1.6036   3.2968 LP             1 S1                 0.0000
     57 ****        -3.0278   0.9071   1.7908 LP             1 S1                 0.0000
     58 ****        -0.6954   1.1139   1.8887 LP             1 S1                 0.0000
     59 ****        -0.2459  -0.4176   1.2160 LP             1 S1                 0.0000
@<TRIPOS>BOND
    1    1    2 1     
    2    1   25 1     
    3    1   26 1     
    4    1   27 1     
    5    2    9 2     
    6    2    3 1     
    7    3    4 2     
    8    3   28 1     
    9    4    5 1     
   10    4   29 1     
   11    5    6 1     
   12    5    7 am    
   13    6   30 1     
   14    6   31 1     
   15    6   32 1     
   16    7    8 2     
   17    7    9 1     
   18    9   10 1     
   19   10   11 am    
   20   10   33 1     
   21   11   12 2     
   22   11   13 am    
   23   13   14 1     
   24   13   34 1     
   25   14   15 1     
   26   14   35 1     
   27   14   36 1     
   28   15   20 1     
   29   15   16 1     
   30   15   37 1     
   31   16   17 1     
   32   16   38 1     
   33   16   39 1     
   34   17   18 1     
   35   17   40 1     
   36   17   41 1     
   37   18   19 1     
   38   18   42 1     
   39   18   43 1     
   40   19   20 1     
   41   19   44 1     
   42   19   45 1     
   43   20   21 1     
   44   20   55 1     
   45   21   22 1     
   46   21   46 1     
   47   21   47 1     
   48   22   23 1     
   49   22   24 1     
   50   22   48 1     
   51   23   49 1     
   52   23   50 1     
   53   23   51 1     
   54   24   52 1     
   55   24   53 1     
   56   24   54 1     
   57    8   56 1     
   58    8   57 1     
   59   12   58 1     
   60   12   59 1     
@<TRIPOS>SUBSTRUCTURE
      1 S1             1
@<TRIPOS>SET
LONE_PAIRS      STATIC     ATOMS    <user>   **** ""
4 56 57 58 59
DONOR_HYDROGENS      STATIC     ATOMS    <user>   **** ""
3 33 34 55
ATOM$BLUE        STATIC     ATOMS    COLORGROUP SYSTEM
4 56 57 58 59
ATOM$RED        STATIC     ATOMS    COLORGROUP SYSTEM
3 33 34 55
