AV-unprocessed.smi:3162|AV-procd|sdf|12066|dock2
  -GOLD-   2272017493D 1   1.00000     0.00000
 Structure written by MMmdl.
 37 37  0  0  0  0  0  0  0  0  2 V2000
  145.6115  131.7882  150.2338 C   0  0  0  0  0  0  0  0  0  0  0  0
  145.3953  133.3088  150.1875 C   0  0  0  0  0  0  0  0  0  0  0  0
  145.7861  134.0523  151.4839 C   0  0  1  0  0  0  0  0  0  0  0  0
  147.2231  133.8315  151.7702 N   0  3  0  0  0  0  0  0  0  0  0  0
  147.5360  133.1105  153.0246 C   0  0  1  0  0  0  0  0  0  0  0  0
  146.7478  131.7893  153.1180 C   0  0  0  0  0  0  0  0  0  0  0  0
  149.0607  132.8956  153.1188 C   0  0  0  0  0  0  0  0  0  0  0  0
  149.6361  133.4241  154.3425 N   0  0  0  0  0  0  0  0  0  0  0  0
  149.7513  134.7394  154.7400 C   0  0  0  0  0  0  0  0  0  0  0  0
  150.3515  134.7467  155.9672 C   0  0  0  0  0  0  0  0  0  0  0  0
  150.7096  135.9229  156.8293 C   0  0  0  0  0  0  0  0  0  0  0  0
  150.5599  133.3651  156.2418 C   0  0  0  0  0  0  0  0  0  0  0  0
  150.1287  132.5769  155.2704 N   0  0  0  0  0  0  0  0  0  0  0  0
  145.5086  135.5590  151.3809 C   0  0  0  0  0  0  0  0  0  0  0  0
  145.2710  136.0568  150.1644 N   0  0  0  0  0  0  0  0  0  0  0  0
  145.5156  136.2682  152.3856 O   0  0  0  0  0  0  0  0  0  0  0  0
  145.3850  131.3383  149.2671 H   0  0  0  0  0  0  0  0  0  0  0  0
  144.9690  131.3096  150.9728 H   0  0  0  0  0  0  0  0  0  0  0  0
  146.6460  131.5452  150.4777 H   0  0  0  0  0  0  0  0  0  0  0  0
  145.9832  133.7057  149.3590 H   0  0  0  0  0  0  0  0  0  0  0  0
  144.3536  133.5164  149.9374 H   0  0  0  0  0  0  0  0  0  0  0  0
  145.1889  133.6556  152.3073 H   0  0  0  0  0  0  0  0  0  0  0  0
  147.6449  133.3456  150.9920 H   0  0  0  0  0  0  0  0  0  0  0  0
  147.2402  133.7519  153.8564 H   0  0  0  0  0  0  0  0  0  0  0  0
  146.9449  131.2728  154.0577 H   0  0  0  0  0  0  0  0  0  0  0  0
  147.0138  131.1115  152.3063 H   0  0  0  0  0  0  0  0  0  0  0  0
  145.6720  131.9577  153.0718 H   0  0  0  0  0  0  0  0  0  0  0  0
  149.2967  131.8319  153.0591 H   0  0  0  0  0  0  0  0  0  0  0  0
  149.5628  133.3731  152.2758 H   0  0  0  0  0  0  0  0  0  0  0  0
  149.4029  135.5544  154.1224 H   0  0  0  0  0  0  0  0  0  0  0  0
  150.8515  135.6336  157.8708 H   0  0  0  0  0  0  0  0  0  0  0  0
  149.9325  136.6873  156.8123 H   0  0  0  0  0  0  0  0  0  0  0  0
  151.6341  136.3962  156.4984 H   0  0  0  0  0  0  0  0  0  0  0  0
  151.0091  132.9144  157.1145 H   0  0  0  0  0  0  0  0  0  0  0  0
  145.0767  137.0409  150.0463 H   0  0  0  0  0  0  0  0  0  0  0  0
  145.2798  135.4430  149.3620 H   0  0  0  0  0  0  0  0  0  0  0  0
  147.6460  134.7470  151.8345 H   0  0  0  0  0  0  0  0  0  0  0  0
  1  2  1  0  0  0  0
  1 17  1  0  0  0  0
  1 18  1  0  0  0  0
  1 19  1  0  0  0  0
  2  3  1  0  0  0  0
  2 20  1  0  0  0  0
  2 21  1  0  0  0  0
  3  4  1  0  0  0  0
  3 14  1  0  0  0  0
  3 22  1  0  0  0  0
  4  5  1  0  0  0  0
  4 23  1  0  0  0  0
  4 37  1  0  0  0  0
  5  6  1  0  0  0  0
  5  7  1  0  0  0  0
  5 24  1  0  0  0  0
  6 25  1  0  0  0  0
  6 26  1  0  0  0  0
  6 27  1  0  0  0  0
  7  8  1  0  0  0  0
  7 28  1  0  0  0  0
  7 29  1  0  0  0  0
  8 13  1  0  0  0  0
  8  9  1  0  0  0  0
  9 10  2  0  0  0  0
  9 30  1  0  0  0  0
 10 11  1  0  0  0  0
 10 12  1  0  0  0  0
 11 31  1  0  0  0  0
 11 32  1  0  0  0  0
 11 33  1  0  0  0  0
 12 13  2  0  0  0  0
 12 34  1  0  0  0  0
 14 15  1  0  0  0  0
 14 16  2  0  0  0  0
 15 35  1  0  0  0  0
 15 36  1  0  0  0  0
M  CHG  1   4   1
M  END
> <s_m_source_file>
AV-unprocessed.smi

> <i_m_source_file_index>
3162

> <i_lp_mmshare_version>
43012

> <i_f3d_flags>
0

> <s_epik_input>
W0NIM11bQ0gyXVtDQEBIXShDKD1PKVtOSDJdKVtOSF1bQ0BIXShbQ0gzXSlbQ0gyXW4xW2NIXWMoW0NIM10pW2NIXW4x

> <s_epik_cmdline>
J2VwaWtfcHl0aG9uJywgJy1waCcsICc3LjAnLCAnLXRuJywgJzgnLCAnLW1hJywgJzIwMCcsICctbWV0YWxfYmluZGluZycsICctaW1hZScsICc8aW5maWxlLm1hZT4nLCAnLW9tYWUnLCAnPG91dGZpbGUubWFlPic=

> <r_lp_tautomer_probability>
1

> <r_epik_Ionization_Penalty>
0.112112

> <r_epik_Ionization_Penalty_Charging>
0.112102

> <r_epik_Ionization_Penalty_Neutral>
9.73799e-06

> <r_epik_State_Penalty>
0.101811

> <r_epik_Charging_Adjusted_Penalty>
0.213914

> <i_epik_Tot_Q>
1

> <i_epik_Tot_abs_Q>
1

> <r_epik_Metal_State_Penalty>
0.101821

> <b_epik_Metal_Only>
0

> <s_lp_Force_Field>
OPLS_2005

> <r_lp_Energy>
5.38077

> <b_lp_Chiralities_Consistent>
1

> <s_lp_Variant>
AV-unprocessed.smi:3162-4

> <Gold.Version>
5.8.1

> <Gold.Id.Protein>
6NUR|6NUR_protein|mol2

> <Gold.PLP.Fitness>
40.2576

> <Gold.PLP.PLP>
-29.0572

> <Gold.PLP.part.hbond>
-3.0000

> <Gold.PLP.part.metal>
0.0000

> <Gold.PLP.part.buried>
-3.8525

> <Gold.PLP.part.nonpolar>
-22.0198

> <Gold.PLP.part.repulsive>
0.3362

> <Gold.PLP.ligand.clash>
0.0000

> <Gold.PLP.ligand.torsion>
1.8618

> <Gold.PLP.Chemscore.Hbond>
3.9600

> <Gold.PLP.Chemscore.CHOScore>
1.0000

> <Gold.PLP.Chemscore.Metal>
0.0000

> <Gold.Chemscore.Hbonds>
donor molecule, donor type, donor heavy atom, donor atom, acceptor molecule, acceptor atom, score
      L1  H     4    37       P1  7948  2.00
      L1  H    15    35       P1 10171  1.00
      L1  H    15    36       P1  7921  0.99
      L1  C     9    30       P1  7948  1.00

> <Gold.PLP.Chemscore.Internal.Correction>
0.0441

> <Gold.Rescore>
     Score         DG    S(hbond)    S(metal)    S(lipo)     H(rot)  DE(clash)    DE(int)     intcor
     12.85     -14.78       2.62        0.00      59.63       2.51       0.13       1.80       ----

> <Gold.Chemscore.Fitness>
12.8490

> <Gold.Chemscore.DG>
-14.7777

> <Gold.Chemscore.ZeroCoef>
-5.4800

> <Gold.Chemscore.Hbond>
2.6157

> <Gold.Chemscore.Metal>
0.0000

> <Gold.Chemscore.Lipo>
59.6326

> <Gold.Chemscore.Internal_Hbond>
0.0000

> <Gold.Chemscore.DEClash>
0.1288

> <Gold.Chemscore.DEInternal>
1.7999

> <Gold.Chemscore.Rot>
2.5062

> <Gold.Chemscore.Internal.Correction>
   9.000000E+99

> <Gold.Chemscore.Hbonds>
donor molecule, donor type, donor heavy atom, donor atom, acceptor molecule, acceptor atom, score
      L1  H     4    37       P1  7948  0.50
      L1  H    15    35       P1 10171  0.96
      L1  H    15    36       P1  7921  0.89

> <Gold.Chemscore.Hbond.Weighted>
-8.7366

> <Gold.Chemscore.Metal.Weighted>
-0.0000

> <Gold.Chemscore.Lipo.Weighted>
-6.9770

> <Gold.Chemscore.Internal_Hbond.Weighted>
0.0000

> <Gold.Chemscore.DEClash.Weighted>
0.1288

> <Gold.Chemscore.DEInternal.Weighted>
1.7999

> <Gold.Chemscore.Rot.Weighted>
6.4159

> <Gold.Chemscore.Internal.Correction.Weighted>
   9.000000E+99

> <Gold.Protein.RotatedTorsions>
[ 6907 6896 6895 6894 ] final  -55.13 input  -60.11 | X-H torsion
[ 7974 7965 7964 7962 ] final   51.66 input  175.53 | X-H torsion
[ 8008 7997 7996 7995 ] final  107.38 input   59.86 | X-H torsion
[ 10167 10162 10161 10158 ] final  -94.21 input  -65.29 | X-H torsion
[ 10718 10713 10712 10709 ] final   -8.61 input   66.30 | X-H torsion
[ 10763 10752 10751 10750 ] final  -43.89 input  -60.55 | X-H torsion
[ 11005 11000 10999 10996 ] final  -88.63 input  -57.11 | X-H torsion

> <Gold.Protein.ActiveResidues>
 VAL166  LYS551  ARG553  GLY616  TRP617  ASP618  TYR619  PRO620  LYS621  CYS622 
 ASP623  PHE694  ASN695  SER759  ASP760  ASP761  ALA762  ILE779  LEU786  VAL792 
 PHE793  MET794  SER795  GLU796  ALA797  LYS798  CYS799  TRP800  GLU811  SER814 

> <Gold.Protein.RotatedAtoms>
  150.8278  134.7517  159.6827 H   0  0  0  0  0  0  0  0  0  0  0  0  # atno 6907 bound_to 6896
  152.4387  134.5632  159.9910 H   0  0  0  0  0  0  0  0  0  0  0  0  # atno 6908 bound_to 6896
  151.5800  133.3341  159.3042 H   0  0  0  0  0  0  0  0  0  0  0  0  # atno 6909 bound_to 6896
  145.9891  139.4320  143.0085 H   0  0  0  0  0  0  0  0  0  0  0  0  # atno 7974 bound_to 7965
  156.1819  140.3096  155.9165 H   0  0  0  0  0  0  0  0  0  0  0  0  # atno 8008 bound_to 7997
  155.3365  140.0463  157.3061 H   0  0  0  0  0  0  0  0  0  0  0  0  # atno 8009 bound_to 7997
  154.5352  140.2244  155.8744 H   0  0  0  0  0  0  0  0  0  0  0  0  # atno 8010 bound_to 7997
  140.3168  143.3072  152.0090 H   0  0  0  0  0  0  0  0  0  0  0  0  # atno 10167 bound_to 10162
  156.7001  130.5091  149.5919 H   0  0  0  0  0  0  0  0  0  0  0  0  # atno 10718 bound_to 10713
  154.0030  135.6691  153.4760 H   0  0  0  0  0  0  0  0  0  0  0  0  # atno 10763 bound_to 10752
  153.0654  135.5004  154.8184 H   0  0  0  0  0  0  0  0  0  0  0  0  # atno 10764 bound_to 10752
  154.7041  135.3084  154.9260 H   0  0  0  0  0  0  0  0  0  0  0  0  # atno 10765 bound_to 10752
  141.1598  133.7581  156.9479 H   0  0  0  0  0  0  0  0  0  0  0  0  # atno 11005 bound_to 11000
  145.7657  140.9917  143.1176 LP  0  0  0  0  0  0  0  0  0  0  0  0  # atno 17320 bound_to 7965
  144.6883  139.9385  143.7474 LP  0  0  0  0  0  0  0  0  0  0  0  0  # atno 17321 bound_to 7965
  139.4882  144.6342  151.7008 LP  0  0  0  0  0  0  0  0  0  0  0  0  # atno 17342 bound_to 10162
  140.5519  144.0410  150.6131 LP  0  0  0  0  0  0  0  0  0  0  0  0  # atno 17343 bound_to 10162
  156.1735  130.6452  151.0866 LP  0  0  0  0  0  0  0  0  0  0  0  0  # atno 17370 bound_to 10713
  157.6976  131.0788  150.6920 LP  0  0  0  0  0  0  0  0  0  0  0  0  # atno 17371 bound_to 10713
  140.1277  134.9376  157.2293 LP  0  0  0  0  0  0  0  0  0  0  0  0  # atno 17394 bound_to 11000
  140.2992  134.3151  155.7294 LP  0  0  0  0  0  0  0  0  0  0  0  0  # atno 17395 bound_to 11000

$$$$
