#       Name:                AV-unprocessed.smi:755
#       Creating user name   scv26
#       Creation time:       Fri Mar 27 01:00:48 2020


#       File generated by GOLD software.
#

@<TRIPOS>MOLECULE
AV-unprocessed.smi:755
    38    39     1
SMALL
NO_CHARGES


@<TRIPOS>ATOM
      1 ****         0.8292   2.3369  -0.2991 O.2            1 S1                 0.0000
      2 ****         1.5781   1.3622  -0.2391 C.2            1 S1                 0.0000
      3 ****         3.0948   1.5640  -0.2219 C.3            1 S1                 0.0000
      4 ****         3.7248   0.9760  -1.3914 N.pl3          1 S1                 0.0000
      5 ****         3.7904   1.4879  -2.6735 C.2            1 S1                 0.0000
      6 ****         4.4802   0.5645  -3.3979 C.2            1 S1                 0.0000
      7 ****         4.8770   0.6534  -5.0739 Cl             1 S1                 0.0000
      8 ****         4.8076  -0.4849  -2.5023 C.2            1 S1                 0.0000
      9 ****         4.3454  -0.2280  -1.2872 N.2            1 S1                 0.0000
     10 ****         1.1389   0.0949  -0.1760 N.am           1 S1                 0.0000
     11 ****        -0.2638  -0.3135  -0.1504 C.3            1 S1                 0.0000
     12 ****        -0.8504  -0.3756   1.2716 C.2            1 S1                 0.0000
     13 ****        -0.1098  -0.2495   2.2487 O.2            1 S1                 0.0000
     14 ****        -2.1768  -0.5844   1.4032 N.am           1 S1                 0.0000
     15 ****        -3.1281  -0.7568   0.3056 C.3            1 S1                 0.0000
     16 ****        -4.4383  -1.1981   0.9588 C.3            1 S1                 0.0000
     17 ****        -4.3525  -0.6491   2.3762 C.3            1 S1                 0.0000
     18 ****        -2.8572  -0.6704   2.6939 C.3            1 S1                 0.0000
     19 ****         3.3300   2.6290  -0.1987 H              1 S1                 0.0000
     20 ****         3.5149   1.1225   0.6832 H              1 S1                 0.0000
     21 ****         3.3516   2.4360  -2.9479 H              1 S1                 0.0000
     22 ****         5.3502  -1.4003  -2.6868 H              1 S1                 0.0000
     23 ****         1.8284  -0.6411  -0.1239 H              1 S1                 0.0000
     24 ****        -0.8580   0.3573  -0.7731 H              1 S1                 0.0000
     25 ****        -0.3322  -1.3041  -0.6001 H              1 S1                 0.0000
     26 ****        -3.2613   0.1987  -0.2037 H              1 S1                 0.0000
     27 ****        -2.7894  -1.4906  -0.4271 H              1 S1                 0.0000
     28 ****        -5.3188  -0.8459   0.4207 H              1 S1                 0.0000
     29 ****        -4.4813  -2.2876   0.9931 H              1 S1                 0.0000
     30 ****        -4.7149   0.3798   2.3906 H              1 S1                 0.0000
     31 ****        -4.9452  -1.2223   3.0897 H              1 S1                 0.0000
     32 ****        -2.5819  -1.6094   3.1765 H              1 S1                 0.0000
     33 ****        -2.5814   0.1477   3.3613 H              1 S1                 0.0000
     34 ****         1.2120   3.2600  -0.3365 LP             1 S1                 0.0000
     35 ****        -0.1621   2.2059  -0.3104 LP             1 S1                 0.0000
     36 ****         4.4342  -0.7974  -0.4700 LP             1 S1                 0.0000
     37 ****         0.8712  -0.1070   2.1174 LP             1 S1                 0.0000
     38 ****        -0.4900  -0.2897   3.1728 LP             1 S1                 0.0000
@<TRIPOS>BOND
    1    1    2 2     
    2    2    3 1     
    3    2   10 am    
    4    3    4 1     
    5    3   19 1     
    6    3   20 1     
    7    4    9 1     
    8    4    5 1     
    9    5    6 2     
   10    5   21 1     
   11    6    7 1     
   12    6    8 1     
   13    8    9 2     
   14    8   22 1     
   15   10   11 1     
   16   10   23 1     
   17   11   12 1     
   18   11   24 1     
   19   11   25 1     
   20   12   13 2     
   21   12   14 am    
   22   14   18 1     
   23   14   15 1     
   24   15   16 1     
   25   15   26 1     
   26   15   27 1     
   27   16   17 1     
   28   16   28 1     
   29   16   29 1     
   30   17   18 1     
   31   17   30 1     
   32   17   31 1     
   33   18   32 1     
   34   18   33 1     
   35    1   34 1     
   36    1   35 1     
   37    9   36 1     
   38   13   37 1     
   39   13   38 1     
@<TRIPOS>SUBSTRUCTURE
      1 S1             1
@<TRIPOS>SET
LONE_PAIRS      STATIC     ATOMS    <user>   **** ""
5 34 35 36 37 38
DONOR_HYDROGENS      STATIC     ATOMS    <user>   **** ""
1 23
ATOM$BLUE        STATIC     ATOMS    COLORGROUP SYSTEM
5 34 35 36 37 38
ATOM$RED        STATIC     ATOMS    COLORGROUP SYSTEM
1 23
