AV-unprocessed.smi:2758|AV-procd|sdf|10622|dock8
  -GOLD-   2272015 73D 1   1.00000     0.00000
 Structure written by MMmdl.
 32 33  0  0  0  0  0  0  0  0  1 V2000
  149.8469  139.0235  154.6075 C   0  0  0  0  0  0  0  0  0  0  0  0
  150.3277  140.3418  154.4113 O   0  0  0  0  0  0  0  0  0  0  0  0
  149.4716  141.3214  154.9760 C   0  0  0  0  0  0  0  0  0  0  0  0
  149.8627  141.5485  156.4445 C   0  0  1  0  0  0  0  0  0  0  0  0
  149.2121  140.5724  157.2340 O   0  0  0  0  0  0  0  0  0  0  0  0
  151.3860  141.4364  156.6560 C   0  0  0  0  0  0  0  0  0  0  0  0
  151.7814  141.6808  158.0371 N   0  0  0  0  0  0  0  0  0  0  0  0
  152.2758  140.7985  158.9409 C   0  0  0  0  0  0  0  0  0  0  0  0
  152.4939  139.3574  158.6050 C   0  0  0  0  0  0  0  0  0  0  0  0
  152.5587  141.2962  160.1450 N   0  0  0  0  0  0  0  0  0  0  0  0
  152.2191  142.6283  160.0093 C   0  0  0  0  0  0  0  0  0  0  0  0
  152.2889  143.6930  160.9363 C   0  0  0  0  0  0  0  0  0  0  0  0
  151.8838  144.9915  160.5637 C   0  0  0  0  0  0  0  0  0  0  0  0
  151.4030  145.2435  159.2622 C   0  0  0  0  0  0  0  0  0  0  0  0
  151.3243  144.1968  158.3235 C   0  0  0  0  0  0  0  0  0  0  0  0
  151.7306  142.9028  158.7004 C   0  0  0  0  0  0  0  0  0  0  0  0
  149.5305  142.5379  156.7622 H   0  0  0  0  0  0  0  0  0  0  0  0
  150.5435  138.3099  154.1679 H   0  0  0  0  0  0  0  0  0  0  0  0
  148.8764  138.8837  154.1297 H   0  0  0  0  0  0  0  0  0  0  0  0
  149.7517  138.7903  155.6687 H   0  0  0  0  0  0  0  0  0  0  0  0
  149.5052  142.2551  154.4114 H   0  0  0  0  0  0  0  0  0  0  0  0
  148.4472  140.9488  154.9223 H   0  0  0  0  0  0  0  0  0  0  0  0
  148.4265  140.3011  156.7836 H   0  0  0  0  0  0  0  0  0  0  0  0
  151.7443  140.4571  156.3385 H   0  0  0  0  0  0  0  0  0  0  0  0
  151.9021  142.1641  156.0284 H   0  0  0  0  0  0  0  0  0  0  0  0
  152.8287  138.8059  159.4842 H   0  0  0  0  0  0  0  0  0  0  0  0
  153.2556  139.2631  157.8309 H   0  0  0  0  0  0  0  0  0  0  0  0
  151.5684  138.9049  158.2494 H   0  0  0  0  0  0  0  0  0  0  0  0
  152.6567  143.5100  161.9351 H   0  0  0  0  0  0  0  0  0  0  0  0
  151.9427  145.7981  161.2799 H   0  0  0  0  0  0  0  0  0  0  0  0
  151.0952  146.2413  158.9851 H   0  0  0  0  0  0  0  0  0  0  0  0
  150.9568  144.3860  157.3258 H   0  0  0  0  0  0  0  0  0  0  0  0
  1  2  1  0  0  0  0
  1 18  1  0  0  0  0
  1 19  1  0  0  0  0
  1 20  1  0  0  0  0
  2  3  1  0  0  0  0
  3  4  1  0  0  0  0
  3 21  1  0  0  0  0
  3 22  1  0  0  0  0
  4 17  1  0  0  0  0
  4  5  1  0  0  0  0
  4  6  1  0  0  0  0
  5 23  1  0  0  0  0
  6  7  1  0  0  0  0
  6 24  1  0  0  0  0
  6 25  1  0  0  0  0
  7 16  1  0  0  0  0
  7  8  1  0  0  0  0
  8  9  1  0  0  0  0
  8 10  2  0  0  0  0
  9 26  1  0  0  0  0
  9 27  1  0  0  0  0
  9 28  1  0  0  0  0
 10 11  1  0  0  0  0
 11 16  2  0  0  0  0
 11 12  1  0  0  0  0
 12 13  2  0  0  0  0
 12 29  1  0  0  0  0
 13 14  1  0  0  0  0
 13 30  1  0  0  0  0
 14 15  2  0  0  0  0
 14 31  1  0  0  0  0
 15 16  1  0  0  0  0
 15 32  1  0  0  0  0
M  END
> <s_m_source_file>
AV-unprocessed.smi

> <i_m_source_file_index>
2758

> <i_lp_mmshare_version>
43012

> <i_f3d_flags>
0

> <s_epik_input>
W0NIM11PW0NIMl1bQ0BASF0oW09IXSlbQ0gyXW4oYyhuMSlbQ0gzXSljKGMxMilbY0hdW2NIXVtjSF1bY0hdMg==

> <s_epik_cmdline>
J2VwaWtfcHl0aG9uJywgJy1waCcsICc3LjAnLCAnLXRuJywgJzgnLCAnLW1hJywgJzIwMCcsICctbWV0YWxfYmluZGluZycsICctaW1hZScsICc8aW5maWxlLm1hZT4nLCAnLW9tYWUnLCAnPG91dGZpbGUubWFlPic=

> <r_epik_Ionization_Penalty>
0.126985

> <r_epik_Ionization_Penalty_Charging>
0

> <r_epik_Ionization_Penalty_Neutral>
0.126985

> <r_epik_State_Penalty>
0.116428

> <r_epik_Charging_Adjusted_Penalty>
0.116428

> <i_epik_Tot_Q>
0

> <i_epik_Tot_abs_Q>
0

> <r_epik_Metal_State_Penalty>
0.000128642

> <b_epik_Metal_Only>
0

> <s_lp_Force_Field>
OPLS_2005

> <r_lp_Energy>
8.80871

> <b_lp_Chiralities_Consistent>
1

> <s_lp_Variant>
AV-unprocessed.smi:2758-1

> <Gold.Version>
5.8.1

> <Gold.Id.Protein>
6NUR|6NUR_protein|mol2

> <Gold.PLP.Fitness>
39.8449

> <Gold.PLP.PLP>
-37.9018

> <Gold.PLP.part.hbond>
-1.0000

> <Gold.PLP.part.metal>
0.0000

> <Gold.PLP.part.buried>
-6.0479

> <Gold.PLP.part.nonpolar>
-30.7112

> <Gold.PLP.part.repulsive>
0.1166

> <Gold.PLP.ligand.clash>
0.0000

> <Gold.PLP.ligand.torsion>
0.5189

> <Gold.PLP.Chemscore.Hbond>
0.9920

> <Gold.PLP.Chemscore.CHOScore>
0.0000

> <Gold.PLP.Chemscore.Metal>
0.0000

> <Gold.Chemscore.Hbonds>
donor molecule, donor type, donor heavy atom, donor atom, acceptor molecule, acceptor atom, score
      P1  H  7989  7998       L1     2  1.00

> <Gold.PLP.Chemscore.Internal.Correction>
0.0050

> <Gold.Rescore>
     Score         DG    S(hbond)    S(metal)    S(lipo)     H(rot)  DE(clash)    DE(int)     intcor
     14.75     -15.26       0.92        0.00     102.19       2.05       0.03       0.49       ----

> <Gold.Chemscore.Fitness>
14.7480

> <Gold.Chemscore.DG>
-15.2640

> <Gold.Chemscore.ZeroCoef>
-5.4800

> <Gold.Chemscore.Hbond>
0.9218

> <Gold.Chemscore.Metal>
0.0000

> <Gold.Chemscore.Lipo>
102.1920

> <Gold.Chemscore.Internal_Hbond>
0.0000

> <Gold.Chemscore.DEClash>
0.0279

> <Gold.Chemscore.DEInternal>
0.4881

> <Gold.Chemscore.Rot>
2.0513

> <Gold.Chemscore.Internal.Correction>
   9.000000E+99

> <Gold.Chemscore.Hbonds>
donor molecule, donor type, donor heavy atom, donor atom, acceptor molecule, acceptor atom, score
      P1  H  7989  7998       L1     2  0.90

> <Gold.Chemscore.Hbond.Weighted>
-3.0789

> <Gold.Chemscore.Metal.Weighted>
-0.0000

> <Gold.Chemscore.Lipo.Weighted>
-11.9565

> <Gold.Chemscore.Internal_Hbond.Weighted>
0.0000

> <Gold.Chemscore.DEClash.Weighted>
0.0279

> <Gold.Chemscore.DEInternal.Weighted>
0.4881

> <Gold.Chemscore.Rot.Weighted>
5.2514

> <Gold.Chemscore.Internal.Correction.Weighted>
   9.000000E+99

> <Gold.Protein.RotatedTorsions>
[ 6907 6896 6895 6894 ] final  -23.44 input  -60.11 | X-H torsion
[ 7974 7965 7964 7962 ] final  -11.60 input  175.53 | X-H torsion
[ 8008 7997 7996 7995 ] final -151.49 input   59.86 | X-H torsion
[ 10167 10162 10161 10158 ] final   25.94 input  -65.29 | X-H torsion
[ 10718 10713 10712 10709 ] final  -47.05 input   66.30 | X-H torsion
[ 10763 10752 10751 10750 ] final  104.27 input  -60.55 | X-H torsion
[ 11005 11000 10999 10996 ] final  -18.20 input  -57.11 | X-H torsion

> <Gold.Protein.ActiveResidues>
 VAL166  LYS551  ARG553  GLY616  TRP617  ASP618  TYR619  PRO620  LYS621  CYS622 
 ASP623  PHE694  ASN695  SER759  ASP760  ASP761  ALA762  ILE779  LEU786  VAL792 
 PHE793  MET794  SER795  GLU796  ALA797  LYS798  CYS799  TRP800  GLU811  SER814 

> <Gold.Protein.RotatedAtoms>
  151.2039  135.0454  159.8883 H   0  0  0  0  0  0  0  0  0  0  0  0  # atno 6907 bound_to 6896
  152.5430  134.0819  159.8249 H   0  0  0  0  0  0  0  0  0  0  0  0  # atno 6908 bound_to 6896
  151.0963  133.5229  159.2644 H   0  0  0  0  0  0  0  0  0  0  0  0  # atno 6909 bound_to 6896
  146.2182  140.2935  142.8370 H   0  0  0  0  0  0  0  0  0  0  0  0  # atno 7974 bound_to 7965
  155.6403  140.0701  157.2621 H   0  0  0  0  0  0  0  0  0  0  0  0  # atno 8008 bound_to 7997
  154.4185  140.1751  156.1615 H   0  0  0  0  0  0  0  0  0  0  0  0  # atno 8009 bound_to 7997
  155.9861  140.3349  155.6712 H   0  0  0  0  0  0  0  0  0  0  0  0  # atno 8010 bound_to 7997
  140.5064  144.0231  150.6354 H   0  0  0  0  0  0  0  0  0  0  0  0  # atno 10167 bound_to 10162
  156.2122  130.4161  149.9100 H   0  0  0  0  0  0  0  0  0  0  0  0  # atno 10718 bound_to 10713
  153.3637  135.3949  155.1737 H   0  0  0  0  0  0  0  0  0  0  0  0  # atno 10763 bound_to 10752
  154.8683  135.3686  154.5066 H   0  0  0  0  0  0  0  0  0  0  0  0  # atno 10764 bound_to 10752
  153.5528  135.7082  153.5644 H   0  0  0  0  0  0  0  0  0  0  0  0  # atno 10765 bound_to 10752
  140.8244  133.8044  155.9693 H   0  0  0  0  0  0  0  0  0  0  0  0  # atno 11005 bound_to 11000
  144.9109  140.7756  143.5808 LP  0  0  0  0  0  0  0  0  0  0  0  0  # atno 17320 bound_to 7965
  145.2866  139.1899  143.4763 LP  0  0  0  0  0  0  0  0  0  0  0  0  # atno 17321 bound_to 7965
  140.3541  143.2946  152.0455 LP  0  0  0  0  0  0  0  0  0  0  0  0  # atno 17342 bound_to 10162
  139.4885  144.6352  151.6990 LP  0  0  0  0  0  0  0  0  0  0  0  0  # atno 17343 bound_to 10162
  156.6774  130.8844  151.3571 LP  0  0  0  0  0  0  0  0  0  0  0  0  # atno 17370 bound_to 10713
  157.7044  130.9369  150.0886 LP  0  0  0  0  0  0  0  0  0  0  0  0  # atno 17371 bound_to 10713
  140.9065  134.2314  157.5011 LP  0  0  0  0  0  0  0  0  0  0  0  0  # atno 17394 bound_to 11000
  139.8707  134.9730  156.4795 LP  0  0  0  0  0  0  0  0  0  0  0  0  # atno 17395 bound_to 11000

$$$$
