AV-unprocessed.smi:2001|AV-procd|sdf|8104|dock3
  -GOLD-   2272010333D 1   1.00000     0.00000
 Structure written by MMmdl.
 50 51  0  0  0  0  0  0  0  0  1 V2000
  148.7421  132.7542  153.5665 C   0  0  0  0  0  0  0  0  0  0  0  0
  147.9834  133.9435  153.6987 O   0  0  0  0  0  0  0  0  0  0  0  0
  148.2657  134.6358  154.9029 C   0  0  0  0  0  0  0  0  0  0  0  0
  147.0703  135.5356  155.2498 C   0  0  0  0  0  0  0  0  0  0  0  0
  147.1432  136.8226  154.5506 N   0  0  0  0  0  0  0  0  0  0  0  0
  148.1785  137.6387  154.9754 N   0  0  0  0  0  0  0  0  0  0  0  0
  148.3532  138.8015  154.4351 C   0  0  0  0  0  0  0  0  0  0  0  0
  149.4590  139.7058  154.8560 C   0  0  0  0  0  0  0  0  0  0  0  0
  149.7014  140.7567  154.2601 O   0  0  0  0  0  0  0  0  0  0  0  0
  150.1691  139.2928  155.9218 N   0  0  0  0  0  0  0  0  0  0  0  0
  151.3116  139.9959  156.4925 C   0  0  0  0  0  0  0  0  0  0  0  0
  150.9816  141.4719  156.7850 C   0  0  0  0  0  0  0  0  0  0  0  0
  151.6937  142.0428  157.9265 N   0  0  0  0  0  0  0  0  0  0  0  0
  151.4945  141.2777  159.1554 C   0  0  0  0  0  0  0  0  0  0  0  0
  152.2261  141.8937  160.3656 C   0  0  1  0  0  0  0  0  0  0  0  0
  153.7486  141.6764  160.3311 C   0  0  0  0  0  0  0  0  0  0  0  0
  151.8911  143.2761  160.4988 O   0  0  0  0  0  0  0  0  0  0  0  0
  152.0712  144.0617  159.3217 C   0  0  2  0  0  0  0  0  0  0  0  0
  151.5964  145.4872  159.6215 C   0  0  0  0  0  0  0  0  0  0  0  0
  151.2908  143.4238  158.1585 C   0  0  0  0  0  0  0  0  0  0  0  0
  147.4693  139.2732  153.3823 C   0  0  0  0  0  0  0  0  0  0  0  0
  146.4601  138.4685  152.9833 C   0  0  0  0  0  0  0  0  0  0  0  0
  146.2400  137.1493  153.5778 C   0  0  0  0  0  0  0  0  0  0  0  0
  145.3243  136.4015  153.2361 O   0  0  0  0  0  0  0  0  0  0  0  0
  148.4896  132.2606  152.6281 H   0  0  0  0  0  0  0  0  0  0  0  0
  148.5300  132.0588  154.3796 H   0  0  0  0  0  0  0  0  0  0  0  0
  149.8117  132.9678  153.5574 H   0  0  0  0  0  0  0  0  0  0  0  0
  148.4509  133.9215  155.7067 H   0  0  0  0  0  0  0  0  0  0  0  0
  149.1671  135.2391  154.7830 H   0  0  0  0  0  0  0  0  0  0  0  0
  146.1431  135.0225  154.9879 H   0  0  0  0  0  0  0  0  0  0  0  0
  147.0199  135.6911  156.3291 H   0  0  0  0  0  0  0  0  0  0  0  0
  149.9057  138.4198  156.3559 H   0  0  0  0  0  0  0  0  0  0  0  0
  151.5888  139.4733  157.4073 H   0  0  0  0  0  0  0  0  0  0  0  0
  152.1667  139.9221  155.8185 H   0  0  0  0  0  0  0  0  0  0  0  0
  151.2317  142.0533  155.8966 H   0  0  0  0  0  0  0  0  0  0  0  0
  149.9055  141.5879  156.9236 H   0  0  0  0  0  0  0  0  0  0  0  0
  150.4278  141.2253  159.3788 H   0  0  0  0  0  0  0  0  0  0  0  0
  151.8319  140.2500  159.0267 H   0  0  0  0  0  0  0  0  0  0  0  0
  151.8563  141.4020  161.2659 H   0  0  0  0  0  0  0  0  0  0  0  0
  153.9883  140.6130  160.3430 H   0  0  0  0  0  0  0  0  0  0  0  0
  154.2263  142.1319  161.1986 H   0  0  0  0  0  0  0  0  0  0  0  0
  154.2039  142.1019  159.4371 H   0  0  0  0  0  0  0  0  0  0  0  0
  153.1317  144.1003  159.0707 H   0  0  0  0  0  0  0  0  0  0  0  0
  151.7238  146.1334  158.7528 H   0  0  0  0  0  0  0  0  0  0  0  0
  152.1639  145.9219  160.4447 H   0  0  0  0  0  0  0  0  0  0  0  0
  150.5421  145.5019  159.8989 H   0  0  0  0  0  0  0  0  0  0  0  0
  151.4537  144.0118  157.2546 H   0  0  0  0  0  0  0  0  0  0  0  0
  150.2207  143.4654  158.3686 H   0  0  0  0  0  0  0  0  0  0  0  0
  147.6078  140.2425  152.9257 H   0  0  0  0  0  0  0  0  0  0  0  0
  145.7946  138.8067  152.2025 H   0  0  0  0  0  0  0  0  0  0  0  0
  1  2  1  0  0  0  0
  1 25  1  0  0  0  0
  1 26  1  0  0  0  0
  1 27  1  0  0  0  0
  2  3  1  0  0  0  0
  3  4  1  0  0  0  0
  3 28  1  0  0  0  0
  3 29  1  0  0  0  0
  4  5  1  0  0  0  0
  4 30  1  0  0  0  0
  4 31  1  0  0  0  0
  5 23  1  0  0  0  0
  5  6  1  0  0  0  0
  6  7  2  0  0  0  0
  7  8  1  0  0  0  0
  7 21  1  0  0  0  0
  8  9  2  0  0  0  0
  8 10  1  0  0  0  0
 10 11  1  0  0  0  0
 10 32  1  0  0  0  0
 11 12  1  0  0  0  0
 11 33  1  0  0  0  0
 11 34  1  0  0  0  0
 12 13  1  0  0  0  0
 12 35  1  0  0  0  0
 12 36  1  0  0  0  0
 13 20  1  0  0  0  0
 13 14  1  0  0  0  0
 14 15  1  0  0  0  0
 14 37  1  0  0  0  0
 14 38  1  0  0  0  0
 15 16  1  0  0  0  0
 15 17  1  0  0  0  0
 15 39  1  0  0  0  0
 16 40  1  0  0  0  0
 16 41  1  0  0  0  0
 16 42  1  0  0  0  0
 17 18  1  0  0  0  0
 18 19  1  0  0  0  0
 18 20  1  0  0  0  0
 18 43  1  0  0  0  0
 19 44  1  0  0  0  0
 19 45  1  0  0  0  0
 19 46  1  0  0  0  0
 20 47  1  0  0  0  0
 20 48  1  0  0  0  0
 21 22  2  0  0  0  0
 21 49  1  0  0  0  0
 22 23  1  0  0  0  0
 22 50  1  0  0  0  0
 23 24  2  0  0  0  0
M  END
> <s_m_source_file>
AV-unprocessed.smi

> <i_m_source_file_index>
2001

> <i_lp_mmshare_version>
43012

> <i_f3d_flags>
0

> <s_epik_input>
W0NIM11PW0NIMl1bQ0gyXW4xbmMoW2NIXVtjSF1jMT1PKUMoPU8pW05IXVtDSDJdW0NIMl1OMltDSDJdW0NAQEhdKFtDSDNdKU9bQ0BASF0oW0NIM10pW0NIMl0y

> <s_epik_cmdline>
J2VwaWtfcHl0aG9uJywgJy1waCcsICc3LjAnLCAnLXRuJywgJzgnLCAnLW1hJywgJzIwMCcsICctbWV0YWxfYmluZGluZycsICctaW1hZScsICc8aW5maWxlLm1hZT4nLCAnLW9tYWUnLCAnPG91dGZpbGUubWFlPic=

> <r_lp_tautomer_probability>
1

> <r_epik_Ionization_Penalty>
0.206669

> <r_epik_Ionization_Penalty_Charging>
5.55992e-09

> <r_epik_Ionization_Penalty_Neutral>
0.206669

> <r_epik_State_Penalty>
0.196651

> <r_epik_Charging_Adjusted_Penalty>
0.196651

> <i_epik_Tot_Q>
0

> <i_epik_Tot_abs_Q>
0

> <r_epik_Metal_State_Penalty>
0.198372

> <b_epik_Metal_Only>
0

> <s_lp_Force_Field>
OPLS_2005

> <r_lp_Energy>
41.2012

> <b_lp_Chiralities_Consistent>
1

> <s_lp_Variant>
AV-unprocessed.smi:2001-3

> <Gold.Version>
5.8.1

> <Gold.Id.Protein>
6NUR|6NUR_protein|mol2

> <Gold.PLP.Fitness>
39.7454

> <Gold.PLP.PLP>
-38.7891

> <Gold.PLP.part.hbond>
-1.0000

> <Gold.PLP.part.metal>
0.0000

> <Gold.PLP.part.buried>
-4.1967

> <Gold.PLP.part.nonpolar>
-34.9593

> <Gold.PLP.part.repulsive>
1.2550

> <Gold.PLP.ligand.clash>
0.0000

> <Gold.PLP.ligand.torsion>
0.5680

> <Gold.PLP.Chemscore.Hbond>
0.6240

> <Gold.PLP.Chemscore.CHOScore>
0.0000

> <Gold.PLP.Chemscore.Metal>
0.0000

> <Gold.Chemscore.Hbonds>
donor molecule, donor type, donor heavy atom, donor atom, acceptor molecule, acceptor atom, score
      P1  H  7989  7998       L1     9  0.58

> <Gold.PLP.Chemscore.Internal.Correction>
0.2203

> <Gold.Rescore>
     Score         DG    S(hbond)    S(metal)    S(lipo)     H(rot)  DE(clash)    DE(int)     intcor
     12.92     -15.02       0.83        0.00     101.66       2.00       0.15       1.96       ----

> <Gold.Chemscore.Fitness>
12.9151

> <Gold.Chemscore.DG>
-15.0221

> <Gold.Chemscore.ZeroCoef>
-5.4800

> <Gold.Chemscore.Hbond>
0.8302

> <Gold.Chemscore.Metal>
0.0000

> <Gold.Chemscore.Lipo>
101.6618

> <Gold.Chemscore.Internal_Hbond>
0.0000

> <Gold.Chemscore.DEClash>
0.1490

> <Gold.Chemscore.DEInternal>
1.9580

> <Gold.Chemscore.Rot>
2.0020

> <Gold.Chemscore.Internal.Correction>
   9.000000E+99

> <Gold.Chemscore.Hbonds>
donor molecule, donor type, donor heavy atom, donor atom, acceptor molecule, acceptor atom, score
      P1  H  7989  7998       L1     9  0.51

> <Gold.Chemscore.Hbond.Weighted>
-2.7728

> <Gold.Chemscore.Metal.Weighted>
-0.0000

> <Gold.Chemscore.Lipo.Weighted>
-11.8944

> <Gold.Chemscore.Internal_Hbond.Weighted>
0.0000

> <Gold.Chemscore.DEClash.Weighted>
0.1490

> <Gold.Chemscore.DEInternal.Weighted>
1.9580

> <Gold.Chemscore.Rot.Weighted>
5.1252

> <Gold.Chemscore.Internal.Correction.Weighted>
   9.000000E+99

> <Gold.Protein.RotatedTorsions>
[ 6907 6896 6895 6894 ] final   18.51 input  -60.11 | X-H torsion
[ 7974 7965 7964 7962 ] final -154.10 input  175.53 | X-H torsion
[ 8008 7997 7996 7995 ] final   86.82 input   59.86 | X-H torsion
[ 10167 10162 10161 10158 ] final   86.65 input  -65.29 | X-H torsion
[ 10718 10713 10712 10709 ] final   20.08 input   66.30 | X-H torsion
[ 10763 10752 10751 10750 ] final  -40.02 input  -60.55 | X-H torsion
[ 11005 11000 10999 10996 ] final  -22.50 input  -57.11 | X-H torsion

> <Gold.Protein.ActiveResidues>
 VAL166  LYS551  ARG553  GLY616  TRP617  ASP618  TYR619  PRO620  LYS621  CYS622 
 ASP623  PHE694  ASN695  SER759  ASP760  ASP761  ALA762  ILE779  LEU786  VAL792 
 PHE793  MET794  SER795  GLU796  ALA797  LYS798  CYS799  TRP800  GLU811  SER814 

> <Gold.Protein.RotatedAtoms>
  151.8664  135.0505  160.0474 H   0  0  0  0  0  0  0  0  0  0  0  0  # atno 6907 bound_to 6896
  152.2623  133.5303  159.5397 H   0  0  0  0  0  0  0  0  0  0  0  0  # atno 6908 bound_to 6896
  150.7121  134.0729  159.3913 H   0  0  0  0  0  0  0  0  0  0  0  0  # atno 6909 bound_to 6896
  144.7706  140.4435  143.5909 H   0  0  0  0  0  0  0  0  0  0  0  0  # atno 7974 bound_to 7965
  155.9676  140.3388  155.6547 H   0  0  0  0  0  0  0  0  0  0  0  0  # atno 8008 bound_to 7997
  155.6716  140.0727  157.2536 H   0  0  0  0  0  0  0  0  0  0  0  0  # atno 8009 bound_to 7997
  154.4158  140.1690  156.1873 H   0  0  0  0  0  0  0  0  0  0  0  0  # atno 8010 bound_to 7997
  139.8854  144.6416  150.8797 H   0  0  0  0  0  0  0  0  0  0  0  0  # atno 10167 bound_to 10162
  157.1195  130.6543  149.5920 H   0  0  0  0  0  0  0  0  0  0  0  0  # atno 10718 bound_to 10713
  153.9390  135.6763  153.4744 H   0  0  0  0  0  0  0  0  0  0  0  0  # atno 10763 bound_to 10752
  153.0941  135.4860  154.8742 H   0  0  0  0  0  0  0  0  0  0  0  0  # atno 10764 bound_to 10752
  154.7387  135.3155  154.8724 H   0  0  0  0  0  0  0  0  0  0  0  0  # atno 10765 bound_to 10752
  140.8663  133.7752  156.0133 H   0  0  0  0  0  0  0  0  0  0  0  0  # atno 11005 bound_to 11000
  145.6334  139.1539  143.2956 LP  0  0  0  0  0  0  0  0  0  0  0  0  # atno 17320 bound_to 7965
  146.1850  140.6436  142.9171 LP  0  0  0  0  0  0  0  0  0  0  0  0  # atno 17321 bound_to 7965
  140.7737  143.3552  151.1935 LP  0  0  0  0  0  0  0  0  0  0  0  0  # atno 17342 bound_to 10162
  139.7158  143.9303  152.2966 LP  0  0  0  0  0  0  0  0  0  0  0  0  # atno 17343 bound_to 10162
  155.9832  130.4850  150.6919 LP  0  0  0  0  0  0  0  0  0  0  0  0  # atno 17370 bound_to 10713
  157.4489  131.0870  151.0866 LP  0  0  0  0  0  0  0  0  0  0  0  0  # atno 17371 bound_to 10713
  140.8625  134.2823  157.5228 LP  0  0  0  0  0  0  0  0  0  0  0  0  # atno 17394 bound_to 11000
  139.8709  134.9526  156.4119 LP  0  0  0  0  0  0  0  0  0  0  0  0  # atno 17395 bound_to 11000

$$$$
