AV-unprocessed.smi:2583|AV-procd|sdf|10137|dock6
  -GOLD-   2272014153D 1   1.00000     0.00000
 Structure written by MMmdl.
 55 57  0  0  0  0  0  0  0  0  3 V2000
  154.3270  141.7610  160.2767 C   0  0  0  0  0  0  0  0  0  0  0  0
  153.3128  142.1954  159.2394 C   0  0  0  0  0  0  0  0  0  0  0  0
  153.0477  143.5610  159.0080 C   0  0  0  0  0  0  0  0  0  0  0  0
  152.1656  143.9977  158.0845 N   0  0  0  0  0  0  0  0  0  0  0  0
  151.5042  143.0739  157.3556 C   0  0  0  0  0  0  0  0  0  0  0  0
  151.6765  141.6826  157.5139 C   0  0  0  0  0  0  0  0  0  0  0  0
  150.9319  140.8139  156.6718 N   0  0  0  0  0  0  0  0  0  0  0  0
  150.5757  139.5393  156.9060 C   0  0  0  0  0  0  0  0  0  0  0  0
  150.8114  138.9146  157.9400 O   0  0  0  0  0  0  0  0  0  0  0  0
  149.8957  139.0236  155.8714 N   0  0  0  0  0  0  0  0  0  0  0  0
  149.3480  137.6707  155.8233 C   0  0  2  0  0  0  0  0  0  0  0  0
  150.3940  136.6924  155.2757 C   0  0  0  0  0  0  0  0  0  0  0  0
  149.8187  135.2708  155.1455 C   0  0  0  0  0  0  0  0  0  0  0  0
  148.5978  135.2403  154.2864 N   0  3  1  0  0  0  0  0  0  0  0  0
  148.0302  133.8738  154.0241 C   0  0  2  0  0  0  0  0  0  0  0  0
  147.6690  133.0449  155.2831 C   0  0  0  0  0  0  0  0  0  0  0  0
  148.9148  132.5713  156.0559 C   0  0  0  0  0  0  0  0  0  0  0  0
  149.8162  131.7834  155.1804 N   0  3  2  0  0  0  0  0  0  0  0  0
  150.9775  131.2355  155.9140 C   0  0  0  0  0  0  0  0  0  0  0  0
  150.2169  132.5398  153.9686 C   0  0  0  0  0  0  0  0  0  0  0  0
  148.9835  133.0027  153.1706 C   0  0  0  0  0  0  0  0  0  0  0  0
  147.5674  136.1804  154.8178 C   0  0  0  0  0  0  0  0  0  0  0  0
  148.1009  137.6169  154.9289 C   0  0  0  0  0  0  0  0  0  0  0  0
  152.6160  141.2382  158.4749 C   0  0  0  0  0  0  0  0  0  0  0  0
  154.6387  142.5989  160.9010 H   0  0  0  0  0  0  0  0  0  0  0  0
  155.2109  141.3492  159.7890 H   0  0  0  0  0  0  0  0  0  0  0  0
  153.9027  140.9935  160.9246 H   0  0  0  0  0  0  0  0  0  0  0  0
  153.5608  144.3259  159.5721 H   0  0  0  0  0  0  0  0  0  0  0  0
  150.8090  143.4602  156.6245 H   0  0  0  0  0  0  0  0  0  0  0  0
  150.5808  141.2296  155.8214 H   0  0  0  0  0  0  0  0  0  0  0  0
  149.7457  139.6089  155.0624 H   0  0  0  0  0  0  0  0  0  0  0  0
  149.0801  137.3544  156.8336 H   0  0  0  0  0  0  0  0  0  0  0  0
  150.7460  137.0315  154.3000 H   0  0  0  0  0  0  0  0  0  0  0  0
  151.2670  136.6760  155.9295 H   0  0  0  0  0  0  0  0  0  0  0  0
  150.6107  134.6547  154.7244 H   0  0  0  0  0  0  0  0  0  0  0  0
  149.5829  134.8653  156.1307 H   0  0  0  0  0  0  0  0  0  0  0  0
  147.1029  134.0200  153.4676 H   0  0  0  0  0  0  0  0  0  0  0  0
  146.9754  133.5705  155.9385 H   0  0  0  0  0  0  0  0  0  0  0  0
  147.1158  132.1606  154.9625 H   0  0  0  0  0  0  0  0  0  0  0  0
  149.4594  133.4213  156.4689 H   0  0  0  0  0  0  0  0  0  0  0  0
  148.6037  131.9555  156.9008 H   0  0  0  0  0  0  0  0  0  0  0  0
  151.6129  132.0353  156.2969 H   0  0  0  0  0  0  0  0  0  0  0  0
  151.5802  130.6014  155.2630 H   0  0  0  0  0  0  0  0  0  0  0  0
  150.6484  130.6270  156.7570 H   0  0  0  0  0  0  0  0  0  0  0  0
  150.8276  133.3975  154.2544 H   0  0  0  0  0  0  0  0  0  0  0  0
  150.8396  131.9052  153.3369 H   0  0  0  0  0  0  0  0  0  0  0  0
  148.4412  132.1198  152.8287 H   0  0  0  0  0  0  0  0  0  0  0  0
  149.3016  133.5068  152.2603 H   0  0  0  0  0  0  0  0  0  0  0  0
  146.6853  136.1997  154.1813 H   0  0  0  0  0  0  0  0  0  0  0  0
  147.2330  135.8352  155.7977 H   0  0  0  0  0  0  0  0  0  0  0  0
  147.3214  138.2649  155.3321 H   0  0  0  0  0  0  0  0  0  0  0  0
  148.3358  137.9979  153.9336 H   0  0  0  0  0  0  0  0  0  0  0  0
  152.8235  140.1899  158.6257 H   0  0  0  0  0  0  0  0  0  0  0  0
  148.8872  135.6037  153.3896 H   0  0  0  0  0  0  0  0  0  0  0  0
  149.2830  130.9873  154.8598 H   0  0  0  0  0  0  0  0  0  0  0  0
  1  2  1  0  0  0  0
  1 25  1  0  0  0  0
  1 26  1  0  0  0  0
  1 27  1  0  0  0  0
  2 24  1  0  0  0  0
  2  3  2  0  0  0  0
  3  4  1  0  0  0  0
  3 28  1  0  0  0  0
  4  5  2  0  0  0  0
  5  6  1  0  0  0  0
  5 29  1  0  0  0  0
  6  7  1  0  0  0  0
  6 24  2  0  0  0  0
  7  8  1  0  0  0  0
  7 30  1  0  0  0  0
  8  9  2  0  0  0  0
  8 10  1  0  0  0  0
 10 11  1  0  0  0  0
 10 31  1  0  0  0  0
 11 23  1  0  0  0  0
 11 12  1  0  0  0  0
 11 32  1  0  0  0  0
 12 13  1  0  0  0  0
 12 33  1  0  0  0  0
 12 34  1  0  0  0  0
 13 14  1  0  0  0  0
 13 35  1  0  0  0  0
 13 36  1  0  0  0  0
 14 15  1  0  0  0  0
 14 22  1  0  0  0  0
 14 54  1  0  0  0  0
 15 21  1  0  0  0  0
 15 16  1  0  0  0  0
 15 37  1  0  0  0  0
 16 17  1  0  0  0  0
 16 38  1  0  0  0  0
 16 39  1  0  0  0  0
 17 18  1  0  0  0  0
 17 40  1  0  0  0  0
 17 41  1  0  0  0  0
 18 19  1  0  0  0  0
 18 20  1  0  0  0  0
 18 55  1  0  0  0  0
 19 42  1  0  0  0  0
 19 43  1  0  0  0  0
 19 44  1  0  0  0  0
 20 21  1  0  0  0  0
 20 45  1  0  0  0  0
 20 46  1  0  0  0  0
 21 47  1  0  0  0  0
 21 48  1  0  0  0  0
 22 23  1  0  0  0  0
 22 49  1  0  0  0  0
 22 50  1  0  0  0  0
 23 51  1  0  0  0  0
 23 52  1  0  0  0  0
 24 53  1  0  0  0  0
M  CHG  1  14   1
M  CHG  1  18   1
M  END
> <s_m_source_file>
AV-unprocessed.smi

> <i_m_source_file_index>
2583

> <i_lp_mmshare_version>
43012

> <i_f3d_flags>
0

> <s_epik_input>
W0NIM11jMVtjSF1uW2NIXWMoW2NIXTEpW05IXUMoPU8pW05IXVtDSF0yW0NIMl1bQ0gyXU4oW0NIMl1bQ0gyXTIpW0NIXTNbQ0gyXVtDSDJdTihbQ0gzXSlbQ0gyXVtDSDJdMw==

> <s_epik_cmdline>
J2VwaWtfcHl0aG9uJywgJy1waCcsICc3LjAnLCAnLXRuJywgJzgnLCAnLW1hJywgJzIwMCcsICctbWV0YWxfYmluZGluZycsICctaW1hZScsICc8aW5maWxlLm1hZT4nLCAnLW9tYWUnLCAnPG91dGZpbGUubWFlPic=

> <r_epik_Ionization_Penalty>
0.188357

> <r_epik_Ionization_Penalty_Charging>
0.180787

> <r_epik_Ionization_Penalty_Neutral>
0.00756971

> <r_epik_State_Penalty>
0.157948

> <r_epik_Charging_Adjusted_Penalty>
0.338735

> <i_epik_Tot_Q>
2

> <i_epik_Tot_abs_Q>
2

> <r_epik_Metal_State_Penalty>
0.153874

> <b_epik_Metal_Only>
0

> <s_lp_Force_Field>
OPLS_2005

> <r_lp_Energy>
48.801

> <b_lp_Chiralities_Consistent>
1

> <s_lp_Variant>
AV-unprocessed.smi:2583-3

> <Gold.Version>
5.8.1

> <Gold.Id.Protein>
6NUR|6NUR_protein|mol2

> <Gold.PLP.Fitness>
41.1700

> <Gold.PLP.PLP>
-33.7173

> <Gold.PLP.part.hbond>
-1.0000

> <Gold.PLP.part.metal>
0.0000

> <Gold.PLP.part.buried>
-5.8984

> <Gold.PLP.part.nonpolar>
-27.0545

> <Gold.PLP.part.repulsive>
0.1624

> <Gold.PLP.ligand.clash>
0.3715

> <Gold.PLP.ligand.torsion>
0.6045

> <Gold.PLP.Chemscore.Hbond>
2.0000

> <Gold.PLP.Chemscore.CHOScore>
1.0000

> <Gold.PLP.Chemscore.Metal>
0.0000

> <Gold.Chemscore.Hbonds>
donor molecule, donor type, donor heavy atom, donor atom, acceptor molecule, acceptor atom, score
      L1  H    14    54       P1  7948  2.00
      L1  C     5    29       P1  8028  1.00

> <Gold.PLP.Chemscore.Internal.Correction>
0.0332

> <Gold.Rescore>
     Score         DG    S(hbond)    S(metal)    S(lipo)     H(rot)  DE(clash)    DE(int)     intcor
     14.41     -17.30       0.97        0.00      99.69       1.21       0.11       2.79       ----

> <Gold.Chemscore.Fitness>
14.4069

> <Gold.Chemscore.DG>
-17.3017

> <Gold.Chemscore.ZeroCoef>
-5.4800

> <Gold.Chemscore.Hbond>
0.9742

> <Gold.Chemscore.Metal>
0.0000

> <Gold.Chemscore.Lipo>
99.6872

> <Gold.Chemscore.Internal_Hbond>
0.0000

> <Gold.Chemscore.DEClash>
0.1052

> <Gold.Chemscore.DEInternal>
2.7896

> <Gold.Chemscore.Rot>
1.2092

> <Gold.Chemscore.Internal.Correction>
   9.000000E+99

> <Gold.Chemscore.Hbonds>
donor molecule, donor type, donor heavy atom, donor atom, acceptor molecule, acceptor atom, score
      L1  H    14    54       P1  7948  0.88

> <Gold.Chemscore.Hbond.Weighted>
-3.2537

> <Gold.Chemscore.Metal.Weighted>
-0.0000

> <Gold.Chemscore.Lipo.Weighted>
-11.6634

> <Gold.Chemscore.Internal_Hbond.Weighted>
0.0000

> <Gold.Chemscore.DEClash.Weighted>
0.1052

> <Gold.Chemscore.DEInternal.Weighted>
2.7896

> <Gold.Chemscore.Rot.Weighted>
3.0955

> <Gold.Chemscore.Internal.Correction.Weighted>
   9.000000E+99

> <Gold.Protein.RotatedTorsions>
[ 6907 6896 6895 6894 ] final -166.13 input  -60.11 | X-H torsion
[ 7974 7965 7964 7962 ] final   58.51 input  175.53 | X-H torsion
[ 8008 7997 7996 7995 ] final -101.89 input   59.86 | X-H torsion
[ 10167 10162 10161 10158 ] final  -49.10 input  -65.29 | X-H torsion
[ 10718 10713 10712 10709 ] final -100.52 input   66.30 | X-H torsion
[ 10763 10752 10751 10750 ] final  -36.95 input  -60.55 | X-H torsion
[ 11005 11000 10999 10996 ] final -119.59 input  -57.11 | X-H torsion

> <Gold.Protein.ActiveResidues>
 VAL166  LYS551  ARG553  GLY616  TRP617  ASP618  TYR619  PRO620  LYS621  CYS622 
 ASP623  PHE694  ASN695  SER759  ASP760  ASP761  ALA762  ILE779  LEU786  VAL792 
 PHE793  MET794  SER795  GLU796  ALA797  LYS798  CYS799  TRP800  GLU811  SER814 

> <Gold.Protein.RotatedAtoms>
  151.4387  133.3649  159.2778 H   0  0  0  0  0  0  0  0  0  0  0  0  # atno 6907 bound_to 6896
  150.9173  134.8592  159.7476 H   0  0  0  0  0  0  0  0  0  0  0  0  # atno 6908 bound_to 6896
  152.4964  134.4322  159.9568 H   0  0  0  0  0  0  0  0  0  0  0  0  # atno 6909 bound_to 6896
  145.9173  139.3701  143.0499 H   0  0  0  0  0  0  0  0  0  0  0  0  # atno 7974 bound_to 7965
  154.8490  140.0431  157.1591 H   0  0  0  0  0  0  0  0  0  0  0  0  # atno 8008 bound_to 7997
  154.8964  140.2994  155.5321 H   0  0  0  0  0  0  0  0  0  0  0  0  # atno 8009 bound_to 7997
  156.2995  140.2384  156.3986 H   0  0  0  0  0  0  0  0  0  0  0  0  # atno 8010 bound_to 7997
  140.6701  143.2712  151.4166 H   0  0  0  0  0  0  0  0  0  0  0  0  # atno 10167 bound_to 10162
  156.0165  130.5331  150.6829 H   0  0  0  0  0  0  0  0  0  0  0  0  # atno 10718 bound_to 10713
  153.8882  135.6815  153.4762 H   0  0  0  0  0  0  0  0  0  0  0  0  # atno 10763 bound_to 10752
  153.1195  135.4746  154.9170 H   0  0  0  0  0  0  0  0  0  0  0  0  # atno 10764 bound_to 10752
  154.7635  135.3217  154.8284 H   0  0  0  0  0  0  0  0  0  0  0  0  # atno 10765 bound_to 10752
  141.0204  134.0132  157.3290 H   0  0  0  0  0  0  0  0  0  0  0  0  # atno 11005 bound_to 11000
  145.8595  140.9483  143.0708 LP  0  0  0  0  0  0  0  0  0  0  0  0  # atno 17320 bound_to 7965
  144.6749  140.0511  143.7478 LP  0  0  0  0  0  0  0  0  0  0  0  0  # atno 17321 bound_to 7965
  139.5965  144.1386  152.2150 LP  0  0  0  0  0  0  0  0  0  0  0  0  # atno 17342 bound_to 10162
  140.0757  144.5742  150.7159 LP  0  0  0  0  0  0  0  0  0  0  0  0  # atno 17343 bound_to 10162
  157.4527  131.0874  151.0829 LP  0  0  0  0  0  0  0  0  0  0  0  0  # atno 17370 bound_to 10713
  157.1340  130.6114  149.5537 LP  0  0  0  0  0  0  0  0  0  0  0  0  # atno 17371 bound_to 10713
  139.9143  135.0195  156.7817 LP  0  0  0  0  0  0  0  0  0  0  0  0  # atno 17394 bound_to 11000
  140.6582  133.9669  155.7791 LP  0  0  0  0  0  0  0  0  0  0  0  0  # atno 17395 bound_to 11000

$$$$
