#       Name:                AV-unprocessed.smi:2468
#       Creating user name   scv26
#       Creation time:       Fri Mar 27 13:37:20 2020


#       File generated by GOLD software.
#

@<TRIPOS>MOLECULE
AV-unprocessed.smi:2468
    37    38     1
SMALL
NO_CHARGES


@<TRIPOS>ATOM
      1 ****        -4.7622   2.6430  -0.7837 C.3            1 S1                 0.0000
      2 ****        -3.9744   1.3541  -0.6432 C.ar           1 S1                 0.0000
      3 ****        -4.7116   0.2266  -0.5404 N.ar           1 S1                 0.0000
      4 ****        -4.0606  -0.9485  -0.4216 C.ar           1 S1                 0.0000
      5 ****        -2.6571  -1.0574  -0.3934 C.ar           1 S1                 0.0000
      6 ****        -1.8818   0.1234  -0.4837 C.ar           1 S1                 0.0000
      7 ****        -0.4596   0.1261  -0.4871 N.am           1 S1                 0.0000
      8 ****         0.3899  -0.7749   0.0402 C.2            1 S1                 0.0000
      9 ****         0.0412  -1.7944   0.6355 O.2            1 S1                 0.0000
     10 ****         1.8826  -0.4569  -0.1374 C.3            1 S1                 0.0000
     11 ****         2.1014   0.9434   0.0347 O.3            1 S1                 0.0000
     12 ****         3.3198   1.1735   0.7365 C.3            1 S1                 0.0000
     13 ****         4.0077  -0.1837   0.8410 C.3            1 S1                 0.0000
     14 ****         2.8306  -1.1376   0.8630 C.3            1 S1                 0.0000
     15 ****         3.2065  -2.5862   0.5128 C.3            1 S1                 0.0000
     16 ****        -2.5597   1.3571  -0.6255 C.ar           1 S1                 0.0000
     17 ****        -1.6777   2.8412  -0.7676 Cl             1 S1                 0.0000
     18 ****        -4.5309   3.3203   0.0387 H              1 S1                 0.0000
     19 ****        -5.8374   2.4591  -0.7763 H              1 S1                 0.0000
     20 ****        -4.5121   3.1399  -1.7214 H              1 S1                 0.0000
     21 ****        -4.6780  -1.8320  -0.3542 H              1 S1                 0.0000
     22 ****        -2.2085  -2.0358  -0.3178 H              1 S1                 0.0000
     23 ****        -0.0311   0.9579  -0.8675 H              1 S1                 0.0000
     24 ****         2.1761  -0.7126  -1.1567 H              1 S1                 0.0000
     25 ****         3.9381   1.9150   0.2298 H              1 S1                 0.0000
     26 ****         3.0782   1.5552   1.7291 H              1 S1                 0.0000
     27 ****         4.6222  -0.3576  -0.0439 H              1 S1                 0.0000
     28 ****         4.6460  -0.2687   1.7210 H              1 S1                 0.0000
     29 ****         2.3886  -1.1149   1.8611 H              1 S1                 0.0000
     30 ****         3.6498  -2.6533  -0.4811 H              1 S1                 0.0000
     31 ****         2.3341  -3.2393   0.5314 H              1 S1                 0.0000
     32 ****         3.9291  -2.9830   1.2264 H              1 S1                 0.0000
     33 ****        -5.7109   0.2624  -0.5520 LP             1 S1                 0.0000
     34 ****        -0.9310  -1.9970   0.7529 LP             1 S1                 0.0000
     35 ****         0.7301  -2.4199   1.0017 LP             1 S1                 0.0000
     36 ****         1.3424   1.3339   0.5557 LP             1 S1                 0.0000
     37 ****         2.1503   1.3820  -0.8626 LP             1 S1                 0.0000
@<TRIPOS>BOND
    1    1    2 1     
    2    1   18 1     
    3    1   19 1     
    4    1   20 1     
    5    2   16 ar    
    6    2    3 ar    
    7    3    4 ar    
    8    4    5 ar    
    9    4   21 1     
   10    5    6 ar    
   11    5   22 1     
   12    6    7 1     
   13    6   16 ar    
   14    7    8 am    
   15    7   23 1     
   16    8    9 2     
   17    8   10 1     
   18   10   14 1     
   19   10   11 1     
   20   10   24 1     
   21   11   12 1     
   22   12   13 1     
   23   12   25 1     
   24   12   26 1     
   25   13   14 1     
   26   13   27 1     
   27   13   28 1     
   28   14   15 1     
   29   14   29 1     
   30   15   30 1     
   31   15   31 1     
   32   15   32 1     
   33   16   17 1     
   34    3   33 1     
   35    9   34 1     
   36    9   35 1     
   37   11   36 1     
   38   11   37 1     
@<TRIPOS>SUBSTRUCTURE
      1 S1             1
@<TRIPOS>SET
LONE_PAIRS      STATIC     ATOMS    <user>   **** ""
5 33 34 35 36 37
DONOR_HYDROGENS      STATIC     ATOMS    <user>   **** ""
1 23
ATOM$BLUE        STATIC     ATOMS    COLORGROUP SYSTEM
5 33 34 35 36 37
ATOM$RED        STATIC     ATOMS    COLORGROUP SYSTEM
1 23
