#       Name:                AV-unprocessed.smi:1312
#       Creating user name   scv26
#       Creation time:       Fri Mar 27 05:01:53 2020


#       File generated by GOLD software.
#

@<TRIPOS>MOLECULE
AV-unprocessed.smi:1312
    53    54     1
SMALL
NO_CHARGES


@<TRIPOS>ATOM
      1 ****        -1.8978   1.6783  -2.6137 C.3            1 S1                 0.0000
      2 ****        -1.4366   2.4391  -1.3606 C.3            1 S1                 0.0000
      3 ****        -1.8214   1.7654  -0.0150 C.3            1 S1                 0.0000
      4 ****        -1.1799   0.3634   0.1471 C.3            1 S1                 0.0000
      5 ****         0.2672   0.4001  -0.0322 N.am           1 S1                 0.0000
      6 ****         1.0284  -0.6675  -0.3117 C.2            1 S1                 0.0000
      7 ****         0.5694  -1.8041  -0.4346 O.2            1 S1                 0.0000
      8 ****         2.5265  -0.3928  -0.4879 C.3            1 S1                 0.0000
      9 ****         3.3491  -1.6429  -0.2875 C.2            1 S1                 0.0000
     10 ****         3.7730  -2.5690  -1.2854 C.2            1 S1                 0.0000
     11 ****         3.4979  -2.5308  -2.7614 C.3            1 S1                 0.0000
     12 ****         4.4870  -3.5625  -0.7823 N.2            1 S1                 0.0000
     13 ****         4.5413  -3.3112   0.5411 N.pl3          1 S1                 0.0000
     14 ****         5.2621  -4.2219   1.4094 C.3            1 S1                 0.0000
     15 ****         3.8598  -2.1568   0.8745 C.2            1 S1                 0.0000
     16 ****         3.7683  -1.6648   2.2827 C.3            1 S1                 0.0000
     17 ****        -3.3031   1.7221   0.1642 N.4            1 S1                 1.0000
     18 ****        -3.7893   1.0194   1.3719 C.3            1 S1                 0.0000
     19 ****        -5.2101   1.5293   1.5814 C.3            1 S1                 0.0000
     20 ****        -5.1064   2.9968   1.1853 C.3            1 S1                 0.0000
     21 ****        -3.9863   3.0412   0.1371 C.3            1 S1                 0.0000
     22 ****        -1.6240   2.2257  -3.5159 H              1 S1                 0.0000
     23 ****        -2.9796   1.5458  -2.6270 H              1 S1                 0.0000
     24 ****        -1.4355   0.6935  -2.6798 H              1 S1                 0.0000
     25 ****        -0.3553   2.5678  -1.4116 H              1 S1                 0.0000
     26 ****        -1.8327   3.4534  -1.4027 H              1 S1                 0.0000
     27 ****        -1.4260   2.3924   0.7860 H              1 S1                 0.0000
     28 ****        -1.3648  -0.0367   1.1442 H              1 S1                 0.0000
     29 ****        -1.6300  -0.3367  -0.5585 H              1 S1                 0.0000
     30 ****         0.7210   1.2983   0.0526 H              1 S1                 0.0000
     31 ****         2.6787   0.0219  -1.4846 H              1 S1                 0.0000
     32 ****         2.8304   0.3881   0.2102 H              1 S1                 0.0000
     33 ****         3.7962  -1.5740  -3.1895 H              1 S1                 0.0000
     34 ****         2.4347  -2.6664  -2.9605 H              1 S1                 0.0000
     35 ****         4.0385  -3.3133  -3.2953 H              1 S1                 0.0000
     36 ****         6.0719  -3.6886   1.9077 H              1 S1                 0.0000
     37 ****         5.6841  -5.0491   0.8370 H              1 S1                 0.0000
     38 ****         4.5842  -4.6249   2.1619 H              1 S1                 0.0000
     39 ****         3.1114  -0.7985   2.3575 H              1 S1                 0.0000
     40 ****         4.7507  -1.3746   2.6553 H              1 S1                 0.0000
     41 ****         3.3716  -2.4391   2.9394 H              1 S1                 0.0000
     42 ****        -3.7593  -0.0643   1.2547 H              1 S1                 0.0000
     43 ****        -3.1719   1.2893   2.2306 H              1 S1                 0.0000
     44 ****        -5.8943   1.0099   0.9091 H              1 S1                 0.0000
     45 ****        -5.5665   1.3882   2.6021 H              1 S1                 0.0000
     46 ****        -6.0494   3.3958   0.8109 H              1 S1                 0.0000
     47 ****        -4.8180   3.5900   2.0539 H              1 S1                 0.0000
     48 ****        -3.3026   3.8590   0.3689 H              1 S1                 0.0000
     49 ****        -4.3859   3.2147  -0.8625 H              1 S1                 0.0000
     50 ****        -3.6762   1.2031  -0.6180 H              1 S1                 0.0000
     51 ****        -0.4121  -1.9615  -0.3253 LP             1 S1                 0.0000
     52 ****         1.1783  -2.5694  -0.6436 LP             1 S1                 0.0000
     53 ****         4.8962  -4.3305  -1.2749 LP             1 S1                 0.0000
@<TRIPOS>BOND
    1    1    2 1     
    2    1   22 1     
    3    1   23 1     
    4    1   24 1     
    5    2    3 1     
    6    2   25 1     
    7    2   26 1     
    8    3    4 1     
    9    3   17 1     
   10    3   27 1     
   11    4    5 1     
   12    4   28 1     
   13    4   29 1     
   14    5    6 am    
   15    5   30 1     
   16    6    7 2     
   17    6    8 1     
   18    8    9 1     
   19    8   31 1     
   20    8   32 1     
   21    9   15 2     
   22    9   10 1     
   23   10   11 1     
   24   10   12 2     
   25   11   33 1     
   26   11   34 1     
   27   11   35 1     
   28   12   13 1     
   29   13   14 1     
   30   13   15 1     
   31   14   36 1     
   32   14   37 1     
   33   14   38 1     
   34   15   16 1     
   35   16   39 1     
   36   16   40 1     
   37   16   41 1     
   38   17   21 1     
   39   17   18 1     
   40   17   50 1     
   41   18   19 1     
   42   18   42 1     
   43   18   43 1     
   44   19   20 1     
   45   19   44 1     
   46   19   45 1     
   47   20   21 1     
   48   20   46 1     
   49   20   47 1     
   50   21   48 1     
   51   21   49 1     
   52    7   51 1     
   53    7   52 1     
   54   12   53 1     
@<TRIPOS>SUBSTRUCTURE
      1 S1             1
@<TRIPOS>SET
LONE_PAIRS      STATIC     ATOMS    <user>   **** ""
3 51 52 53
DONOR_HYDROGENS      STATIC     ATOMS    <user>   **** ""
2 30 50
ATOM$BLUE        STATIC     ATOMS    COLORGROUP SYSTEM
3 51 52 53
ATOM$RED        STATIC     ATOMS    COLORGROUP SYSTEM
2 30 50
