#       Name:                AV-unprocessed.smi:282
#       Creating user name   scv26
#       Creation time:       Thu Mar 26 21:42:41 2020


#       File generated by GOLD software.
#

@<TRIPOS>MOLECULE
AV-unprocessed.smi:282
    73    77     1
SMALL
NO_CHARGES


@<TRIPOS>ATOM
      1 ****        -1.9527  -1.2714   2.2564 C.3            1 S1                 0.0000
      2 ****        -2.3539   0.2107   2.1744 C.3            1 S1                 0.0000
      3 ****        -2.8761   0.6783   0.7901 C.3            1 S1                 0.0000
      4 ****        -4.2302   0.0167   0.4526 C.3            1 S1                 0.0000
      5 ****        -4.7368   0.4361  -0.8765 N.4            1 S1                 1.0000
      6 ****        -6.0719  -0.1473  -1.1675 C.3            1 S1                 0.0000
      7 ****        -6.6275   0.3642  -2.5054 C.3            1 S1                 0.0000
      8 ****        -5.6484   0.0671  -3.6464 C.3            1 S1                 0.0000
      9 ****        -4.2749   0.6666  -3.3210 C.3            1 S1                 0.0000
     10 ****        -3.7476   0.1711  -1.9590 C.3            1 S1                 0.0000
     11 ****        -2.3987   0.8353  -1.6297 C.3            1 S1                 0.0000
     12 ****        -1.9154   0.4684  -0.3019 N.3            1 S1                 0.0000
     13 ****        -0.6614   0.9464  -0.1221 C.ar           1 S1                 0.0000
     14 ****        -0.4689   2.1966   0.3755 N.ar           1 S1                 0.0000
     15 ****         0.7720   2.6669   0.5344 C.ar           1 S1                 0.0000
     16 ****         1.9332   2.0682   0.2598 N.ar           1 S1                 0.0000
     17 ****         1.7402   0.8167  -0.2478 C.ar           1 S1                 0.0000
     18 ****         0.4849   0.1885  -0.4767 C.ar           1 S1                 0.0000
     19 ****         0.6730  -1.0769  -1.0158 N.2            1 S1                 0.0000
     20 ****         1.9706  -1.1921  -1.1001 C.2            1 S1                 0.0000
     21 ****         2.6903  -0.1096  -0.6433 N.pl3          1 S1                 0.0000
     22 ****         4.1402   0.0255  -0.6183 C.3            1 S1                 0.0000
     23 ****         4.8221  -0.4738   0.6908 C.3            1 S1                 0.0000
     24 ****         4.4962  -1.9731   0.9486 C.3            1 S1                 0.0000
     25 ****         4.8957  -2.8011  -0.1252 O.3            1 S1                 0.0000
     26 ****         6.3492  -0.2429   0.5648 C.3            1 S1                 0.0000
     27 ****         7.0976  -0.4252   1.8976 C.3            1 S1                 0.0000
     28 ****         6.5512   0.4416   2.8830 O.3            1 S1                 0.0000
     29 ****         5.1841   0.1686   3.1604 C.3            1 S1                 0.0000
     30 ****         4.3353   0.3751   1.8923 C.3            1 S1                 0.0000
     31 ****        -1.5559  -1.5046   3.2445 H              1 S1                 0.0000
     32 ****        -1.1800  -1.5202   1.5291 H              1 S1                 0.0000
     33 ****        -2.8017  -1.9324   2.0861 H              1 S1                 0.0000
     34 ****        -3.1195   0.4073   2.9256 H              1 S1                 0.0000
     35 ****        -1.5008   0.8176   2.4774 H              1 S1                 0.0000
     36 ****        -3.0568   1.7525   0.8559 H              1 S1                 0.0000
     37 ****        -4.1363  -1.0698   0.4547 H              1 S1                 0.0000
     38 ****        -4.9646   0.2727   1.2175 H              1 S1                 0.0000
     39 ****        -5.9985  -1.2359  -1.1865 H              1 S1                 0.0000
     40 ****        -6.7651   0.1091  -0.3654 H              1 S1                 0.0000
     41 ****        -7.5920  -0.1007  -2.7116 H              1 S1                 0.0000
     42 ****        -6.8078   1.4383  -2.4435 H              1 S1                 0.0000
     43 ****        -5.5584  -1.0108  -3.7876 H              1 S1                 0.0000
     44 ****        -6.0260   0.4758  -4.5841 H              1 S1                 0.0000
     45 ****        -3.5673   0.4116  -4.1110 H              1 S1                 0.0000
     46 ****        -4.3495   1.7550  -3.3143 H              1 S1                 0.0000
     47 ****        -3.5951  -0.9084  -2.0166 H              1 S1                 0.0000
     48 ****        -1.6623   0.5515  -2.3834 H              1 S1                 0.0000
     49 ****        -2.4990   1.9211  -1.6802 H              1 S1                 0.0000
     50 ****         0.8456   3.6657   0.9388 H              1 S1                 0.0000
     51 ****         2.4430  -2.0805  -1.4936 H              1 S1                 0.0000
     52 ****         4.5409  -0.5090  -1.4806 H              1 S1                 0.0000
     53 ****         4.3797   1.0758  -0.7906 H              1 S1                 0.0000
     54 ****         4.9876  -2.3439   1.8464 H              1 S1                 0.0000
     55 ****         3.4285  -2.1155   1.1159 H              1 S1                 0.0000
     56 ****         4.6836  -3.6964   0.0910 H              1 S1                 0.0000
     57 ****         6.7785  -0.8985  -0.1932 H              1 S1                 0.0000
     58 ****         6.5335   0.7738   0.2148 H              1 S1                 0.0000
     59 ****         7.0628  -1.4594   2.2407 H              1 S1                 0.0000
     60 ****         8.1512  -0.1780   1.7657 H              1 S1                 0.0000
     61 ****         5.0739  -0.8403   3.5591 H              1 S1                 0.0000
     62 ****         4.8473   0.8482   3.9434 H              1 S1                 0.0000
     63 ****         4.3789   1.4327   1.6294 H              1 S1                 0.0000
     64 ****         3.2901   0.1612   2.1175 H              1 S1                 0.0000
     65 ****        -4.8590   1.4379  -0.8369 H              1 S1                 0.0000
     66 ****        -1.8372  -0.5275  -0.2570 LP             1 S1                 0.0000
     67 ****        -1.2547   2.7637   0.6224 LP             1 S1                 0.0000
     68 ****         2.8305   2.4843   0.4075 LP             1 S1                 0.0000
     69 ****        -0.0234  -1.7447  -1.2784 LP             1 S1                 0.0000
     70 ****         5.8813  -2.7135  -0.2700 LP             1 S1                 0.0000
     71 ****         4.4113  -2.5313  -0.9574 LP             1 S1                 0.0000
     72 ****         6.6291   1.3841   2.5580 LP             1 S1                 0.0000
     73 ****         7.0758   0.3359   3.7278 LP             1 S1                 0.0000
@<TRIPOS>BOND
    1    1    2 1     
    2    1   31 1     
    3    1   32 1     
    4    1   33 1     
    5    2    3 1     
    6    2   34 1     
    7    2   35 1     
    8    3   12 1     
    9    3    4 1     
   10    3   36 1     
   11    4    5 1     
   12    4   37 1     
   13    4   38 1     
   14    5   10 1     
   15    5    6 1     
   16    5   65 1     
   17    6    7 1     
   18    6   39 1     
   19    6   40 1     
   20    7    8 1     
   21    7   41 1     
   22    7   42 1     
   23    8    9 1     
   24    8   43 1     
   25    8   44 1     
   26    9   10 1     
   27    9   45 1     
   28    9   46 1     
   29   10   11 1     
   30   10   47 1     
   31   11   12 1     
   32   11   48 1     
   33   11   49 1     
   34   12   13 1     
   35   13   18 ar    
   36   13   14 ar    
   37   14   15 ar    
   38   15   16 ar    
   39   15   50 1     
   40   16   17 ar    
   41   17   21 1     
   42   17   18 ar    
   43   18   19 1     
   44   19   20 2     
   45   20   21 1     
   46   20   51 1     
   47   21   22 1     
   48   22   23 1     
   49   22   52 1     
   50   22   53 1     
   51   23   30 1     
   52   23   24 1     
   53   23   26 1     
   54   24   25 1     
   55   24   54 1     
   56   24   55 1     
   57   25   56 1     
   58   26   27 1     
   59   26   57 1     
   60   26   58 1     
   61   27   28 1     
   62   27   59 1     
   63   27   60 1     
   64   28   29 1     
   65   29   30 1     
   66   29   61 1     
   67   29   62 1     
   68   30   63 1     
   69   30   64 1     
   70   12   66 1     
   71   14   67 1     
   72   16   68 1     
   73   19   69 1     
   74   25   70 1     
   75   25   71 1     
   76   28   72 1     
   77   28   73 1     
@<TRIPOS>SUBSTRUCTURE
      1 S1             1
@<TRIPOS>SET
LONE_PAIRS      STATIC     ATOMS    <user>   **** ""
8 66 67 68 69 70 71 72 73
DONOR_HYDROGENS      STATIC     ATOMS    <user>   **** ""
2 65 56
ATOM$BLUE        STATIC     ATOMS    COLORGROUP SYSTEM
8 66 67 68 69 70 71 72 73
ATOM$RED        STATIC     ATOMS    COLORGROUP SYSTEM
2 65 56
