AV-unprocessed.smi:3208|AV-procd|sdf|12265|dock6
  -GOLD-   2272018103D 1   1.00000     0.00000
 Structure written by MMmdl.
 29 29  0  0  0  0  0  0  0  0  2 V2000
  147.5319  141.7386  154.1246 C   0  0  0  0  0  0  0  0  0  0  0  0
  148.8088  141.3443  154.2416 C   0  0  0  0  0  0  0  0  0  0  0  0
  149.2484  139.9114  154.4447 C   0  0  0  0  0  0  0  0  0  0  0  0
  150.6436  139.7855  154.2028 O   0  0  0  0  0  0  0  0  0  0  0  0
  151.4170  139.3348  155.3133 C   0  0  1  0  0  0  0  0  0  0  0  0
  152.8148  138.9817  154.7873 C   0  0  0  0  0  0  0  0  0  0  0  0
  151.5098  140.4306  156.3976 C   0  0  0  0  0  0  0  0  0  0  0  0
  150.9090  141.4942  156.2478 O   0  0  0  0  0  0  0  0  0  0  0  0
  152.3844  140.1577  157.4379 N   0  0  0  0  0  0  0  0  0  0  0  0
  152.4402  140.9527  158.4711 C   0  0  0  0  0  0  0  0  0  0  0  0
  151.6941  142.1441  158.5526 N   0  0  0  0  0  0  0  0  0  0  0  0
  151.7426  142.9856  159.6433 C   0  0  0  0  0  0  0  0  0  0  0  0
  152.5192  142.7201  160.6953 C   0  0  0  0  0  0  0  0  0  0  0  0
  153.3292  141.5187  160.6834 C   0  0  0  0  0  0  0  0  0  0  0  0
  153.3200  140.6243  159.6064 C   0  0  0  0  0  0  0  0  0  0  0  0
  154.0352  139.5963  159.6381 O   0  5  0  0  0  0  0  0  0  0  0  0
  146.7186  141.0290  154.1713 H   0  0  0  0  0  0  0  0  0  0  0  0
  147.2838  142.7799  153.9805 H   0  0  0  0  0  0  0  0  0  0  0  0
  149.5965  142.0818  154.1910 H   0  0  0  0  0  0  0  0  0  0  0  0
  148.9959  139.5953  155.4575 H   0  0  0  0  0  0  0  0  0  0  0  0
  148.6895  139.2793  153.7535 H   0  0  0  0  0  0  0  0  0  0  0  0
  150.9673  138.4254  155.7152 H   0  0  0  0  0  0  0  0  0  0  0  0
  153.4552  138.6050  155.5857 H   0  0  0  0  0  0  0  0  0  0  0  0
  153.3056  139.8490  154.3441 H   0  0  0  0  0  0  0  0  0  0  0  0
  152.7557  138.2080  154.0216 H   0  0  0  0  0  0  0  0  0  0  0  0
  151.1103  143.8581  159.5712 H   0  0  0  0  0  0  0  0  0  0  0  0
  152.5453  143.3901  161.5419 H   0  0  0  0  0  0  0  0  0  0  0  0
  153.9576  141.3176  161.5391 H   0  0  0  0  0  0  0  0  0  0  0  0
  151.0867  142.4277  157.7990 H   0  0  0  0  0  0  0  0  0  0  0  0
  1  2  2  0  0  0  0
  1 17  1  0  0  0  0
  1 18  1  0  0  0  0
  2  3  1  0  0  0  0
  2 19  1  0  0  0  0
  3  4  1  0  0  0  0
  3 20  1  0  0  0  0
  3 21  1  0  0  0  0
  4  5  1  0  0  0  0
  5  6  1  0  0  0  0
  5  7  1  0  0  0  0
  5 22  1  0  0  0  0
  6 23  1  0  0  0  0
  6 24  1  0  0  0  0
  6 25  1  0  0  0  0
  7  8  2  0  0  0  0
  7  9  1  0  0  0  0
  9 10  2  0  0  0  0
 10 15  1  0  0  0  0
 10 11  1  0  0  0  0
 11 29  1  0  0  0  0
 11 12  1  0  0  0  0
 12 26  1  0  0  0  0
 12 13  2  0  0  0  0
 13 27  1  0  0  0  0
 13 14  1  0  0  0  0
 14 15  2  0  0  0  0
 14 28  1  0  0  0  0
 15 16  1  0  0  0  0
M  CHG  1  16  -1
M  END
> <s_m_source_file>
AV-unprocessed.smi

> <i_m_source_file_index>
3208

> <i_lp_mmshare_version>
43012

> <i_f3d_flags>
0

> <s_epik_input>
W0NIMl09W0NIXVtDSDJdT1tDQEhdKFtDSDNdKUMoPU8pW05IXWMxbltjSF1bY0hdW2NIXWMxW09IXQ==

> <s_epik_cmdline>
J2VwaWtfcHl0aG9uJywgJy1waCcsICc3LjAnLCAnLXRuJywgJzgnLCAnLW1hJywgJzIwMCcsICctbWV0YWxfYmluZGluZycsICctaW1hZScsICc8aW5maWxlLm1hZT4nLCAnLW9tYWUnLCAnPG91dGZpbGUubWFlPic=

> <r_epik_Ionization_Penalty>
0.613767

> <r_epik_Ionization_Penalty_Charging>
0.613767

> <r_epik_Ionization_Penalty_Neutral>
1.14324e-13

> <r_epik_State_Penalty>
1.22258

> <r_epik_Charging_Adjusted_Penalty>
1.83635

> <i_epik_Tot_Q>
-1

> <i_epik_Tot_abs_Q>
1

> <r_epik_Metal_State_Penalty>
1.18528

> <b_epik_Metal_Only>
0

> <s_lp_Force_Field>
OPLS_2005

> <r_lp_Energy>
40.4661

> <b_lp_Chiralities_Consistent>
1

> <s_lp_Variant>
AV-unprocessed.smi:3208-6

> <Gold.Version>
5.8.1

> <Gold.Id.Protein>
6NUR|6NUR_protein|mol2

> <Gold.PLP.Fitness>
41.3001

> <Gold.PLP.PLP>
-36.4683

> <Gold.PLP.part.hbond>
-2.0000

> <Gold.PLP.part.metal>
0.0000

> <Gold.PLP.part.buried>
-2.9350

> <Gold.PLP.part.nonpolar>
-30.5334

> <Gold.PLP.part.repulsive>
0.2813

> <Gold.PLP.ligand.clash>
0.0000

> <Gold.PLP.ligand.torsion>
0.6092

> <Gold.PLP.Chemscore.Hbond>
2.0000

> <Gold.PLP.Chemscore.CHOScore>
0.0000

> <Gold.PLP.Chemscore.Metal>
0.0000

> <Gold.Chemscore.Hbonds>
donor molecule, donor type, donor heavy atom, donor atom, acceptor molecule, acceptor atom, score
      P1  H  7989  7998       L1     4  1.00
      P1  H  7997  8009       L1     9  0.73

> <Gold.PLP.Chemscore.Internal.Correction>
0.0502

> <Gold.Rescore>
     Score         DG    S(hbond)    S(metal)    S(lipo)     H(rot)  DE(clash)    DE(int)     intcor
     13.87     -15.01       1.34        0.00      79.46       1.65       0.39       0.74       ----

> <Gold.Chemscore.Fitness>
13.8732

> <Gold.Chemscore.DG>
-15.0083

> <Gold.Chemscore.ZeroCoef>
-5.4800

> <Gold.Chemscore.Hbond>
1.3366

> <Gold.Chemscore.Metal>
0.0000

> <Gold.Chemscore.Lipo>
79.4571

> <Gold.Chemscore.Internal_Hbond>
0.0000

> <Gold.Chemscore.DEClash>
0.3943

> <Gold.Chemscore.DEInternal>
0.7408

> <Gold.Chemscore.Rot>
1.6533

> <Gold.Chemscore.Internal.Correction>
   9.000000E+99

> <Gold.Chemscore.Hbonds>
donor molecule, donor type, donor heavy atom, donor atom, acceptor molecule, acceptor atom, score
      P1  H  7989  7998       L1     4  0.39
      P1  H  7997  8009       L1     9  0.24

> <Gold.Chemscore.Hbond.Weighted>
-4.4642

> <Gold.Chemscore.Metal.Weighted>
-0.0000

> <Gold.Chemscore.Lipo.Weighted>
-9.2965

> <Gold.Chemscore.Internal_Hbond.Weighted>
0.0000

> <Gold.Chemscore.DEClash.Weighted>
0.3943

> <Gold.Chemscore.DEInternal.Weighted>
0.7408

> <Gold.Chemscore.Rot.Weighted>
4.2324

> <Gold.Chemscore.Internal.Correction.Weighted>
   9.000000E+99

> <Gold.Protein.RotatedTorsions>
[ 6907 6896 6895 6894 ] final -166.23 input  -60.11 | X-H torsion
[ 7974 7965 7964 7962 ] final  -58.09 input  175.53 | X-H torsion
[ 8008 7997 7996 7995 ] final  175.18 input   59.86 | X-H torsion
[ 10167 10162 10161 10158 ] final -168.28 input  -65.29 | X-H torsion
[ 10718 10713 10712 10709 ] final  -54.70 input   66.30 | X-H torsion
[ 10763 10752 10751 10750 ] final -112.20 input  -60.55 | X-H torsion
[ 11005 11000 10999 10996 ] final -107.98 input  -57.11 | X-H torsion

> <Gold.Protein.ActiveResidues>
 VAL166  LYS551  ARG553  GLY616  TRP617  ASP618  TYR619  PRO620  LYS621  CYS622 
 ASP623  PHE694  ASN695  SER759  ASP760  ASP761  ALA762  ILE779  LEU786  VAL792 
 PHE793  MET794  SER795  GLU796  ALA797  LYS798  CYS799  TRP800  GLU811  SER814 

> <Gold.Protein.RotatedAtoms>
  151.4402  133.3645  159.2780 H   0  0  0  0  0  0  0  0  0  0  0  0  # atno 6907 bound_to 6896
  150.9163  134.8582  159.7469 H   0  0  0  0  0  0  0  0  0  0  0  0  # atno 6908 bound_to 6896
  152.4958  134.4336  159.9572 H   0  0  0  0  0  0  0  0  0  0  0  0  # atno 6909 bound_to 6896
  145.8434  140.8401  143.0022 H   0  0  0  0  0  0  0  0  0  0  0  0  # atno 7974 bound_to 7965
  156.0897  140.1415  156.9607 H   0  0  0  0  0  0  0  0  0  0  0  0  # atno 8008 bound_to 7997
  154.4634  140.0935  156.7003 H   0  0  0  0  0  0  0  0  0  0  0  0  # atno 8009 bound_to 7997
  155.4940  140.3449  155.4362 H   0  0  0  0  0  0  0  0  0  0  0  0  # atno 8010 bound_to 7997
  139.5995  144.1040  152.1727 H   0  0  0  0  0  0  0  0  0  0  0  0  # atno 10167 bound_to 10162
  156.1429  130.4154  150.0073 H   0  0  0  0  0  0  0  0  0  0  0  0  # atno 10718 bound_to 10713
  154.8338  135.4499  154.1158 H   0  0  0  0  0  0  0  0  0  0  0  0  # atno 10763 bound_to 10752
  153.2407  135.6916  153.7792 H   0  0  0  0  0  0  0  0  0  0  0  0  # atno 10764 bound_to 10752
  153.7141  135.3352  155.3228 H   0  0  0  0  0  0  0  0  0  0  0  0  # atno 10765 bound_to 10752
  141.0926  133.9029  157.2040 H   0  0  0  0  0  0  0  0  0  0  0  0  # atno 11005 bound_to 11000
  144.6732  140.0846  143.7468 LP  0  0  0  0  0  0  0  0  0  0  0  0  # atno 17320 bound_to 7965
  145.9439  139.2687  143.1252 LP  0  0  0  0  0  0  0  0  0  0  0  0  # atno 17321 bound_to 7965
  140.0633  144.5839  150.7246 LP  0  0  0  0  0  0  0  0  0  0  0  0  # atno 17342 bound_to 10162
  140.7239  143.2616  151.4187 LP  0  0  0  0  0  0  0  0  0  0  0  0  # atno 17343 bound_to 10162
  156.7953  130.9271  151.3646 LP  0  0  0  0  0  0  0  0  0  0  0  0  # atno 17370 bound_to 10713
  157.6591  130.8950  149.9792 LP  0  0  0  0  0  0  0  0  0  0  0  0  # atno 17371 bound_to 10713
  139.9755  135.0115  156.9619 LP  0  0  0  0  0  0  0  0  0  0  0  0  # atno 17394 bound_to 11000
  140.5217  134.0901  155.7293 LP  0  0  0  0  0  0  0  0  0  0  0  0  # atno 17395 bound_to 11000

$$$$
