AV-unprocessed.smi:423|AV-procd|sdf|2538|dock6
  -GOLD-   2262022503D 1   1.00000     0.00000
 Structure written by MMmdl.
 47 48  0  0  0  0  0  0  0  0  1 V2000
  152.7192  137.7019  156.4918 C   0  0  0  0  0  0  0  0  0  0  0  0
  151.9004  138.9144  156.1534 C   0  0  0  0  0  0  0  0  0  0  0  0
  152.1276  140.0480  156.7942 N   0  0  0  0  0  0  0  0  0  0  0  0
  151.2372  140.9223  156.2809 N   0  0  0  0  0  0  0  0  0  0  0  0
  151.2130  142.2861  156.7890 C   0  0  0  0  0  0  0  0  0  0  0  0
  151.0054  142.3660  158.3172 C   0  0  0  0  0  0  0  0  0  0  0  0
  150.4223  143.7302  158.7142 C   0  0  0  0  0  0  0  0  0  0  0  0
  152.2853  142.0644  159.1163 C   0  0  0  0  0  0  0  0  0  0  0  0
  150.4549  140.3391  155.3003 C   0  0  0  0  0  0  0  0  0  0  0  0
  149.3859  141.0858  154.5678 C   0  0  0  0  0  0  0  0  0  0  0  0
  150.8558  139.0342  155.1911 C   0  0  0  0  0  0  0  0  0  0  0  0
  150.3237  137.9582  154.2750 C   0  0  0  0  0  0  0  0  0  0  0  0
  149.8128  136.7383  155.0632 C   0  0  0  0  0  0  0  0  0  0  0  0
  149.9979  136.6540  156.2769 O   0  0  0  0  0  0  0  0  0  0  0  0
  149.1644  135.7641  154.4031 N   0  0  0  0  0  0  0  0  0  0  0  0
  148.6058  134.5346  154.9629 C   0  0  0  0  0  0  0  0  0  0  0  0
  149.7121  133.5776  155.4570 C   0  0  0  0  0  0  0  0  0  0  0  0
  149.4268  132.2209  154.8096 C   0  0  0  0  0  0  0  0  0  0  0  0
  148.7041  132.5643  153.5115 C   0  0  0  0  0  0  0  0  0  0  0  0
  147.8294  133.7619  153.8812 C   0  0  0  0  0  0  0  0  0  0  0  0
  152.1158  136.7953  156.4409 H   0  0  0  0  0  0  0  0  0  0  0  0
  153.1321  137.7643  157.4994 H   0  0  0  0  0  0  0  0  0  0  0  0
  153.5512  137.5879  155.7972 H   0  0  0  0  0  0  0  0  0  0  0  0
  152.1489  142.7769  156.5157 H   0  0  0  0  0  0  0  0  0  0  0  0
  150.4240  142.8316  156.2706 H   0  0  0  0  0  0  0  0  0  0  0  0
  150.2694  141.6111  158.5943 H   0  0  0  0  0  0  0  0  0  0  0  0
  151.1096  144.5406  158.4691 H   0  0  0  0  0  0  0  0  0  0  0  0
  150.2218  143.7767  159.7850 H   0  0  0  0  0  0  0  0  0  0  0  0
  149.4824  143.9222  158.1959 H   0  0  0  0  0  0  0  0  0  0  0  0
  153.0858  142.7578  158.8566 H   0  0  0  0  0  0  0  0  0  0  0  0
  152.6464  141.0525  158.9303 H   0  0  0  0  0  0  0  0  0  0  0  0
  152.1067  142.1486  160.1885 H   0  0  0  0  0  0  0  0  0  0  0  0
  149.0447  140.5299  153.6947 H   0  0  0  0  0  0  0  0  0  0  0  0
  149.7466  142.0538  154.2211 H   0  0  0  0  0  0  0  0  0  0  0  0
  148.5225  141.2530  155.2111 H   0  0  0  0  0  0  0  0  0  0  0  0
  149.5174  138.3531  153.6580 H   0  0  0  0  0  0  0  0  0  0  0  0
  151.0963  137.6210  153.5837 H   0  0  0  0  0  0  0  0  0  0  0  0
  149.0454  135.8904  153.4083 H   0  0  0  0  0  0  0  0  0  0  0  0
  147.9173  134.7748  155.7745 H   0  0  0  0  0  0  0  0  0  0  0  0
  150.6953  133.9260  155.1366 H   0  0  0  0  0  0  0  0  0  0  0  0
  149.7363  133.5060  156.5447 H   0  0  0  0  0  0  0  0  0  0  0  0
  150.3320  131.6356  154.6451 H   0  0  0  0  0  0  0  0  0  0  0  0
  148.7660  131.6383  155.4529 H   0  0  0  0  0  0  0  0  0  0  0  0
  149.4305  132.8577  152.7523 H   0  0  0  0  0  0  0  0  0  0  0  0
  148.1265  131.7278  153.1172 H   0  0  0  0  0  0  0  0  0  0  0  0
  146.8910  133.3999  154.3038 H   0  0  0  0  0  0  0  0  0  0  0  0
  147.5735  134.3694  153.0119 H   0  0  0  0  0  0  0  0  0  0  0  0
  1  2  1  0  0  0  0
  1 21  1  0  0  0  0
  1 22  1  0  0  0  0
  1 23  1  0  0  0  0
  2 11  1  0  0  0  0
  2  3  2  0  0  0  0
  3  4  1  0  0  0  0
  4  5  1  0  0  0  0
  4  9  1  0  0  0  0
  5  6  1  0  0  0  0
  5 24  1  0  0  0  0
  5 25  1  0  0  0  0
  6  7  1  0  0  0  0
  6  8  1  0  0  0  0
  6 26  1  0  0  0  0
  7 27  1  0  0  0  0
  7 28  1  0  0  0  0
  7 29  1  0  0  0  0
  8 30  1  0  0  0  0
  8 31  1  0  0  0  0
  8 32  1  0  0  0  0
  9 10  1  0  0  0  0
  9 11  2  0  0  0  0
 10 33  1  0  0  0  0
 10 34  1  0  0  0  0
 10 35  1  0  0  0  0
 11 12  1  0  0  0  0
 12 13  1  0  0  0  0
 12 36  1  0  0  0  0
 12 37  1  0  0  0  0
 13 14  2  0  0  0  0
 13 15  1  0  0  0  0
 15 16  1  0  0  0  0
 15 38  1  0  0  0  0
 16 20  1  0  0  0  0
 16 17  1  0  0  0  0
 16 39  1  0  0  0  0
 17 18  1  0  0  0  0
 17 40  1  0  0  0  0
 17 41  1  0  0  0  0
 18 19  1  0  0  0  0
 18 42  1  0  0  0  0
 18 43  1  0  0  0  0
 19 20  1  0  0  0  0
 19 44  1  0  0  0  0
 19 45  1  0  0  0  0
 20 46  1  0  0  0  0
 20 47  1  0  0  0  0
M  END
> <s_m_source_file>
AV-unprocessed.smi

> <i_m_source_file_index>
423

> <i_lp_mmshare_version>
43012

> <i_f3d_flags>
0

> <s_epik_input>
W0NIM11jMW5uKFtDSDJdW0NIXShbQ0gzXSlbQ0gzXSljKFtDSDNdKWMxW0NIMl1DKD1PKVtOSF1bQ0hdMltDSDJdW0NIMl1bQ0gyXVtDSDJdMg==

> <s_epik_cmdline>
J2VwaWtfcHl0aG9uJywgJy1waCcsICc3LjAnLCAnLXRuJywgJzgnLCAnLW1hJywgJzIwMCcsICctbWV0YWxfYmluZGluZycsICctaW1hZScsICc8aW5maWxlLm1hZT4nLCAnLW9tYWUnLCAnPG91dGZpbGUubWFlPic=

> <r_lp_tautomer_probability>
1

> <r_epik_Ionization_Penalty>
0.00323157

> <r_epik_Ionization_Penalty_Charging>
0

> <r_epik_Ionization_Penalty_Neutral>
0.00323157

> <r_epik_State_Penalty>
0.00228044

> <r_epik_Charging_Adjusted_Penalty>
0.00228044

> <i_epik_Tot_Q>
0

> <i_epik_Tot_abs_Q>
0

> <r_epik_Metal_State_Penalty>
-0

> <b_epik_Metal_Only>
0

> <s_lp_Force_Field>
OPLS_2005

> <r_lp_Energy>
20.2574

> <b_lp_Chiralities_Consistent>
1

> <s_lp_Variant>
AV-unprocessed.smi:423-1

> <Gold.Version>
5.8.1

> <Gold.Id.Protein>
6NUR|6NUR_protein|mol2

> <Gold.PLP.Fitness>
43.0003

> <Gold.PLP.PLP>
-37.6578

> <Gold.PLP.part.hbond>
-2.0000

> <Gold.PLP.part.metal>
0.0000

> <Gold.PLP.part.buried>
-2.1586

> <Gold.PLP.part.nonpolar>
-33.3843

> <Gold.PLP.part.repulsive>
0.0516

> <Gold.PLP.ligand.clash>
0.0000

> <Gold.PLP.ligand.torsion>
0.3286

> <Gold.PLP.Chemscore.Hbond>
1.9920

> <Gold.PLP.Chemscore.CHOScore>
0.0000

> <Gold.PLP.Chemscore.Metal>
0.0000

> <Gold.Chemscore.Hbonds>
donor molecule, donor type, donor heavy atom, donor atom, acceptor molecule, acceptor atom, score
      L1  H    15    38       P1  7948  1.00
      P1  H  7997  8010       L1     3  0.41

> <Gold.PLP.Chemscore.Internal.Correction>
0.0237

> <Gold.Rescore>
     Score         DG    S(hbond)    S(metal)    S(lipo)     H(rot)  DE(clash)    DE(int)     intcor
     17.47     -19.33       1.78        0.00      98.80       1.43       1.53       0.33       ----

> <Gold.Chemscore.Fitness>
17.4679

> <Gold.Chemscore.DG>
-19.3323

> <Gold.Chemscore.ZeroCoef>
-5.4800

> <Gold.Chemscore.Hbond>
1.7838

> <Gold.Chemscore.Metal>
0.0000

> <Gold.Chemscore.Lipo>
98.7985

> <Gold.Chemscore.Internal_Hbond>
0.0000

> <Gold.Chemscore.DEClash>
1.5333

> <Gold.Chemscore.DEInternal>
0.3310

> <Gold.Chemscore.Rot>
1.4316

> <Gold.Chemscore.Internal.Correction>
   9.000000E+99

> <Gold.Chemscore.Hbonds>
donor molecule, donor type, donor heavy atom, donor atom, acceptor molecule, acceptor atom, score
      L1  H    15    38       P1  7948  0.85
      P1  H  7997  8010       L1     3  0.10

> <Gold.Chemscore.Hbond.Weighted>
-5.9578

> <Gold.Chemscore.Metal.Weighted>
-0.0000

> <Gold.Chemscore.Lipo.Weighted>
-11.5594

> <Gold.Chemscore.Internal_Hbond.Weighted>
0.0000

> <Gold.Chemscore.DEClash.Weighted>
1.5333

> <Gold.Chemscore.DEInternal.Weighted>
0.3310

> <Gold.Chemscore.Rot.Weighted>
3.6649

> <Gold.Chemscore.Internal.Correction.Weighted>
   9.000000E+99

> <Gold.Protein.RotatedTorsions>
[ 6907 6896 6895 6894 ] final   18.39 input  -60.11 | X-H torsion
[ 7974 7965 7964 7962 ] final   19.13 input  175.53 | X-H torsion
[ 8008 7997 7996 7995 ] final   56.02 input   59.86 | X-H torsion
[ 10167 10162 10161 10158 ] final  152.07 input  -65.29 | X-H torsion
[ 10718 10713 10712 10709 ] final   61.81 input   66.30 | X-H torsion
[ 10763 10752 10751 10750 ] final  136.26 input  -60.55 | X-H torsion
[ 11005 11000 10999 10996 ] final -176.05 input  -57.11 | X-H torsion

> <Gold.Protein.ActiveResidues>
 VAL166  LYS551  ARG553  GLY616  TRP617  ASP618  TYR619  PRO620  LYS621  CYS622 
 ASP623  PHE694  ASN695  SER759  ASP760  ASP761  ALA762  ILE779  LEU786  VAL792 
 PHE793  MET794  SER795  GLU796  ALA797  LYS798  CYS799  TRP800  GLU811  SER814 

> <Gold.Protein.RotatedAtoms>
  151.8645  135.0512  160.0472 H   0  0  0  0  0  0  0  0  0  0  0  0  # atno 6907 bound_to 6896
  152.2637  133.5315  159.5405 H   0  0  0  0  0  0  0  0  0  0  0  0  # atno 6908 bound_to 6896
  150.7126  134.0711  159.3907 H   0  0  0  0  0  0  0  0  0  0  0  0  # atno 6909 bound_to 6896
  146.2160  139.8357  142.8651 H   0  0  0  0  0  0  0  0  0  0  0  0  # atno 7974 bound_to 7965
  155.5107  140.3477  155.4388 H   0  0  0  0  0  0  0  0  0  0  0  0  # atno 8008 bound_to 7997
  156.0852  140.1396  156.9690 H   0  0  0  0  0  0  0  0  0  0  0  0  # atno 8009 bound_to 7997
  154.4602  140.0938  156.6848 H   0  0  0  0  0  0  0  0  0  0  0  0  # atno 8010 bound_to 7997
  139.4835  144.5389  151.7598 H   0  0  0  0  0  0  0  0  0  0  0  0  # atno 10167 bound_to 10162
  157.5855  130.9016  149.9509 H   0  0  0  0  0  0  0  0  0  0  0  0  # atno 10718 bound_to 10713
  153.8536  135.3076  155.3434 H   0  0  0  0  0  0  0  0  0  0  0  0  # atno 10763 bound_to 10752
  154.7880  135.4798  153.9992 H   0  0  0  0  0  0  0  0  0  0  0  0  # atno 10764 bound_to 10752
  153.1503  135.6842  153.8985 H   0  0  0  0  0  0  0  0  0  0  0  0  # atno 10765 bound_to 10752
  140.4564  134.6295  157.4824 H   0  0  0  0  0  0  0  0  0  0  0  0  # atno 11005 bound_to 11000
  145.2950  141.0178  143.3641 LP  0  0  0  0  0  0  0  0  0  0  0  0  # atno 17320 bound_to 7965
  144.9048  139.4603  143.6615 LP  0  0  0  0  0  0  0  0  0  0  0  0  # atno 17321 bound_to 7965
  140.4925  144.1289  150.5953 LP  0  0  0  0  0  0  0  0  0  0  0  0  # atno 17342 bound_to 10162
  140.4154  143.2636  151.9781 LP  0  0  0  0  0  0  0  0  0  0  0  0  # atno 17343 bound_to 10162
  156.0904  130.3664  150.0405 LP  0  0  0  0  0  0  0  0  0  0  0  0  # atno 17370 bound_to 10713
  156.8537  130.9468  151.3623 LP  0  0  0  0  0  0  0  0  0  0  0  0  # atno 17371 bound_to 10713
  139.9973  134.6890  155.9588 LP  0  0  0  0  0  0  0  0  0  0  0  0  # atno 17394 bound_to 11000
  141.1641  133.6537  156.4419 LP  0  0  0  0  0  0  0  0  0  0  0  0  # atno 17395 bound_to 11000

$$$$
