AV-unprocessed.smi:49|AV-procd|sdf|478|dock3
  -GOLD-   2262016343D 1   1.00000     0.00000
 Structure written by MMmdl.
 27 28  0  0  0  0  0  0  0  0  1 V2000
  152.6768  142.2266  159.8917 C   0  0  0  0  0  0  0  0  0  0  0  0
  152.6712  143.7332  159.6096 C   0  0  0  0  0  0  0  0  0  0  0  0
  151.3145  144.3345  159.7723 C   0  0  0  0  0  0  0  0  0  0  0  0
  150.5921  144.2234  160.9274 N   0  0  0  0  0  0  0  0  0  0  0  0
  149.4822  144.8673  160.5756 C   0  0  0  0  0  0  0  0  0  0  0  0
  148.2816  145.0814  161.4457 C   0  0  1  0  0  0  0  0  0  0  0  0
  147.1604  145.8437  160.7142 C   0  0  0  0  0  0  0  0  0  0  0  0
  146.0695  144.7972  160.5107 C   0  0  2  0  0  0  0  0  0  0  0  0
  144.7748  145.3569  160.4480 O   0  0  0  0  0  0  0  0  0  0  0  0
  146.2547  143.8975  161.7255 C   0  0  0  0  0  0  0  0  0  0  0  0
  147.6976  143.8149  161.9023 N   0  0  0  0  0  0  0  0  0  0  0  0
  149.5291  145.3073  159.3164 N   0  0  0  0  0  0  0  0  0  0  0  0
  150.7130  144.9657  158.7652 N   0  0  0  0  0  0  0  0  0  0  0  0
  148.5922  145.6678  162.3116 H   0  0  0  0  0  0  0  0  0  0  0  0
  146.2648  144.2320  159.5980 H   0  0  0  0  0  0  0  0  0  0  0  0
  148.8131  145.8136  158.8153 H   0  0  0  0  0  0  0  0  0  0  0  0
  153.6782  141.8128  159.7723 H   0  0  0  0  0  0  0  0  0  0  0  0
  152.0133  141.6959  159.2084 H   0  0  0  0  0  0  0  0  0  0  0  0
  152.3480  142.0162  160.9098 H   0  0  0  0  0  0  0  0  0  0  0  0
  153.3661  144.2378  160.2820 H   0  0  0  0  0  0  0  0  0  0  0  0
  153.0295  143.9223  158.5968 H   0  0  0  0  0  0  0  0  0  0  0  0
  146.7917  146.6386  161.3646 H   0  0  0  0  0  0  0  0  0  0  0  0
  147.4801  146.3092  159.7808 H   0  0  0  0  0  0  0  0  0  0  0  0
  144.1447  144.6737  160.6194 H   0  0  0  0  0  0  0  0  0  0  0  0
  145.8046  144.3606  162.6048 H   0  0  0  0  0  0  0  0  0  0  0  0
  145.8026  142.9139  161.5960 H   0  0  0  0  0  0  0  0  0  0  0  0
  147.9015  143.6726  162.8862 H   0  0  0  0  0  0  0  0  0  0  0  0
  1  2  1  0  0  0  0
  1 17  1  0  0  0  0
  1 18  1  0  0  0  0
  1 19  1  0  0  0  0
  2 20  1  0  0  0  0
  2 21  1  0  0  0  0
  2  3  1  0  0  0  0
  3  4  1  0  0  0  0
  3 13  2  0  0  0  0
  4  5  2  0  0  0  0
  5  6  1  0  0  0  0
  5 12  1  0  0  0  0
  6 14  1  0  0  0  0
  6 11  1  0  0  0  0
  6  7  1  0  0  0  0
  7  8  1  0  0  0  0
  7 22  1  0  0  0  0
  7 23  1  0  0  0  0
  8 15  1  0  0  0  0
  8  9  1  0  0  0  0
  8 10  1  0  0  0  0
  9 24  1  0  0  0  0
 10 11  1  0  0  0  0
 10 25  1  0  0  0  0
 10 26  1  0  0  0  0
 11 27  1  0  0  0  0
 12 13  1  0  0  0  0
 12 16  1  0  0  0  0
M  END
> <s_m_source_file>
AV-unprocessed.smi

> <i_m_source_file_index>
49

> <i_lp_mmshare_version>
43012

> <i_f3d_flags>
0

> <s_epik_input>
W0NIM11bQ0gyXWMxbmMobltuSF0xKVtDQEBIXTJbQ0gyXVtDQEBIXShbT0hdKVtDSDJdW05IXTI=

> <s_epik_cmdline>
J2VwaWtfcHl0aG9uJywgJy1waCcsICc3LjAnLCAnLXRuJywgJzgnLCAnLW1hJywgJzIwMCcsICctbWV0YWxfYmluZGluZycsICctaW1hZScsICc8aW5maWxlLm1hZT4nLCAnLW9tYWUnLCAnPG91dGZpbGUubWFlPic=

> <r_epik_Ionization_Penalty>
1.31544

> <r_epik_Ionization_Penalty_Charging>
0

> <r_epik_Ionization_Penalty_Neutral>
1.31544

> <r_epik_State_Penalty>
2.06074

> <r_epik_Charging_Adjusted_Penalty>
2.06074

> <i_epik_Tot_Q>
0

> <i_epik_Tot_abs_Q>
0

> <r_epik_Metal_State_Penalty>
2.32913

> <b_epik_Metal_Only>
0

> <s_lp_Force_Field>
OPLS_2005

> <r_lp_Energy>
17.94

> <b_lp_Chiralities_Consistent>
1

> <s_lp_Variant>
AV-unprocessed.smi:49-16

> <Gold.Version>
5.8.1

> <Gold.Id.Protein>
6NUR|6NUR_protein|mol2

> <Gold.PLP.Fitness>
35.7343

> <Gold.PLP.PLP>
-30.1959

> <Gold.PLP.part.hbond>
-3.0486

> <Gold.PLP.part.metal>
0.0000

> <Gold.PLP.part.buried>
-5.8648

> <Gold.PLP.part.nonpolar>
-22.2217

> <Gold.PLP.part.repulsive>
0.6161

> <Gold.PLP.ligand.clash>
0.0000

> <Gold.PLP.ligand.torsion>
0.0105

> <Gold.PLP.Chemscore.Hbond>
1.8512

> <Gold.PLP.Chemscore.CHOScore>
0.0000

> <Gold.PLP.Chemscore.Metal>
0.0000

> <Gold.Chemscore.Hbonds>
donor molecule, donor type, donor heavy atom, donor atom, acceptor molecule, acceptor atom, score
      L1  H    12    16       P1  8029  0.93
      P1  H  6933  6944       L1    11  0.52

> <Gold.PLP.Chemscore.Internal.Correction>
0.0059

> <Gold.Rescore>
     Score         DG    S(hbond)    S(metal)    S(lipo)     H(rot)  DE(clash)    DE(int)     intcor
     10.39     -10.52       1.27        0.00      47.31       1.86       0.12       0.00       ----

> <Gold.Chemscore.Fitness>
10.3944

> <Gold.Chemscore.DG>
-10.5202

> <Gold.Chemscore.ZeroCoef>
-5.4800

> <Gold.Chemscore.Hbond>
1.2741

> <Gold.Chemscore.Metal>
0.0000

> <Gold.Chemscore.Lipo>
47.3117

> <Gold.Chemscore.Internal_Hbond>
0.0000

> <Gold.Chemscore.DEClash>
0.1229

> <Gold.Chemscore.DEInternal>
0.0029

> <Gold.Chemscore.Rot>
1.8558

> <Gold.Chemscore.Internal.Correction>
   9.000000E+99

> <Gold.Chemscore.Hbonds>
donor molecule, donor type, donor heavy atom, donor atom, acceptor molecule, acceptor atom, score
      L1  H    12    16       P1  8029  0.90
      P1  H  6933  6944       L1    11  0.03

> <Gold.Chemscore.Hbond.Weighted>
-4.2554

> <Gold.Chemscore.Metal.Weighted>
-0.0000

> <Gold.Chemscore.Lipo.Weighted>
-5.5355

> <Gold.Chemscore.Internal_Hbond.Weighted>
0.0000

> <Gold.Chemscore.DEClash.Weighted>
0.1229

> <Gold.Chemscore.DEInternal.Weighted>
0.0029

> <Gold.Chemscore.Rot.Weighted>
4.7507

> <Gold.Chemscore.Internal.Correction.Weighted>
   9.000000E+99

> <Gold.Protein.RotatedTorsions>
[ 6907 6896 6895 6894 ] final  -90.71 input  -60.11 | X-H torsion
[ 7974 7965 7964 7962 ] final  -22.55 input  175.53 | X-H torsion
[ 8008 7997 7996 7995 ] final -143.30 input   59.86 | X-H torsion
[ 10167 10162 10161 10158 ] final  -21.43 input  -65.29 | X-H torsion
[ 10718 10713 10712 10709 ] final    9.96 input   66.30 | X-H torsion
[ 10763 10752 10751 10750 ] final   58.95 input  -60.55 | X-H torsion
[ 11005 11000 10999 10996 ] final -178.21 input  -57.11 | X-H torsion

> <Gold.Protein.ActiveResidues>
 VAL166  LYS551  ARG553  GLY616  TRP617  ASP618  TYR619  PRO620  LYS621  CYS622 
 ASP623  PHE694  ASN695  SER759  ASP760  ASP761  ALA762  ILE779  LEU786  VAL792 
 PHE793  MET794  SER795  GLU796  ALA797  LYS798  CYS799  TRP800  GLU811  SER814 

> <Gold.Protein.RotatedAtoms>
  150.6884  134.2390  159.4464 H   0  0  0  0  0  0  0  0  0  0  0  0  # atno 6907 bound_to 6896
  152.0336  134.9751  160.0582 H   0  0  0  0  0  0  0  0  0  0  0  0  # atno 6908 bound_to 6896
  152.1280  133.4356  159.4744 H   0  0  0  0  0  0  0  0  0  0  0  0  # atno 6909 bound_to 6896
  146.1669  140.4494  142.8548 H   0  0  0  0  0  0  0  0  0  0  0  0  # atno 7974 bound_to 7965
  155.5083  140.0581  157.2927 H   0  0  0  0  0  0  0  0  0  0  0  0  # atno 8008 bound_to 7997
  154.4561  140.1973  156.0324 H   0  0  0  0  0  0  0  0  0  0  0  0  # atno 8009 bound_to 7997
  156.0801  140.3248  155.7688 H   0  0  0  0  0  0  0  0  0  0  0  0  # atno 8010 bound_to 7997
  140.7282  143.4628  151.0355 H   0  0  0  0  0  0  0  0  0  0  0  0  # atno 10167 bound_to 10162
  156.9740  130.5980  149.5671 H   0  0  0  0  0  0  0  0  0  0  0  0  # atno 10718 bound_to 10713
  152.9883  135.5588  154.5635 H   0  0  0  0  0  0  0  0  0  0  0  0  # atno 10763 bound_to 10752
  154.5049  135.2799  155.1392 H   0  0  0  0  0  0  0  0  0  0  0  0  # atno 10764 bound_to 10752
  154.2807  135.6345  153.5399 H   0  0  0  0  0  0  0  0  0  0  0  0  # atno 10765 bound_to 10752
  140.4323  134.6507  157.4718 H   0  0  0  0  0  0  0  0  0  0  0  0  # atno 11005 bound_to 11000
  144.8105  140.6378  143.6418 LP  0  0  0  0  0  0  0  0  0  0  0  0  # atno 17320 bound_to 7965
  145.4444  139.1531  143.3953 LP  0  0  0  0  0  0  0  0  0  0  0  0  # atno 17321 bound_to 7965
  139.8314  143.7686  152.3180 LP  0  0  0  0  0  0  0  0  0  0  0  0  # atno 17342 bound_to 10162
  139.7803  144.7447  151.0098 LP  0  0  0  0  0  0  0  0  0  0  0  0  # atno 17343 bound_to 10162
  156.0271  130.5364  150.8436 LP  0  0  0  0  0  0  0  0  0  0  0  0  # atno 17370 bound_to 10713
  157.5572  131.0945  150.9611 LP  0  0  0  0  0  0  0  0  0  0  0  0  # atno 17371 bound_to 10713
  140.0126  134.6668  155.9358 LP  0  0  0  0  0  0  0  0  0  0  0  0  # atno 17394 bound_to 11000
  141.1740  133.6539  156.4759 LP  0  0  0  0  0  0  0  0  0  0  0  0  # atno 17395 bound_to 11000

$$$$
