AV-unprocessed.smi:2094|AV-procd|sdf|8552|dock2
  -GOLD-   2272011273D 1   1.00000     0.00000
 Structure written by MMmdl.
 36 37  0  0  0  0  0  0  0  0  2 V2000
  146.2253  138.9813  153.8542 O   0  0  0  0  0  0  0  0  0  0  0  0
  147.1131  138.3751  153.2534 C   0  0  0  0  0  0  0  0  0  0  0  0
  146.8675  137.3849  152.3831 N   0  0  0  0  0  0  0  0  0  0  0  0
  145.5392  136.8881  152.0430 C   0  0  0  0  0  0  0  0  0  0  0  0
  145.4848  136.3588  150.5965 C   0  0  0  0  0  0  0  0  0  0  0  0
  145.4975  134.8756  150.5355 N   0  3  0  0  0  0  0  0  0  0  0  0
  144.1270  134.3016  150.5845 C   0  0  0  0  0  0  0  0  0  0  0  0
  144.1522  132.7761  150.3879 C   0  0  0  0  0  0  0  0  0  0  0  0
  145.0607  132.1031  151.4244 C   0  0  0  0  0  0  0  0  0  0  0  0
  146.4597  132.7307  151.3781 C   0  0  0  0  0  0  0  0  0  0  0  0
  146.3850  134.2564  151.5572 C   0  0  0  0  0  0  0  0  0  0  0  0
  148.4323  138.6060  153.3725 N   0  0  0  0  0  0  0  0  0  0  0  0
  149.0833  139.5760  154.1791 C   0  0  0  0  0  0  0  0  0  0  0  0
  150.1540  139.3274  154.9427 N   0  0  0  0  0  0  0  0  0  0  0  0
  150.5830  140.4656  155.6301 C   0  0  0  0  0  0  0  0  0  0  0  0
  149.8212  141.5792  155.3770 C   0  0  0  0  0  0  0  0  0  0  0  0
  148.5269  141.2411  154.2591 S   0  0  0  0  0  0  0  0  0  0  0  0
  147.6535  136.9371  151.9341 H   0  0  0  0  0  0  0  0  0  0  0  0
  145.2883  136.0884  152.7403 H   0  0  0  0  0  0  0  0  0  0  0  0
  144.8117  137.6830  152.2085 H   0  0  0  0  0  0  0  0  0  0  0  0
  144.6076  136.7360  150.0686 H   0  0  0  0  0  0  0  0  0  0  0  0
  146.3537  136.7496  150.0644 H   0  0  0  0  0  0  0  0  0  0  0  0
  143.6615  134.5511  151.5395 H   0  0  0  0  0  0  0  0  0  0  0  0
  143.5104  134.7497  149.8044 H   0  0  0  0  0  0  0  0  0  0  0  0
  143.1413  132.3741  150.4622 H   0  0  0  0  0  0  0  0  0  0  0  0
  144.5051  132.5414  149.3827 H   0  0  0  0  0  0  0  0  0  0  0  0
  144.6355  132.2221  152.4219 H   0  0  0  0  0  0  0  0  0  0  0  0
  145.1203  131.0308  151.2355 H   0  0  0  0  0  0  0  0  0  0  0  0
  147.0891  132.2950  152.1547 H   0  0  0  0  0  0  0  0  0  0  0  0
  146.9363  132.4959  150.4253 H   0  0  0  0  0  0  0  0  0  0  0  0
  147.3916  134.6666  151.4882 H   0  0  0  0  0  0  0  0  0  0  0  0
  146.0160  134.4979  152.5554 H   0  0  0  0  0  0  0  0  0  0  0  0
  149.0436  138.0213  152.8218 H   0  0  0  0  0  0  0  0  0  0  0  0
  151.4418  140.3937  156.2809 H   0  0  0  0  0  0  0  0  0  0  0  0
  149.9425  142.5739  155.7794 H   0  0  0  0  0  0  0  0  0  0  0  0
  145.8720  134.6295  149.6303 H   0  0  0  0  0  0  0  0  0  0  0  0
  1  2  2  0  0  0  0
  2  3  1  0  0  0  0
  2 12  1  0  0  0  0
  3  4  1  0  0  0  0
  3 18  1  0  0  0  0
  4  5  1  0  0  0  0
  4 19  1  0  0  0  0
  4 20  1  0  0  0  0
  5  6  1  0  0  0  0
  5 21  1  0  0  0  0
  5 22  1  0  0  0  0
  6 11  1  0  0  0  0
  6  7  1  0  0  0  0
  6 36  1  0  0  0  0
  7  8  1  0  0  0  0
  7 23  1  0  0  0  0
  7 24  1  0  0  0  0
  8  9  1  0  0  0  0
  8 25  1  0  0  0  0
  8 26  1  0  0  0  0
  9 10  1  0  0  0  0
  9 27  1  0  0  0  0
  9 28  1  0  0  0  0
 10 11  1  0  0  0  0
 10 29  1  0  0  0  0
 10 30  1  0  0  0  0
 11 31  1  0  0  0  0
 11 32  1  0  0  0  0
 12 13  1  0  0  0  0
 12 33  1  0  0  0  0
 13 17  1  0  0  0  0
 13 14  2  0  0  0  0
 14 15  1  0  0  0  0
 15 16  2  0  0  0  0
 15 34  1  0  0  0  0
 16 17  1  0  0  0  0
 16 35  1  0  0  0  0
M  CHG  1   6   1
M  END
> <s_m_source_file>
AV-unprocessed.smi

> <i_m_source_file_index>
2094

> <i_lp_mmshare_version>
43012

> <i_f3d_flags>
0

> <s_epik_input>
czFbY0hdW2NIXW5jMVtOSF1DKD1PKVtOSF1bQ0gyXVtDSDJdTjJbQ0gyXVtDSDJdW0NIMl1bQ0gyXVtDSDJdMg==

> <s_epik_cmdline>
J2VwaWtfcHl0aG9uJywgJy1waCcsICc3LjAnLCAnLXRuJywgJzgnLCAnLW1hJywgJzIwMCcsICctbWV0YWxfYmluZGluZycsICctaW1hZScsICc8aW5maWxlLm1hZT4nLCAnLW9tYWUnLCAnPG91dGZpbGUubWFlPic=

> <r_lp_tautomer_probability>
0.999

> <r_epik_Ionization_Penalty>
0.00270619

> <r_epik_Ionization_Penalty_Charging>
0.00256589

> <r_epik_Ionization_Penalty_Neutral>
0.000140299

> <r_epik_State_Penalty>
0.00178258

> <r_epik_Charging_Adjusted_Penalty>
0.00434847

> <i_epik_Tot_Q>
1

> <i_epik_Tot_abs_Q>
1

> <r_epik_Metal_State_Penalty>
0.0571422

> <b_epik_Metal_Only>
0

> <s_lp_Force_Field>
OPLS_2005

> <r_lp_Energy>
13.6526

> <b_lp_Chiralities_Consistent>
1

> <s_lp_Variant>
AV-unprocessed.smi:2094-1

> <Gold.Version>
5.8.1

> <Gold.Id.Protein>
6NUR|6NUR_protein|mol2

> <Gold.PLP.Fitness>
39.7522

> <Gold.PLP.PLP>
-31.0841

> <Gold.PLP.part.hbond>
-3.7042

> <Gold.PLP.part.metal>
0.0000

> <Gold.PLP.part.buried>
0.9454

> <Gold.PLP.part.nonpolar>
-28.5980

> <Gold.PLP.part.repulsive>
0.4446

> <Gold.PLP.ligand.clash>
0.0000

> <Gold.PLP.ligand.torsion>
1.1715

> <Gold.PLP.Chemscore.Hbond>
2.6615

> <Gold.PLP.Chemscore.CHOScore>
1.0000

> <Gold.PLP.Chemscore.Metal>
0.0000

> <Gold.Chemscore.Hbonds>
donor molecule, donor type, donor heavy atom, donor atom, acceptor molecule, acceptor atom, score
      L1  H     3    18       P1  7948  0.83
      L1  H     6    36       P1  7921  1.00
      L1  H    12    33       P1  7948  0.78
      L1  C    16    35       P1  8028  1.00

> <Gold.PLP.Chemscore.Internal.Correction>
0.0265

> <Gold.Rescore>
     Score         DG    S(hbond)    S(metal)    S(lipo)     H(rot)  DE(clash)    DE(int)     intcor
     15.48     -18.03       2.52        0.00      70.52       1.61       1.48       1.06       ----

> <Gold.Chemscore.Fitness>
15.4798

> <Gold.Chemscore.DG>
-18.0275

> <Gold.Chemscore.ZeroCoef>
-5.4800

> <Gold.Chemscore.Hbond>
2.5232

> <Gold.Chemscore.Metal>
0.0000

> <Gold.Chemscore.Lipo>
70.5214

> <Gold.Chemscore.Internal_Hbond>
0.0000

> <Gold.Chemscore.DEClash>
1.4834

> <Gold.Chemscore.DEInternal>
1.0642

> <Gold.Chemscore.Rot>
1.6137

> <Gold.Chemscore.Internal.Correction>
   9.000000E+99

> <Gold.Chemscore.Hbonds>
donor molecule, donor type, donor heavy atom, donor atom, acceptor molecule, acceptor atom, score
      L1  H     3    18       P1  7948  0.80
      L1  H     6    36       P1  7921  0.69
      L1  H    12    33       P1  7948  0.74

> <Gold.Chemscore.Hbond.Weighted>
-8.4275

> <Gold.Chemscore.Metal.Weighted>
-0.0000

> <Gold.Chemscore.Lipo.Weighted>
-8.2510

> <Gold.Chemscore.Internal_Hbond.Weighted>
0.0000

> <Gold.Chemscore.DEClash.Weighted>
1.4834

> <Gold.Chemscore.DEInternal.Weighted>
1.0642

> <Gold.Chemscore.Rot.Weighted>
4.1310

> <Gold.Chemscore.Internal.Correction.Weighted>
   9.000000E+99

> <Gold.Protein.RotatedTorsions>
[ 6907 6896 6895 6894 ] final -127.60 input  -60.11 | X-H torsion
[ 7974 7965 7964 7962 ] final  108.32 input  175.53 | X-H torsion
[ 8008 7997 7996 7995 ] final  109.49 input   59.86 | X-H torsion
[ 10167 10162 10161 10158 ] final -170.76 input  -65.29 | X-H torsion
[ 10718 10713 10712 10709 ] final   93.99 input   66.30 | X-H torsion
[ 10763 10752 10751 10750 ] final  150.92 input  -60.55 | X-H torsion
[ 11005 11000 10999 10996 ] final -165.83 input  -57.11 | X-H torsion

> <Gold.Protein.ActiveResidues>
 VAL166  LYS551  ARG553  GLY616  TRP617  ASP618  TYR619  PRO620  LYS621  CYS622 
 ASP623  PHE694  ASN695  SER759  ASP760  ASP761  ALA762  ILE779  LEU786  VAL792 
 PHE793  MET794  SER795  GLU796  ALA797  LYS798  CYS799  TRP800  GLU811  SER814 

> <Gold.Protein.RotatedAtoms>
  150.9090  133.7022  159.2859 H   0  0  0  0  0  0  0  0  0  0  0  0  # atno 6907 bound_to 6896
  151.4515  135.1029  159.9708 H   0  0  0  0  0  0  0  0  0  0  0  0  # atno 6908 bound_to 6896
  152.4919  133.8474  159.7239 H   0  0  0  0  0  0  0  0  0  0  0  0  # atno 6909 bound_to 6896
  145.2822  139.2629  143.3909 H   0  0  0  0  0  0  0  0  0  0  0  0  # atno 7974 bound_to 7965
  156.1983  140.3056  155.9473 H   0  0  0  0  0  0  0  0  0  0  0  0  # atno 8008 bound_to 7997
  155.3014  140.0446  157.3046 H   0  0  0  0  0  0  0  0  0  0  0  0  # atno 8009 bound_to 7997
  154.5538  140.2299  155.8452 H   0  0  0  0  0  0  0  0  0  0  0  0  # atno 8010 bound_to 7997
  139.5842  144.1355  152.1554 H   0  0  0  0  0  0  0  0  0  0  0  0  # atno 10167 bound_to 10162
  157.6951  131.0497  150.4119 H   0  0  0  0  0  0  0  0  0  0  0  0  # atno 10718 bound_to 10713
  154.0953  135.2849  155.3263 H   0  0  0  0  0  0  0  0  0  0  0  0  # atno 10763 bound_to 10752
  154.6592  135.5340  153.8000 H   0  0  0  0  0  0  0  0  0  0  0  0  # atno 10764 bound_to 10752
  153.0398  135.6529  154.1120 H   0  0  0  0  0  0  0  0  0  0  0  0  # atno 10765 bound_to 10752
  140.5713  134.5235  157.5162 H   0  0  0  0  0  0  0  0  0  0  0  0  # atno 11005 bound_to 11000
  146.3212  140.3292  142.8639 LP  0  0  0  0  0  0  0  0  0  0  0  0  # atno 17320 bound_to 7965
  144.9244  140.7904  143.5728 LP  0  0  0  0  0  0  0  0  0  0  0  0  # atno 17321 bound_to 7965
  140.0915  144.5616  150.7051 LP  0  0  0  0  0  0  0  0  0  0  0  0  # atno 17342 bound_to 10162
  140.7116  143.2510  151.4563 LP  0  0  0  0  0  0  0  0  0  0  0  0  # atno 17343 bound_to 10162
  156.4502  130.4010  149.6641 LP  0  0  0  0  0  0  0  0  0  0  0  0  # atno 17370 bound_to 10713
  156.3793  130.7571  151.2562 LP  0  0  0  0  0  0  0  0  0  0  0  0  # atno 17371 bound_to 10713
  139.9361  134.7873  156.0800 LP  0  0  0  0  0  0  0  0  0  0  0  0  # atno 17394 bound_to 11000
  141.1054  133.6662  156.2852 LP  0  0  0  0  0  0  0  0  0  0  0  0  # atno 17395 bound_to 11000

$$$$
