AV-unprocessed.smi:2519|AV-procd|sdf|9904|dock7
  -GOLD-   2272013543D 1   1.00000     0.00000
 Structure written by MMmdl.
 43 44  0  0  0  0  0  0  0  0  1 V2000
  152.9599  141.7051  159.3345 C   0  0  0  0  0  0  0  0  0  0  0  0
  152.0816  141.3411  158.2339 N   0  0  0  0  0  0  0  0  0  0  0  0
  152.1394  140.1766  157.5670 C   0  0  0  0  0  0  0  0  0  0  0  0
  152.9596  139.2949  157.8269 O   0  0  0  0  0  0  0  0  0  0  0  0
  151.1457  140.0075  156.4470 C   0  0  0  0  0  0  0  0  0  0  0  0
  150.4922  141.1360  155.9038 C   0  0  0  0  0  0  0  0  0  0  0  0
  149.5751  140.9467  154.8550 C   0  0  0  0  0  0  0  0  0  0  0  0
  149.3400  139.6420  154.3838 C   0  0  0  0  0  0  0  0  0  0  0  0
  150.0280  138.5602  154.9737 C   0  0  0  0  0  0  0  0  0  0  0  0
  149.7198  137.2832  154.4361 N   0  0  0  0  0  0  0  0  0  0  0  0
  149.5779  136.1124  155.0894 C   0  0  0  0  0  0  0  0  0  0  0  0
  149.7423  135.9605  156.2989 O   0  0  0  0  0  0  0  0  0  0  0  0
  149.2280  135.0786  154.3014 N   0  0  0  0  0  0  0  0  0  0  0  0
  148.9928  133.6829  154.6785 C   0  0  1  0  0  0  0  0  0  0  0  0
  148.6913  132.8583  153.4143 C   0  0  0  0  0  0  0  0  0  0  0  0
  148.4894  131.3733  153.7502 C   0  0  0  0  0  0  0  0  0  0  0  0
  149.7031  130.8019  154.5000 C   0  0  0  0  0  0  0  0  0  0  0  0
  150.0140  131.6100  155.7774 C   0  0  1  0  0  0  0  0  0  0  0  0
  151.2194  131.0350  156.5493 C   0  0  0  0  0  0  0  0  0  0  0  0
  152.2551  130.8372  155.7333 F   0  0  0  0  0  0  0  0  0  0  0  0
  151.5862  131.8775  157.5152 F   0  0  0  0  0  0  0  0  0  0  0  0
  150.8878  129.8744  157.1148 F   0  0  0  0  0  0  0  0  0  0  0  0
  150.2118  133.0999  155.4259 C   0  0  0  0  0  0  0  0  0  0  0  0
  150.9116  138.7561  155.9822 N   0  0  0  0  0  0  0  0  0  0  0  0
  152.6863  142.6878  159.7188 H   0  0  0  0  0  0  0  0  0  0  0  0
  153.9989  141.7443  159.0047 H   0  0  0  0  0  0  0  0  0  0  0  0
  152.8793  140.9853  160.1502 H   0  0  0  0  0  0  0  0  0  0  0  0
  151.3794  142.0120  157.9547 H   0  0  0  0  0  0  0  0  0  0  0  0
  150.6839  142.1313  156.2782 H   0  0  0  0  0  0  0  0  0  0  0  0
  149.0591  141.7891  154.4185 H   0  0  0  0  0  0  0  0  0  0  0  0
  148.6368  139.4781  153.5800 H   0  0  0  0  0  0  0  0  0  0  0  0
  149.5610  137.2593  153.4398 H   0  0  0  0  0  0  0  0  0  0  0  0
  149.1052  135.2894  153.3213 H   0  0  0  0  0  0  0  0  0  0  0  0
  148.1157  133.6283  155.3261 H   0  0  0  0  0  0  0  0  0  0  0  0
  147.8010  133.2460  152.9173 H   0  0  0  0  0  0  0  0  0  0  0  0
  149.5113  132.9581  152.7014 H   0  0  0  0  0  0  0  0  0  0  0  0
  147.5926  131.2542  154.3594 H   0  0  0  0  0  0  0  0  0  0  0  0
  148.3178  130.8063  152.8348 H   0  0  0  0  0  0  0  0  0  0  0  0
  149.5135  129.7583  154.7518 H   0  0  0  0  0  0  0  0  0  0  0  0
  150.5714  130.8057  153.8398 H   0  0  0  0  0  0  0  0  0  0  0  0
  149.1449  131.5382  156.4335 H   0  0  0  0  0  0  0  0  0  0  0  0
  151.1061  133.2144  154.8118 H   0  0  0  0  0  0  0  0  0  0  0  0
  150.3951  133.6674  156.3385 H   0  0  0  0  0  0  0  0  0  0  0  0
  1  2  1  0  0  0  0
  1 25  1  0  0  0  0
  1 26  1  0  0  0  0
  1 27  1  0  0  0  0
  2  3  1  0  0  0  0
  2 28  1  0  0  0  0
  3  4  2  0  0  0  0
  3  5  1  0  0  0  0
  5 24  1  0  0  0  0
  5  6  2  0  0  0  0
  6  7  1  0  0  0  0
  6 29  1  0  0  0  0
  7  8  2  0  0  0  0
  7 30  1  0  0  0  0
  8  9  1  0  0  0  0
  8 31  1  0  0  0  0
  9 10  1  0  0  0  0
  9 24  2  0  0  0  0
 10 11  1  0  0  0  0
 10 32  1  0  0  0  0
 11 12  2  0  0  0  0
 11 13  1  0  0  0  0
 13 14  1  0  0  0  0
 13 33  1  0  0  0  0
 14 23  1  0  0  0  0
 14 15  1  0  0  0  0
 14 34  1  0  0  0  0
 15 16  1  0  0  0  0
 15 35  1  0  0  0  0
 15 36  1  0  0  0  0
 16 17  1  0  0  0  0
 16 37  1  0  0  0  0
 16 38  1  0  0  0  0
 17 18  1  0  0  0  0
 17 39  1  0  0  0  0
 17 40  1  0  0  0  0
 18 19  1  0  0  0  0
 18 23  1  0  0  0  0
 18 41  1  0  0  0  0
 19 20  1  0  0  0  0
 19 21  1  0  0  0  0
 19 22  1  0  0  0  0
 23 42  1  0  0  0  0
 23 43  1  0  0  0  0
M  END
> <s_m_source_file>
AV-unprocessed.smi

> <i_m_source_file_index>
2519

> <i_lp_mmshare_version>
43012

> <i_f3d_flags>
0

> <s_epik_input>
W0NIM11bTkhdQyg9TyljMVtjSF1bY0hdW2NIXWMobjEpW05IXUMoPU8pW05IXVtDQEBIXTJbQ0gyXVtDSDJdW0NIMl1bQ0BASF0oQyhGKShGKUYpW0NIMl0y

> <s_epik_cmdline>
J2VwaWtfcHl0aG9uJywgJy1waCcsICc3LjAnLCAnLXRuJywgJzgnLCAnLW1hJywgJzIwMCcsICctbWV0YWxfYmluZGluZycsICctaW1hZScsICc8aW5maWxlLm1hZT4nLCAnLW9tYWUnLCAnPG91dGZpbGUubWFlPic=

> <r_lp_tautomer_probability>
1

> <r_epik_Ionization_Penalty>
3.74915e-05

> <r_epik_Ionization_Penalty_Charging>
0

> <r_epik_Ionization_Penalty_Neutral>
3.74915e-05

> <r_epik_State_Penalty>
-0

> <r_epik_Charging_Adjusted_Penalty>
0

> <i_epik_Tot_Q>
0

> <i_epik_Tot_abs_Q>
0

> <r_epik_Metal_State_Penalty>
-0

> <b_epik_Metal_Only>
0

> <s_lp_Force_Field>
OPLS_2005

> <r_lp_Energy>
27.1439

> <b_lp_Chiralities_Consistent>
1

> <s_lp_Variant>
AV-unprocessed.smi:2519-2

> <Gold.Version>
5.8.1

> <Gold.Id.Protein>
6NUR|6NUR_protein|mol2

> <Gold.PLP.Fitness>
46.5662

> <Gold.PLP.PLP>
-39.0116

> <Gold.PLP.part.hbond>
-3.0000

> <Gold.PLP.part.metal>
0.0000

> <Gold.PLP.part.buried>
-3.1689

> <Gold.PLP.part.nonpolar>
-33.2615

> <Gold.PLP.part.repulsive>
0.1548

> <Gold.PLP.ligand.clash>
0.0000

> <Gold.PLP.ligand.torsion>
0.6989

> <Gold.PLP.Chemscore.Hbond>
2.9760

> <Gold.PLP.Chemscore.CHOScore>
0.0000

> <Gold.PLP.Chemscore.Metal>
0.0000

> <Gold.Chemscore.Hbonds>
donor molecule, donor type, donor heavy atom, donor atom, acceptor molecule, acceptor atom, score
      L1  H    10    32       P1  7948  0.98
      L1  H    13    33       P1  7948  1.00
      P1  H  7997  8010       L1     4  1.00

> <Gold.PLP.Chemscore.Internal.Correction>
0.0244

> <Gold.Rescore>
     Score         DG    S(hbond)    S(metal)    S(lipo)     H(rot)  DE(clash)    DE(int)     intcor
     18.12     -20.43       2.72        0.00      71.96       1.00       0.05       2.26       ----

> <Gold.Chemscore.Fitness>
18.1191

> <Gold.Chemscore.DG>
-20.4263

> <Gold.Chemscore.ZeroCoef>
-5.4800

> <Gold.Chemscore.Hbond>
2.7206

> <Gold.Chemscore.Metal>
0.0000

> <Gold.Chemscore.Lipo>
71.9604

> <Gold.Chemscore.Internal_Hbond>
0.0000

> <Gold.Chemscore.DEClash>
0.0452

> <Gold.Chemscore.DEInternal>
2.2619

> <Gold.Chemscore.Rot>
1.0000

> <Gold.Chemscore.Internal.Correction>
   9.000000E+99

> <Gold.Chemscore.Hbonds>
donor molecule, donor type, donor heavy atom, donor atom, acceptor molecule, acceptor atom, score
      L1  H    10    32       P1  7948  0.79
      L1  H    13    33       P1  7948  0.35
      P1  H  7997  8010       L1     4  0.34

> <Gold.Chemscore.Hbond.Weighted>
-9.0869

> <Gold.Chemscore.Metal.Weighted>
-0.0000

> <Gold.Chemscore.Lipo.Weighted>
-8.4194

> <Gold.Chemscore.Internal_Hbond.Weighted>
0.0000

> <Gold.Chemscore.DEClash.Weighted>
0.0452

> <Gold.Chemscore.DEInternal.Weighted>
2.2619

> <Gold.Chemscore.Rot.Weighted>
2.5600

> <Gold.Chemscore.Internal.Correction.Weighted>
   9.000000E+99

> <Gold.Protein.RotatedTorsions>
[ 6907 6896 6895 6894 ] final  129.53 input  -60.11 | X-H torsion
[ 7974 7965 7964 7962 ] final -179.89 input  175.53 | X-H torsion
[ 8008 7997 7996 7995 ] final   32.51 input   59.86 | X-H torsion
[ 10167 10162 10161 10158 ] final   10.69 input  -65.29 | X-H torsion
[ 10718 10713 10712 10709 ] final   70.53 input   66.30 | X-H torsion
[ 10763 10752 10751 10750 ] final -120.38 input  -60.55 | X-H torsion
[ 11005 11000 10999 10996 ] final  -43.29 input  -57.11 | X-H torsion

> <Gold.Protein.ActiveResidues>
 VAL166  LYS551  ARG553  GLY616  TRP617  ASP618  TYR619  PRO620  LYS621  CYS622 
 ASP623  PHE694  ASN695  SER759  ASP760  ASP761  ALA762  ILE779  LEU786  VAL792 
 PHE793  MET794  SER795  GLU796  ALA797  LYS798  CYS799  TRP800  GLU811  SER814 

> <Gold.Protein.RotatedAtoms>
  152.3615  133.6303  159.6018 H   0  0  0  0  0  0  0  0  0  0  0  0  # atno 6907 bound_to 6896
  150.7604  133.9416  159.3467 H   0  0  0  0  0  0  0  0  0  0  0  0  # atno 6908 bound_to 6896
  151.7253  135.0887  160.0342 H   0  0  0  0  0  0  0  0  0  0  0  0  # atno 6909 bound_to 6896
  144.7140  140.0649  143.6431 H   0  0  0  0  0  0  0  0  0  0  0  0  # atno 7974 bound_to 7965
  155.1237  140.3250  155.4491 H   0  0  0  0  0  0  0  0  0  0  0  0  # atno 8008 bound_to 7997
  156.2655  140.2023  156.6306 H   0  0  0  0  0  0  0  0  0  0  0  0  # atno 8009 bound_to 7997
  154.6665  140.0541  157.0106 H   0  0  0  0  0  0  0  0  0  0  0  0  # atno 8010 bound_to 7997
  140.6179  143.8269  150.7140 H   0  0  0  0  0  0  0  0  0  0  0  0  # atno 10167 bound_to 10162
  157.6405  130.9482  150.0663 H   0  0  0  0  0  0  0  0  0  0  0  0  # atno 10718 bound_to 10713
  154.8642  135.4205  154.2449 H   0  0  0  0  0  0  0  0  0  0  0  0  # atno 10763 bound_to 10752
  153.3407  135.6993  153.6875 H   0  0  0  0  0  0  0  0  0  0  0  0  # atno 10764 bound_to 10752
  153.5854  135.3565  155.2864 H   0  0  0  0  0  0  0  0  0  0  0  0  # atno 10765 bound_to 10752
  141.0374  133.6794  156.2712 H   0  0  0  0  0  0  0  0  0  0  0  0  # atno 11005 bound_to 11000
  145.9833  139.2958  143.1029 LP  0  0  0  0  0  0  0  0  0  0  0  0  # atno 17320 bound_to 7965
  145.8986  140.9257  143.0514 LP  0  0  0  0  0  0  0  0  0  0  0  0  # atno 17321 bound_to 7965
  140.1852  143.4082  152.1904 LP  0  0  0  0  0  0  0  0  0  0  0  0  # atno 17342 bound_to 10162
  139.5414  144.7259  151.4723 LP  0  0  0  0  0  0  0  0  0  0  0  0  # atno 17343 bound_to 10162
  156.1681  130.3645  149.9204 LP  0  0  0  0  0  0  0  0  0  0  0  0  # atno 17370 bound_to 10713
  156.7186  130.8998  151.3616 LP  0  0  0  0  0  0  0  0  0  0  0  0  # atno 17371 bound_to 10713
  140.6298  134.5276  157.5558 LP  0  0  0  0  0  0  0  0  0  0  0  0  # atno 17394 bound_to 11000
  139.9250  134.8073  156.1095 LP  0  0  0  0  0  0  0  0  0  0  0  0  # atno 17395 bound_to 11000

$$$$
