AV-unprocessed.smi:2728|AV-procd|sdf|10525|dock2
  -GOLD-   2272014563D 1   1.00000     0.00000
 Structure written by MMmdl.
 34 35  0  0  0  0  0  0  0  0  1 V2000
  149.8281  142.6954  159.7512 O   0  0  0  0  0  0  0  0  0  0  0  0
  149.3647  143.2423  158.7497 C   0  0  0  0  0  0  0  0  0  0  0  0
  150.1226  143.8198  157.8061 N   0  0  0  0  0  0  0  0  0  0  0  0
  151.5797  143.8765  157.8222 C   0  0  0  0  0  0  0  0  0  0  0  0
  152.1154  144.2372  159.2181 C   0  0  0  0  0  0  0  0  0  0  0  0
  152.5704  143.0200  159.9990 C   0  0  0  0  0  0  0  0  0  0  0  0
  153.4513  142.1042  159.5988 C   0  0  0  0  0  0  0  0  0  0  0  0
  153.6893  141.0375  160.6320 C   0  0  0  0  0  0  0  0  0  0  0  0
  152.7696  141.4414  161.8059 C   0  0  0  0  0  0  0  0  0  0  0  0
  152.0521  142.7446  161.3873 C   0  0  0  0  0  0  0  0  0  0  0  0
  148.0569  143.3434  158.4527 N   0  0  0  0  0  0  0  0  0  0  0  0
  146.9481  142.8433  159.1866 C   0  0  0  0  0  0  0  0  0  0  0  0
  145.6992  142.9548  158.5339 C   0  0  0  0  0  0  0  0  0  0  0  0
  144.5370  142.4842  159.1759 C   0  0  0  0  0  0  0  0  0  0  0  0
  144.6558  141.9144  160.4559 C   0  0  0  0  0  0  0  0  0  0  0  0
  143.5670  141.4477  161.1119 F   0  0  0  0  0  0  0  0  0  0  0  0
  145.9352  141.8419  161.0371 C   0  0  0  0  0  0  0  0  0  0  0  0
  147.0499  142.2924  160.4226 N   0  0  0  0  0  0  0  0  0  0  0  0
  149.6601  144.2467  157.0170 H   0  0  0  0  0  0  0  0  0  0  0  0
  151.9924  142.9257  157.4808 H   0  0  0  0  0  0  0  0  0  0  0  0
  151.8950  144.6292  157.0991 H   0  0  0  0  0  0  0  0  0  0  0  0
  152.9550  144.9273  159.1226 H   0  0  0  0  0  0  0  0  0  0  0  0
  151.3503  144.7535  159.7991 H   0  0  0  0  0  0  0  0  0  0  0  0
  153.9596  142.1023  158.6458 H   0  0  0  0  0  0  0  0  0  0  0  0
  153.4283  140.0578  160.2312 H   0  0  0  0  0  0  0  0  0  0  0  0
  154.7390  141.0264  160.9263 H   0  0  0  0  0  0  0  0  0  0  0  0
  152.0441  140.6538  162.0123 H   0  0  0  0  0  0  0  0  0  0  0  0
  153.3491  141.5938  162.7170 H   0  0  0  0  0  0  0  0  0  0  0  0
  152.3000  143.5720  162.0527 H   0  0  0  0  0  0  0  0  0  0  0  0
  150.9692  142.6180  161.3787 H   0  0  0  0  0  0  0  0  0  0  0  0
  147.8282  143.8261  157.5966 H   0  0  0  0  0  0  0  0  0  0  0  0
  145.6274  143.3944  157.5497 H   0  0  0  0  0  0  0  0  0  0  0  0
  143.5735  142.5591  158.6939 H   0  0  0  0  0  0  0  0  0  0  0  0
  146.0684  141.4115  162.0185 H   0  0  0  0  0  0  0  0  0  0  0  0
  1  2  2  0  0  0  0
  2  3  1  0  0  0  0
  2 11  1  0  0  0  0
  3  4  1  0  0  0  0
  3 19  1  0  0  0  0
  4  5  1  0  0  0  0
  4 20  1  0  0  0  0
  4 21  1  0  0  0  0
  5  6  1  0  0  0  0
  5 22  1  0  0  0  0
  5 23  1  0  0  0  0
  6 10  1  0  0  0  0
  6  7  2  0  0  0  0
  7  8  1  0  0  0  0
  7 24  1  0  0  0  0
  8  9  1  0  0  0  0
  8 25  1  0  0  0  0
  8 26  1  0  0  0  0
  9 10  1  0  0  0  0
  9 27  1  0  0  0  0
  9 28  1  0  0  0  0
 10 29  1  0  0  0  0
 10 30  1  0  0  0  0
 11 12  1  0  0  0  0
 11 31  1  0  0  0  0
 12 18  1  0  0  0  0
 12 13  2  0  0  0  0
 13 14  1  0  0  0  0
 13 32  1  0  0  0  0
 14 15  2  0  0  0  0
 14 33  1  0  0  0  0
 15 16  1  0  0  0  0
 15 17  1  0  0  0  0
 17 18  2  0  0  0  0
 17 34  1  0  0  0  0
M  END
> <s_m_source_file>
AV-unprocessed.smi

> <i_m_source_file_index>
2728

> <i_lp_mmshare_version>
43012

> <i_f3d_flags>
0

> <s_epik_input>
bjFbY0hdYyhGKVtjSF1bY0hdYzFbTkhdQyg9TylbTkhdW0NIMl1bQ0gyXUMyPVtDSF1bQ0gyXVtDSDJdW0NIMl0y

> <s_epik_cmdline>
J2VwaWtfcHl0aG9uJywgJy1waCcsICc3LjAnLCAnLXRuJywgJzgnLCAnLW1hJywgJzIwMCcsICctbWV0YWxfYmluZGluZycsICctaW1hZScsICc8aW5maWxlLm1hZT4nLCAnLW9tYWUnLCAnPG91dGZpbGUubWFlPic=

> <r_lp_tautomer_probability>
1

> <r_epik_Ionization_Penalty>
3.75783e-05

> <r_epik_Ionization_Penalty_Charging>
0

> <r_epik_Ionization_Penalty_Neutral>
3.75783e-05

> <r_epik_State_Penalty>
-0

> <r_epik_Charging_Adjusted_Penalty>
0

> <i_epik_Tot_Q>
0

> <i_epik_Tot_abs_Q>
0

> <r_epik_Metal_State_Penalty>
-0

> <b_epik_Metal_Only>
0

> <s_lp_Force_Field>
OPLS_2005

> <r_lp_Energy>
20.4042

> <b_lp_Chiralities_Consistent>
1

> <s_lp_Variant>
AV-unprocessed.smi:2728-1

> <Gold.Version>
5.8.1

> <Gold.Id.Protein>
6NUR|6NUR_protein|mol2

> <Gold.PLP.Fitness>
55.1108

> <Gold.PLP.PLP>
-47.9993

> <Gold.PLP.part.hbond>
-4.7320

> <Gold.PLP.part.metal>
0.0000

> <Gold.PLP.part.buried>
-4.5751

> <Gold.PLP.part.nonpolar>
-38.8094

> <Gold.PLP.part.repulsive>
0.3573

> <Gold.PLP.ligand.clash>
0.0000

> <Gold.PLP.ligand.torsion>
0.4326

> <Gold.PLP.Chemscore.Hbond>
2.6560

> <Gold.PLP.Chemscore.CHOScore>
0.0000

> <Gold.PLP.Chemscore.Metal>
0.0000

> <Gold.Chemscore.Hbonds>
donor molecule, donor type, donor heavy atom, donor atom, acceptor molecule, acceptor atom, score
      L1  H     3    19       P1  8028  1.00
      L1  H    11    31       P1  8029  0.11
      P1  H  6933  6944       L1    18  0.58

> <Gold.PLP.Chemscore.Internal.Correction>
0.0086

> <Gold.Rescore>
     Score         DG    S(hbond)    S(metal)    S(lipo)     H(rot)  DE(clash)    DE(int)     intcor
     18.65     -22.22       2.43        0.00     106.18       1.48       0.05       3.52       ----

> <Gold.Chemscore.Fitness>
18.6528

> <Gold.Chemscore.DG>
-22.2201

> <Gold.Chemscore.ZeroCoef>
-5.4800

> <Gold.Chemscore.Hbond>
2.4283

> <Gold.Chemscore.Metal>
0.0000

> <Gold.Chemscore.Lipo>
106.1792

> <Gold.Chemscore.Internal_Hbond>
0.0000

> <Gold.Chemscore.DEClash>
0.0487

> <Gold.Chemscore.DEInternal>
3.5186

> <Gold.Chemscore.Rot>
1.4818

> <Gold.Chemscore.Internal.Correction>
   9.000000E+99

> <Gold.Chemscore.Hbonds>
donor molecule, donor type, donor heavy atom, donor atom, acceptor molecule, acceptor atom, score
      L1  H     3    19       P1  8028  0.55
      P1  H  6933  6944       L1    18  0.52

> <Gold.Chemscore.Hbond.Weighted>
-8.1105

> <Gold.Chemscore.Metal.Weighted>
-0.0000

> <Gold.Chemscore.Lipo.Weighted>
-12.4230

> <Gold.Chemscore.Internal_Hbond.Weighted>
0.0000

> <Gold.Chemscore.DEClash.Weighted>
0.0487

> <Gold.Chemscore.DEInternal.Weighted>
3.5186

> <Gold.Chemscore.Rot.Weighted>
3.7933

> <Gold.Chemscore.Internal.Correction.Weighted>
   9.000000E+99

> <Gold.Protein.RotatedTorsions>
[ 6907 6896 6895 6894 ] final  142.86 input  -60.11 | X-H torsion
[ 7974 7965 7964 7962 ] final  -34.44 input  175.53 | X-H torsion
[ 8008 7997 7996 7995 ] final  105.68 input   59.86 | X-H torsion
[ 10167 10162 10161 10158 ] final  -16.69 input  -65.29 | X-H torsion
[ 10718 10713 10712 10709 ] final  123.40 input   66.30 | X-H torsion
[ 10763 10752 10751 10750 ] final   63.88 input  -60.55 | X-H torsion
[ 11005 11000 10999 10996 ] final  -13.50 input  -57.11 | X-H torsion

> <Gold.Protein.ActiveResidues>
 VAL166  LYS551  ARG553  GLY616  TRP617  ASP618  TYR619  PRO620  LYS621  CYS622 
 ASP623  PHE694  ASN695  SER759  ASP760  ASP761  ALA762  ILE779  LEU786  VAL792 
 PHE793  MET794  SER795  GLU796  ALA797  LYS798  CYS799  TRP800  GLU811  SER814 

> <Gold.Protein.RotatedAtoms>
  152.2134  133.4928  159.5122 H   0  0  0  0  0  0  0  0  0  0  0  0  # atno 6907 bound_to 6896
  150.6995  134.1437  159.4123 H   0  0  0  0  0  0  0  0  0  0  0  0  # atno 6908 bound_to 6896
  151.9357  135.0236  160.0583 H   0  0  0  0  0  0  0  0  0  0  0  0  # atno 6909 bound_to 6896
  146.0829  140.6039  142.8900 H   0  0  0  0  0  0  0  0  0  0  0  0  # atno 7974 bound_to 7965
  156.1679  140.3126  155.8921 H   0  0  0  0  0  0  0  0  0  0  0  0  # atno 8008 bound_to 7997
  155.3648  140.0478  157.3063 H   0  0  0  0  0  0  0  0  0  0  0  0  # atno 8009 bound_to 7997
  154.5211  140.2198  155.8985 H   0  0  0  0  0  0  0  0  0  0  0  0  # atno 8010 bound_to 7997
  140.7237  143.5091  150.9773 H   0  0  0  0  0  0  0  0  0  0  0  0  # atno 10167 bound_to 10162
  157.5668  131.1086  150.8440 H   0  0  0  0  0  0  0  0  0  0  0  0  # atno 10718 bound_to 10713
  153.0034  135.5413  154.6422 H   0  0  0  0  0  0  0  0  0  0  0  0  # atno 10763 bound_to 10752
  154.5675  135.2839  155.0862 H   0  0  0  0  0  0  0  0  0  0  0  0  # atno 10764 bound_to 10752
  154.2041  135.6479  153.5148 H   0  0  0  0  0  0  0  0  0  0  0  0  # atno 10765 bound_to 10752
  140.7767  133.8395  155.9255 H   0  0  0  0  0  0  0  0  0  0  0  0  # atno 11005 bound_to 11000
  144.7305  140.4658  143.6941 LP  0  0  0  0  0  0  0  0  0  0  0  0  # atno 17320 bound_to 7965
  145.6184  139.1521  143.3036 LP  0  0  0  0  0  0  0  0  0  0  0  0  # atno 17321 bound_to 7965
  139.8803  143.7080  152.3157 LP  0  0  0  0  0  0  0  0  0  0  0  0  # atno 17342 bound_to 10162
  139.7360  144.7571  151.0727 LP  0  0  0  0  0  0  0  0  0  0  0  0  # atno 17343 bound_to 10162
  156.8923  130.5217  149.5286 LP  0  0  0  0  0  0  0  0  0  0  0  0  # atno 17370 bound_to 10713
  156.0715  130.5747  150.9393 LP  0  0  0  0  0  0  0  0  0  0  0  0  # atno 17371 bound_to 10713
  140.9522  134.1764  157.4719 LP  0  0  0  0  0  0  0  0  0  0  0  0  # atno 17394 bound_to 11000
  139.8748  134.9913  156.5544 LP  0  0  0  0  0  0  0  0  0  0  0  0  # atno 17395 bound_to 11000

$$$$
