#       Name:                AV-unprocessed.smi:3318
#       Creating user name   scv26
#       Creation time:       Fri Mar 27 19:10:43 2020


#       File generated by GOLD software.
#

@<TRIPOS>MOLECULE
AV-unprocessed.smi:3318
    46    47     1
SMALL
NO_CHARGES


@<TRIPOS>ATOM
      1 ****        -2.1818  -5.6904  -1.7449 C.3            1 S1                 0.0000
      2 ****        -2.3689  -4.2182  -1.3617 C.3            1 S1                 0.0000
      3 ****        -1.3771  -3.7649  -0.2759 C.3            1 S1                 0.0000
      4 ****        -1.6224  -2.3713   0.1753 N.4            1 S1                 1.0000
      5 ****        -1.1598  -1.3493  -0.7993 C.3            1 S1                 0.0000
      6 ****        -1.5661   0.0678  -0.3592 C.3            1 S1                 0.0000
      7 ****        -1.0774   0.4059   1.0652 C.3            1 S1                 0.0000
      8 ****         0.3621   0.6408   1.1291 N.3            1 S1                 0.0000
      9 ****         0.7331   1.9451   0.5971 C.3            1 S1                 0.0000
     10 ****         2.2451   2.1541   0.7590 C.3            1 S1                 0.0000
     11 ****         2.6949   3.5021   0.2278 C.ar           1 S1                 0.0000
     12 ****         3.2804   3.6136  -1.0514 C.ar           1 S1                 0.0000
     13 ****         3.6746   4.8891  -1.4999 C.ar           1 S1                 0.0000
     14 ****         3.4680   5.9982  -0.6572 C.ar           1 S1                 0.0000
     15 ****         2.8731   5.7816   0.6018 C.ar           1 S1                 0.0000
     16 ****         2.4910   4.5629   1.0413 N.ar           1 S1                 0.0000
     17 ****        -1.4592  -0.7186   2.0445 C.3            1 S1                 0.0000
     18 ****        -1.0647  -2.1141   1.5272 C.3            1 S1                 0.0000
     19 ****        -2.8950  -5.9845  -2.5153 H              1 S1                 0.0000
     20 ****        -2.3332  -6.3447  -0.8859 H              1 S1                 0.0000
     21 ****        -1.1794  -5.8726  -2.1333 H              1 S1                 0.0000
     22 ****        -2.2595  -3.6114  -2.2599 H              1 S1                 0.0000
     23 ****        -3.3903  -4.0688  -1.0097 H              1 S1                 0.0000
     24 ****        -1.4843  -4.4388   0.5754 H              1 S1                 0.0000
     25 ****        -0.3473  -3.8685  -0.6217 H              1 S1                 0.0000
     26 ****        -0.0761  -1.4125  -0.9091 H              1 S1                 0.0000
     27 ****        -1.5849  -1.5425  -1.7833 H              1 S1                 0.0000
     28 ****        -1.2220   0.8003  -1.0886 H              1 S1                 0.0000
     29 ****        -2.6548   0.1336  -0.3749 H              1 S1                 0.0000
     30 ****        -1.5728   1.3171   1.4037 H              1 S1                 0.0000
     31 ****         0.6601   0.5974   2.0937 H              1 S1                 0.0000
     32 ****         0.4657   2.0207  -0.4563 H              1 S1                 0.0000
     33 ****         0.1917   2.7272   1.1309 H              1 S1                 0.0000
     34 ****         2.5253   2.0793   1.8111 H              1 S1                 0.0000
     35 ****         2.7905   1.3651   0.2391 H              1 S1                 0.0000
     36 ****         3.4242   2.7442  -1.6760 H              1 S1                 0.0000
     37 ****         4.1266   5.0145  -2.4729 H              1 S1                 0.0000
     38 ****         3.7580   6.9909  -0.9681 H              1 S1                 0.0000
     39 ****         2.6993   6.6091   1.2736 H              1 S1                 0.0000
     40 ****        -1.0156  -0.5405   3.0252 H              1 S1                 0.0000
     41 ****        -2.5389  -0.6970   2.1974 H              1 S1                 0.0000
     42 ****        -1.4317  -2.8655   2.2275 H              1 S1                 0.0000
     43 ****         0.0215  -2.2147   1.4981 H              1 S1                 0.0000
     44 ****        -2.6238  -2.2701   0.2594 H              1 S1                 0.0000
     45 ****         0.8061  -0.0627   0.5741 LP             1 S1                 0.0000
     46 ****         2.0701   4.4485   1.9412 LP             1 S1                 0.0000
@<TRIPOS>BOND
    1    1    2 1     
    2    1   19 1     
    3    1   20 1     
    4    1   21 1     
    5    2    3 1     
    6    2   22 1     
    7    2   23 1     
    8    3    4 1     
    9    3   24 1     
   10    3   25 1     
   11    4   18 1     
   12    4    5 1     
   13    4   44 1     
   14    5    6 1     
   15    5   26 1     
   16    5   27 1     
   17    6    7 1     
   18    6   28 1     
   19    6   29 1     
   20    7    8 1     
   21    7   17 1     
   22    7   30 1     
   23    8    9 1     
   24    8   31 1     
   25    9   10 1     
   26    9   32 1     
   27    9   33 1     
   28   10   11 1     
   29   10   34 1     
   30   10   35 1     
   31   11   16 ar    
   32   11   12 ar    
   33   12   13 ar    
   34   12   36 1     
   35   13   14 ar    
   36   13   37 1     
   37   14   15 ar    
   38   14   38 1     
   39   15   16 ar    
   40   15   39 1     
   41   17   18 1     
   42   17   40 1     
   43   17   41 1     
   44   18   42 1     
   45   18   43 1     
   46    8   45 1     
   47   16   46 1     
@<TRIPOS>SUBSTRUCTURE
      1 S1             1
@<TRIPOS>SET
LONE_PAIRS      STATIC     ATOMS    <user>   **** ""
2 45 46
DONOR_HYDROGENS      STATIC     ATOMS    <user>   **** ""
2 44 31
ATOM$BLUE        STATIC     ATOMS    COLORGROUP SYSTEM
2 45 46
ATOM$RED        STATIC     ATOMS    COLORGROUP SYSTEM
2 44 31
