#       Name:                AV-unprocessed.smi:235
#       Creating user name   scv26
#       Creation time:       Thu Mar 26 20:37:59 2020


#       File generated by GOLD software.
#

@<TRIPOS>MOLECULE
AV-unprocessed.smi:235
    63    67     1
SMALL
NO_CHARGES


@<TRIPOS>ATOM
      1 ****        -3.4614   0.4500  -2.8113 O.2            1 S1                 0.0000
      2 ****        -3.6209   1.2749  -1.9102 C.2            1 S1                 0.0000
      3 ****        -3.9561   2.5544  -2.1299 N.am           1 S1                 0.0000
      4 ****        -4.1685   3.1472  -3.4102 C.3            1 S1                 0.0000
      5 ****        -3.6984   4.5715  -3.6118 C.3            1 S1                 0.0000
      6 ****        -5.1694   4.2787  -3.5020 C.3            1 S1                 0.0000
      7 ****        -3.4458   0.8645  -0.4393 C.3            1 S1                 0.0000
      8 ****        -4.6390   0.0334   0.0606 C.3            1 S1                 0.0000
      9 ****        -4.0372  -0.8469   1.1514 C.3            1 S1                 0.0000
     10 ****        -2.6335  -1.1445   0.6271 C.3            1 S1                 0.0000
     11 ****        -2.2976  -0.0254  -0.2443 N.pl3          1 S1                 0.0000
     12 ****        -1.0115   0.4118  -0.3159 C.ar           1 S1                 0.0000
     13 ****        -0.7648   1.7463  -0.4043 N.ar           1 S1                 0.0000
     14 ****         0.4884   2.2024  -0.4773 C.ar           1 S1                 0.0000
     15 ****         1.6282   1.5104  -0.4812 N.ar           1 S1                 0.0000
     16 ****         1.3911   0.1701  -0.3998 C.ar           1 S1                 0.0000
     17 ****         0.1163  -0.4597  -0.3152 C.ar           1 S1                 0.0000
     18 ****         0.2784  -1.8400  -0.2640 N.2            1 S1                 0.0000
     19 ****         1.5706  -2.0144  -0.3107 C.2            1 S1                 0.0000
     20 ****         2.3151  -0.8595  -0.3857 N.pl3          1 S1                 0.0000
     21 ****         3.7644  -0.7590  -0.4498 C.3            1 S1                 0.0000
     22 ****         4.4447  -0.6679   0.9342 C.3            1 S1                 0.0000
     23 ****         4.0383   0.5259   1.5740 O.3            1 S1                 0.0000
     24 ****         4.1270  -1.8543   1.8668 C.3            1 S1                 0.0000
     25 ****         4.9343  -1.8756   3.1663 C.3            1 S1                 0.0000
     26 ****         4.9839  -3.3501   3.5394 C.3            1 S1                 0.0000
     27 ****         4.4923  -4.0715   2.2818 C.3            1 S1                 0.0000
     28 ****         4.5083  -3.0815   1.2646 O.3            1 S1                 0.0000
     29 ****        -4.0626   3.1573  -1.3271 H              1 S1                 0.0000
     30 ****        -4.1061   2.4951  -4.2805 H              1 S1                 0.0000
     31 ****        -3.2223   5.0739  -2.7718 H              1 S1                 0.0000
     32 ****        -3.3108   4.8370  -4.5932 H              1 S1                 0.0000
     33 ****        -5.7651   4.3486  -4.4100 H              1 S1                 0.0000
     34 ****        -5.6752   4.5871  -2.5889 H              1 S1                 0.0000
     35 ****        -3.3326   1.7449   0.1966 H              1 S1                 0.0000
     36 ****        -5.4541   0.6551   0.4321 H              1 S1                 0.0000
     37 ****        -5.0401  -0.6011  -0.7321 H              1 S1                 0.0000
     38 ****        -3.9711  -0.2812   2.0818 H              1 S1                 0.0000
     39 ****        -4.6193  -1.7482   1.3452 H              1 S1                 0.0000
     40 ****        -1.9286  -1.2672   1.4509 H              1 S1                 0.0000
     41 ****        -2.6308  -2.0606   0.0353 H              1 S1                 0.0000
     42 ****         0.5921   3.2753  -0.5434 H              1 S1                 0.0000
     43 ****         2.0201  -2.9966  -0.2856 H              1 S1                 0.0000
     44 ****         4.1404  -1.6277  -0.9915 H              1 S1                 0.0000
     45 ****         4.0254   0.1096  -1.0558 H              1 S1                 0.0000
     46 ****         5.5229  -0.6100   0.7807 H              1 S1                 0.0000
     47 ****         4.2152   1.2522   0.9959 H              1 S1                 0.0000
     48 ****         3.0610  -1.8928   2.0997 H              1 S1                 0.0000
     49 ****         5.9475  -1.5119   2.9903 H              1 S1                 0.0000
     50 ****         4.4871  -1.2567   3.9449 H              1 S1                 0.0000
     51 ****         6.0012  -3.6467   3.7979 H              1 S1                 0.0000
     52 ****         4.3412  -3.5742   4.3915 H              1 S1                 0.0000
     53 ****         5.1173  -4.9236   2.0140 H              1 S1                 0.0000
     54 ****         3.4703  -4.4276   2.4184 H              1 S1                 0.0000
     55 ****        -3.5821   0.7226  -3.7658 LP             1 S1                 0.0000
     56 ****        -3.2113  -0.4922  -2.5881 LP             1 S1                 0.0000
     57 ****        -1.5285   2.3918  -0.4147 LP             1 S1                 0.0000
     58 ****         2.5384   1.9209  -0.5366 LP             1 S1                 0.0000
     59 ****        -0.4336  -2.5398  -0.2048 LP             1 S1                 0.0000
     60 ****         4.5479   0.6418   2.4266 LP             1 S1                 0.0000
     61 ****         3.0593   0.4848   1.7739 LP             1 S1                 0.0000
     62 ****         5.4271  -3.0024   0.8780 LP             1 S1                 0.0000
     63 ****         3.8619  -3.3234   0.5410 LP             1 S1                 0.0000
@<TRIPOS>BOND
    1    1    2 2     
    2    2    3 am    
    3    2    7 1     
    4    3    4 1     
    5    3   29 1     
    6    4    6 1     
    7    4    5 1     
    8    4   30 1     
    9    5    6 1     
   10    5   31 1     
   11    5   32 1     
   12    6   33 1     
   13    6   34 1     
   14    7   11 1     
   15    7    8 1     
   16    7   35 1     
   17    8    9 1     
   18    8   36 1     
   19    8   37 1     
   20    9   10 1     
   21    9   38 1     
   22    9   39 1     
   23   10   11 1     
   24   10   40 1     
   25   10   41 1     
   26   11   12 1     
   27   12   17 ar    
   28   12   13 ar    
   29   13   14 ar    
   30   14   15 ar    
   31   14   42 1     
   32   15   16 ar    
   33   16   20 1     
   34   16   17 ar    
   35   17   18 1     
   36   18   19 2     
   37   19   20 1     
   38   19   43 1     
   39   20   21 1     
   40   21   22 1     
   41   21   44 1     
   42   21   45 1     
   43   22   23 1     
   44   22   24 1     
   45   22   46 1     
   46   23   47 1     
   47   24   28 1     
   48   24   25 1     
   49   24   48 1     
   50   25   26 1     
   51   25   49 1     
   52   25   50 1     
   53   26   27 1     
   54   26   51 1     
   55   26   52 1     
   56   27   28 1     
   57   27   53 1     
   58   27   54 1     
   59    1   55 1     
   60    1   56 1     
   61   13   57 1     
   62   15   58 1     
   63   18   59 1     
   64   23   60 1     
   65   23   61 1     
   66   28   62 1     
   67   28   63 1     
@<TRIPOS>SUBSTRUCTURE
      1 S1             1
@<TRIPOS>SET
LONE_PAIRS      STATIC     ATOMS    <user>   **** ""
9 55 56 57 58 59 60 61 62 63
DONOR_HYDROGENS      STATIC     ATOMS    <user>   **** ""
2 29 47
ATOM$BLUE        STATIC     ATOMS    COLORGROUP SYSTEM
9 55 56 57 58 59 60 61 62 63
ATOM$RED        STATIC     ATOMS    COLORGROUP SYSTEM
2 29 47
