AV-unprocessed.smi:1793|AV-procd|sdf|7227|dock10
  -GOLD-   22720 8473D 1   1.00000     0.00000
 Structure written by MMmdl.
 46 48  0  0  0  0  0  0  0  0  1 V2000
  148.3350  131.7563  153.5439 C   0  0  0  0  0  0  0  0  0  0  0  0
  147.4149  132.9705  153.3419 C   0  0  1  0  0  0  0  0  0  0  0  0
  148.1703  134.2096  153.5128 N   0  0  0  0  0  0  0  0  0  0  0  0
  148.7500  134.6226  154.6475 C   0  0  0  0  0  0  0  0  0  0  0  0
  148.7196  133.9888  155.7026 O   0  0  0  0  0  0  0  0  0  0  0  0
  149.3738  135.7978  154.4682 N   0  0  0  0  0  0  0  0  0  0  0  0
  150.1603  136.5187  155.4089 C   0  0  0  0  0  0  0  0  0  0  0  0
  150.9398  135.8476  156.3821 C   0  0  0  0  0  0  0  0  0  0  0  0
  151.6451  136.5989  157.3375 C   0  0  0  0  0  0  0  0  0  0  0  0
  151.5331  137.9985  157.2963 C   0  0  0  0  0  0  0  0  0  0  0  0
  150.7845  138.6515  156.3849 N   0  0  0  0  0  0  0  0  0  0  0  0
  150.1097  137.9417  155.4469 C   0  0  0  0  0  0  0  0  0  0  0  0
  149.3562  138.6810  154.5056 N   0  0  0  0  0  0  0  0  0  0  0  0
  147.9223  138.4524  154.3589 C   0  0  0  0  0  0  0  0  0  0  0  0
  147.4049  139.6621  153.5858 C   0  0  0  0  0  0  0  0  0  0  0  0
  148.2824  140.7890  154.1212 C   0  0  0  0  0  0  0  0  0  0  0  0
  149.6325  140.1083  154.3670 C   0  0  0  0  0  0  0  0  0  0  0  0
  146.7238  132.9553  151.9640 C   0  0  1  0  0  0  0  0  0  0  0  0
  145.7908  131.7536  151.7272 C   0  0  0  0  0  0  0  0  0  0  0  0
  144.4410  132.3818  151.4302 C   0  0  0  0  0  0  0  0  0  0  0  0
  144.8186  133.7791  150.9607 C   0  0  0  0  0  0  0  0  0  0  0  0
  145.9036  134.1116  151.8098 O   0  0  0  0  0  0  0  0  0  0  0  0
  147.7825  130.8235  153.4307 H   0  0  0  0  0  0  0  0  0  0  0  0
  148.7749  131.7576  154.5418 H   0  0  0  0  0  0  0  0  0  0  0  0
  149.1512  131.7496  152.8208 H   0  0  0  0  0  0  0  0  0  0  0  0
  146.6294  132.9211  154.0980 H   0  0  0  0  0  0  0  0  0  0  0  0
  148.2538  134.7982  152.6968 H   0  0  0  0  0  0  0  0  0  0  0  0
  149.3942  136.1526  153.5234 H   0  0  0  0  0  0  0  0  0  0  0  0
  150.9880  134.7700  156.4234 H   0  0  0  0  0  0  0  0  0  0  0  0
  152.2467  136.1127  158.0912 H   0  0  0  0  0  0  0  0  0  0  0  0
  152.0540  138.6110  158.0173 H   0  0  0  0  0  0  0  0  0  0  0  0
  147.7202  137.5185  153.8339 H   0  0  0  0  0  0  0  0  0  0  0  0
  147.4349  138.4113  155.3338 H   0  0  0  0  0  0  0  0  0  0  0  0
  147.5811  139.5276  152.5178 H   0  0  0  0  0  0  0  0  0  0  0  0
  146.3397  139.8394  153.7362 H   0  0  0  0  0  0  0  0  0  0  0  0
  148.3531  141.6367  153.4392 H   0  0  0  0  0  0  0  0  0  0  0  0
  147.8767  141.1507  155.0669 H   0  0  0  0  0  0  0  0  0  0  0  0
  150.1329  140.5199  155.2446 H   0  0  0  0  0  0  0  0  0  0  0  0
  150.2835  140.2568  153.5053 H   0  0  0  0  0  0  0  0  0  0  0  0
  147.4780  132.9707  151.1756 H   0  0  0  0  0  0  0  0  0  0  0  0
  146.1393  131.1779  150.8691 H   0  0  0  0  0  0  0  0  0  0  0  0
  145.7372  131.0718  152.5768 H   0  0  0  0  0  0  0  0  0  0  0  0
  143.8620  131.8254  150.6926 H   0  0  0  0  0  0  0  0  0  0  0  0
  143.8534  132.4472  152.3468 H   0  0  0  0  0  0  0  0  0  0  0  0
  145.1540  133.7669  149.9225 H   0  0  0  0  0  0  0  0  0  0  0  0
  143.9995  134.4922  151.0540 H   0  0  0  0  0  0  0  0  0  0  0  0
  1  2  1  0  0  0  0
  1 23  1  0  0  0  0
  1 24  1  0  0  0  0
  1 25  1  0  0  0  0
  2  3  1  0  0  0  0
  2 18  1  0  0  0  0
  2 26  1  0  0  0  0
  3  4  1  0  0  0  0
  3 27  1  0  0  0  0
  4  5  2  0  0  0  0
  4  6  1  0  0  0  0
  6  7  1  0  0  0  0
  6 28  1  0  0  0  0
  7 12  1  0  0  0  0
  7  8  2  0  0  0  0
  8  9  1  0  0  0  0
  8 29  1  0  0  0  0
  9 10  2  0  0  0  0
  9 30  1  0  0  0  0
 10 11  1  0  0  0  0
 10 31  1  0  0  0  0
 11 12  2  0  0  0  0
 12 13  1  0  0  0  0
 13 17  1  0  0  0  0
 13 14  1  0  0  0  0
 14 15  1  0  0  0  0
 14 32  1  0  0  0  0
 14 33  1  0  0  0  0
 15 16  1  0  0  0  0
 15 34  1  0  0  0  0
 15 35  1  0  0  0  0
 16 17  1  0  0  0  0
 16 36  1  0  0  0  0
 16 37  1  0  0  0  0
 17 38  1  0  0  0  0
 17 39  1  0  0  0  0
 18 22  1  0  0  0  0
 18 19  1  0  0  0  0
 18 40  1  0  0  0  0
 19 20  1  0  0  0  0
 19 41  1  0  0  0  0
 19 42  1  0  0  0  0
 20 21  1  0  0  0  0
 20 43  1  0  0  0  0
 20 44  1  0  0  0  0
 21 22  1  0  0  0  0
 21 45  1  0  0  0  0
 21 46  1  0  0  0  0
M  END
> <s_m_source_file>
AV-unprocessed.smi

> <i_m_source_file_index>
1793

> <i_lp_mmshare_version>
43012

> <i_f3d_flags>
0

> <s_epik_input>
TzFbQ0gyXVtDSDJdW0NIMl1bQ0BIXTFbQ0BIXShbQ0gzXSlbTkhdQyg9TylbTkhdYzJbY0hdW2NIXVtjSF1uYzJOM1tDSDJdW0NIMl1bQ0gyXVtDSDJdMw==

> <s_epik_cmdline>
J2VwaWtfcHl0aG9uJywgJy1waCcsICc3LjAnLCAnLXRuJywgJzgnLCAnLW1hJywgJzIwMCcsICctbWV0YWxfYmluZGluZycsICctaW1hZScsICc8aW5maWxlLm1hZT4nLCAnLW9tYWUnLCAnPG91dGZpbGUubWFlPic=

> <r_lp_tautomer_probability>
1

> <r_epik_Ionization_Penalty>
0.0992086

> <r_epik_Ionization_Penalty_Charging>
0

> <r_epik_Ionization_Penalty_Neutral>
0.0992086

> <r_epik_State_Penalty>
0.0887141

> <r_epik_Charging_Adjusted_Penalty>
0.0887141

> <i_epik_Tot_Q>
0

> <i_epik_Tot_abs_Q>
0

> <r_epik_Metal_State_Penalty>
0.075945

> <b_epik_Metal_Only>
0

> <s_lp_Force_Field>
OPLS_2005

> <r_lp_Energy>
46.9131

> <b_lp_Chiralities_Consistent>
1

> <s_lp_Variant>
AV-unprocessed.smi:1793-4

> <Gold.Version>
5.8.1

> <Gold.Id.Protein>
6NUR|6NUR_protein|mol2

> <Gold.PLP.Fitness>
34.7922

> <Gold.PLP.PLP>
-29.4896

> <Gold.PLP.part.hbond>
-2.0000

> <Gold.PLP.part.metal>
0.0000

> <Gold.PLP.part.buried>
-3.7941

> <Gold.PLP.part.nonpolar>
-24.0045

> <Gold.PLP.part.repulsive>
0.3591

> <Gold.PLP.ligand.clash>
0.0000

> <Gold.PLP.ligand.torsion>
0.5264

> <Gold.PLP.Chemscore.Hbond>
2.0000

> <Gold.PLP.Chemscore.CHOScore>
0.0000

> <Gold.PLP.Chemscore.Metal>
0.0000

> <Gold.Chemscore.Hbonds>
donor molecule, donor type, donor heavy atom, donor atom, acceptor molecule, acceptor atom, score
      L1  H     3    27       P1  7948  1.00
      L1  H     6    28       P1  7948  1.00

> <Gold.PLP.Chemscore.Internal.Correction>
0.3555

> <Gold.Rescore>
     Score         DG    S(hbond)    S(metal)    S(lipo)     H(rot)  DE(clash)    DE(int)     intcor
     14.29     -16.05       1.67        0.00      72.35       1.36       0.01       1.75       ----

> <Gold.Chemscore.Fitness>
14.2899

> <Gold.Chemscore.DG>
-16.0547

> <Gold.Chemscore.ZeroCoef>
-5.4800

> <Gold.Chemscore.Hbond>
1.6727

> <Gold.Chemscore.Metal>
0.0000

> <Gold.Chemscore.Lipo>
72.3489

> <Gold.Chemscore.Internal_Hbond>
0.0000

> <Gold.Chemscore.DEClash>
0.0149

> <Gold.Chemscore.DEInternal>
1.7499

> <Gold.Chemscore.Rot>
1.3582

> <Gold.Chemscore.Internal.Correction>
   9.000000E+99

> <Gold.Chemscore.Hbonds>
donor molecule, donor type, donor heavy atom, donor atom, acceptor molecule, acceptor atom, score
      L1  H     3    27       P1  7948  0.53
      L1  H     6    28       P1  7948  0.65

> <Gold.Chemscore.Hbond.Weighted>
-5.5870

> <Gold.Chemscore.Metal.Weighted>
-0.0000

> <Gold.Chemscore.Lipo.Weighted>
-8.4648

> <Gold.Chemscore.Internal_Hbond.Weighted>
0.0000

> <Gold.Chemscore.DEClash.Weighted>
0.0149

> <Gold.Chemscore.DEInternal.Weighted>
1.7499

> <Gold.Chemscore.Rot.Weighted>
3.4771

> <Gold.Chemscore.Internal.Correction.Weighted>
   9.000000E+99

> <Gold.Protein.RotatedTorsions>
[ 6907 6896 6895 6894 ] final   -9.12 input  -60.11 | X-H torsion
[ 7974 7965 7964 7962 ] final  -86.65 input  175.53 | X-H torsion
[ 8008 7997 7996 7995 ] final   35.39 input   59.86 | X-H torsion
[ 10167 10162 10161 10158 ] final -142.74 input  -65.29 | X-H torsion
[ 10718 10713 10712 10709 ] final  166.26 input   66.30 | X-H torsion
[ 10763 10752 10751 10750 ] final    1.30 input  -60.55 | X-H torsion
[ 11005 11000 10999 10996 ] final  171.35 input  -57.11 | X-H torsion

> <Gold.Protein.ActiveResidues>
 VAL166  LYS551  ARG553  GLY616  TRP617  ASP618  TYR619  PRO620  LYS621  CYS622 
 ASP623  PHE694  ASN695  SER759  ASP760  ASP761  ALA762  ILE779  LEU786  VAL792 
 PHE793  MET794  SER795  GLU796  ALA797  LYS798  CYS799  TRP800  GLU811  SER814 

> <Gold.Protein.RotatedAtoms>
  151.4229  135.1000  159.9618 H   0  0  0  0  0  0  0  0  0  0  0  0  # atno 6907 bound_to 6896
  152.4982  133.8690  159.7299 H   0  0  0  0  0  0  0  0  0  0  0  0  # atno 6908 bound_to 6896
  150.9210  133.6822  159.2860 H   0  0  0  0  0  0  0  0  0  0  0  0  # atno 6909 bound_to 6896
  145.4771  140.9558  143.1885 H   0  0  0  0  0  0  0  0  0  0  0  0  # atno 7974 bound_to 7965
  155.1704  140.3291  155.4394 H   0  0  0  0  0  0  0  0  0  0  0  0  # atno 8008 bound_to 7997
  156.2512  140.1944  156.6757 H   0  0  0  0  0  0  0  0  0  0  0  0  # atno 8009 bound_to 7997
  154.6342  140.0578  156.9755 H   0  0  0  0  0  0  0  0  0  0  0  0  # atno 8010 bound_to 7997
  139.8059  143.7769  152.2661 H   0  0  0  0  0  0  0  0  0  0  0  0  # atno 10167 bound_to 10162
  157.0684  131.0359  151.2621 H   0  0  0  0  0  0  0  0  0  0  0  0  # atno 10718 bound_to 10713
  153.3098  135.6962  153.7126 H   0  0  0  0  0  0  0  0  0  0  0  0  # atno 10763 bound_to 10752
  153.6008  135.3462  155.2945 H   0  0  0  0  0  0  0  0  0  0  0  0  # atno 10764 bound_to 10752
  154.8572  135.4340  154.2232 H   0  0  0  0  0  0  0  0  0  0  0  0  # atno 10765 bound_to 10752
  140.3181  134.7460  157.4043 H   0  0  0  0  0  0  0  0  0  0  0  0  # atno 11005 bound_to 11000
  144.7911  139.6327  143.7113 LP  0  0  0  0  0  0  0  0  0  0  0  0  # atno 17320 bound_to 7965
  146.2363  139.5912  142.9521 LP  0  0  0  0  0  0  0  0  0  0  0  0  # atno 17321 bound_to 7965
  139.7903  144.7412  150.9964 LP  0  0  0  0  0  0  0  0  0  0  0  0  # atno 17342 bound_to 10162
  140.7819  143.4449  151.0497 LP  0  0  0  0  0  0  0  0  0  0  0  0  # atno 17343 bound_to 10162
  157.4898  130.7815  149.7496 LP  0  0  0  0  0  0  0  0  0  0  0  0  # atno 17370 bound_to 10713
  155.9957  130.3910  150.2807 LP  0  0  0  0  0  0  0  0  0  0  0  0  # atno 17371 bound_to 10713
  140.0966  134.5529  155.8393 LP  0  0  0  0  0  0  0  0  0  0  0  0  # atno 17394 bound_to 11000
  141.2093  133.6682  156.6429 LP  0  0  0  0  0  0  0  0  0  0  0  0  # atno 17395 bound_to 11000

$$$$
