#       Name:                AV-unprocessed.smi:1919
#       Creating user name   scv26
#       Creation time:       Fri Mar 27 09:52:00 2020


#       File generated by GOLD software.
#

@<TRIPOS>MOLECULE
AV-unprocessed.smi:1919
    41    43     1
SMALL
NO_CHARGES


@<TRIPOS>ATOM
      1 ****        -1.0897   4.3362   1.1187 O.3            1 S1                 0.0000
      2 ****        -0.4799   3.0613   1.1118 C.3            1 S1                 0.0000
      3 ****        -1.4463   1.9218   0.9522 C.2            1 S1                 0.0000
      4 ****        -2.7712   2.0775   1.0152 N.2            1 S1                 0.0000
      5 ****        -3.2412   0.7934   0.8242 C.ar           1 S1                 0.0000
      6 ****        -4.5630   0.2953   0.7807 C.ar           1 S1                 0.0000
      7 ****        -4.8014  -1.0788   0.5709 C.ar           1 S1                 0.0000
      8 ****        -3.7241  -1.9728   0.4027 C.ar           1 S1                 0.0000
      9 ****        -2.3992  -1.4969   0.4422 C.ar           1 S1                 0.0000
     10 ****        -2.1674  -0.1241   0.6510 C.ar           1 S1                 0.0000
     11 ****        -1.0165   0.6518   0.7403 N.pl3          1 S1                 0.0000
     12 ****         0.3517   0.1644   0.6270 C.3            1 S1                 0.0000
     13 ****         0.7677  -0.0973  -0.8343 C.3            1 S1                 0.0000
     14 ****         0.6484   1.0897  -1.5943 O.3            1 S1                 0.0000
     15 ****         2.1646  -0.6921  -0.9126 C.ar           1 S1                 0.0000
     16 ****         3.3059   0.1289  -0.7756 C.ar           1 S1                 0.0000
     17 ****         4.5961  -0.4321  -0.8444 C.ar           1 S1                 0.0000
     18 ****         4.7526  -1.8166  -1.0475 C.ar           1 S1                 0.0000
     19 ****         3.6182  -2.6404  -1.1789 C.ar           1 S1                 0.0000
     20 ****         3.7673  -3.9724  -1.3699 F              1 S1                 0.0000
     21 ****         2.3280  -2.0799  -1.1107 C.ar           1 S1                 0.0000
     22 ****        -0.4160   4.9906   1.2198 H              1 S1                 0.0000
     23 ****         0.2469   3.0380   0.3003 H              1 S1                 0.0000
     24 ****         0.0676   2.9328   2.0455 H              1 S1                 0.0000
     25 ****        -5.3944   0.9723   0.9092 H              1 S1                 0.0000
     26 ****        -5.8159  -1.4484   0.5391 H              1 S1                 0.0000
     27 ****        -3.9155  -3.0239   0.2434 H              1 S1                 0.0000
     28 ****        -1.5717  -2.1786   0.3131 H              1 S1                 0.0000
     29 ****         1.0343   0.8679   1.1035 H              1 S1                 0.0000
     30 ****         0.4245  -0.7599   1.2017 H              1 S1                 0.0000
     31 ****         0.0707  -0.8127  -1.2731 H              1 S1                 0.0000
     32 ****         0.8008   0.8799  -2.5030 H              1 S1                 0.0000
     33 ****         3.1956   1.1916  -0.6159 H              1 S1                 0.0000
     34 ****         5.4658   0.1998  -0.7404 H              1 S1                 0.0000
     35 ****         5.7419  -2.2469  -1.0999 H              1 S1                 0.0000
     36 ****         1.4641  -2.7207  -1.2103 H              1 S1                 0.0000
     37 ****        -1.7357   4.3969   1.8796 LP             1 S1                 0.0000
     38 ****        -1.5752   4.4825   0.2568 LP             1 S1                 0.0000
     39 ****        -3.2938   2.9170   1.1639 LP             1 S1                 0.0000
     40 ****         1.3244   1.7583  -1.2844 LP             1 S1                 0.0000
     41 ****        -0.2702   1.4695  -1.4852 LP             1 S1                 0.0000
@<TRIPOS>BOND
    1    1    2 1     
    2    1   22 1     
    3    2    3 1     
    4    2   23 1     
    5    2   24 1     
    6    3   11 1     
    7    3    4 2     
    8    4    5 1     
    9    5   10 ar    
   10    5    6 ar    
   11    6    7 ar    
   12    6   25 1     
   13    7    8 ar    
   14    7   26 1     
   15    8    9 ar    
   16    8   27 1     
   17    9   10 ar    
   18    9   28 1     
   19   10   11 1     
   20   11   12 1     
   21   12   13 1     
   22   12   29 1     
   23   12   30 1     
   24   13   14 1     
   25   13   15 1     
   26   13   31 1     
   27   14   32 1     
   28   15   21 ar    
   29   15   16 ar    
   30   16   17 ar    
   31   16   33 1     
   32   17   18 ar    
   33   17   34 1     
   34   18   19 ar    
   35   18   35 1     
   36   19   20 1     
   37   19   21 ar    
   38   21   36 1     
   39    1   37 1     
   40    1   38 1     
   41    4   39 1     
   42   14   40 1     
   43   14   41 1     
@<TRIPOS>SUBSTRUCTURE
      1 S1             1
@<TRIPOS>SET
LONE_PAIRS      STATIC     ATOMS    <user>   **** ""
5 37 38 39 40 41
DONOR_HYDROGENS      STATIC     ATOMS    <user>   **** ""
2 22 32
ATOM$BLUE        STATIC     ATOMS    COLORGROUP SYSTEM
5 37 38 39 40 41
ATOM$RED        STATIC     ATOMS    COLORGROUP SYSTEM
2 22 32
