#       Name:                AV-unprocessed.smi:1301
#       Creating user name   scv26
#       Creation time:       Fri Mar 27 04:58:17 2020


#       File generated by GOLD software.
#

@<TRIPOS>MOLECULE
AV-unprocessed.smi:1301
    50    51     1
SMALL
NO_CHARGES


@<TRIPOS>ATOM
      1 ****        -7.6251   2.7142  -2.6606 C.3            1 S1                 0.0000
      2 ****        -6.5434   2.2427  -1.7497 C.2            1 S1                 0.0000
      3 ****        -5.7101   1.1608  -1.7831 C.2            1 S1                 0.0000
      4 ****        -4.9200   1.3230  -0.6125 C.2            1 S1                 0.0000
      5 ****        -3.9524   0.4922  -0.1949 N.pl3          1 S1                -1.0000
      6 ****        -2.6872   0.6376  -0.6499 C.2            1 S1                 0.0000
      7 ****        -2.2867   1.4956  -1.4400 O.2            1 S1                 0.0000
      8 ****        -1.8317  -0.2693  -0.1568 N.am           1 S1                 0.0000
      9 ****        -0.4080  -0.3617  -0.4651 C.3            1 S1                 0.0000
     10 ****         0.0870  -1.7924  -0.2035 C.3            1 S1                 0.0000
     11 ****         1.6038  -1.9048  -0.4252 C.3            1 S1                 0.0000
     12 ****         2.3446  -0.9366   0.4240 N.4            1 S1                 1.0000
     13 ****         3.8159  -1.1252   0.3370 C.3            1 S1                 0.0000
     14 ****         4.5735  -0.5859   1.5702 C.3            1 S1                 0.0000
     15 ****         6.0910  -0.6861   1.3559 C.3            1 S1                 0.0000
     16 ****         4.1655  -1.3166   2.8607 C.3            1 S1                 0.0000
     17 ****         1.9114   0.4607   0.1571 C.3            1 S1                 0.0000
     18 ****         0.4017   0.6276   0.3922 C.3            1 S1                 0.0000
     19 ****        -5.2551   2.3996   0.0790 N.2            1 S1                 0.0000
     20 ****        -6.2909   2.9992  -0.6475 O.3            1 S1                 0.0000
     21 ****        -8.3676   1.9313  -2.8145 H              1 S1                 0.0000
     22 ****        -7.2165   2.9885  -3.6332 H              1 S1                 0.0000
     23 ****        -8.1344   3.5864  -2.2500 H              1 S1                 0.0000
     24 ****        -5.6690   0.3790  -2.5267 H              1 S1                 0.0000
     25 ****        -2.2061  -0.9518   0.4859 H              1 S1                 0.0000
     26 ****        -0.2518  -0.1331  -1.5212 H              1 S1                 0.0000
     27 ****        -0.1515  -2.0873   0.8198 H              1 S1                 0.0000
     28 ****        -0.4341  -2.4935  -0.8566 H              1 S1                 0.0000
     29 ****         1.9213  -2.9212  -0.1899 H              1 S1                 0.0000
     30 ****         1.8460  -1.7307  -1.4749 H              1 S1                 0.0000
     31 ****         4.0417  -2.1882   0.2404 H              1 S1                 0.0000
     32 ****         4.1825  -0.6547  -0.5768 H              1 S1                 0.0000
     33 ****         4.3463   0.4717   1.6982 H              1 S1                 0.0000
     34 ****         6.4080  -1.7224   1.2334 H              1 S1                 0.0000
     35 ****         6.6365  -0.2699   2.2035 H              1 S1                 0.0000
     36 ****         6.4003  -0.1361   0.4665 H              1 S1                 0.0000
     37 ****         4.3667  -2.3863   2.7926 H              1 S1                 0.0000
     38 ****         3.1039  -1.1898   3.0738 H              1 S1                 0.0000
     39 ****         4.7160  -0.9308   3.7194 H              1 S1                 0.0000
     40 ****         2.4443   1.1564   0.8037 H              1 S1                 0.0000
     41 ****         2.1610   0.7318  -0.8700 H              1 S1                 0.0000
     42 ****         0.1076   1.6529   0.1645 H              1 S1                 0.0000
     43 ****         0.1793   0.4708   1.4490 H              1 S1                 0.0000
     44 ****         2.0866  -1.1479   1.3774 H              1 S1                 0.0000
     45 ****        -4.1676  -0.2368   0.4548 LP             1 S1                 0.0000
     46 ****        -2.9239   2.1728  -1.8080 LP             1 S1                 0.0000
     47 ****        -1.3248   1.5141  -1.7127 LP             1 S1                 0.0000
     48 ****        -4.8540   2.7177   0.9380 LP             1 S1                 0.0000
     49 ****        -7.1128   3.0529  -0.0804 LP             1 S1                 0.0000
     50 ****        -6.0176   3.9198  -0.9264 LP             1 S1                 0.0000
@<TRIPOS>BOND
    1    1    2 1     
    2    1   21 1     
    3    1   22 1     
    4    1   23 1     
    5    2   20 1     
    6    2    3 2     
    7    3    4 1     
    8    3   24 1     
    9    4    5 1     
   10    4   19 2     
   11    5    6 1     
   12    6    7 2     
   13    6    8 am    
   14    8    9 1     
   15    8   25 1     
   16    9   18 1     
   17    9   10 1     
   18    9   26 1     
   19   10   11 1     
   20   10   27 1     
   21   10   28 1     
   22   11   12 1     
   23   11   29 1     
   24   11   30 1     
   25   12   13 1     
   26   12   17 1     
   27   12   44 1     
   28   13   14 1     
   29   13   31 1     
   30   13   32 1     
   31   14   15 1     
   32   14   16 1     
   33   14   33 1     
   34   15   34 1     
   35   15   35 1     
   36   15   36 1     
   37   16   37 1     
   38   16   38 1     
   39   16   39 1     
   40   17   18 1     
   41   17   40 1     
   42   17   41 1     
   43   18   42 1     
   44   18   43 1     
   45   19   20 1     
   46    5   45 1     
   47    7   46 1     
   48    7   47 1     
   49   19   48 1     
   50   20   49 1     
   51   20   50 1     
@<TRIPOS>SUBSTRUCTURE
      1 S1             1
@<TRIPOS>SET
LONE_PAIRS      STATIC     ATOMS    <user>   **** ""
6 45 46 47 48 49 50
DONOR_HYDROGENS      STATIC     ATOMS    <user>   **** ""
2 25 44
ATOM$BLUE        STATIC     ATOMS    COLORGROUP SYSTEM
6 45 46 47 48 49 50
ATOM$RED        STATIC     ATOMS    COLORGROUP SYSTEM
2 25 44
