AV-unprocessed.smi:202|AV-procd|sdf|1581|dock1
  -GOLD-   2262019473D 1   1.00000     0.00000
 Structure written by MMmdl.
 49 52  0  0  0  0  0  0  0  0  1 V2000
  153.0515  141.8853  159.1674 C   0  0  0  0  0  0  0  0  0  0  0  0
  151.5965  142.0723  158.7134 C   0  0  0  0  0  0  0  0  0  0  0  0
  150.9782  143.2380  159.5110 C   0  0  0  0  0  0  0  0  0  0  0  0
  151.8074  144.5383  159.5868 C   0  0  0  0  0  0  0  0  0  0  0  0
  150.9720  145.5590  159.7763 F   0  0  0  0  0  0  0  0  0  0  0  0
  152.6627  144.5059  160.6079 F   0  0  0  0  0  0  0  0  0  0  0  0
  152.4789  144.7630  158.4585 F   0  0  0  0  0  0  0  0  0  0  0  0
  151.4031  142.1541  157.1894 C   0  0  0  0  0  0  0  0  0  0  0  0
  151.1167  140.7286  157.2062 N   0  0  0  0  0  0  0  0  0  0  0  0
  150.0882  140.3355  156.3070 C   0  0  0  0  0  0  0  0  0  0  0  0
  150.2637  140.3887  154.9581 N   0  0  0  0  0  0  0  0  0  0  0  0
  149.2900  140.0104  154.1249 C   0  0  0  0  0  0  0  0  0  0  0  0
  148.0751  139.5463  154.4193 N   0  0  0  0  0  0  0  0  0  0  0  0
  147.8893  139.4803  155.7678 C   0  0  0  0  0  0  0  0  0  0  0  0
  148.8332  139.8524  156.7665 C   0  0  0  0  0  0  0  0  0  0  0  0
  148.2918  139.6500  158.0292 N   0  0  0  0  0  0  0  0  0  0  0  0
  147.0963  139.1834  157.7914 C   0  0  0  0  0  0  0  0  0  0  0  0
  146.7740  139.0415  156.4602 N   0  0  0  0  0  0  0  0  0  0  0  0
  145.5170  138.5485  155.9161 C   0  0  0  0  0  0  0  0  0  0  0  0
  144.4728  139.6601  155.6209 C   0  0  0  0  0  0  0  0  0  0  0  0
  145.0171  140.5026  154.6214 O   0  0  0  0  0  0  0  0  0  0  0  0
  143.1610  139.0752  155.0603 C   0  0  0  0  0  0  0  0  0  0  0  0
  142.3244  138.3996  156.1621 C   0  0  0  0  0  0  0  0  0  0  0  0
  142.0655  139.3244  157.2127 O   0  0  0  0  0  0  0  0  0  0  0  0
  143.2498  139.7886  157.8516 C   0  0  0  0  0  0  0  0  0  0  0  0
  144.1302  140.5437  156.8400 C   0  0  0  0  0  0  0  0  0  0  0  0
  150.7588  140.7855  158.6172 C   0  0  0  0  0  0  0  0  0  0  0  0
  153.5837  142.8345  159.2374 H   0  0  0  0  0  0  0  0  0  0  0  0
  153.6094  141.2595  158.4699 H   0  0  0  0  0  0  0  0  0  0  0  0
  153.1126  141.3933  160.1375 H   0  0  0  0  0  0  0  0  0  0  0  0
  149.9882  143.4728  159.1179 H   0  0  0  0  0  0  0  0  0  0  0  0
  150.8000  142.9067  160.5350 H   0  0  0  0  0  0  0  0  0  0  0  0
  150.5505  142.7659  156.8888 H   0  0  0  0  0  0  0  0  0  0  0  0
  152.3039  142.4112  156.6316 H   0  0  0  0  0  0  0  0  0  0  0  0
  149.5177  140.0891  153.0720 H   0  0  0  0  0  0  0  0  0  0  0  0
  146.4126  138.9237  158.5866 H   0  0  0  0  0  0  0  0  0  0  0  0
  145.7421  137.9958  155.0032 H   0  0  0  0  0  0  0  0  0  0  0  0
  145.1147  137.8147  156.6140 H   0  0  0  0  0  0  0  0  0  0  0  0
  144.3510  140.6664  153.9714 H   0  0  0  0  0  0  0  0  0  0  0  0
  142.5614  139.8737  154.6200 H   0  0  0  0  0  0  0  0  0  0  0  0
  143.3664  138.3685  154.2552 H   0  0  0  0  0  0  0  0  0  0  0  0
  141.3721  138.0636  155.7517 H   0  0  0  0  0  0  0  0  0  0  0  0
  142.8236  137.5138  156.5563 H   0  0  0  0  0  0  0  0  0  0  0  0
  142.9681  140.4537  158.6681 H   0  0  0  0  0  0  0  0  0  0  0  0
  143.7846  138.9510  158.2995 H   0  0  0  0  0  0  0  0  0  0  0  0
  145.0299  140.9215  157.3256 H   0  0  0  0  0  0  0  0  0  0  0  0
  143.5805  141.4254  156.5070 H   0  0  0  0  0  0  0  0  0  0  0  0
  151.1515  139.9512  159.1989 H   0  0  0  0  0  0  0  0  0  0  0  0
  149.6983  140.9500  158.8118 H   0  0  0  0  0  0  0  0  0  0  0  0
  1  2  1  0  0  0  0
  1 28  1  0  0  0  0
  1 29  1  0  0  0  0
  1 30  1  0  0  0  0
  2 27  1  0  0  0  0
  2  3  1  0  0  0  0
  2  8  1  0  0  0  0
  3  4  1  0  0  0  0
  3 31  1  0  0  0  0
  3 32  1  0  0  0  0
  4  5  1  0  0  0  0
  4  6  1  0  0  0  0
  4  7  1  0  0  0  0
  8  9  1  0  0  0  0
  8 33  1  0  0  0  0
  8 34  1  0  0  0  0
  9 10  1  0  0  0  0
  9 27  1  0  0  0  0
 10 15  1  0  0  0  0
 10 11  2  0  0  0  0
 11 12  1  0  0  0  0
 12 13  2  0  0  0  0
 12 35  1  0  0  0  0
 13 14  1  0  0  0  0
 14 18  1  0  0  0  0
 14 15  2  0  0  0  0
 15 16  1  0  0  0  0
 16 17  2  0  0  0  0
 17 18  1  0  0  0  0
 17 36  1  0  0  0  0
 18 19  1  0  0  0  0
 19 20  1  0  0  0  0
 19 37  1  0  0  0  0
 19 38  1  0  0  0  0
 20 26  1  0  0  0  0
 20 21  1  0  0  0  0
 20 22  1  0  0  0  0
 21 39  1  0  0  0  0
 22 23  1  0  0  0  0
 22 40  1  0  0  0  0
 22 41  1  0  0  0  0
 23 24  1  0  0  0  0
 23 42  1  0  0  0  0
 23 43  1  0  0  0  0
 24 25  1  0  0  0  0
 25 26  1  0  0  0  0
 25 44  1  0  0  0  0
 25 45  1  0  0  0  0
 26 46  1  0  0  0  0
 26 47  1  0  0  0  0
 27 48  1  0  0  0  0
 27 49  1  0  0  0  0
M  END
> <s_m_source_file>
AV-unprocessed.smi

> <i_m_source_file_index>
202

> <i_lp_mmshare_version>
43012

> <i_f3d_flags>
0

> <s_epik_input>
RkMoRikoRilbQ0gyXUMxKFtDSDNdKVtDSDJdTihbQ0gyXTEpYyhuW2NIXW4yKWMoYzIzKW5bY0hdbjNbQ0gyXUM0KFtPSF0pW0NIMl1bQ0gyXU9bQ0gyXVtDSDJdNA==

> <s_epik_cmdline>
J2VwaWtfcHl0aG9uJywgJy1waCcsICc3LjAnLCAnLXRuJywgJzgnLCAnLW1hJywgJzIwMCcsICctbWV0YWxfYmluZGluZycsICctaW1hZScsICc8aW5maWxlLm1hZT4nLCAnLW9tYWUnLCAnPG91dGZpbGUubWFlPic=

> <r_lp_tautomer_probability>
1

> <r_epik_Ionization_Penalty>
0.00132063

> <r_epik_Ionization_Penalty_Charging>
0

> <r_epik_Ionization_Penalty_Neutral>
0.00132063

> <r_epik_State_Penalty>
0.000845314

> <r_epik_Charging_Adjusted_Penalty>
0.000845314

> <i_epik_Tot_Q>
0

> <i_epik_Tot_abs_Q>
0

> <r_epik_Metal_State_Penalty>
-0

> <b_epik_Metal_Only>
0

> <s_lp_Force_Field>
OPLS_2005

> <r_lp_Energy>
42.0456

> <b_lp_Chiralities_Consistent>
1

> <s_lp_Variant>
AV-unprocessed.smi:202-1

> <Gold.Version>
5.8.1

> <Gold.Id.Protein>
6NUR|6NUR_protein|mol2

> <Gold.PLP.Fitness>
36.2642

> <Gold.PLP.PLP>
-29.4169

> <Gold.PLP.part.hbond>
-2.5257

> <Gold.PLP.part.metal>
0.0000

> <Gold.PLP.part.buried>
-3.0561

> <Gold.PLP.part.nonpolar>
-23.9312

> <Gold.PLP.part.repulsive>
0.2081

> <Gold.PLP.ligand.clash>
0.0000

> <Gold.PLP.ligand.torsion>
1.0872

> <Gold.PLP.Chemscore.Hbond>
1.9100

> <Gold.PLP.Chemscore.CHOScore>
0.6222

> <Gold.PLP.Chemscore.Metal>
0.0000

> <Gold.Chemscore.Hbonds>
donor molecule, donor type, donor heavy atom, donor atom, acceptor molecule, acceptor atom, score
      L1  H    21    39       P1 10175  1.00
      P1  H  7989  7998       L1    11  0.75
      L1  C    12    35       P1  7957  0.71

> <Gold.PLP.Chemscore.Internal.Correction>
1.4251

> <Gold.Rescore>
     Score         DG    S(hbond)    S(metal)    S(lipo)     H(rot)  DE(clash)    DE(int)     intcor
      5.63      -9.50       1.28        0.00      54.46       2.58       0.22       3.65       ----

> <Gold.Chemscore.Fitness>
5.6332

> <Gold.Chemscore.DG>
-9.4987

> <Gold.Chemscore.ZeroCoef>
-5.4800

> <Gold.Chemscore.Hbond>
1.2763

> <Gold.Chemscore.Metal>
0.0000

> <Gold.Chemscore.Lipo>
54.4626

> <Gold.Chemscore.Internal_Hbond>
0.0000

> <Gold.Chemscore.DEClash>
0.2166

> <Gold.Chemscore.DEInternal>
3.6490

> <Gold.Chemscore.Rot>
2.5845

> <Gold.Chemscore.Internal.Correction>
   9.000000E+99

> <Gold.Chemscore.Hbonds>
donor molecule, donor type, donor heavy atom, donor atom, acceptor molecule, acceptor atom, score
      L1  H    21    39       P1 10175  0.96
      P1  H  7989  7998       L1    11  0.10

> <Gold.Chemscore.Hbond.Weighted>
-4.2629

> <Gold.Chemscore.Metal.Weighted>
-0.0000

> <Gold.Chemscore.Lipo.Weighted>
-6.3721

> <Gold.Chemscore.Internal_Hbond.Weighted>
0.0000

> <Gold.Chemscore.DEClash.Weighted>
0.2166

> <Gold.Chemscore.DEInternal.Weighted>
3.6490

> <Gold.Chemscore.Rot.Weighted>
6.6163

> <Gold.Chemscore.Internal.Correction.Weighted>
   9.000000E+99

> <Gold.Protein.RotatedTorsions>
[ 6907 6896 6895 6894 ] final -103.52 input  -60.11 | X-H torsion
[ 7974 7965 7964 7962 ] final  151.60 input  175.53 | X-H torsion
[ 8008 7997 7996 7995 ] final -168.23 input   59.86 | X-H torsion
[ 10167 10162 10161 10158 ] final   22.78 input  -65.29 | X-H torsion
[ 10718 10713 10712 10709 ] final  175.14 input   66.30 | X-H torsion
[ 10763 10752 10751 10750 ] final -119.55 input  -60.55 | X-H torsion
[ 11005 11000 10999 10996 ] final  -69.64 input  -57.11 | X-H torsion

> <Gold.Protein.ActiveResidues>
 VAL166  LYS551  ARG553  GLY616  TRP617  ASP618  TYR619  PRO620  LYS621  CYS622 
 ASP623  PHE694  ASN695  SER759  ASP760  ASP761  ALA762  ILE779  LEU786  VAL792 
 PHE793  MET794  SER795  GLU796  ALA797  LYS798  CYS799  TRP800  GLU811  SER814 

> <Gold.Protein.RotatedAtoms>
  150.7244  134.0416  159.3767 H   0  0  0  0  0  0  0  0  0  0  0  0  # atno 6907 bound_to 6896
  151.8390  135.0594  160.0455 H   0  0  0  0  0  0  0  0  0  0  0  0  # atno 6908 bound_to 6896
  152.2877  133.5495  159.5574 H   0  0  0  0  0  0  0  0  0  0  0  0  # atno 6909 bound_to 6896
  144.8281  139.6558  143.6071 H   0  0  0  0  0  0  0  0  0  0  0  0  # atno 7974 bound_to 7965
  155.8885  140.1021  157.1435 H   0  0  0  0  0  0  0  0  0  0  0  0  # atno 8008 bound_to 7997
  154.4012  140.1315  156.4350 H   0  0  0  0  0  0  0  0  0  0  0  0  # atno 8009 bound_to 7997
  155.7561  140.3464  155.5177 H   0  0  0  0  0  0  0  0  0  0  0  0  # atno 8010 bound_to 7997
  140.5321  143.9823  150.6471 H   0  0  0  0  0  0  0  0  0  0  0  0  # atno 10167 bound_to 10162
  156.9393  130.9996  151.2972 H   0  0  0  0  0  0  0  0  0  0  0  0  # atno 10718 bound_to 10713
  154.8620  135.4234  154.2317 H   0  0  0  0  0  0  0  0  0  0  0  0  # atno 10763 bound_to 10752
  153.3300  135.6987  153.6961 H   0  0  0  0  0  0  0  0  0  0  0  0  # atno 10764 bound_to 10752
  153.5982  135.3542  155.2909 H   0  0  0  0  0  0  0  0  0  0  0  0  # atno 10765 bound_to 10752
  141.1558  133.6769  156.6630 H   0  0  0  0  0  0  0  0  0  0  0  0  # atno 11005 bound_to 11000
  146.2586  139.6358  142.9378 LP  0  0  0  0  0  0  0  0  0  0  0  0  # atno 17320 bound_to 7965
  145.4955  141.0438  143.2569 LP  0  0  0  0  0  0  0  0  0  0  0  0  # atno 17321 bound_to 7965
  140.3200  143.3143  152.0793 LP  0  0  0  0  0  0  0  0  0  0  0  0  # atno 17342 bound_to 10162
  139.4958  144.6580  151.6530 LP  0  0  0  0  0  0  0  0  0  0  0  0  # atno 17343 bound_to 10162
  157.5796  130.8367  149.8503 LP  0  0  0  0  0  0  0  0  0  0  0  0  # atno 17370 bound_to 10713
  156.0412  130.3738  150.1432 LP  0  0  0  0  0  0  0  0  0  0  0  0  # atno 17371 bound_to 10713
  140.3233  134.7990  157.4269 LP  0  0  0  0  0  0  0  0  0  0  0  0  # atno 17394 bound_to 11000
  140.1078  134.5386  155.8293 LP  0  0  0  0  0  0  0  0  0  0  0  0  # atno 17395 bound_to 11000

$$$$
