#       Name:                AV-unprocessed.smi:2473
#       Creating user name   scv26
#       Creation time:       Fri Mar 27 13:39:00 2020


#       File generated by GOLD software.
#

@<TRIPOS>MOLECULE
AV-unprocessed.smi:2473
    50    51     1
SMALL
NO_CHARGES


@<TRIPOS>ATOM
      1 ****        -2.6732  -2.0155   3.3779 C.3            1 S1                 0.0000
      2 ****        -2.1722  -1.1367   2.2227 C.3            1 S1                 0.0000
      3 ****        -0.6359  -1.0369   2.2202 C.3            1 S1                 0.0000
      4 ****        -0.1346  -0.1444   1.0687 C.3            1 S1                 0.0000
      5 ****         1.3967  -0.0539   1.0593 C.2            1 S1                 0.0000
      6 ****         2.0773  -1.0692   0.9111 O.2            1 S1                 0.0000
      7 ****         1.9217   1.1760   1.1815 N.am           1 S1                 0.0000
      8 ****         3.3350   1.5145   1.0337 C.3            1 S1                 0.0000
      9 ****         3.6472   2.0958  -0.3595 C.3            1 S1                 0.0000
     10 ****         3.2543   1.1978  -1.4967 C.2            1 S1                 0.0000
     11 ****         3.9689   0.1429  -1.8764 N.2            1 S1                 0.0000
     12 ****         3.2434  -0.4221  -2.9192 C.2            1 S1                 0.0000
     13 ****         2.1076   0.3188  -3.1384 C.2            1 S1                 0.0000
     14 ****         2.1259   1.3582  -2.2179 N.pl3          1 S1                 0.0000
     15 ****         1.1142   2.3893  -2.0843 C.3            1 S1                 0.0000
     16 ****        -0.6510  -0.6789  -0.2863 C.3            1 S1                 0.0000
     17 ****        -2.1910  -0.8205  -0.3492 C.3            1 S1                 0.0000
     18 ****        -2.8725   0.5651  -0.3819 C.3            1 S1                 0.0000
     19 ****        -2.5668  -1.5577  -1.6496 C.3            1 S1                 0.0000
     20 ****        -2.6816  -1.6551   0.8609 C.3            1 S1                 0.0000
     21 ****        -2.3013  -3.0367   3.2909 H              1 S1                 0.0000
     22 ****        -3.7627  -2.0574   3.3950 H              1 S1                 0.0000
     23 ****        -2.3451  -1.6225   4.3406 H              1 S1                 0.0000
     24 ****        -2.5762  -0.1377   2.3873 H              1 S1                 0.0000
     25 ****        -0.2927  -0.6362   3.1752 H              1 S1                 0.0000
     26 ****        -0.2073  -2.0370   2.1342 H              1 S1                 0.0000
     27 ****        -0.5254   0.8620   1.2225 H              1 S1                 0.0000
     28 ****         1.2839   1.9474   1.3134 H              1 S1                 0.0000
     29 ****         3.5948   2.2439   1.8010 H              1 S1                 0.0000
     30 ****         3.9635   0.6423   1.2203 H              1 S1                 0.0000
     31 ****         3.1593   3.0639  -0.4724 H              1 S1                 0.0000
     32 ****         4.7168   2.2938  -0.4354 H              1 S1                 0.0000
     33 ****         3.5910  -1.3099  -3.4264 H              1 S1                 0.0000
     34 ****         1.3079   0.1934  -3.8534 H              1 S1                 0.0000
     35 ****         0.2833   2.1901  -2.7615 H              1 S1                 0.0000
     36 ****         1.5434   3.3611  -2.3285 H              1 S1                 0.0000
     37 ****         0.7330   2.4098  -1.0633 H              1 S1                 0.0000
     38 ****        -0.3097  -0.0322  -1.0955 H              1 S1                 0.0000
     39 ****        -0.1991  -1.6539  -0.4776 H              1 S1                 0.0000
     40 ****        -3.9563   0.4685  -0.4547 H              1 S1                 0.0000
     41 ****        -2.5392   1.1468  -1.2420 H              1 S1                 0.0000
     42 ****        -2.6636   1.1589   0.5065 H              1 S1                 0.0000
     43 ****        -3.6463  -1.6862  -1.7362 H              1 S1                 0.0000
     44 ****        -2.1160  -2.5499  -1.6931 H              1 S1                 0.0000
     45 ****        -2.2294  -1.0080  -2.5291 H              1 S1                 0.0000
     46 ****        -2.3496  -2.6876   0.7402 H              1 S1                 0.0000
     47 ****        -3.7717  -1.6925   0.8655 H              1 S1                 0.0000
     48 ****         1.6321  -1.9573   0.7963 LP             1 S1                 0.0000
     49 ****         3.0753  -1.0058   0.9056 LP             1 S1                 0.0000
     50 ****         4.8374  -0.1745  -1.4956 LP             1 S1                 0.0000
@<TRIPOS>BOND
    1    1    2 1     
    2    1   21 1     
    3    1   22 1     
    4    1   23 1     
    5    2   20 1     
    6    2    3 1     
    7    2   24 1     
    8    3    4 1     
    9    3   25 1     
   10    3   26 1     
   11    4    5 1     
   12    4   16 1     
   13    4   27 1     
   14    5    6 2     
   15    5    7 am    
   16    7    8 1     
   17    7   28 1     
   18    8    9 1     
   19    8   29 1     
   20    8   30 1     
   21    9   10 1     
   22    9   31 1     
   23    9   32 1     
   24   10   14 1     
   25   10   11 2     
   26   11   12 1     
   27   12   13 2     
   28   12   33 1     
   29   13   14 1     
   30   13   34 1     
   31   14   15 1     
   32   15   35 1     
   33   15   36 1     
   34   15   37 1     
   35   16   17 1     
   36   16   38 1     
   37   16   39 1     
   38   17   18 1     
   39   17   19 1     
   40   17   20 1     
   41   18   40 1     
   42   18   41 1     
   43   18   42 1     
   44   19   43 1     
   45   19   44 1     
   46   19   45 1     
   47   20   46 1     
   48   20   47 1     
   49    6   48 1     
   50    6   49 1     
   51   11   50 1     
@<TRIPOS>SUBSTRUCTURE
      1 S1             1
@<TRIPOS>SET
LONE_PAIRS      STATIC     ATOMS    <user>   **** ""
3 48 49 50
DONOR_HYDROGENS      STATIC     ATOMS    <user>   **** ""
1 28
ATOM$BLUE        STATIC     ATOMS    COLORGROUP SYSTEM
3 48 49 50
ATOM$RED        STATIC     ATOMS    COLORGROUP SYSTEM
1 28
