AV-unprocessed.smi:1830|AV-procd|sdf|7452|dock3
  -GOLD-   22720 9143D 1   1.00000     0.00000
 Structure written by MMmdl.
 53 56  0  0  0  0  0  0  0  0  2 V2000
  154.5509  141.4011  160.5072 O   0  0  0  0  0  0  0  0  0  0  0  0
  153.8742  140.5920  159.8730 C   0  0  0  0  0  0  0  0  0  0  0  0
  154.0032  139.2636  159.9934 N   0  0  0  0  0  0  0  0  0  0  0  0
  154.9263  138.5920  160.9021 C   0  0  0  0  0  0  0  0  0  0  0  0
  154.4464  137.1746  161.2599 C   0  0  2  0  0  0  0  0  0  0  0  0
  154.4757  136.9214  162.7842 C   0  0  0  0  0  0  0  0  0  0  0  0
  154.1202  135.5427  163.0587 N   0  0  0  0  0  0  0  0  0  0  0  0
  154.1700  135.1148  164.4371 C   0  0  0  0  0  0  0  0  0  0  0  0
  154.1588  133.5780  164.3577 C   0  0  0  0  0  0  0  0  0  0  0  0
  154.6183  133.2630  162.9165 C   0  0  0  0  0  0  0  0  0  0  0  0
  155.0101  134.6403  162.3790 C   0  0  1  0  0  0  0  0  0  0  0  0
  154.9496  134.8574  160.8600 C   0  0  0  0  0  0  0  0  0  0  0  0
  155.2874  136.2218  160.5960 O   0  0  0  0  0  0  0  0  0  0  0  0
  152.9069  140.9083  158.9961 N   0  0  0  0  0  0  0  0  0  0  0  0
  152.4048  142.1986  158.6616 C   0  0  0  0  0  0  0  0  0  0  0  0
  152.8407  143.3630  159.3461 C   0  0  0  0  0  0  0  0  0  0  0  0
  152.3017  144.6194  159.0124 C   0  0  0  0  0  0  0  0  0  0  0  0
  151.3369  144.6962  157.9940 C   0  0  0  0  0  0  0  0  0  0  0  0
  150.9599  143.5753  157.3454 N   0  3  0  0  0  0  0  0  0  0  0  0
  151.4526  142.3391  157.6093 C   0  0  0  0  0  0  0  0  0  0  0  0
  150.9705  141.2604  156.8322 N   0  0  0  0  0  0  0  0  0  0  0  0
  149.8276  141.4437  155.9447 C   0  0  0  0  0  0  0  0  0  0  0  0
  149.8281  140.2164  155.0377 C   0  0  0  0  0  0  0  0  0  0  0  0
  151.3179  139.9385  154.8637 C   0  0  0  0  0  0  0  0  0  0  0  0
  151.9241  140.3467  156.2104 C   0  0  0  0  0  0  0  0  0  0  0  0
  153.4040  138.6705  159.4382 H   0  0  0  0  0  0  0  0  0  0  0  0
  155.9053  138.5452  160.4245 H   0  0  0  0  0  0  0  0  0  0  0  0
  155.0504  139.1905  161.8062 H   0  0  0  0  0  0  0  0  0  0  0  0
  153.4235  137.0376  160.9046 H   0  0  0  0  0  0  0  0  0  0  0  0
  155.4709  137.1354  163.1770 H   0  0  0  0  0  0  0  0  0  0  0  0
  153.7818  137.5922  163.2915 H   0  0  0  0  0  0  0  0  0  0  0  0
  155.0958  135.4552  164.9039 H   0  0  0  0  0  0  0  0  0  0  0  0
  153.3339  135.5126  165.0131 H   0  0  0  0  0  0  0  0  0  0  0  0
  154.8237  133.1424  165.1039 H   0  0  0  0  0  0  0  0  0  0  0  0
  153.1565  133.1846  164.5310 H   0  0  0  0  0  0  0  0  0  0  0  0
  155.4479  132.5564  162.8833 H   0  0  0  0  0  0  0  0  0  0  0  0
  153.7912  132.8445  162.3415 H   0  0  0  0  0  0  0  0  0  0  0  0
  156.0327  134.8426  162.7051 H   0  0  0  0  0  0  0  0  0  0  0  0
  155.6556  134.2039  160.3478 H   0  0  0  0  0  0  0  0  0  0  0  0
  153.9551  134.6370  160.4687 H   0  0  0  0  0  0  0  0  0  0  0  0
  152.3887  140.1300  158.6164 H   0  0  0  0  0  0  0  0  0  0  0  0
  153.5877  143.3158  160.1237 H   0  0  0  0  0  0  0  0  0  0  0  0
  152.6229  145.5097  159.5331 H   0  0  0  0  0  0  0  0  0  0  0  0
  150.8647  145.6137  157.6734 H   0  0  0  0  0  0  0  0  0  0  0  0
  148.8965  141.5328  156.5051 H   0  0  0  0  0  0  0  0  0  0  0  0
  149.9543  142.3432  155.3410 H   0  0  0  0  0  0  0  0  0  0  0  0
  149.3489  139.3768  155.5433 H   0  0  0  0  0  0  0  0  0  0  0  0
  149.3103  140.3852  154.0932 H   0  0  0  0  0  0  0  0  0  0  0  0
  151.5300  138.9020  154.6004 H   0  0  0  0  0  0  0  0  0  0  0  0
  151.7183  140.5744  154.0730 H   0  0  0  0  0  0  0  0  0  0  0  0
  152.9071  140.8017  156.0801 H   0  0  0  0  0  0  0  0  0  0  0  0
  152.0358  139.4693  156.8483 H   0  0  0  0  0  0  0  0  0  0  0  0
  150.2655  143.6652  156.6036 H   0  0  0  0  0  0  0  0  0  0  0  0
  1  2  2  0  0  0  0
  2  3  1  0  0  0  0
  2 14  1  0  0  0  0
  3  4  1  0  0  0  0
  3 26  1  0  0  0  0
  4  5  1  0  0  0  0
  4 27  1  0  0  0  0
  4 28  1  0  0  0  0
  5 13  1  0  0  0  0
  5  6  1  0  0  0  0
  5 29  1  0  0  0  0
  6  7  1  0  0  0  0
  6 30  1  0  0  0  0
  6 31  1  0  0  0  0
  7 11  1  0  0  0  0
  7  8  1  0  0  0  0
  8  9  1  0  0  0  0
  8 32  1  0  0  0  0
  8 33  1  0  0  0  0
  9 10  1  0  0  0  0
  9 34  1  0  0  0  0
  9 35  1  0  0  0  0
 10 11  1  0  0  0  0
 10 36  1  0  0  0  0
 10 37  1  0  0  0  0
 11 12  1  0  0  0  0
 11 38  1  0  0  0  0
 12 13  1  0  0  0  0
 12 39  1  0  0  0  0
 12 40  1  0  0  0  0
 14 15  1  0  0  0  0
 14 41  1  0  0  0  0
 15 20  1  0  0  0  0
 15 16  2  0  0  0  0
 16 17  1  0  0  0  0
 16 42  1  0  0  0  0
 17 18  2  0  0  0  0
 17 43  1  0  0  0  0
 18 19  1  0  0  0  0
 18 44  1  0  0  0  0
 19 20  2  0  0  0  0
 19 53  1  0  0  0  0
 20 21  1  0  0  0  0
 21 25  1  0  0  0  0
 21 22  1  0  0  0  0
 22 23  1  0  0  0  0
 22 45  1  0  0  0  0
 22 46  1  0  0  0  0
 23 24  1  0  0  0  0
 23 47  1  0  0  0  0
 23 48  1  0  0  0  0
 24 25  1  0  0  0  0
 24 49  1  0  0  0  0
 24 50  1  0  0  0  0
 25 51  1  0  0  0  0
 25 52  1  0  0  0  0
M  CHG  1  19   1
M  END
> <s_m_source_file>
AV-unprocessed.smi

> <i_m_source_file_index>
1830

> <i_lp_mmshare_version>
43012

> <i_f3d_flags>
0

> <s_epik_input>
W0NIMl0xW0NIMl1bQ0gyXVtDQEhdKE4xMilbQ0gyXU9bQ0BASF0oW0NIMl0yKVtDSDJdW05IXUMoPU8pW05IXWMzW2NIXVtjSF1bY0hdbmMzTjRbQ0gyXVtDSDJdW0NIMl1bQ0gyXTQ=

> <s_epik_cmdline>
J2VwaWtfcHl0aG9uJywgJy1waCcsICc3LjAnLCAnLXRuJywgJzgnLCAnLW1hJywgJzIwMCcsICctbWV0YWxfYmluZGluZycsICctaW1hZScsICc8aW5maWxlLm1hZT4nLCAnLW9tYWUnLCAnPG91dGZpbGUubWFlPic=

> <r_epik_Ionization_Penalty>
2.19264

> <r_epik_Ionization_Penalty_Charging>
1.12452

> <r_epik_Ionization_Penalty_Neutral>
1.06812

> <r_epik_State_Penalty>
2.334

> <r_epik_Charging_Adjusted_Penalty>
3.45852

> <i_epik_Tot_Q>
1

> <i_epik_Tot_abs_Q>
1

> <r_epik_Metal_State_Penalty>
2.41144

> <b_epik_Metal_Only>
0

> <s_lp_Force_Field>
OPLS_2005

> <r_lp_Energy>
81.6261

> <b_lp_Chiralities_Consistent>
1

> <s_lp_Variant>
AV-unprocessed.smi:1830-21

> <Gold.Version>
5.8.1

> <Gold.Id.Protein>
6NUR|6NUR_protein|mol2

> <Gold.PLP.Fitness>
49.0592

> <Gold.PLP.PLP>
-44.7718

> <Gold.PLP.part.hbond>
-1.4048

> <Gold.PLP.part.metal>
0.0000

> <Gold.PLP.part.buried>
-3.6903

> <Gold.PLP.part.nonpolar>
-39.7261

> <Gold.PLP.part.repulsive>
0.2181

> <Gold.PLP.ligand.clash>
0.0000

> <Gold.PLP.ligand.torsion>
1.0566

> <Gold.PLP.Chemscore.Hbond>
2.0000

> <Gold.PLP.Chemscore.CHOScore>
0.0000

> <Gold.PLP.Chemscore.Metal>
0.0000

> <Gold.Chemscore.Hbonds>
donor molecule, donor type, donor heavy atom, donor atom, acceptor molecule, acceptor atom, score
      L1  H    19    53       P1  8028  1.98

> <Gold.PLP.Chemscore.Internal.Correction>
0.4005

> <Gold.Rescore>
     Score         DG    S(hbond)    S(metal)    S(lipo)     H(rot)  DE(clash)    DE(int)     intcor
     16.88     -19.26       0.91        0.00     122.42       1.40       0.04       2.34       ----

> <Gold.Chemscore.Fitness>
16.8777

> <Gold.Chemscore.DG>
-19.2559

> <Gold.Chemscore.ZeroCoef>
-5.4800

> <Gold.Chemscore.Hbond>
0.9061

> <Gold.Chemscore.Metal>
0.0000

> <Gold.Chemscore.Lipo>
122.4190

> <Gold.Chemscore.Internal_Hbond>
0.0000

> <Gold.Chemscore.DEClash>
0.0429

> <Gold.Chemscore.DEInternal>
2.3352

> <Gold.Chemscore.Rot>
1.3959

> <Gold.Chemscore.Internal.Correction>
   9.000000E+99

> <Gold.Chemscore.Hbonds>
donor molecule, donor type, donor heavy atom, donor atom, acceptor molecule, acceptor atom, score
      L1  H    19    53       P1  8028  0.92

> <Gold.Chemscore.Hbond.Weighted>
-3.0265

> <Gold.Chemscore.Metal.Weighted>
-0.0000

> <Gold.Chemscore.Lipo.Weighted>
-14.3230

> <Gold.Chemscore.Internal_Hbond.Weighted>
0.0000

> <Gold.Chemscore.DEClash.Weighted>
0.0429

> <Gold.Chemscore.DEInternal.Weighted>
2.3352

> <Gold.Chemscore.Rot.Weighted>
3.5736

> <Gold.Chemscore.Internal.Correction.Weighted>
   9.000000E+99

> <Gold.Protein.RotatedTorsions>
[ 6907 6896 6895 6894 ] final -110.87 input  -60.11 | X-H torsion
[ 7974 7965 7964 7962 ] final -169.49 input  175.53 | X-H torsion
[ 8008 7997 7996 7995 ] final -161.95 input   59.86 | X-H torsion
[ 10167 10162 10161 10158 ] final -115.27 input  -65.29 | X-H torsion
[ 10718 10713 10712 10709 ] final   -5.90 input   66.30 | X-H torsion
[ 10763 10752 10751 10750 ] final -102.29 input  -60.55 | X-H torsion
[ 11005 11000 10999 10996 ] final   40.71 input  -57.11 | X-H torsion

> <Gold.Protein.ActiveResidues>
 VAL166  LYS551  ARG553  GLY616  TRP617  ASP618  TYR619  PRO620  LYS621  CYS622 
 ASP623  PHE694  ASN695  SER759  ASP760  ASP761  ALA762  ILE779  LEU786  VAL792 
 PHE793  MET794  SER795  GLU796  ALA797  LYS798  CYS799  TRP800  GLU811  SER814 

> <Gold.Protein.RotatedAtoms>
  150.7653  133.9318  159.3428 H   0  0  0  0  0  0  0  0  0  0  0  0  # atno 6907 bound_to 6896
  151.7217  135.0891  160.0294 H   0  0  0  0  0  0  0  0  0  0  0  0  # atno 6908 bound_to 6896
  152.3646  133.6302  159.6076 H   0  0  0  0  0  0  0  0  0  0  0  0  # atno 6909 bound_to 6896
  144.7185  140.2214  143.6315 H   0  0  0  0  0  0  0  0  0  0  0  0  # atno 7974 bound_to 7965
  155.7997  140.0890  157.1964 H   0  0  0  0  0  0  0  0  0  0  0  0  # atno 8008 bound_to 7997
  154.3982  140.1475  156.3318 H   0  0  0  0  0  0  0  0  0  0  0  0  # atno 8009 bound_to 7997
  155.8475  140.3436  155.5674 H   0  0  0  0  0  0  0  0  0  0  0  0  # atno 8010 bound_to 7997
  140.0920  143.4691  152.1864 H   0  0  0  0  0  0  0  0  0  0  0  0  # atno 10167 bound_to 10162
  156.7398  130.5206  149.5826 H   0  0  0  0  0  0  0  0  0  0  0  0  # atno 10718 bound_to 10713
  154.7723  135.4866  153.9673 H   0  0  0  0  0  0  0  0  0  0  0  0  # atno 10763 bound_to 10752
  153.1383  135.6767  153.9074 H   0  0  0  0  0  0  0  0  0  0  0  0  # atno 10764 bound_to 10752
  153.8757  135.3138  155.3422 H   0  0  0  0  0  0  0  0  0  0  0  0  # atno 10765 bound_to 10752
  140.1904  134.3994  155.8150 H   0  0  0  0  0  0  0  0  0  0  0  0  # atno 11005 bound_to 11000
  145.8498  139.2170  143.1779 LP  0  0  0  0  0  0  0  0  0  0  0  0  # atno 17320 bound_to 7965
  146.0271  140.8293  142.9894 LP  0  0  0  0  0  0  0  0  0  0  0  0  # atno 17321 bound_to 7965
  139.5719  144.7467  151.3867 LP  0  0  0  0  0  0  0  0  0  0  0  0  # atno 17342 bound_to 10162
  140.7024  143.7599  150.7424 LP  0  0  0  0  0  0  0  0  0  0  0  0  # atno 17343 bound_to 10162
  156.1472  130.6285  151.0547 LP  0  0  0  0  0  0  0  0  0  0  0  0  # atno 17370 bound_to 10713
  157.6823  131.0834  150.7336 LP  0  0  0  0  0  0  0  0  0  0  0  0  # atno 17371 bound_to 10713
  141.2226  133.7043  156.8085 LP  0  0  0  0  0  0  0  0  0  0  0  0  # atno 17394 bound_to 11000
  140.2166  134.8788  157.3332 LP  0  0  0  0  0  0  0  0  0  0  0  0  # atno 17395 bound_to 11000

$$$$
