AV-unprocessed.smi:159|AV-procd|sdf|1340|dock9
  -GOLD-   2262019 33D 1   1.00000     0.00000
 Structure written by MMmdl.
 28 29  0  0  0  0  0  0  0  0  1 V2000
  152.3829  138.1590  154.6263 N   0  0  0  0  0  0  0  0  0  0  0  0
  152.0614  139.0265  155.5959 C   0  0  0  0  0  0  0  0  0  0  0  0
  152.4872  138.7908  156.9564 C   0  0  0  0  0  0  0  0  0  0  0  0
  152.1277  139.7116  157.8779 C   0  0  0  0  0  0  0  0  0  0  0  0
  151.3920  140.8435  157.5467 N   0  0  0  0  0  0  0  0  0  0  0  0
  150.9718  141.8738  158.5785 C   0  0  2  0  0  0  0  0  0  0  0  0
  151.4767  143.2771  158.1912 C   0  0  0  0  0  0  0  0  0  0  0  0
  152.2144  143.7203  159.4392 C   0  0  0  0  0  0  0  0  0  0  0  0
  152.6939  142.3929  160.0159 C   0  0  1  0  0  0  0  0  0  0  0  0
  153.0522  142.4623  161.5066 C   0  0  0  0  0  0  0  0  0  0  0  0
  151.8908  142.7127  162.2687 O   0  0  0  0  0  0  0  0  0  0  0  0
  151.5473  141.5741  159.8175 O   0  0  0  0  0  0  0  0  0  0  0  0
  150.9762  141.0357  156.2067 C   0  0  0  0  0  0  0  0  0  0  0  0
  150.3036  142.0104  155.8722 O   0  0  0  0  0  0  0  0  0  0  0  0
  151.3506  140.0934  155.2870 N   0  0  0  0  0  0  0  0  0  0  0  0
  149.8858  141.7906  158.6512 H   0  0  0  0  0  0  0  0  0  0  0  0
  153.5354  142.0259  159.4249 H   0  0  0  0  0  0  0  0  0  0  0  0
  152.0827  138.3251  153.6765 H   0  0  0  0  0  0  0  0  0  0  0  0
  152.9273  137.3382  154.8490 H   0  0  0  0  0  0  0  0  0  0  0  0
  153.0669  137.9296  157.2565 H   0  0  0  0  0  0  0  0  0  0  0  0
  152.4407  139.5312  158.8951 H   0  0  0  0  0  0  0  0  0  0  0  0
  152.1635  143.2148  157.3455 H   0  0  0  0  0  0  0  0  0  0  0  0
  150.6470  143.9336  157.9278 H   0  0  0  0  0  0  0  0  0  0  0  0
  153.0297  144.4128  159.2277 H   0  0  0  0  0  0  0  0  0  0  0  0
  151.5218  144.2066  160.1278 H   0  0  0  0  0  0  0  0  0  0  0  0
  153.4628  141.5083  161.8385 H   0  0  0  0  0  0  0  0  0  0  0  0
  153.8064  143.2259  161.6988 H   0  0  0  0  0  0  0  0  0  0  0  0
  151.8773  143.6276  162.5047 H   0  0  0  0  0  0  0  0  0  0  0  0
  1  2  1  0  0  0  0
  1 18  1  0  0  0  0
  1 19  1  0  0  0  0
  2 15  2  0  0  0  0
  2  3  1  0  0  0  0
  3  4  2  0  0  0  0
  3 20  1  0  0  0  0
  4  5  1  0  0  0  0
  4 21  1  0  0  0  0
  5  6  1  0  0  0  0
  5 13  1  0  0  0  0
  6 16  1  0  0  0  0
  6 12  1  0  0  0  0
  6  7  1  0  0  0  0
  7  8  1  0  0  0  0
  7 22  1  0  0  0  0
  7 23  1  0  0  0  0
  8  9  1  0  0  0  0
  8 24  1  0  0  0  0
  8 25  1  0  0  0  0
  9 17  1  0  0  0  0
  9 10  1  0  0  0  0
  9 12  1  0  0  0  0
 10 11  1  0  0  0  0
 10 26  1  0  0  0  0
 10 27  1  0  0  0  0
 11 28  1  0  0  0  0
 13 14  2  0  0  0  0
 13 15  1  0  0  0  0
M  END
> <s_m_source_file>
AV-unprocessed.smi

> <i_m_source_file_index>
159

> <i_lp_mmshare_version>
43012

> <i_f3d_flags>
0

> <s_epik_input>
W05IMl1jMVtjSF1bY0hdbihjKD1PKW4xKVtDQEhdMltDSDJdW0NIMl1bQ0BIXShPMilbQ0gyXVtPSF0=

> <s_epik_cmdline>
J2VwaWtfcHl0aG9uJywgJy1waCcsICc3LjAnLCAnLXRuJywgJzgnLCAnLW1hJywgJzIwMCcsICctbWV0YWxfYmluZGluZycsICctaW1hZScsICc8aW5maWxlLm1hZT4nLCAnLW9tYWUnLCAnPG91dGZpbGUubWFlPic=

> <r_lp_tautomer_probability>
0.99996

> <r_epik_Ionization_Penalty>
0.00126102

> <r_epik_Ionization_Penalty_Charging>
4.46248e-08

> <r_epik_Ionization_Penalty_Neutral>
0.00126097

> <r_epik_State_Penalty>
1.15523e-05

> <r_epik_Charging_Adjusted_Penalty>
1.1597e-05

> <i_epik_Tot_Q>
0

> <i_epik_Tot_abs_Q>
0

> <r_epik_Metal_State_Penalty>
-0

> <b_epik_Metal_Only>
0

> <s_epik_Chemistry_Notes>
This compound contains an acetal/aminal-like group ( X-CH(R)-Y where X, Y are N, S, or O) that may be acid/base labile, releasing an aldehyde.

> <s_lp_Force_Field>
OPLS_2005

> <r_lp_Energy>
23.8013

> <b_lp_Chiralities_Consistent>
1

> <s_lp_Variant>
AV-unprocessed.smi:159-2

> <Gold.Version>
5.8.1

> <Gold.Id.Protein>
6NUR|6NUR_protein|mol2

> <Gold.PLP.Fitness>
38.5294

> <Gold.PLP.PLP>
-32.7124

> <Gold.PLP.part.hbond>
-3.8164

> <Gold.PLP.part.metal>
0.0000

> <Gold.PLP.part.buried>
-5.5247

> <Gold.PLP.part.nonpolar>
-24.7026

> <Gold.PLP.part.repulsive>
0.7960

> <Gold.PLP.ligand.clash>
0.0000

> <Gold.PLP.ligand.torsion>
0.0899

> <Gold.PLP.Chemscore.Hbond>
1.9913

> <Gold.PLP.Chemscore.CHOScore>
0.0000

> <Gold.PLP.Chemscore.Metal>
0.0000

> <Gold.Chemscore.Hbonds>
donor molecule, donor type, donor heavy atom, donor atom, acceptor molecule, acceptor atom, score
      P1  H  6933  6945       L1    11  0.89
      P1  H  7989  7998       L1    15  1.00

> <Gold.PLP.Chemscore.Internal.Correction>
0.0230

> <Gold.Rescore>
     Score         DG    S(hbond)    S(metal)    S(lipo)     H(rot)  DE(clash)    DE(int)     intcor
      8.72     -11.36       1.46        0.00      54.32       2.09       1.34       1.29       ----

> <Gold.Chemscore.Fitness>
8.7198

> <Gold.Chemscore.DG>
-11.3564

> <Gold.Chemscore.ZeroCoef>
-5.4800

> <Gold.Chemscore.Hbond>
1.4611

> <Gold.Chemscore.Metal>
0.0000

> <Gold.Chemscore.Lipo>
54.3209

> <Gold.Chemscore.Internal_Hbond>
0.0000

> <Gold.Chemscore.DEClash>
1.3447

> <Gold.Chemscore.DEInternal>
1.2919

> <Gold.Chemscore.Rot>
2.0935

> <Gold.Chemscore.Internal.Correction>
   9.000000E+99

> <Gold.Chemscore.Hbonds>
donor molecule, donor type, donor heavy atom, donor atom, acceptor molecule, acceptor atom, score
      P1  H  6933  6945       L1    11  0.75
      P1  H  7989  7998       L1    15  0.74

> <Gold.Chemscore.Hbond.Weighted>
-4.8802

> <Gold.Chemscore.Metal.Weighted>
-0.0000

> <Gold.Chemscore.Lipo.Weighted>
-6.3555

> <Gold.Chemscore.Internal_Hbond.Weighted>
0.0000

> <Gold.Chemscore.DEClash.Weighted>
1.3447

> <Gold.Chemscore.DEInternal.Weighted>
1.2919

> <Gold.Chemscore.Rot.Weighted>
5.3594

> <Gold.Chemscore.Internal.Correction.Weighted>
   9.000000E+99

> <Gold.Protein.RotatedTorsions>
[ 6907 6896 6895 6894 ] final  -26.80 input  -60.11 | X-H torsion
[ 7974 7965 7964 7962 ] final  -80.45 input  175.53 | X-H torsion
[ 8008 7997 7996 7995 ] final  170.86 input   59.86 | X-H torsion
[ 10167 10162 10161 10158 ] final   60.65 input  -65.29 | X-H torsion
[ 10718 10713 10712 10709 ] final  172.46 input   66.30 | X-H torsion
[ 10763 10752 10751 10750 ] final -139.79 input  -60.55 | X-H torsion
[ 11005 11000 10999 10996 ] final   74.94 input  -57.11 | X-H torsion

> <Gold.Protein.ActiveResidues>
 VAL166  LYS551  ARG553  GLY616  TRP617  ASP618  TYR619  PRO620  LYS621  CYS622 
 ASP623  PHE694  ASN695  SER759  ASP760  ASP761  ALA762  ILE779  LEU786  VAL792 
 PHE793  MET794  SER795  GLU796  ALA797  LYS798  CYS799  TRP800  GLU811  SER814 

> <Gold.Protein.RotatedAtoms>
  151.1559  135.0250  159.8688 H   0  0  0  0  0  0  0  0  0  0  0  0  # atno 6907 bound_to 6896
  152.5452  134.1335  159.8459 H   0  0  0  0  0  0  0  0  0  0  0  0  # atno 6908 bound_to 6896
  151.1425  133.4915  159.2629 H   0  0  0  0  0  0  0  0  0  0  0  0  # atno 6909 bound_to 6896
  145.5597  140.9484  143.1454 H   0  0  0  0  0  0  0  0  0  0  0  0  # atno 7974 bound_to 7965
  156.1326  140.1527  156.9043 H   0  0  0  0  0  0  0  0  0  0  0  0  # atno 8008 bound_to 7997
  154.4921  140.0848  156.7657 H   0  0  0  0  0  0  0  0  0  0  0  0  # atno 8009 bound_to 7997
  155.4228  140.3424  155.4275 H   0  0  0  0  0  0  0  0  0  0  0  0  # atno 8010 bound_to 7997
  140.1633  144.4349  150.6698 H   0  0  0  0  0  0  0  0  0  0  0  0  # atno 10167 bound_to 10162
  156.9787  131.0112  151.2887 H   0  0  0  0  0  0  0  0  0  0  0  0  # atno 10718 bound_to 10713
  154.8598  135.3572  154.5603 H   0  0  0  0  0  0  0  0  0  0  0  0  # atno 10763 bound_to 10752
  153.6219  135.7005  153.5312 H   0  0  0  0  0  0  0  0  0  0  0  0  # atno 10764 bound_to 10752
  153.3122  135.4175  155.1305 H   0  0  0  0  0  0  0  0  0  0  0  0  # atno 10765 bound_to 10752
  139.9367  134.7476  156.1210 H   0  0  0  0  0  0  0  0  0  0  0  0  # atno 11005 bound_to 11000
  144.7489  139.7247  143.7281 LP  0  0  0  0  0  0  0  0  0  0  0  0  # atno 17320 bound_to 7965
  146.1859  139.5075  142.9836 LP  0  0  0  0  0  0  0  0  0  0  0  0  # atno 17321 bound_to 7965
  140.6629  143.2258  151.5812 LP  0  0  0  0  0  0  0  0  0  0  0  0  # atno 17342 bound_to 10162
  139.5371  144.2750  152.1274 LP  0  0  0  0  0  0  0  0  0  0  0  0  # atno 17343 bound_to 10162
  157.5542  130.8202  149.8183 LP  0  0  0  0  0  0  0  0  0  0  0  0  # atno 17370 bound_to 10713
  156.0253  130.3781  150.1841 LP  0  0  0  0  0  0  0  0  0  0  0  0  # atno 17371 bound_to 10713
  141.0984  133.6687  156.2697 LP  0  0  0  0  0  0  0  0  0  0  0  0  # atno 17394 bound_to 11000
  140.6058  134.5509  157.5525 LP  0  0  0  0  0  0  0  0  0  0  0  0  # atno 17395 bound_to 11000

$$$$
