AV-unprocessed.smi:2568|AV-procd|sdf|10097|dock1
  -GOLD-   2272014113D 1   1.00000     0.00000
 Structure written by MMmdl.
 24 25  0  0  0  0  0  0  0  0  1 V2000
  152.7373  143.0611  160.5096 C   0  0  0  0  0  0  0  0  0  0  0  0
  151.9416  143.0542  159.2490 C   0  0  0  0  0  0  0  0  0  0  0  0
  151.0783  144.0293  158.9697 N   0  0  0  0  0  0  0  0  0  0  0  0
  150.5913  143.6372  157.7735 N   0  0  0  0  0  0  0  0  0  0  0  0
  151.1662  142.4868  157.4157 C   0  0  0  0  0  0  0  0  0  0  0  0
  150.8365  141.8043  156.1257 C   0  0  1  0  0  0  0  0  0  0  0  0
  151.6250  140.4937  155.9354 C   0  0  0  0  0  0  0  0  0  0  0  0
  151.2059  139.8263  154.7042 N   0  0  0  0  0  0  0  0  0  0  0  0
  149.7606  139.6049  154.6899 C   0  0  0  0  0  0  0  0  0  0  0  0
  149.0129  140.9310  154.9199 C   0  0  0  0  0  0  0  0  0  0  0  0
  149.4410  141.5155  156.1454 O   0  0  0  0  0  0  0  0  0  0  0  0
  152.0464  142.0597  158.3171 N   0  0  0  0  0  0  0  0  0  0  0  0
  149.8970  144.1619  157.2610 H   0  0  0  0  0  0  0  0  0  0  0  0
  152.6666  144.0277  161.0097 H   0  0  0  0  0  0  0  0  0  0  0  0
  153.7874  142.8614  160.2948 H   0  0  0  0  0  0  0  0  0  0  0  0
  152.3702  142.2923  161.1895 H   0  0  0  0  0  0  0  0  0  0  0  0
  151.0511  142.4936  155.3064 H   0  0  0  0  0  0  0  0  0  0  0  0
  152.6953  140.6996  155.9039 H   0  0  0  0  0  0  0  0  0  0  0  0
  151.4565  139.8343  156.7878 H   0  0  0  0  0  0  0  0  0  0  0  0
  151.6867  138.9363  154.6192 H   0  0  0  0  0  0  0  0  0  0  0  0
  149.4590  139.1633  153.7398 H   0  0  0  0  0  0  0  0  0  0  0  0
  149.4868  138.8916  155.4680 H   0  0  0  0  0  0  0  0  0  0  0  0
  149.1795  141.6231  154.0928 H   0  0  0  0  0  0  0  0  0  0  0  0
  147.9390  140.7510  154.9718 H   0  0  0  0  0  0  0  0  0  0  0  0
  1  2  1  0  0  0  0
  1 14  1  0  0  0  0
  1 15  1  0  0  0  0
  1 16  1  0  0  0  0
  2 12  1  0  0  0  0
  2  3  2  0  0  0  0
  3  4  1  0  0  0  0
  4 13  1  0  0  0  0
  4  5  1  0  0  0  0
  5  6  1  0  0  0  0
  5 12  2  0  0  0  0
  6 11  1  0  0  0  0
  6  7  1  0  0  0  0
  6 17  1  0  0  0  0
  7  8  1  0  0  0  0
  7 18  1  0  0  0  0
  7 19  1  0  0  0  0
  8  9  1  0  0  0  0
  8 20  1  0  0  0  0
  9 10  1  0  0  0  0
  9 21  1  0  0  0  0
  9 22  1  0  0  0  0
 10 11  1  0  0  0  0
 10 23  1  0  0  0  0
 10 24  1  0  0  0  0
M  END
> <s_m_source_file>
AV-unprocessed.smi

> <i_m_source_file_index>
2568

> <i_lp_mmshare_version>
43012

> <i_f3d_flags>
0

> <s_epik_input>
W0NIM11jMW5bbkhdYyhuMSlbQ0BASF0yW0NIMl1bTkhdW0NIMl1bQ0gyXU8y

> <s_epik_cmdline>
J2VwaWtfcHl0aG9uJywgJy1waCcsICc3LjAnLCAnLXRuJywgJzgnLCAnLW1hJywgJzIwMCcsICctbWV0YWxfYmluZGluZycsICctaW1hZScsICc8aW5maWxlLm1hZT4nLCAnLW9tYWUnLCAnPG91dGZpbGUubWFlPic=

> <r_lp_tautomer_probability>
0.948284

> <r_epik_Ionization_Penalty>
0.982563

> <r_epik_Ionization_Penalty_Charging>
0

> <r_epik_Ionization_Penalty_Neutral>
0.982563

> <r_epik_State_Penalty>
2.21233

> <r_epik_Charging_Adjusted_Penalty>
2.21233

> <i_epik_Tot_Q>
0

> <i_epik_Tot_abs_Q>
0

> <r_epik_Metal_State_Penalty>
2.51138

> <b_epik_Metal_Only>
0

> <s_lp_Force_Field>
OPLS_2005

> <r_lp_Energy>
12.795

> <b_lp_Chiralities_Consistent>
1

> <s_lp_Variant>
AV-unprocessed.smi:2568-10

> <Gold.Version>
5.8.1

> <Gold.Id.Protein>
6NUR|6NUR_protein|mol2

> <Gold.PLP.Fitness>
30.8004

> <Gold.PLP.PLP>
-24.8018

> <Gold.PLP.part.hbond>
-2.0000

> <Gold.PLP.part.metal>
0.0000

> <Gold.PLP.part.buried>
-5.2547

> <Gold.PLP.part.nonpolar>
-17.7161

> <Gold.PLP.part.repulsive>
0.4175

> <Gold.PLP.ligand.clash>
0.0000

> <Gold.PLP.ligand.torsion>
0.0011

> <Gold.PLP.Chemscore.Hbond>
2.0000

> <Gold.PLP.Chemscore.CHOScore>
0.0000

> <Gold.PLP.Chemscore.Metal>
0.0000

> <Gold.Chemscore.Hbonds>
donor molecule, donor type, donor heavy atom, donor atom, acceptor molecule, acceptor atom, score
      L1  H     4    13       P1  8028  1.00
      P1  H  7989  7998       L1     8  1.00

> <Gold.PLP.Chemscore.Internal.Correction>
0.0008

> <Gold.Rescore>
     Score         DG    S(hbond)    S(metal)    S(lipo)     H(rot)  DE(clash)    DE(int)     intcor
     11.09     -11.14       1.03        0.00      40.83       1.00       0.04       0.00       ----

> <Gold.Chemscore.Fitness>
11.0938

> <Gold.Chemscore.DG>
-11.1366

> <Gold.Chemscore.ZeroCoef>
-5.4800

> <Gold.Chemscore.Hbond>
1.0299

> <Gold.Chemscore.Metal>
0.0000

> <Gold.Chemscore.Lipo>
40.8265

> <Gold.Chemscore.Internal_Hbond>
0.0000

> <Gold.Chemscore.DEClash>
0.0419

> <Gold.Chemscore.DEInternal>
0.0009

> <Gold.Chemscore.Rot>
1.0000

> <Gold.Chemscore.Internal.Correction>
   9.000000E+99

> <Gold.Chemscore.Hbonds>
donor molecule, donor type, donor heavy atom, donor atom, acceptor molecule, acceptor atom, score
      L1  H     4    13       P1  8028  0.59
      P1  H  7989  7998       L1     8  0.31

> <Gold.Chemscore.Hbond.Weighted>
-3.4399

> <Gold.Chemscore.Metal.Weighted>
-0.0000

> <Gold.Chemscore.Lipo.Weighted>
-4.7767

> <Gold.Chemscore.Internal_Hbond.Weighted>
0.0000

> <Gold.Chemscore.DEClash.Weighted>
0.0419

> <Gold.Chemscore.DEInternal.Weighted>
0.0009

> <Gold.Chemscore.Rot.Weighted>
2.5600

> <Gold.Chemscore.Internal.Correction.Weighted>
   9.000000E+99

> <Gold.Protein.RotatedTorsions>
[ 6907 6896 6895 6894 ] final  -66.01 input  -60.11 | X-H torsion
[ 7974 7965 7964 7962 ] final  -45.10 input  175.53 | X-H torsion
[ 8008 7997 7996 7995 ] final  169.51 input   59.86 | X-H torsion
[ 10167 10162 10161 10158 ] final  -89.98 input  -65.29 | X-H torsion
[ 10718 10713 10712 10709 ] final  131.07 input   66.30 | X-H torsion
[ 10763 10752 10751 10750 ] final   49.55 input  -60.55 | X-H torsion
[ 11005 11000 10999 10996 ] final   68.88 input  -57.11 | X-H torsion

> <Gold.Protein.ActiveResidues>
 VAL166  LYS551  ARG553  GLY616  TRP617  ASP618  TYR619  PRO620  LYS621  CYS622 
 ASP623  PHE694  ASN695  SER759  ASP760  ASP761  ALA762  ILE779  LEU786  VAL792 
 PHE793  MET794  SER795  GLU796  ALA797  LYS798  CYS799  TRP800  GLU811  SER814 

> <Gold.Protein.RotatedAtoms>
  150.7490  134.6081  159.6071 H   0  0  0  0  0  0  0  0  0  0  0  0  # atno 6907 bound_to 6896
  152.3423  134.7115  160.0269 H   0  0  0  0  0  0  0  0  0  0  0  0  # atno 6908 bound_to 6896
  151.7563  133.3294  159.3442 H   0  0  0  0  0  0  0  0  0  0  0  0  # atno 6909 bound_to 6896
  145.9855  140.7238  142.9342 H   0  0  0  0  0  0  0  0  0  0  0  0  # atno 7974 bound_to 7965
  156.1450  140.1562  156.8861 H   0  0  0  0  0  0  0  0  0  0  0  0  # atno 8008 bound_to 7997
  154.5020  140.0823  156.7856 H   0  0  0  0  0  0  0  0  0  0  0  0  # atno 8009 bound_to 7997
  155.4006  140.3414  155.4259 H   0  0  0  0  0  0  0  0  0  0  0  0  # atno 8010 bound_to 7997
  140.3594  143.2849  151.9632 H   0  0  0  0  0  0  0  0  0  0  0  0  # atno 10167 bound_to 10162
  157.5002  131.1094  150.9437 H   0  0  0  0  0  0  0  0  0  0  0  0  # atno 10718 bound_to 10713
  152.9786  135.5908  154.4107 H   0  0  0  0  0  0  0  0  0  0  0  0  # atno 10763 bound_to 10752
  154.3743  135.2767  155.2250 H   0  0  0  0  0  0  0  0  0  0  0  0  # atno 10764 bound_to 10752
  154.4192  135.6063  153.6054 H   0  0  0  0  0  0  0  0  0  0  0  0  # atno 10765 bound_to 10752
  139.9685  134.6939  156.0495 H   0  0  0  0  0  0  0  0  0  0  0  0  # atno 11005 bound_to 11000
  144.6873  140.2980  143.7267 LP  0  0  0  0  0  0  0  0  0  0  0  0  # atno 17320 bound_to 7965
  145.7707  139.1856  143.2214 LP  0  0  0  0  0  0  0  0  0  0  0  0  # atno 17321 bound_to 7965
  139.4816  144.6006  151.7612 LP  0  0  0  0  0  0  0  0  0  0  0  0  # atno 17342 bound_to 10162
  140.5142  144.0979  150.6003 LP  0  0  0  0  0  0  0  0  0  0  0  0  # atno 17343 bound_to 10162
  157.0111  130.5637  149.5321 LP  0  0  0  0  0  0  0  0  0  0  0  0  # atno 17370 bound_to 10713
  156.0224  130.5319  150.8314 LP  0  0  0  0  0  0  0  0  0  0  0  0  # atno 17371 bound_to 10713
  141.1365  133.6574  156.3609 LP  0  0  0  0  0  0  0  0  0  0  0  0  # atno 17394 bound_to 11000
  140.5343  134.6182  157.5360 LP  0  0  0  0  0  0  0  0  0  0  0  0  # atno 17395 bound_to 11000

$$$$
