#       Name:                AV-unprocessed.smi:3018
#       Creating user name   scv26
#       Creation time:       Fri Mar 27 16:41:37 2020


#       File generated by GOLD software.
#

@<TRIPOS>MOLECULE
AV-unprocessed.smi:3018
    52    53     1
SMALL
NO_CHARGES


@<TRIPOS>ATOM
      1 ****        -3.1597  -1.0866   1.4225 C.3            1 S1                 0.0000
      2 ****        -1.6323  -1.1249   1.5546 C.3            1 S1                 0.0000
      3 ****        -0.9202  -0.2825   0.4802 C.3            1 S1                 0.0000
      4 ****        -1.1386  -0.9109  -0.7820 O.3            1 S1                 0.0000
      5 ****        -0.8540  -0.1345  -1.9436 C.3            1 S1                 0.0000
      6 ****        -2.0315   0.8080  -2.2666 C.3            1 S1                 0.0000
      7 ****        -1.8042   1.5512  -3.5935 C.3            1 S1                 0.0000
      8 ****        -1.5477   0.5704  -4.7491 C.3            1 S1                 0.0000
      9 ****        -0.3796  -0.3748  -4.4271 C.3            1 S1                 0.0000
     10 ****        -0.6182  -1.1177  -3.1029 C.3            1 S1                 0.0000
     11 ****         0.5871  -0.1957   0.7630 C.2            1 S1                 0.0000
     12 ****         1.2602  -1.2227   0.8528 O.2            1 S1                 0.0000
     13 ****         1.1000   1.0379   0.8946 N.am           1 S1                 0.0000
     14 ****         2.4960   1.3499   1.1904 C.3            1 S1                 0.0000
     15 ****         2.7238   1.6372   2.6895 C.3            1 S1                 0.0000
     16 ****         2.5697   0.4256   3.5945 C.2            1 S1                 0.0000
     17 ****         1.7656   0.2686   4.5865 N.2            1 S1                 0.0000
     18 ****         2.0643  -0.9982   4.9683 N.am           1 S1                 0.0000
     19 ****         3.0130  -1.5884   4.2318 C.2            1 S1                 0.0000
     20 ****         3.4658  -2.7238   4.3564 O.2            1 S1                 0.0000
     21 ****         3.3551  -0.6700   3.3371 N.am           1 S1                 0.0000
     22 ****         1.5711  -1.4073   5.7489 H              1 S1                 0.0000
     23 ****         4.0384  -0.7556   2.5991 H              1 S1                 0.0000
     24 ****        -3.6307  -1.6886   2.1997 H              1 S1                 0.0000
     25 ****        -3.4832  -1.4784   0.4578 H              1 S1                 0.0000
     26 ****        -3.5380  -0.0683   1.5151 H              1 S1                 0.0000
     27 ****        -1.3601  -0.7624   2.5472 H              1 S1                 0.0000
     28 ****        -1.2926  -2.1604   1.5034 H              1 S1                 0.0000
     29 ****        -1.3500   0.7201   0.4856 H              1 S1                 0.0000
     30 ****         0.0553   0.4528  -1.8105 H              1 S1                 0.0000
     31 ****        -2.9554   0.2313  -2.3258 H              1 S1                 0.0000
     32 ****        -2.1733   1.5353  -1.4678 H              1 S1                 0.0000
     33 ****        -2.6682   2.1757  -3.8223 H              1 S1                 0.0000
     34 ****        -0.9531   2.2259  -3.4920 H              1 S1                 0.0000
     35 ****        -2.4484  -0.0149  -4.9383 H              1 S1                 0.0000
     36 ****        -1.3390   1.1214  -5.6665 H              1 S1                 0.0000
     37 ****        -0.2467  -1.0921  -5.2374 H              1 S1                 0.0000
     38 ****         0.5474   0.1965  -4.3641 H              1 S1                 0.0000
     39 ****         0.2354  -1.7576  -2.8780 H              1 S1                 0.0000
     40 ****        -1.4806  -1.7774  -3.2062 H              1 S1                 0.0000
     41 ****         0.4705   1.8213   0.7955 H              1 S1                 0.0000
     42 ****         3.1643   0.5650   0.8316 H              1 S1                 0.0000
     43 ****         2.7522   2.2414   0.6177 H              1 S1                 0.0000
     44 ****         3.7284   2.0375   2.8291 H              1 S1                 0.0000
     45 ****         2.0401   2.4195   3.0222 H              1 S1                 0.0000
     46 ****        -2.1014  -1.1777  -0.8247 LP             1 S1                 0.0000
     47 ****        -0.5642  -1.7287  -0.8164 LP             1 S1                 0.0000
     48 ****         0.8259  -2.1165   0.7415 LP             1 S1                 0.0000
     49 ****         2.2413  -1.1630   1.0369 LP             1 S1                 0.0000
     50 ****         1.1002   0.9079   4.9719 LP             1 S1                 0.0000
     51 ****         3.1206  -3.3233   5.0785 LP             1 S1                 0.0000
     52 ****         4.1796  -3.0483   3.7357 LP             1 S1                 0.0000
@<TRIPOS>BOND
    1    1    2 1     
    2    1   24 1     
    3    1   25 1     
    4    1   26 1     
    5    2    3 1     
    6    2   27 1     
    7    2   28 1     
    8    3    4 1     
    9    3   11 1     
   10    3   29 1     
   11    4    5 1     
   12    5   10 1     
   13    5    6 1     
   14    5   30 1     
   15    6    7 1     
   16    6   31 1     
   17    6   32 1     
   18    7    8 1     
   19    7   33 1     
   20    7   34 1     
   21    8    9 1     
   22    8   35 1     
   23    8   36 1     
   24    9   10 1     
   25    9   37 1     
   26    9   38 1     
   27   10   39 1     
   28   10   40 1     
   29   11   12 2     
   30   11   13 am    
   31   13   14 1     
   32   13   41 1     
   33   14   15 1     
   34   14   42 1     
   35   14   43 1     
   36   15   16 1     
   37   15   44 1     
   38   15   45 1     
   39   16   21 1     
   40   16   17 2     
   41   17   18 1     
   42   18   22 1     
   43   18   19 am    
   44   19   20 2     
   45   19   21 am    
   46   21   23 1     
   47    4   46 1     
   48    4   47 1     
   49   12   48 1     
   50   12   49 1     
   51   17   50 1     
   52   20   51 1     
   53   20   52 1     
@<TRIPOS>SUBSTRUCTURE
      1 S1             1
@<TRIPOS>SET
LONE_PAIRS      STATIC     ATOMS    <user>   **** ""
7 46 47 48 49 50 51 52
DONOR_HYDROGENS      STATIC     ATOMS    <user>   **** ""
3 41 22 23
ATOM$BLUE        STATIC     ATOMS    COLORGROUP SYSTEM
7 46 47 48 49 50 51 52
ATOM$RED        STATIC     ATOMS    COLORGROUP SYSTEM
3 41 22 23
