AV-unprocessed.smi:210|AV-procd|sdf|1613|dock4
  -GOLD-   2262019533D 1   1.00000     0.00000
 Structure written by MMmdl.
 57 61  0  0  0  0  0  0  0  0  1 V2000
  151.8534  145.6201  160.3720 C   0  0  0  0  0  0  0  0  0  0  0  0
  151.5600  144.2515  160.1522 O   0  0  0  0  0  0  0  0  0  0  0  0
  151.9420  143.8105  158.8588 C   0  0  2  0  0  0  0  0  0  0  0  0
  150.7994  143.2112  158.0255 C   0  0  0  0  0  0  0  0  0  0  0  0
  151.8196  142.1660  157.5403 C   0  0  2  0  0  0  0  0  0  0  0  0
  151.3106  140.8006  157.3362 N   0  0  0  0  0  0  0  0  0  0  0  0
  152.1524  139.6177  157.5033 C   0  0  0  0  0  0  0  0  0  0  0  0
  150.2067  140.6964  156.5471 C   0  0  0  0  0  0  0  0  0  0  0  0
  149.7997  141.8086  155.8800 N   0  0  0  0  0  0  0  0  0  0  0  0
  148.7246  141.7732  155.0888 C   0  0  0  0  0  0  0  0  0  0  0  0
  147.9235  140.7428  154.8167 N   0  0  0  0  0  0  0  0  0  0  0  0
  148.3293  139.6159  155.4679 C   0  0  0  0  0  0  0  0  0  0  0  0
  149.4444  139.5044  156.3492 C   0  0  0  0  0  0  0  0  0  0  0  0
  149.5340  138.1968  156.8170 N   0  0  0  0  0  0  0  0  0  0  0  0
  148.5265  137.5818  156.2630 C   0  0  0  0  0  0  0  0  0  0  0  0
  147.7666  138.3522  155.4139 N   0  0  0  0  0  0  0  0  0  0  0  0
  146.5882  137.9416  154.7077 C   0  0  0  0  0  0  0  0  0  0  0  0
  146.3325  136.4669  154.3772 C   0  0  0  0  0  0  0  0  0  0  0  0
  145.6156  136.8963  153.0761 C   0  0  0  0  0  0  0  0  0  0  0  0
  145.8688  136.0272  151.8284 C   0  0  0  0  0  0  0  0  0  0  0  0
  145.5810  136.7092  150.6243 O   0  0  0  0  0  0  0  0  0  0  0  0
  144.0895  137.0512  153.2203 C   0  0  0  0  0  0  0  0  0  0  0  0
  143.5415  137.8156  152.1654 O   0  0  0  0  0  0  0  0  0  0  0  0
  146.4309  138.2039  153.2070 C   0  0  0  0  0  0  0  0  0  0  0  0
  152.5968  142.4129  158.8503 C   0  0  0  0  0  0  0  0  0  0  0  0
  152.5144  141.4902  160.0827 C   0  0  0  0  0  0  0  0  0  0  0  0
  153.9604  141.8845  160.3991 C   0  0  0  0  0  0  0  0  0  0  0  0
  154.1224  142.2736  158.9256 C   0  0  0  0  0  0  0  0  0  0  0  0
  151.5572  145.8998  161.3829 H   0  0  0  0  0  0  0  0  0  0  0  0
  151.3110  146.2596  159.6747 H   0  0  0  0  0  0  0  0  0  0  0  0
  152.9213  145.8153  160.2682 H   0  0  0  0  0  0  0  0  0  0  0  0
  152.5336  144.5425  158.3044 H   0  0  0  0  0  0  0  0  0  0  0  0
  150.0015  142.8340  158.6656 H   0  0  0  0  0  0  0  0  0  0  0  0
  150.4137  143.8688  157.2462 H   0  0  0  0  0  0  0  0  0  0  0  0
  152.3656  142.5607  156.6815 H   0  0  0  0  0  0  0  0  0  0  0  0
  151.5661  138.7004  157.4446 H   0  0  0  0  0  0  0  0  0  0  0  0
  152.6195  139.6158  158.4875 H   0  0  0  0  0  0  0  0  0  0  0  0
  152.9370  139.5788  156.7480 H   0  0  0  0  0  0  0  0  0  0  0  0
  148.4709  142.7036  154.6025 H   0  0  0  0  0  0  0  0  0  0  0  0
  148.3150  136.5400  156.4548 H   0  0  0  0  0  0  0  0  0  0  0  0
  145.7474  138.3638  155.2607 H   0  0  0  0  0  0  0  0  0  0  0  0
  147.2582  135.9149  154.2079 H   0  0  0  0  0  0  0  0  0  0  0  0
  145.7013  135.9473  155.0989 H   0  0  0  0  0  0  0  0  0  0  0  0
  146.9086  135.7007  151.7871 H   0  0  0  0  0  0  0  0  0  0  0  0
  145.2565  135.1251  151.8474 H   0  0  0  0  0  0  0  0  0  0  0  0
  144.9318  137.3723  150.8027 H   0  0  0  0  0  0  0  0  0  0  0  0
  143.5970  136.0783  153.2400 H   0  0  0  0  0  0  0  0  0  0  0  0
  143.8278  137.5432  154.1571 H   0  0  0  0  0  0  0  0  0  0  0  0
  143.6637  138.7318  152.3628 H   0  0  0  0  0  0  0  0  0  0  0  0
  145.8838  139.1160  152.9671 H   0  0  0  0  0  0  0  0  0  0  0  0
  147.3867  138.1780  152.6811 H   0  0  0  0  0  0  0  0  0  0  0  0
  151.7845  141.7785  160.8393 H   0  0  0  0  0  0  0  0  0  0  0  0
  152.4346  140.4317  159.8371 H   0  0  0  0  0  0  0  0  0  0  0  0
  154.0255  142.7418  161.0711 H   0  0  0  0  0  0  0  0  0  0  0  0
  154.5973  141.0627  160.7265 H   0  0  0  0  0  0  0  0  0  0  0  0
  154.5025  141.4542  158.3134 H   0  0  0  0  0  0  0  0  0  0  0  0
  154.6779  143.1963  158.7555 H   0  0  0  0  0  0  0  0  0  0  0  0
  1  2  1  0  0  0  0
  1 29  1  0  0  0  0
  1 30  1  0  0  0  0
  1 31  1  0  0  0  0
  2  3  1  0  0  0  0
  3 25  1  0  0  0  0
  3  4  1  0  0  0  0
  3 32  1  0  0  0  0
  4  5  1  0  0  0  0
  4 33  1  0  0  0  0
  4 34  1  0  0  0  0
  5  6  1  0  0  0  0
  5 25  1  0  0  0  0
  5 35  1  0  0  0  0
  6  7  1  0  0  0  0
  6  8  1  0  0  0  0
  7 36  1  0  0  0  0
  7 37  1  0  0  0  0
  7 38  1  0  0  0  0
  8 13  1  0  0  0  0
  8  9  2  0  0  0  0
  9 10  1  0  0  0  0
 10 11  2  0  0  0  0
 10 39  1  0  0  0  0
 11 12  1  0  0  0  0
 12 16  1  0  0  0  0
 12 13  2  0  0  0  0
 13 14  1  0  0  0  0
 14 15  2  0  0  0  0
 15 16  1  0  0  0  0
 15 40  1  0  0  0  0
 16 17  1  0  0  0  0
 17 24  1  0  0  0  0
 17 18  1  0  0  0  0
 17 41  1  0  0  0  0
 18 19  1  0  0  0  0
 18 42  1  0  0  0  0
 18 43  1  0  0  0  0
 19 20  1  0  0  0  0
 19 22  1  0  0  0  0
 19 24  1  0  0  0  0
 20 21  1  0  0  0  0
 20 44  1  0  0  0  0
 20 45  1  0  0  0  0
 21 46  1  0  0  0  0
 22 23  1  0  0  0  0
 22 47  1  0  0  0  0
 22 48  1  0  0  0  0
 23 49  1  0  0  0  0
 24 50  1  0  0  0  0
 24 51  1  0  0  0  0
 25 28  1  0  0  0  0
 25 26  1  0  0  0  0
 26 27  1  0  0  0  0
 26 52  1  0  0  0  0
 26 53  1  0  0  0  0
 27 28  1  0  0  0  0
 27 54  1  0  0  0  0
 27 55  1  0  0  0  0
 28 56  1  0  0  0  0
 28 57  1  0  0  0  0
M  END
> <s_m_source_file>
AV-unprocessed.smi

> <i_m_source_file_index>
210

> <i_lp_mmshare_version>
43012

> <i_f3d_flags>
0

> <s_epik_input>
W0NIMl0xW0NIMl1bQ0gyXUMxMltDQEhdKE9bQ0gzXSlbQ0gyXVtDQEhdMk4oW0NIM10pYyhuW2NIXW4zKWMoYzM0KW5bY0hdbjRbQ0hdKFtDSDJdNSlbQ0gyXUM1KFtDSDJdW09IXSlbQ0gyXVtPSF0=

> <s_epik_cmdline>
J2VwaWtfcHl0aG9uJywgJy1waCcsICc3LjAnLCAnLXRuJywgJzgnLCAnLW1hJywgJzIwMCcsICctbWV0YWxfYmluZGluZycsICctaW1hZScsICc8aW5maWxlLm1hZT4nLCAnLW9tYWUnLCAnPG91dGZpbGUubWFlPic=

> <r_lp_tautomer_probability>
1

> <r_epik_Ionization_Penalty>
0.00313676

> <r_epik_Ionization_Penalty_Charging>
0

> <r_epik_Ionization_Penalty_Neutral>
0.00313676

> <r_epik_State_Penalty>
0.00199132

> <r_epik_Charging_Adjusted_Penalty>
0.00199132

> <i_epik_Tot_Q>
0

> <i_epik_Tot_abs_Q>
0

> <r_epik_Metal_State_Penalty>
-0

> <b_epik_Metal_Only>
0

> <s_lp_Force_Field>
OPLS_2005

> <r_lp_Energy>
62.7777

> <b_lp_Chiralities_Consistent>
1

> <s_lp_Variant>
AV-unprocessed.smi:210-3

> <Gold.Version>
5.8.1

> <Gold.Id.Protein>
6NUR|6NUR_protein|mol2

> <Gold.PLP.Fitness>
41.8920

> <Gold.PLP.PLP>
-36.3340

> <Gold.PLP.part.hbond>
-2.3364

> <Gold.PLP.part.metal>
0.0000

> <Gold.PLP.part.buried>
-4.7758

> <Gold.PLP.part.nonpolar>
-28.9054

> <Gold.PLP.part.repulsive>
0.2812

> <Gold.PLP.ligand.clash>
0.0000

> <Gold.PLP.ligand.torsion>
1.9334

> <Gold.PLP.Chemscore.Hbond>
1.9280

> <Gold.PLP.Chemscore.CHOScore>
0.7210

> <Gold.PLP.Chemscore.Metal>
0.0000

> <Gold.Chemscore.Hbonds>
donor molecule, donor type, donor heavy atom, donor atom, acceptor molecule, acceptor atom, score
      L1  H    21    46       P1 10171  0.74
      L1  H    23    49       P1 10175  1.00
      L1  C    10    39       P1  8028  0.83

> <Gold.PLP.Chemscore.Internal.Correction>
1.4778

> <Gold.Rescore>
     Score         DG    S(hbond)    S(metal)    S(lipo)     H(rot)  DE(clash)    DE(int)     intcor
     11.60     -15.65       1.88        0.00     105.18       3.29       0.60       3.45       ----

> <Gold.Chemscore.Fitness>
11.6005

> <Gold.Chemscore.DG>
-15.6469

> <Gold.Chemscore.ZeroCoef>
-5.4800

> <Gold.Chemscore.Hbond>
1.8789

> <Gold.Chemscore.Metal>
0.0000

> <Gold.Chemscore.Lipo>
105.1813

> <Gold.Chemscore.Internal_Hbond>
0.0000

> <Gold.Chemscore.DEClash>
0.5976

> <Gold.Chemscore.DEInternal>
3.4489

> <Gold.Chemscore.Rot>
3.2870

> <Gold.Chemscore.Internal.Correction>
   9.000000E+99

> <Gold.Chemscore.Hbonds>
donor molecule, donor type, donor heavy atom, donor atom, acceptor molecule, acceptor atom, score
      L1  H    21    46       P1 10171  0.74
      L1  H    23    49       P1 10175  1.00

> <Gold.Chemscore.Hbond.Weighted>
-6.2755

> <Gold.Chemscore.Metal.Weighted>
-0.0000

> <Gold.Chemscore.Lipo.Weighted>
-12.3062

> <Gold.Chemscore.Internal_Hbond.Weighted>
0.0000

> <Gold.Chemscore.DEClash.Weighted>
0.5976

> <Gold.Chemscore.DEInternal.Weighted>
3.4489

> <Gold.Chemscore.Rot.Weighted>
8.4147

> <Gold.Chemscore.Internal.Correction.Weighted>
   9.000000E+99

> <Gold.Protein.RotatedTorsions>
[ 6907 6896 6895 6894 ] final -133.70 input  -60.11 | X-H torsion
[ 7974 7965 7964 7962 ] final  -91.63 input  175.53 | X-H torsion
[ 8008 7997 7996 7995 ] final  -67.13 input   59.86 | X-H torsion
[ 10167 10162 10161 10158 ] final  113.20 input  -65.29 | X-H torsion
[ 10718 10713 10712 10709 ] final   65.55 input   66.30 | X-H torsion
[ 10763 10752 10751 10750 ] final  -72.38 input  -60.55 | X-H torsion
[ 11005 11000 10999 10996 ] final   20.81 input  -57.11 | X-H torsion

> <Gold.Protein.ActiveResidues>
 VAL166  LYS551  ARG553  GLY616  TRP617  ASP618  TYR619  PRO620  LYS621  CYS622 
 ASP623  PHE694  ASN695  SER759  ASP760  ASP761  ALA762  ILE779  LEU786  VAL792 
 PHE793  MET794  SER795  GLU796  ALA797  LYS798  CYS799  TRP800  GLU811  SER814 

> <Gold.Protein.RotatedAtoms>
  150.9771  133.6283  159.2728 H   0  0  0  0  0  0  0  0  0  0  0  0  # atno 6907 bound_to 6896
  151.3551  135.0891  159.9426 H   0  0  0  0  0  0  0  0  0  0  0  0  # atno 6908 bound_to 6896
  152.5203  133.9356  159.7656 H   0  0  0  0  0  0  0  0  0  0  0  0  # atno 6909 bound_to 6896
  145.4105  140.9544  143.2237 H   0  0  0  0  0  0  0  0  0  0  0  0  # atno 7974 bound_to 7965
  154.4780  140.0899  156.7308 H   0  0  0  0  0  0  0  0  0  0  0  0  # atno 8008 bound_to 7997
  155.4546  140.3458  155.4287 H   0  0  0  0  0  0  0  0  0  0  0  0  # atno 8009 bound_to 7997
  156.1146  140.1457  156.9278 H   0  0  0  0  0  0  0  0  0  0  0  0  # atno 8010 bound_to 7997
  139.6479  144.7127  151.2106 H   0  0  0  0  0  0  0  0  0  0  0  0  # atno 10167 bound_to 10162
  157.6112  130.9220  149.9991 H   0  0  0  0  0  0  0  0  0  0  0  0  # atno 10718 bound_to 10713
  154.4449  135.5931  153.6153 H   0  0  0  0  0  0  0  0  0  0  0  0  # atno 10763 bound_to 10752
  152.9808  135.6007  154.3676 H   0  0  0  0  0  0  0  0  0  0  0  0  # atno 10764 bound_to 10752
  154.3531  135.2841  155.2340 H   0  0  0  0  0  0  0  0  0  0  0  0  # atno 10765 bound_to 10752
  140.3985  134.1744  155.7663 H   0  0  0  0  0  0  0  0  0  0  0  0  # atno 11005 bound_to 11000
  144.8312  139.5625  143.6943 LP  0  0  0  0  0  0  0  0  0  0  0  0  # atno 17320 bound_to 7965
  146.2707  139.6628  142.9298 LP  0  0  0  0  0  0  0  0  0  0  0  0  # atno 17321 bound_to 7965
  140.7523  143.6200  150.8522 LP  0  0  0  0  0  0  0  0  0  0  0  0  # atno 17342 bound_to 10162
  139.9845  143.5915  152.2931 LP  0  0  0  0  0  0  0  0  0  0  0  0  # atno 17343 bound_to 10162
  156.1216  130.3646  149.9877 LP  0  0  0  0  0  0  0  0  0  0  0  0  # atno 17370 bound_to 10713
  156.7956  130.9272  151.3646 LP  0  0  0  0  0  0  0  0  0  0  0  0  # atno 17371 bound_to 10713
  141.1865  133.8300  157.1065 LP  0  0  0  0  0  0  0  0  0  0  0  0  # atno 17394 bound_to 11000
  140.0354  134.9881  157.0860 LP  0  0  0  0  0  0  0  0  0  0  0  0  # atno 17395 bound_to 11000

$$$$
