AV-unprocessed.smi:1933|AV-procd|sdf|7816|dock4
  -GOLD-   22720 9563D 1   1.00000     0.00000
 Structure written by MMmdl.
 47 49  0  0  0  0  0  0  0  0  1 V2000
  144.6786  136.9629  152.6256 O   0  0  0  0  0  0  0  0  0  0  0  0
  145.8649  136.7905  152.3443 C   0  0  0  0  0  0  0  0  0  0  0  0
  146.8296  137.6791  152.6221 N   0  0  0  0  0  0  0  0  0  0  0  0
  146.6310  138.9727  153.2699 C   0  0  0  0  0  0  0  0  0  0  0  0
  147.9827  139.6682  153.5840 C   0  0  1  0  0  0  0  0  0  0  0  0
  147.7943  141.0098  154.3604 C   0  0  2  0  0  0  0  0  0  0  0  0
  147.4661  140.9049  155.8532 C   0  0  0  0  0  0  0  0  0  0  0  0
  146.2521  141.8158  156.0281 C   0  0  0  0  0  0  0  0  0  0  0  0
  146.3603  142.7439  154.9620 O   0  0  0  0  0  0  0  0  0  0  0  0
  146.7621  142.0118  153.8156 C   0  0  0  0  0  0  0  0  0  0  0  0
  149.0332  138.7745  154.1139 N   0  0  0  0  0  0  0  0  0  0  0  0
  148.6062  138.0074  155.2825 C   0  0  0  0  0  0  0  0  0  0  0  0
  149.6696  136.9846  155.7133 C   0  0  0  0  0  0  0  0  0  0  0  0
  150.8939  137.6613  155.9757 O   0  0  0  0  0  0  0  0  0  0  0  0
  151.3761  138.3780  154.8441 C   0  0  0  0  0  0  0  0  0  0  0  0
  150.3256  139.4029  154.3804 C   0  0  0  0  0  0  0  0  0  0  0  0
  146.3674  135.7085  151.7237 N   0  0  0  0  0  0  0  0  0  0  0  0
  145.6705  134.5662  151.2474 C   0  0  0  0  0  0  0  0  0  0  0  0
  146.4910  133.5333  150.7396 C   0  0  0  0  0  0  0  0  0  0  0  0
  145.8966  132.3577  150.2413 C   0  0  0  0  0  0  0  0  0  0  0  0
  144.4950  132.2451  150.2630 C   0  0  0  0  0  0  0  0  0  0  0  0
  143.7516  133.3195  150.7853 C   0  0  0  0  0  0  0  0  0  0  0  0
  144.3192  134.4469  151.2636 N   0  0  0  0  0  0  0  0  0  0  0  0
  147.7756  137.4493  152.3549 H   0  0  0  0  0  0  0  0  0  0  0  0
  146.0063  139.6252  152.6587 H   0  0  0  0  0  0  0  0  0  0  0  0
  146.0679  138.7782  154.1814 H   0  0  0  0  0  0  0  0  0  0  0  0
  148.3607  139.9955  152.6142 H   0  0  0  0  0  0  0  0  0  0  0  0
  148.7516  141.5314  154.3104 H   0  0  0  0  0  0  0  0  0  0  0  0
  147.2568  139.8959  156.2068 H   0  0  0  0  0  0  0  0  0  0  0  0
  148.3045  141.2813  156.4406 H   0  0  0  0  0  0  0  0  0  0  0  0
  145.3255  141.2502  155.9214 H   0  0  0  0  0  0  0  0  0  0  0  0
  146.2371  142.3153  156.9968 H   0  0  0  0  0  0  0  0  0  0  0  0
  147.1864  142.6783  153.0648 H   0  0  0  0  0  0  0  0  0  0  0  0
  145.8933  141.5320  153.3700 H   0  0  0  0  0  0  0  0  0  0  0  0
  148.4106  138.6729  156.1229 H   0  0  0  0  0  0  0  0  0  0  0  0
  147.6724  137.4874  155.0668 H   0  0  0  0  0  0  0  0  0  0  0  0
  149.3506  136.4623  156.6152 H   0  0  0  0  0  0  0  0  0  0  0  0
  149.8181  136.2295  154.9396 H   0  0  0  0  0  0  0  0  0  0  0  0
  152.3051  138.8822  155.1102 H   0  0  0  0  0  0  0  0  0  0  0  0
  151.6111  137.6796  154.0392 H   0  0  0  0  0  0  0  0  0  0  0  0
  150.7082  139.8791  153.4818 H   0  0  0  0  0  0  0  0  0  0  0  0
  150.2190  140.1783  155.1395 H   0  0  0  0  0  0  0  0  0  0  0  0
  147.3639  135.7052  151.5649 H   0  0  0  0  0  0  0  0  0  0  0  0
  147.5664  133.6364  150.7301 H   0  0  0  0  0  0  0  0  0  0  0  0
  146.5063  131.5570  149.8493 H   0  0  0  0  0  0  0  0  0  0  0  0
  144.0027  131.3593  149.8897 H   0  0  0  0  0  0  0  0  0  0  0  0
  142.6732  133.2732  150.8207 H   0  0  0  0  0  0  0  0  0  0  0  0
  1  2  2  0  0  0  0
  2  3  1  0  0  0  0
  2 17  1  0  0  0  0
  3  4  1  0  0  0  0
  3 24  1  0  0  0  0
  4  5  1  0  0  0  0
  4 25  1  0  0  0  0
  4 26  1  0  0  0  0
  5  6  1  0  0  0  0
  5 11  1  0  0  0  0
  5 27  1  0  0  0  0
  6 10  1  0  0  0  0
  6  7  1  0  0  0  0
  6 28  1  0  0  0  0
  7  8  1  0  0  0  0
  7 29  1  0  0  0  0
  7 30  1  0  0  0  0
  8  9  1  0  0  0  0
  8 31  1  0  0  0  0
  8 32  1  0  0  0  0
  9 10  1  0  0  0  0
 10 33  1  0  0  0  0
 10 34  1  0  0  0  0
 11 16  1  0  0  0  0
 11 12  1  0  0  0  0
 12 13  1  0  0  0  0
 12 35  1  0  0  0  0
 12 36  1  0  0  0  0
 13 14  1  0  0  0  0
 13 37  1  0  0  0  0
 13 38  1  0  0  0  0
 14 15  1  0  0  0  0
 15 16  1  0  0  0  0
 15 39  1  0  0  0  0
 15 40  1  0  0  0  0
 16 41  1  0  0  0  0
 16 42  1  0  0  0  0
 17 18  1  0  0  0  0
 17 43  1  0  0  0  0
 18 23  1  0  0  0  0
 18 19  2  0  0  0  0
 19 20  1  0  0  0  0
 19 44  1  0  0  0  0
 20 21  2  0  0  0  0
 20 45  1  0  0  0  0
 21 22  1  0  0  0  0
 21 46  1  0  0  0  0
 22 23  2  0  0  0  0
 22 47  1  0  0  0  0
M  END
> <s_m_source_file>
AV-unprocessed.smi

> <i_m_source_file_index>
1933

> <i_lp_mmshare_version>
43012

> <i_f3d_flags>
0

> <s_epik_input>
bjFbY0hdW2NIXVtjSF1bY0hdYzFbTkhdQyg9TylbTkhdW0NIMl1bQ0BIXShbQ0BASF0yW0NIMl1bQ0gyXU9bQ0gyXTIpTjNbQ0gyXVtDSDJdT1tDSDJdW0NIMl0z

> <s_epik_cmdline>
J2VwaWtfcHl0aG9uJywgJy1waCcsICc3LjAnLCAnLXRuJywgJzgnLCAnLW1hJywgJzIwMCcsICctbWV0YWxfYmluZGluZycsICctaW1hZScsICc8aW5maWxlLm1hZT4nLCAnLW9tYWUnLCAnPG91dGZpbGUubWFlPic=

> <r_epik_Ionization_Penalty>
0.125062

> <r_epik_Ionization_Penalty_Charging>
0

> <r_epik_Ionization_Penalty_Neutral>
0.125062

> <r_epik_State_Penalty>
0.114484

> <r_epik_Charging_Adjusted_Penalty>
0.114484

> <i_epik_Tot_Q>
0

> <i_epik_Tot_abs_Q>
0

> <r_epik_Metal_State_Penalty>
0.114484

> <b_epik_Metal_Only>
0

> <s_lp_Force_Field>
OPLS_2005

> <r_lp_Energy>
56.3046

> <b_lp_Chiralities_Consistent>
1

> <s_lp_Variant>
AV-unprocessed.smi:1933-2

> <Gold.Version>
5.8.1

> <Gold.Id.Protein>
6NUR|6NUR_protein|mol2

> <Gold.PLP.Fitness>
43.1083

> <Gold.PLP.PLP>
-34.4173

> <Gold.PLP.part.hbond>
-2.0000

> <Gold.PLP.part.metal>
0.0000

> <Gold.PLP.part.buried>
-5.0670

> <Gold.PLP.part.nonpolar>
-28.2413

> <Gold.PLP.part.repulsive>
0.8633

> <Gold.PLP.ligand.clash>
0.0000

> <Gold.PLP.ligand.torsion>
0.3452

> <Gold.PLP.Chemscore.Hbond>
2.0000

> <Gold.PLP.Chemscore.CHOScore>
1.0000

> <Gold.PLP.Chemscore.Metal>
0.0000

> <Gold.Chemscore.Hbonds>
donor molecule, donor type, donor heavy atom, donor atom, acceptor molecule, acceptor atom, score
      L1  H     3    24       P1  7948  0.99
      L1  H    17    43       P1  7948  1.00
      L1  C    22    47       P1 10186  1.00

> <Gold.PLP.Chemscore.Internal.Correction>
0.3815

> <Gold.Rescore>
     Score         DG    S(hbond)    S(metal)    S(lipo)     H(rot)  DE(clash)    DE(int)     intcor
     15.61     -17.68       1.91        0.00      87.15       1.72       0.35       1.72       ----

> <Gold.Chemscore.Fitness>
15.6068

> <Gold.Chemscore.DG>
-17.6765

> <Gold.Chemscore.ZeroCoef>
-5.4800

> <Gold.Chemscore.Hbond>
1.9141

> <Gold.Chemscore.Metal>
0.0000

> <Gold.Chemscore.Lipo>
87.1508

> <Gold.Chemscore.Internal_Hbond>
0.0000

> <Gold.Chemscore.DEClash>
0.3528

> <Gold.Chemscore.DEInternal>
1.7169

> <Gold.Chemscore.Rot>
1.7161

> <Gold.Chemscore.Internal.Correction>
   9.000000E+99

> <Gold.Chemscore.Hbonds>
donor molecule, donor type, donor heavy atom, donor atom, acceptor molecule, acceptor atom, score
      L1  H     3    24       P1  7948  0.94
      L1  H    17    43       P1  7948  0.97

> <Gold.Chemscore.Hbond.Weighted>
-6.3930

> <Gold.Chemscore.Metal.Weighted>
-0.0000

> <Gold.Chemscore.Lipo.Weighted>
-10.1966

> <Gold.Chemscore.Internal_Hbond.Weighted>
0.0000

> <Gold.Chemscore.DEClash.Weighted>
0.3528

> <Gold.Chemscore.DEInternal.Weighted>
1.7169

> <Gold.Chemscore.Rot.Weighted>
4.3932

> <Gold.Chemscore.Internal.Correction.Weighted>
   9.000000E+99

> <Gold.Protein.RotatedTorsions>
[ 6907 6896 6895 6894 ] final   52.46 input  -60.11 | X-H torsion
[ 7974 7965 7964 7962 ] final -131.23 input  175.53 | X-H torsion
[ 8008 7997 7996 7995 ] final  123.51 input   59.86 | X-H torsion
[ 10167 10162 10161 10158 ] final   92.51 input  -65.29 | X-H torsion
[ 10718 10713 10712 10709 ] final -146.72 input   66.30 | X-H torsion
[ 10763 10752 10751 10750 ] final  -38.42 input  -60.55 | X-H torsion
[ 11005 11000 10999 10996 ] final -177.58 input  -57.11 | X-H torsion

> <Gold.Protein.ActiveResidues>
 VAL166  LYS551  ARG553  GLY616  TRP617  ASP618  TYR619  PRO620  LYS621  CYS622 
 ASP623  PHE694  ASN695  SER759  ASP760  ASP761  ALA762  ILE779  LEU786  VAL792 
 PHE793  MET794  SER795  GLU796  ALA797  LYS798  CYS799  TRP800  GLU811  SER814 

> <Gold.Protein.RotatedAtoms>
  152.3235  134.7350  160.0307 H   0  0  0  0  0  0  0  0  0  0  0  0  # atno 6907 bound_to 6896
  151.7791  133.3342  159.3474 H   0  0  0  0  0  0  0  0  0  0  0  0  # atno 6908 bound_to 6896
  150.7383  134.5879  159.6017 H   0  0  0  0  0  0  0  0  0  0  0  0  # atno 6909 bound_to 6896
  144.9399  140.7227  143.4853 H   0  0  0  0  0  0  0  0  0  0  0  0  # atno 7974 bound_to 7965
  156.2768  140.2761  156.1639 H   0  0  0  0  0  0  0  0  0  0  0  0  # atno 8008 bound_to 7997
  155.0725  140.0387  157.2631 H   0  0  0  0  0  0  0  0  0  0  0  0  # atno 8009 bound_to 7997
  154.7028  140.2652  155.6708 H   0  0  0  0  0  0  0  0  0  0  0  0  # atno 8010 bound_to 7997
  139.8270  144.6705  150.9447 H   0  0  0  0  0  0  0  0  0  0  0  0  # atno 10167 bound_to 10162
  156.3985  130.7922  151.2130 H   0  0  0  0  0  0  0  0  0  0  0  0  # atno 10718 bound_to 10713
  153.9125  135.6791  153.4750 H   0  0  0  0  0  0  0  0  0  0  0  0  # atno 10763 bound_to 10752
  153.1071  135.4800  154.8968 H   0  0  0  0  0  0  0  0  0  0  0  0  # atno 10764 bound_to 10752
  154.7520  135.3187  154.8496 H   0  0  0  0  0  0  0  0  0  0  0  0  # atno 10765 bound_to 10752
  140.4393  134.6446  157.4750 H   0  0  0  0  0  0  0  0  0  0  0  0  # atno 11005 bound_to 11000
  145.3007  139.1851  143.4691 LP  0  0  0  0  0  0  0  0  0  0  0  0  # atno 17320 bound_to 7965
  146.3281  140.2998  142.8620 LP  0  0  0  0  0  0  0  0  0  0  0  0  # atno 17321 bound_to 7965
  140.7809  143.4037  151.1107 LP  0  0  0  0  0  0  0  0  0  0  0  0  # atno 17342 bound_to 10162
  139.7693  143.8518  152.3117 LP  0  0  0  0  0  0  0  0  0  0  0  0  # atno 17343 bound_to 10162
  157.7503  131.0294  150.4091 LP  0  0  0  0  0  0  0  0  0  0  0  0  # atno 17370 bound_to 10713
  156.4366  130.3983  149.6725 LP  0  0  0  0  0  0  0  0  0  0  0  0  # atno 17371 bound_to 10713
  140.0081  134.6733  155.9424 LP  0  0  0  0  0  0  0  0  0  0  0  0  # atno 17394 bound_to 11000
  141.1712  133.6537  156.4660 LP  0  0  0  0  0  0  0  0  0  0  0  0  # atno 17395 bound_to 11000

$$$$
