#       Name:                AV-unprocessed.smi:451
#       Creating user name   scv26
#       Creation time:       Thu Mar 26 23:00:46 2020


#       File generated by GOLD software.
#

@<TRIPOS>MOLECULE
AV-unprocessed.smi:451
    44    44     1
SMALL
NO_CHARGES


@<TRIPOS>ATOM
      1 ****        -3.7489  -1.8079  -2.1466 C.3            1 S1                 0.0000
      2 ****        -2.8585  -2.5070  -1.1109 C.3            1 S1                 0.0000
      3 ****        -2.6154  -1.6936   0.1766 C.3            1 S1                 0.0000
      4 ****        -1.8923  -0.4522  -0.0367 N.am           1 S1                 0.0000
      5 ****        -0.5028  -0.3934  -0.1789 C.2            1 S1                 0.0000
      6 ****         0.2097  -1.5798  -0.0927 N.pl3          1 S1                 0.0000
      7 ****         0.1560   0.7853  -0.3842 C.2            1 S1                 0.0000
      8 ****         1.5381   0.8747  -0.5426 N.pl3          1 S1                 0.0000
      9 ****         2.3884  -0.3092  -0.4985 C.3            1 S1                 0.0000
     10 ****         2.2232   2.1605  -0.6512 C.3            1 S1                 0.0000
     11 ****         2.9400   2.5521   0.6543 C.3            1 S1                 0.0000
     12 ****         3.6659   3.7662   0.5193 O.3            1 S1                 0.0000
     13 ****         2.8600   4.9339   0.5510 C.3            1 S1                 0.0000
     14 ****        -0.5930   2.0455  -0.4711 C.2            1 S1                 0.0000
     15 ****        -0.1068   3.1597  -0.6635 O.2            1 S1                 0.0000
     16 ****        -1.9723   1.9223  -0.3269 N.am           1 S1                 0.0000
     17 ****        -2.6621   0.7339  -0.1181 C.2            1 S1                 0.0000
     18 ****        -3.8895   0.7616  -0.0228 O.2            1 S1                 0.0000
     19 ****        -2.5188   2.7690  -0.3860 H              1 S1                 0.0000
     20 ****        -3.9374  -2.4618  -2.9982 H              1 S1                 0.0000
     21 ****        -3.2807  -0.9004  -2.5280 H              1 S1                 0.0000
     22 ****        -4.7132  -1.5352  -1.7167 H              1 S1                 0.0000
     23 ****        -3.3218  -3.4554  -0.8377 H              1 S1                 0.0000
     24 ****        -1.9052  -2.7632  -1.5736 H              1 S1                 0.0000
     25 ****        -3.5473  -1.4811   0.7018 H              1 S1                 0.0000
     26 ****        -2.0213  -2.2656   0.8896 H              1 S1                 0.0000
     27 ****        -0.2525  -2.4632   0.0676 H              1 S1                 0.0000
     28 ****         1.2126  -1.6105  -0.2067 H              1 S1                 0.0000
     29 ****         1.8130  -1.2071  -0.7275 H              1 S1                 0.0000
     30 ****         2.8292  -0.4345   0.4904 H              1 S1                 0.0000
     31 ****         3.1963  -0.2388  -1.2275 H              1 S1                 0.0000
     32 ****         2.9407   2.1160  -1.4713 H              1 S1                 0.0000
     33 ****         1.5013   2.9299  -0.9236 H              1 S1                 0.0000
     34 ****         2.2360   2.6130   1.4858 H              1 S1                 0.0000
     35 ****         3.6632   1.7808   0.9184 H              1 S1                 0.0000
     36 ****         3.5003   5.8153   0.5183 H              1 S1                 0.0000
     37 ****         2.2704   4.9845   1.4672 H              1 S1                 0.0000
     38 ****         2.1857   4.9866  -0.3033 H              1 S1                 0.0000
     39 ****         4.1525   3.7449  -0.3541 LP             1 S1                 0.0000
     40 ****         4.3268   3.8211   1.2678 LP             1 S1                 0.0000
     41 ****         0.8817   3.2612  -0.7760 LP             1 S1                 0.0000
     42 ****        -0.7002   3.9634  -0.7073 LP             1 S1                 0.0000
     43 ****        -4.3991  -0.0868   0.1206 LP             1 S1                 0.0000
     44 ****        -4.3766   1.6324  -0.0888 LP             1 S1                 0.0000
@<TRIPOS>BOND
    1    1    2 1     
    2    1   20 1     
    3    1   21 1     
    4    1   22 1     
    5    2    3 1     
    6    2   23 1     
    7    2   24 1     
    8    3    4 1     
    9    3   25 1     
   10    3   26 1     
   11    4   17 1     
   12    4    5 1     
   13    5    6 1     
   14    5    7 2     
   15    6   27 1     
   16    6   28 1     
   17    7    8 1     
   18    7   14 1     
   19    8    9 1     
   20    8   10 1     
   21    9   29 1     
   22    9   30 1     
   23    9   31 1     
   24   10   11 1     
   25   10   32 1     
   26   10   33 1     
   27   11   12 1     
   28   11   34 1     
   29   11   35 1     
   30   12   13 1     
   31   13   36 1     
   32   13   37 1     
   33   13   38 1     
   34   14   15 2     
   35   14   16 1     
   36   16   19 1     
   37   16   17 1     
   38   17   18 2     
   39   12   39 1     
   40   12   40 1     
   41   15   41 1     
   42   15   42 1     
   43   18   43 1     
   44   18   44 1     
@<TRIPOS>SUBSTRUCTURE
      1 S1             1
@<TRIPOS>SET
LONE_PAIRS      STATIC     ATOMS    <user>   **** ""
6 39 40 41 42 43 44
DONOR_HYDROGENS      STATIC     ATOMS    <user>   **** ""
3 27 28 19
ATOM$BLUE        STATIC     ATOMS    COLORGROUP SYSTEM
6 39 40 41 42 43 44
ATOM$RED        STATIC     ATOMS    COLORGROUP SYSTEM
3 27 28 19
