#       Name:                AV-unprocessed.smi:560
#       Creating user name   scv26
#       Creation time:       Thu Mar 26 23:43:05 2020


#       File generated by GOLD software.
#

@<TRIPOS>MOLECULE
AV-unprocessed.smi:560
    47    48     1
SMALL
NO_CHARGES


@<TRIPOS>ATOM
      1 ****        -2.5800  -3.0271  -1.5711 C.3            1 S1                 0.0000
      2 ****        -1.9276  -2.1778  -0.4614 C.3            1 S1                 0.0000
      3 ****        -0.4269  -1.9388  -0.6951 C.2            1 S1                 0.0000
      4 ****         0.2175  -2.6626  -1.4549 O.2            1 S1                 0.0000
      5 ****         0.1175  -0.9053  -0.0331 N.am           1 S1                 0.0000
      6 ****         1.5214  -0.5027  -0.0957 C.3            1 S1                 0.0000
      7 ****         1.8889   0.3516   1.1295 C.3            1 S1                 0.0000
      8 ****         1.2431   1.7484   1.0751 C.3            1 S1                 0.0000
      9 ****         1.5887   2.4557  -0.1840 N.4            1 S1                 1.0000
     10 ****         1.0865   3.8522  -0.1991 C.3            1 S1                 0.0000
     11 ****         1.9312   4.7087  -1.1483 C.2            1 S1                 0.0000
     12 ****         1.2055   5.2306  -2.1557 N.pl3          1 S1                -1.0000
     13 ****         3.1367   4.8339  -0.9414 O.2            1 S1                 0.0000
     14 ****         1.1826   1.6744  -1.3834 C.3            1 S1                 0.0000
     15 ****         1.8350   0.2810  -1.3851 C.3            1 S1                 0.0000
     16 ****        -2.1555  -2.7411   0.8647 N.pl3          1 S1                 0.0000
     17 ****        -2.6242  -2.0965   1.9917 C.2            1 S1                 0.0000
     18 ****        -2.6472  -3.0087   3.0074 C.2            1 S1                 0.0000
     19 ****        -2.1590  -4.2001   2.4026 C.2            1 S1                 0.0000
     20 ****        -1.8586  -4.0358   1.1249 N.2            1 S1                 0.0000
     21 ****        -2.4499  -2.5634  -2.5495 H              1 S1                 0.0000
     22 ****        -3.6518  -3.1311  -1.4001 H              1 S1                 0.0000
     23 ****        -2.1560  -4.0307  -1.6226 H              1 S1                 0.0000
     24 ****        -2.4116  -1.2000  -0.4815 H              1 S1                 0.0000
     25 ****        -0.4852  -0.3664   0.5715 H              1 S1                 0.0000
     26 ****         2.1326  -1.4068  -0.0733 H              1 S1                 0.0000
     27 ****         1.6001  -0.1601   2.0486 H              1 S1                 0.0000
     28 ****         2.9732   0.4640   1.1740 H              1 S1                 0.0000
     29 ****         0.1583   1.6705   1.1629 H              1 S1                 0.0000
     30 ****         1.5875   2.3320   1.9296 H              1 S1                 0.0000
     31 ****         0.0219   3.8715  -0.4434 H              1 S1                 0.0000
     32 ****         1.1844   4.2943   0.7933 H              1 S1                 0.0000
     33 ****         0.1986   5.0332  -2.1987 H              1 S1                 0.0000
     34 ****         0.0956   1.5835  -1.4113 H              1 S1                 0.0000
     35 ****         1.4742   2.1999  -2.2930 H              1 S1                 0.0000
     36 ****         2.9157   0.3957  -1.4791 H              1 S1                 0.0000
     37 ****         1.5165  -0.2798  -2.2645 H              1 S1                 0.0000
     38 ****        -2.9005  -1.0526   1.9775 H              1 S1                 0.0000
     39 ****        -2.9625  -2.8494   4.0279 H              1 S1                 0.0000
     40 ****        -2.0116  -5.1713   2.8516 H              1 S1                 0.0000
     41 ****         2.5964   2.5262  -0.2057 H              1 S1                 0.0000
     42 ****        -0.2348  -3.4177  -1.9296 LP             1 S1                 0.0000
     43 ****         1.1930  -2.4952  -1.5973 LP             1 S1                 0.0000
     44 ****         1.6407   5.8019  -2.8516 LP             1 S1                 0.0000
     45 ****         3.5595   4.3784  -0.1580 LP             1 S1                 0.0000
     46 ****         3.6943   5.3913  -1.5566 LP             1 S1                 0.0000
     47 ****        -1.4930  -4.7175   0.4912 LP             1 S1                 0.0000
@<TRIPOS>BOND
    1    1    2 1     
    2    1   21 1     
    3    1   22 1     
    4    1   23 1     
    5    2    3 1     
    6    2   16 1     
    7    2   24 1     
    8    3    4 2     
    9    3    5 am    
   10    5    6 1     
   11    5   25 1     
   12    6   15 1     
   13    6    7 1     
   14    6   26 1     
   15    7    8 1     
   16    7   27 1     
   17    7   28 1     
   18    8    9 1     
   19    8   29 1     
   20    8   30 1     
   21    9   10 1     
   22    9   14 1     
   23    9   41 1     
   24   10   11 1     
   25   10   31 1     
   26   10   32 1     
   27   11   12 1     
   28   11   13 2     
   29   12   33 1     
   30   14   15 1     
   31   14   34 1     
   32   14   35 1     
   33   15   36 1     
   34   15   37 1     
   35   16   20 1     
   36   16   17 1     
   37   17   18 2     
   38   17   38 1     
   39   18   19 1     
   40   18   39 1     
   41   19   20 2     
   42   19   40 1     
   43    4   42 1     
   44    4   43 1     
   45   12   44 1     
   46   13   45 1     
   47   13   46 1     
   48   20   47 1     
@<TRIPOS>SUBSTRUCTURE
      1 S1             1
@<TRIPOS>SET
LONE_PAIRS      STATIC     ATOMS    <user>   **** ""
6 42 43 44 45 46 47
DONOR_HYDROGENS      STATIC     ATOMS    <user>   **** ""
3 25 41 33
ATOM$BLUE        STATIC     ATOMS    COLORGROUP SYSTEM
6 42 43 44 45 46 47
ATOM$RED        STATIC     ATOMS    COLORGROUP SYSTEM
3 25 41 33
