AV-unprocessed.smi:2216|AV-procd|sdf|8967|dock1
  -GOLD-   2272012183D 1   1.00000     0.00000
 Structure written by MMmdl.
 40 41  0  0  0  0  0  0  0  0  2 V2000
  145.5622  130.8989  151.4309 C   0  0  0  0  0  0  0  0  0  0  0  0
  145.3142  132.3695  151.1414 C   0  0  0  0  0  0  0  0  0  0  0  0
  145.9932  133.3478  151.7913 C   0  0  0  0  0  0  0  0  0  0  0  0
  145.7657  134.7657  151.5126 C   0  0  0  0  0  0  0  0  0  0  0  0
  146.4083  135.8581  152.1095 N   0  0  0  0  0  0  0  0  0  0  0  0
  145.8683  136.8636  152.8205 C   0  0  0  0  0  0  0  0  0  0  0  0
  144.6697  137.0239  153.0494 O   0  0  0  0  0  0  0  0  0  0  0  0
  146.8180  137.7041  153.2551 N   0  0  0  0  0  0  0  0  0  0  0  0
  146.5767  138.9139  154.0328 C   0  0  0  0  0  0  0  0  0  0  0  0
  147.2588  140.1354  153.3941 C   0  0  0  0  0  0  0  0  0  0  0  0
  148.6672  140.3940  153.9518 C   0  0  1  0  0  0  0  0  0  0  0  0
  148.6388  141.3277  155.1776 C   0  0  0  0  0  0  0  0  0  0  0  0
  150.0476  141.5022  155.7562 C   0  0  0  0  0  0  0  0  0  0  0  0
  150.6683  140.1279  156.0283 C   0  0  0  0  0  0  0  0  0  0  0  0
  150.5914  139.2487  154.7700 C   0  0  0  0  0  0  0  0  0  0  0  0
  149.2402  139.1440  154.3319 O   0  0  0  0  0  0  0  0  0  0  0  0
  144.8137  134.9671  150.5338 C   0  0  0  0  0  0  0  0  0  0  0  0
  144.0969  134.0511  149.8475 N   0  5  0  0  0  0  0  0  0  0  0  0
  144.3106  132.7319  150.1202 C   0  0  0  0  0  0  0  0  0  0  0  0
  143.6914  131.8418  149.5388 O   0  0  0  0  0  0  0  0  0  0  0  0
  146.3215  130.7673  152.2024 H   0  0  0  0  0  0  0  0  0  0  0  0
  145.9040  130.3863  150.5312 H   0  0  0  0  0  0  0  0  0  0  0  0
  144.6460  130.4182  151.7749 H   0  0  0  0  0  0  0  0  0  0  0  0
  146.7254  133.0451  152.5220 H   0  0  0  0  0  0  0  0  0  0  0  0
  147.4091  135.8831  151.9806 H   0  0  0  0  0  0  0  0  0  0  0  0
  147.7777  137.4953  153.0224 H   0  0  0  0  0  0  0  0  0  0  0  0
  145.5042  139.0832  154.1425 H   0  0  0  0  0  0  0  0  0  0  0  0
  146.9679  138.7525  155.0374 H   0  0  0  0  0  0  0  0  0  0  0  0
  147.3233  139.9786  152.3167 H   0  0  0  0  0  0  0  0  0  0  0  0
  146.6425  141.0238  153.5382 H   0  0  0  0  0  0  0  0  0  0  0  0
  149.2783  140.8464  153.1685 H   0  0  0  0  0  0  0  0  0  0  0  0
  148.2269  142.2995  154.9042 H   0  0  0  0  0  0  0  0  0  0  0  0
  147.9799  140.9130  155.9416 H   0  0  0  0  0  0  0  0  0  0  0  0
  150.6696  142.0531  155.0496 H   0  0  0  0  0  0  0  0  0  0  0  0
  150.0130  142.0928  156.6721 H   0  0  0  0  0  0  0  0  0  0  0  0
  151.7039  140.2382  156.3508 H   0  0  0  0  0  0  0  0  0  0  0  0
  150.1358  139.6403  156.8457 H   0  0  0  0  0  0  0  0  0  0  0  0
  151.2127  139.6564  153.9712 H   0  0  0  0  0  0  0  0  0  0  0  0
  150.9687  138.2495  154.9877 H   0  0  0  0  0  0  0  0  0  0  0  0
  144.5918  136.0224  150.2647 H   0  0  0  0  0  0  0  0  0  0  0  0
  1  2  1  0  0  0  0
  1 21  1  0  0  0  0
  1 22  1  0  0  0  0
  1 23  1  0  0  0  0
  2 19  1  0  0  0  0
  2  3  2  0  0  0  0
  3  4  1  0  0  0  0
  3 24  1  0  0  0  0
  4  5  1  0  0  0  0
  4 17  2  0  0  0  0
  5  6  1  0  0  0  0
  5 25  1  0  0  0  0
  6  7  2  0  0  0  0
  6  8  1  0  0  0  0
  8  9  1  0  0  0  0
  8 26  1  0  0  0  0
  9 10  1  0  0  0  0
  9 27  1  0  0  0  0
  9 28  1  0  0  0  0
 10 11  1  0  0  0  0
 10 29  1  0  0  0  0
 10 30  1  0  0  0  0
 11 16  1  0  0  0  0
 11 12  1  0  0  0  0
 11 31  1  0  0  0  0
 12 13  1  0  0  0  0
 12 32  1  0  0  0  0
 12 33  1  0  0  0  0
 13 14  1  0  0  0  0
 13 34  1  0  0  0  0
 13 35  1  0  0  0  0
 14 15  1  0  0  0  0
 14 36  1  0  0  0  0
 14 37  1  0  0  0  0
 15 16  1  0  0  0  0
 15 38  1  0  0  0  0
 15 39  1  0  0  0  0
 17 18  1  0  0  0  0
 17 40  1  0  0  0  0
 18 19  1  0  0  0  0
 19 20  2  0  0  0  0
M  CHG  1  18  -1
M  END
> <s_m_source_file>
AV-unprocessed.smi

> <i_m_source_file_index>
2216

> <i_lp_mmshare_version>
43012

> <i_f3d_flags>
0

> <s_epik_input>
Tz1jMVtuSF1bY0hdYyhbY0hdYzFbQ0gzXSlbTkhdQyg9TylbTkhdW0NIMl1bQ0gyXVtDQEBIXTJbQ0gyXVtDSDJdW0NIMl1bQ0gyXU8y

> <s_epik_cmdline>
J2VwaWtfcHl0aG9uJywgJy1waCcsICc3LjAnLCAnLXRuJywgJzgnLCAnLW1hJywgJzIwMCcsICctbWV0YWxfYmluZGluZycsICctaW1hZScsICc8aW5maWxlLm1hZT4nLCAnLW9tYWUnLCAnPG91dGZpbGUubWFlPic=

> <r_lp_tautomer_probability>
1

> <r_epik_Ionization_Penalty>
7.55627

> <r_epik_Ionization_Penalty_Charging>
1.50531

> <r_epik_Ionization_Penalty_Neutral>
6.05097

> <r_epik_State_Penalty>
6.05091

> <r_epik_Charging_Adjusted_Penalty>
7.55622

> <i_epik_Tot_Q>
-1

> <i_epik_Tot_abs_Q>
1

> <r_epik_Metal_State_Penalty>
2.00009

> <b_epik_Metal_Only>
1

> <s_lp_Force_Field>
OPLS_2005

> <r_lp_Energy>
20.9745

> <b_lp_Chiralities_Consistent>
1

> <s_lp_Variant>
AV-unprocessed.smi:2216-4

> <Gold.Version>
5.8.1

> <Gold.Id.Protein>
6NUR|6NUR_protein|mol2

> <Gold.PLP.Fitness>
40.7456

> <Gold.PLP.PLP>
-34.7439

> <Gold.PLP.part.hbond>
-3.0000

> <Gold.PLP.part.metal>
0.0000

> <Gold.PLP.part.buried>
-2.9658

> <Gold.PLP.part.nonpolar>
-30.2698

> <Gold.PLP.part.repulsive>
1.0420

> <Gold.PLP.ligand.clash>
0.0000

> <Gold.PLP.ligand.torsion>
1.1830

> <Gold.PLP.Chemscore.Hbond>
2.7760

> <Gold.PLP.Chemscore.CHOScore>
0.0000

> <Gold.PLP.Chemscore.Metal>
0.0000

> <Gold.Chemscore.Hbonds>
donor molecule, donor type, donor heavy atom, donor atom, acceptor molecule, acceptor atom, score
      L1  H     5    25       P1  7948  1.00
      L1  H     8    26       P1  7948  0.76
      P1  H 10785 10796       L1    20  0.90

> <Gold.PLP.Chemscore.Internal.Correction>
0.0397

> <Gold.Rescore>
     Score         DG    S(hbond)    S(metal)    S(lipo)     H(rot)  DE(clash)    DE(int)     intcor
     18.08     -19.33       2.64        0.00      75.19       1.47       0.17       1.08       ----

> <Gold.Chemscore.Fitness>
18.0764

> <Gold.Chemscore.DG>
-19.3307

> <Gold.Chemscore.ZeroCoef>
-5.4800

> <Gold.Chemscore.Hbond>
2.6403

> <Gold.Chemscore.Metal>
0.0000

> <Gold.Chemscore.Lipo>
75.1924

> <Gold.Chemscore.Internal_Hbond>
0.0000

> <Gold.Chemscore.DEClash>
0.1735

> <Gold.Chemscore.DEInternal>
1.0808

> <Gold.Chemscore.Rot>
1.4709

> <Gold.Chemscore.Internal.Correction>
   9.000000E+99

> <Gold.Chemscore.Hbonds>
donor molecule, donor type, donor heavy atom, donor atom, acceptor molecule, acceptor atom, score
      L1  H     5    25       P1  7948  0.96
      L1  H     8    26       P1  7948  0.74
      P1  H 10785 10796       L1    20  0.87

> <Gold.Chemscore.Hbond.Weighted>
-8.8186

> <Gold.Chemscore.Metal.Weighted>
-0.0000

> <Gold.Chemscore.Lipo.Weighted>
-8.7975

> <Gold.Chemscore.Internal_Hbond.Weighted>
0.0000

> <Gold.Chemscore.DEClash.Weighted>
0.1735

> <Gold.Chemscore.DEInternal.Weighted>
1.0808

> <Gold.Chemscore.Rot.Weighted>
3.7654

> <Gold.Chemscore.Internal.Correction.Weighted>
   9.000000E+99

> <Gold.Protein.RotatedTorsions>
[ 6907 6896 6895 6894 ] final  -35.20 input  -60.11 | X-H torsion
[ 7974 7965 7964 7962 ] final -124.18 input  175.53 | X-H torsion
[ 8008 7997 7996 7995 ] final  -87.45 input   59.86 | X-H torsion
[ 10167 10162 10161 10158 ] final   44.28 input  -65.29 | X-H torsion
[ 10718 10713 10712 10709 ] final  102.95 input   66.30 | X-H torsion
[ 10763 10752 10751 10750 ] final  -98.26 input  -60.55 | X-H torsion
[ 11005 11000 10999 10996 ] final -139.63 input  -57.11 | X-H torsion

> <Gold.Protein.ActiveResidues>
 VAL166  LYS551  ARG553  GLY616  TRP617  ASP618  TYR619  PRO620  LYS621  CYS622 
 ASP623  PHE694  ASN695  SER759  ASP760  ASP761  ALA762  ILE779  LEU786  VAL792 
 PHE793  MET794  SER795  GLU796  ALA797  LYS798  CYS799  TRP800  GLU811  SER814 

> <Gold.Protein.RotatedAtoms>
  151.0428  134.9619  159.8170 H   0  0  0  0  0  0  0  0  0  0  0  0  # atno 6907 bound_to 6896
  152.5367  134.2636  159.8955 H   0  0  0  0  0  0  0  0  0  0  0  0  # atno 6908 bound_to 6896
  151.2649  133.4241  159.2652 H   0  0  0  0  0  0  0  0  0  0  0  0  # atno 6909 bound_to 6896
  145.0108  140.7904  143.4439 H   0  0  0  0  0  0  0  0  0  0  0  0  # atno 7974 bound_to 7965
  154.6634  140.0565  157.0087 H   0  0  0  0  0  0  0  0  0  0  0  0  # atno 8008 bound_to 7997
  155.1195  140.3246  155.4482 H   0  0  0  0  0  0  0  0  0  0  0  0  # atno 8009 bound_to 7997
  156.2627  140.2000  156.6317 H   0  0  0  0  0  0  0  0  0  0  0  0  # atno 8010 bound_to 7997
  140.3359  144.2531  150.6162 H   0  0  0  0  0  0  0  0  0  0  0  0  # atno 10167 bound_to 10162
  157.6787  131.0766  150.5481 H   0  0  0  0  0  0  0  0  0  0  0  0  # atno 10718 bound_to 10713
  154.7399  135.5016  153.9104 H   0  0  0  0  0  0  0  0  0  0  0  0  # atno 10763 bound_to 10752
  153.1032  135.6690  153.9642 H   0  0  0  0  0  0  0  0  0  0  0  0  # atno 10764 bound_to 10752
  153.9422  135.3066  155.3421 H   0  0  0  0  0  0  0  0  0  0  0  0  # atno 10765 bound_to 10752
  140.8501  134.2296  157.4765 H   0  0  0  0  0  0  0  0  0  0  0  0  # atno 11005 bound_to 11000
  145.2025  139.2245  143.5185 LP  0  0  0  0  0  0  0  0  0  0  0  0  # atno 17320 bound_to 7965
  146.3469  140.1846  142.8589 LP  0  0  0  0  0  0  0  0  0  0  0  0  # atno 17321 bound_to 7965
  140.5354  143.2234  151.8171 LP  0  0  0  0  0  0  0  0  0  0  0  0  # atno 17342 bound_to 10162
  139.4848  144.4668  151.9474 LP  0  0  0  0  0  0  0  0  0  0  0  0  # atno 17343 bound_to 10162
  156.5786  130.4298  149.5987 LP  0  0  0  0  0  0  0  0  0  0  0  0  # atno 17370 bound_to 10713
  156.2680  130.7001  151.1789 LP  0  0  0  0  0  0  0  0  0  0  0  0  # atno 17371 bound_to 10713
  139.8704  134.9679  156.4612 LP  0  0  0  0  0  0  0  0  0  0  0  0  # atno 17394 bound_to 11000
  140.8799  133.7925  155.9455 LP  0  0  0  0  0  0  0  0  0  0  0  0  # atno 17395 bound_to 11000

$$$$
