AV-unprocessed.smi:500|AV-procd|sdf|2735|dock8
  -GOLD-   2262023193D 1   1.00000     0.00000
 Structure written by MMmdl.
 45 47  0  0  0  0  0  0  0  0  1 V2000
  150.5000  144.8988  160.2394 C   0  0  0  0  0  0  0  0  0  0  0  0
  151.7708  145.5401  159.6775 C   0  0  0  0  0  0  0  0  0  0  0  0
  152.3901  144.6236  158.7873 O   0  0  0  0  0  0  0  0  0  0  0  0
  152.8785  143.4478  159.4161 C   0  0  0  0  0  0  0  0  0  0  0  0
  151.8849  142.2820  159.2793 C   0  0  0  0  0  0  0  0  0  0  0  0
  152.5198  141.0049  159.5629 N   0  0  0  0  0  0  0  0  0  0  0  0
  152.3471  139.8163  158.9286 C   0  0  0  0  0  0  0  0  0  0  0  0
  151.4052  139.6566  157.7601 C   0  0  1  0  0  0  0  0  0  0  0  0
  152.1159  139.0875  156.5253 C   0  0  0  0  0  0  0  0  0  0  0  0
  150.3071  138.7763  158.1561 N   0  0  0  0  0  0  0  0  0  0  0  0
  150.4378  137.5045  158.5670 C   0  0  0  0  0  0  0  0  0  0  0  0
  151.5240  136.9402  158.6963 O   0  0  0  0  0  0  0  0  0  0  0  0
  149.1802  136.7980  158.8739 C   0  0  0  0  0  0  0  0  0  0  0  0
  147.8837  137.2387  158.9295 C   0  0  0  0  0  0  0  0  0  0  0  0
  147.0835  136.1088  159.2552 C   0  0  0  0  0  0  0  0  0  0  0  0
  147.9470  135.0575  159.3701 C   0  0  0  0  0  0  0  0  0  0  0  0
  149.2258  135.4594  159.1365 O   0  0  0  0  0  0  0  0  0  0  0  0
  153.0892  138.8062  159.3923 N   0  0  0  0  0  0  0  0  0  0  0  0
  153.7796  139.3848  160.4380 C   0  0  0  0  0  0  0  0  0  0  0  0
  154.7182  138.8301  161.3372 C   0  0  0  0  0  0  0  0  0  0  0  0
  155.3001  139.6283  162.3437 C   0  0  0  0  0  0  0  0  0  0  0  0
  154.9533  140.9896  162.4644 C   0  0  0  0  0  0  0  0  0  0  0  0
  154.0219  141.5623  161.5769 C   0  0  0  0  0  0  0  0  0  0  0  0
  153.4438  140.7609  160.5740 C   0  0  0  0  0  0  0  0  0  0  0  0
  149.9915  145.5775  160.9243 H   0  0  0  0  0  0  0  0  0  0  0  0
  150.7318  143.9841  160.7856 H   0  0  0  0  0  0  0  0  0  0  0  0
  149.8030  144.6455  159.4399 H   0  0  0  0  0  0  0  0  0  0  0  0
  151.5176  146.4616  159.1510 H   0  0  0  0  0  0  0  0  0  0  0  0
  152.4410  145.8023  160.4962 H   0  0  0  0  0  0  0  0  0  0  0  0
  153.8120  143.1769  158.9219 H   0  0  0  0  0  0  0  0  0  0  0  0
  153.1294  143.6414  160.4595 H   0  0  0  0  0  0  0  0  0  0  0  0
  151.0231  142.4028  159.9341 H   0  0  0  0  0  0  0  0  0  0  0  0
  151.4867  142.2543  158.2647 H   0  0  0  0  0  0  0  0  0  0  0  0
  150.9811  140.6233  157.4885 H   0  0  0  0  0  0  0  0  0  0  0  0
  152.9268  139.7428  156.2066 H   0  0  0  0  0  0  0  0  0  0  0  0
  151.4259  138.9851  155.6872 H   0  0  0  0  0  0  0  0  0  0  0  0
  152.5432  138.1049  156.7288 H   0  0  0  0  0  0  0  0  0  0  0  0
  149.3736  139.1531  158.0780 H   0  0  0  0  0  0  0  0  0  0  0  0
  147.5489  138.2507  158.7551 H   0  0  0  0  0  0  0  0  0  0  0  0
  146.0123  136.0695  159.3860 H   0  0  0  0  0  0  0  0  0  0  0  0
  147.8269  134.0084  159.5973 H   0  0  0  0  0  0  0  0  0  0  0  0
  154.9893  137.7881  161.2537 H   0  0  0  0  0  0  0  0  0  0  0  0
  156.0150  139.1939  163.0269 H   0  0  0  0  0  0  0  0  0  0  0  0
  155.4025  141.5936  163.2392 H   0  0  0  0  0  0  0  0  0  0  0  0
  153.7535  142.6043  161.6676 H   0  0  0  0  0  0  0  0  0  0  0  0
  1  2  1  0  0  0  0
  1 25  1  0  0  0  0
  1 26  1  0  0  0  0
  1 27  1  0  0  0  0
  2  3  1  0  0  0  0
  2 28  1  0  0  0  0
  2 29  1  0  0  0  0
  3  4  1  0  0  0  0
  4  5  1  0  0  0  0
  4 30  1  0  0  0  0
  4 31  1  0  0  0  0
  5  6  1  0  0  0  0
  5 32  1  0  0  0  0
  5 33  1  0  0  0  0
  6 24  1  0  0  0  0
  6  7  1  0  0  0  0
  7  8  1  0  0  0  0
  7 18  2  0  0  0  0
  8  9  1  0  0  0  0
  8 10  1  0  0  0  0
  8 34  1  0  0  0  0
  9 35  1  0  0  0  0
  9 36  1  0  0  0  0
  9 37  1  0  0  0  0
 10 11  1  0  0  0  0
 10 38  1  0  0  0  0
 11 12  2  0  0  0  0
 11 13  1  0  0  0  0
 13 17  1  0  0  0  0
 13 14  2  0  0  0  0
 14 15  1  0  0  0  0
 14 39  1  0  0  0  0
 15 16  2  0  0  0  0
 15 40  1  0  0  0  0
 16 17  1  0  0  0  0
 16 41  1  0  0  0  0
 18 19  1  0  0  0  0
 19 24  2  0  0  0  0
 19 20  1  0  0  0  0
 20 21  2  0  0  0  0
 20 42  1  0  0  0  0
 21 22  1  0  0  0  0
 21 43  1  0  0  0  0
 22 23  2  0  0  0  0
 22 44  1  0  0  0  0
 23 24  1  0  0  0  0
 23 45  1  0  0  0  0
M  END
> <s_m_source_file>
AV-unprocessed.smi

> <i_m_source_file_index>
500

> <i_lp_mmshare_version>
43012

> <i_f3d_flags>
0

> <s_epik_input>
W0NIM11bQ0gyXU9bQ0gyXVtDSDJdbihjKGMxMilbY0hdW2NIXVtjSF1bY0hdMiljKG4xKVtDQEhdKFtDSDNdKVtOSF1DKD1PKWMzW2NIXVtjSF1bY0hdbzM=

> <s_epik_cmdline>
J2VwaWtfcHl0aG9uJywgJy1waCcsICc3LjAnLCAnLXRuJywgJzgnLCAnLW1hJywgJzIwMCcsICctbWV0YWxfYmluZGluZycsICctaW1hZScsICc8aW5maWxlLm1hZT4nLCAnLW9tYWUnLCAnPG91dGZpbGUubWFlPic=

> <r_epik_Ionization_Penalty>
0.109801

> <r_epik_Ionization_Penalty_Charging>
0

> <r_epik_Ionization_Penalty_Neutral>
0.109801

> <r_epik_State_Penalty>
0.0995533

> <r_epik_Charging_Adjusted_Penalty>
0.0995533

> <i_epik_Tot_Q>
0

> <i_epik_Tot_abs_Q>
0

> <r_epik_Metal_State_Penalty>
0.0918163

> <b_epik_Metal_Only>
0

> <s_lp_Force_Field>
OPLS_2005

> <r_lp_Energy>
7.77682

> <b_lp_Chiralities_Consistent>
1

> <s_lp_Variant>
AV-unprocessed.smi:500-2

> <Gold.Version>
5.8.1

> <Gold.Id.Protein>
6NUR|6NUR_protein|mol2

> <Gold.PLP.Fitness>
43.5364

> <Gold.PLP.PLP>
-41.7099

> <Gold.PLP.part.hbond>
-2.0000

> <Gold.PLP.part.metal>
0.0000

> <Gold.PLP.part.buried>
-2.7616

> <Gold.PLP.part.nonpolar>
-36.9210

> <Gold.PLP.part.repulsive>
0.1210

> <Gold.PLP.ligand.clash>
0.0000

> <Gold.PLP.ligand.torsion>
0.7169

> <Gold.PLP.Chemscore.Hbond>
1.0650

> <Gold.PLP.Chemscore.CHOScore>
0.0000

> <Gold.PLP.Chemscore.Metal>
0.0000

> <Gold.Chemscore.Hbonds>
donor molecule, donor type, donor heavy atom, donor atom, acceptor molecule, acceptor atom, score
      P1  H  6896  6908       L1    17  1.00

> <Gold.PLP.Chemscore.Internal.Correction>
0.0652

> <Gold.Rescore>
     Score         DG    S(hbond)    S(metal)    S(lipo)     H(rot)  DE(clash)    DE(int)     intcor
     12.02     -16.87       0.99        0.00     111.04       1.92       0.34       4.51       ----

> <Gold.Chemscore.Fitness>
12.0175

> <Gold.Chemscore.DG>
-16.8678

> <Gold.Chemscore.ZeroCoef>
-5.4800

> <Gold.Chemscore.Hbond>
0.9879

> <Gold.Chemscore.Metal>
0.0000

> <Gold.Chemscore.Lipo>
111.0450

> <Gold.Chemscore.Internal_Hbond>
0.0000

> <Gold.Chemscore.DEClash>
0.3402

> <Gold.Chemscore.DEInternal>
4.5100

> <Gold.Chemscore.Rot>
1.9156

> <Gold.Chemscore.Internal.Correction>
   9.000000E+99

> <Gold.Chemscore.Hbonds>
donor molecule, donor type, donor heavy atom, donor atom, acceptor molecule, acceptor atom, score
      P1  H  6896  6908       L1    17  0.95
      P1  H  6896  6909       L1    12  0.03

> <Gold.Chemscore.Hbond.Weighted>
-3.2996

> <Gold.Chemscore.Metal.Weighted>
-0.0000

> <Gold.Chemscore.Lipo.Weighted>
-12.9923

> <Gold.Chemscore.Internal_Hbond.Weighted>
0.0000

> <Gold.Chemscore.DEClash.Weighted>
0.3402

> <Gold.Chemscore.DEInternal.Weighted>
4.5100

> <Gold.Chemscore.Rot.Weighted>
4.9041

> <Gold.Chemscore.Internal.Correction.Weighted>
   9.000000E+99

> <Gold.Protein.RotatedTorsions>
[ 6907 6896 6895 6894 ] final  154.62 input  -60.11 | X-H torsion
[ 7974 7965 7964 7962 ] final  -76.95 input  175.53 | X-H torsion
[ 8008 7997 7996 7995 ] final -107.11 input   59.86 | X-H torsion
[ 10167 10162 10161 10158 ] final -126.01 input  -65.29 | X-H torsion
[ 10718 10713 10712 10709 ] final  157.43 input   66.30 | X-H torsion
[ 10763 10752 10751 10750 ] final -116.09 input  -60.55 | X-H torsion
[ 11005 11000 10999 10996 ] final   17.58 input  -57.11 | X-H torsion

> <Gold.Protein.ActiveResidues>
 VAL166  LYS551  ARG553  GLY616  TRP617  ASP618  TYR619  PRO620  LYS621  CYS622 
 ASP623  PHE694  ASN695  SER759  ASP760  ASP761  ALA762  ILE779  LEU786  VAL792 
 PHE793  MET794  SER795  GLU796  ALA797  LYS798  CYS799  TRP800  GLU811  SER814 

> <Gold.Protein.RotatedAtoms>
  152.0559  133.4040  159.4396 H   0  0  0  0  0  0  0  0  0  0  0  0  # atno 6907 bound_to 6896
  150.6868  134.3255  159.4814 H   0  0  0  0  0  0  0  0  0  0  0  0  # atno 6908 bound_to 6896
  152.1071  134.9300  160.0618 H   0  0  0  0  0  0  0  0  0  0  0  0  # atno 6909 bound_to 6896
  145.6062  140.9397  143.1214 H   0  0  0  0  0  0  0  0  0  0  0  0  # atno 7974 bound_to 7965
  154.9244  140.0406  157.2015 H   0  0  0  0  0  0  0  0  0  0  0  0  # atno 8008 bound_to 7997
  154.8222  140.2885  155.5758 H   0  0  0  0  0  0  0  0  0  0  0  0  # atno 8009 bound_to 7997
  156.2981  140.2516  156.3131 H   0  0  0  0  0  0  0  0  0  0  0  0  # atno 8010 bound_to 7997
  139.9760  143.5793  152.2395 H   0  0  0  0  0  0  0  0  0  0  0  0  # atno 10167 bound_to 10162
  157.1916  131.0656  151.2076 H   0  0  0  0  0  0  0  0  0  0  0  0  # atno 10718 bound_to 10713
  154.8506  135.4358  154.1766 H   0  0  0  0  0  0  0  0  0  0  0  0  # atno 10763 bound_to 10752
  153.2866  135.6958  153.7339 H   0  0  0  0  0  0  0  0  0  0  0  0  # atno 10764 bound_to 10752
  153.6522  135.3449  155.3078 H   0  0  0  0  0  0  0  0  0  0  0  0  # atno 10765 bound_to 10752
  140.4344  134.1386  155.7684 H   0  0  0  0  0  0  0  0  0  0  0  0  # atno 11005 bound_to 11000
  144.7289  139.7788  143.7354 LP  0  0  0  0  0  0  0  0  0  0  0  0  # atno 17320 bound_to 7965
  146.1539  139.4631  143.0031 LP  0  0  0  0  0  0  0  0  0  0  0  0  # atno 17321 bound_to 7965
  139.6445  144.7657  151.2272 LP  0  0  0  0  0  0  0  0  0  0  0  0  # atno 17342 bound_to 10162
  140.7505  143.6262  150.8466 LP  0  0  0  0  0  0  0  0  0  0  0  0  # atno 17343 bound_to 10162
  157.3855  130.7254  149.6660 LP  0  0  0  0  0  0  0  0  0  0  0  0  # atno 17370 bound_to 10713
  155.9711  130.4161  150.4212 LP  0  0  0  0  0  0  0  0  0  0  0  0  # atno 17371 bound_to 10713
  141.1732  133.8567  157.1505 LP  0  0  0  0  0  0  0  0  0  0  0  0  # atno 17394 bound_to 11000
  140.0112  134.9987  157.0399 LP  0  0  0  0  0  0  0  0  0  0  0  0  # atno 17395 bound_to 11000

$$$$
