#       Name:                AV-unprocessed.smi:848
#       Creating user name   scv26
#       Creation time:       Fri Mar 27 01:40:56 2020


#       File generated by GOLD software.
#

@<TRIPOS>MOLECULE
AV-unprocessed.smi:848
    53    55     1
SMALL
NO_CHARGES


@<TRIPOS>ATOM
      1 ****        -5.9461  -1.5658  -0.6653 C.3            1 S1                 0.0000
      2 ****        -4.9984  -0.3840  -0.6701 C.ar           1 S1                 0.0000
      3 ****        -5.5026   0.9317  -0.6722 C.ar           1 S1                 0.0000
      4 ****        -4.6174   2.0268  -0.6784 C.ar           1 S1                 0.0000
      5 ****        -5.1673   3.4384  -0.6807 C.3            1 S1                 0.0000
      6 ****        -3.2256   1.8013  -0.6833 C.ar           1 S1                 0.0000
      7 ****        -2.7044   0.4912  -0.6815 C.ar           1 S1                 0.0000
      8 ****        -1.3315   0.3651  -0.6896 O.3            1 S1                 0.0000
      9 ****        -0.7746  -0.9428  -0.6722 C.3            1 S1                 0.0000
     10 ****         0.7571  -0.8354  -0.7013 C.3            1 S1                 0.0000
     11 ****         1.2930  -2.1315  -0.8795 O.3            1 S1                 0.0000
     12 ****         1.3303  -0.1947   0.5792 C.3            1 S1                 0.0000
     13 ****         2.7931  -0.0393   0.5324 N.pl3          1 S1                 0.0000
     14 ****         3.5493   0.9583  -0.0099 C.2            1 S1                 0.0000
     15 ****         3.0530   2.1825  -0.7056 C.3            1 S1                 0.0000
     16 ****         2.7741   3.2324   0.1937 O.3            1 S1                 0.0000
     17 ****         4.8560   0.6407   0.2103 N.pl3          1 S1                 1.0000
     18 ****         4.9384  -0.5714   0.8965 C.ar           1 S1                 0.0000
     19 ****         6.0427  -1.2945   1.3370 C.ar           1 S1                 0.0000
     20 ****         5.7789  -2.5052   2.0102 C.ar           1 S1                 0.0000
     21 ****         4.4594  -2.9537   2.2238 C.ar           1 S1                 0.0000
     22 ****         3.3477  -2.2109   1.7747 C.ar           1 S1                 0.0000
     23 ****         3.6164  -1.0149   1.1085 C.ar           1 S1                 0.0000
     24 ****        -3.6056  -0.6033  -0.6736 C.ar           1 S1                 0.0000
     25 ****        -6.9873  -1.2419  -0.6622 H              1 S1                 0.0000
     26 ****        -5.7783  -2.1811   0.2189 H              1 S1                 0.0000
     27 ****        -5.7845  -2.1832  -1.5492 H              1 S1                 0.0000
     28 ****        -6.5692   1.1043  -0.6695 H              1 S1                 0.0000
     29 ****        -4.3669   4.1789  -0.6804 H              1 S1                 0.0000
     30 ****        -5.7849   3.6042   0.2023 H              1 S1                 0.0000
     31 ****        -5.7828   3.6024  -1.5655 H              1 S1                 0.0000
     32 ****        -2.5454   2.6405  -0.6889 H              1 S1                 0.0000
     33 ****        -1.0968  -1.4874   0.2171 H              1 S1                 0.0000
     34 ****        -1.1163  -1.4939  -1.5504 H              1 S1                 0.0000
     35 ****         1.0517  -0.2427  -1.5679 H              1 S1                 0.0000
     36 ****         0.9985  -2.6785  -0.1676 H              1 S1                 0.0000
     37 ****         0.9083   0.8013   0.7183 H              1 S1                 0.0000
     38 ****         1.0534  -0.7632   1.4669 H              1 S1                 0.0000
     39 ****         3.7999   2.5191  -1.4250 H              1 S1                 0.0000
     40 ****         2.1504   1.9455  -1.2689 H              1 S1                 0.0000
     41 ****         2.4539   3.9733  -0.2982 H              1 S1                 0.0000
     42 ****         7.0545  -0.9529   1.1742 H              1 S1                 0.0000
     43 ****         6.6050  -3.1025   2.3686 H              1 S1                 0.0000
     44 ****         4.2961  -3.8873   2.7423 H              1 S1                 0.0000
     45 ****         2.3426  -2.5675   1.9426 H              1 S1                 0.0000
     46 ****        -3.2514  -1.6231  -0.6722 H              1 S1                 0.0000
     47 ****         5.6332   1.2166  -0.0864 H              1 S1                 0.0000
     48 ****        -0.9854   0.8450   0.1165 LP             1 S1                 0.0000
     49 ****        -0.9975   0.8181  -1.5162 LP             1 S1                 0.0000
     50 ****         2.2920  -2.0864  -0.8792 LP             1 S1                 0.0000
     51 ****         0.9768  -2.5106  -1.7492 LP             1 S1                 0.0000
     52 ****         3.6082   3.4876   0.6827 LP             1 S1                 0.0000
     53 ****         2.0795   2.9381   0.8502 LP             1 S1                 0.0000
@<TRIPOS>BOND
    1    1    2 1     
    2    1   25 1     
    3    1   26 1     
    4    1   27 1     
    5    2   24 ar    
    6    2    3 ar    
    7    3    4 ar    
    8    3   28 1     
    9    4    5 1     
   10    4    6 ar    
   11    5   29 1     
   12    5   30 1     
   13    5   31 1     
   14    6    7 ar    
   15    6   32 1     
   16    7    8 1     
   17    7   24 ar    
   18    8    9 1     
   19    9   10 1     
   20    9   33 1     
   21    9   34 1     
   22   10   11 1     
   23   10   12 1     
   24   10   35 1     
   25   11   36 1     
   26   12   13 1     
   27   12   37 1     
   28   12   38 1     
   29   13   23 1     
   30   13   14 1     
   31   14   15 1     
   32   14   17 2     
   33   15   16 1     
   34   15   39 1     
   35   15   40 1     
   36   16   41 1     
   37   17   18 1     
   38   17   47 1     
   39   18   23 ar    
   40   18   19 ar    
   41   19   20 ar    
   42   19   42 1     
   43   20   21 ar    
   44   20   43 1     
   45   21   22 ar    
   46   21   44 1     
   47   22   23 ar    
   48   22   45 1     
   49   24   46 1     
   50    8   48 1     
   51    8   49 1     
   52   11   50 1     
   53   11   51 1     
   54   16   52 1     
   55   16   53 1     
@<TRIPOS>SUBSTRUCTURE
      1 S1             1
@<TRIPOS>SET
LONE_PAIRS      STATIC     ATOMS    <user>   **** ""
6 48 49 50 51 52 53
DONOR_HYDROGENS      STATIC     ATOMS    <user>   **** ""
3 36 41 47
ATOM$BLUE        STATIC     ATOMS    COLORGROUP SYSTEM
6 48 49 50 51 52 53
ATOM$RED        STATIC     ATOMS    COLORGROUP SYSTEM
3 36 41 47
