AV-unprocessed.smi:109|AV-procd|sdf|1060|dock1
  -GOLD-   2262018133D 1   1.00000     0.00000
 Structure written by MMmdl.
 58 61  0  0  0  0  0  0  0  0  1 V2000
  147.2704  140.5084  158.6871 O   0  0  0  0  0  0  0  0  0  0  0  0
  148.0333  141.6205  158.2716 C   0  0  0  0  0  0  0  0  0  0  0  0
  148.7243  141.3088  156.9348 C   0  0  0  0  0  0  0  0  0  0  0  0
  150.2401  141.0509  157.0854 C   0  0  1  0  0  0  0  0  0  0  0  0
  150.8664  140.9955  155.7647 N   0  0  0  0  0  0  0  0  0  0  0  0
  151.4953  139.8832  155.3229 C   0  0  0  0  0  0  0  0  0  0  0  0
  152.7505  139.9381  154.8064 N   0  0  0  0  0  0  0  0  0  0  0  0
  153.3486  138.8204  154.3848 C   0  0  0  0  0  0  0  0  0  0  0  0
  152.8810  137.5706  154.3929 N   0  0  0  0  0  0  0  0  0  0  0  0
  151.6209  137.5067  154.9121 C   0  0  0  0  0  0  0  0  0  0  0  0
  150.8654  138.6137  155.3914 C   0  0  0  0  0  0  0  0  0  0  0  0
  149.6251  138.1796  155.8388 N   0  0  0  0  0  0  0  0  0  0  0  0
  149.6520  136.8896  155.6388 C   0  0  0  0  0  0  0  0  0  0  0  0
  150.8146  136.3980  155.0871 N   0  0  0  0  0  0  0  0  0  0  0  0
  151.1244  134.9665  154.7625 C   0  0  2  0  0  0  0  0  0  0  0  0
  150.0328  134.3888  154.1077 O   0  0  0  0  0  0  0  0  0  0  0  0
  149.5326  133.2764  154.8499 C   0  0  1  0  0  0  0  0  0  0  0  0
  148.9556  132.2272  153.8874 C   0  0  0  0  0  0  0  0  0  0  0  0
  149.2314  132.5916  152.5518 O   0  0  0  0  0  0  0  0  0  0  0  0
  150.7689  132.7971  155.6127 C   0  0  2  0  0  0  0  0  0  0  0  0
  150.4629  131.9798  156.7263 O   0  0  0  0  0  0  0  0  0  0  0  0
  151.4357  134.1081  156.0034 C   0  0  2  0  0  0  0  0  0  0  0  0
  150.9187  134.6446  157.2120 O   0  0  0  0  0  0  0  0  0  0  0  0
  150.9693  142.0742  157.9997 C   0  0  0  0  0  0  0  0  0  0  0  0
  151.0460  143.4850  157.3761 C   0  0  0  0  0  0  0  0  0  0  0  0
  151.6810  144.4949  158.3461 C   0  0  0  0  0  0  0  0  0  0  0  0
  153.0724  144.0278  158.8010 C   0  0  0  0  0  0  0  0  0  0  0  0
  153.0085  142.6247  159.4240 C   0  0  0  0  0  0  0  0  0  0  0  0
  152.3721  141.6130  158.4565 C   0  0  0  0  0  0  0  0  0  0  0  0
  151.9615  135.0179  154.0652 H   0  0  0  0  0  0  0  0  0  0  0  0
  148.7770  133.6153  155.5607 H   0  0  0  0  0  0  0  0  0  0  0  0
  151.4248  132.2457  154.9368 H   0  0  0  0  0  0  0  0  0  0  0  0
  152.5153  133.9980  156.1108 H   0  0  0  0  0  0  0  0  0  0  0  0
  146.3672  140.7757  158.7636 H   0  0  0  0  0  0  0  0  0  0  0  0
  147.3746  142.4836  158.1715 H   0  0  0  0  0  0  0  0  0  0  0  0
  148.7644  141.8549  159.0458 H   0  0  0  0  0  0  0  0  0  0  0  0
  148.2417  140.4498  156.4668 H   0  0  0  0  0  0  0  0  0  0  0  0
  148.5549  142.1529  156.2679 H   0  0  0  0  0  0  0  0  0  0  0  0
  150.3385  140.0699  157.5518 H   0  0  0  0  0  0  0  0  0  0  0  0
  150.8573  141.8598  155.2421 H   0  0  0  0  0  0  0  0  0  0  0  0
  154.3450  138.9440  153.9865 H   0  0  0  0  0  0  0  0  0  0  0  0
  148.8166  136.2538  155.8939 H   0  0  0  0  0  0  0  0  0  0  0  0
  149.3499  131.2331  154.1000 H   0  0  0  0  0  0  0  0  0  0  0  0
  147.8716  132.1757  153.9939 H   0  0  0  0  0  0  0  0  0  0  0  0
  149.4137  131.8076  152.0571 H   0  0  0  0  0  0  0  0  0  0  0  0
  151.0778  132.1797  157.4164 H   0  0  0  0  0  0  0  0  0  0  0  0
  149.9861  134.4935  157.2314 H   0  0  0  0  0  0  0  0  0  0  0  0
  150.3643  142.1812  158.9012 H   0  0  0  0  0  0  0  0  0  0  0  0
  151.6314  143.4680  156.4574 H   0  0  0  0  0  0  0  0  0  0  0  0
  150.0473  143.8248  157.1001 H   0  0  0  0  0  0  0  0  0  0  0  0
  151.7552  145.4722  157.8684 H   0  0  0  0  0  0  0  0  0  0  0  0
  151.0354  144.6236  159.2158 H   0  0  0  0  0  0  0  0  0  0  0  0
  153.7518  144.0178  157.9478 H   0  0  0  0  0  0  0  0  0  0  0  0
  153.4870  144.7358  159.5191 H   0  0  0  0  0  0  0  0  0  0  0  0
  154.0103  142.2949  159.7005 H   0  0  0  0  0  0  0  0  0  0  0  0
  152.4296  142.6613  160.3477 H   0  0  0  0  0  0  0  0  0  0  0  0
  152.3105  140.6392  158.9433 H   0  0  0  0  0  0  0  0  0  0  0  0
  153.0275  141.4878  157.5943 H   0  0  0  0  0  0  0  0  0  0  0  0
  1  2  1  0  0  0  0
  1 34  1  0  0  0  0
  2  3  1  0  0  0  0
  2 35  1  0  0  0  0
  2 36  1  0  0  0  0
  3  4  1  0  0  0  0
  3 37  1  0  0  0  0
  3 38  1  0  0  0  0
  4  5  1  0  0  0  0
  4 24  1  0  0  0  0
  4 39  1  0  0  0  0
  5  6  1  0  0  0  0
  5 40  1  0  0  0  0
  6 11  1  0  0  0  0
  6  7  2  0  0  0  0
  7  8  1  0  0  0  0
  8  9  2  0  0  0  0
  8 41  1  0  0  0  0
  9 10  1  0  0  0  0
 10 14  1  0  0  0  0
 10 11  2  0  0  0  0
 11 12  1  0  0  0  0
 12 13  2  0  0  0  0
 13 14  1  0  0  0  0
 13 42  1  0  0  0  0
 14 15  1  0  0  0  0
 15 30  1  0  0  0  0
 15 22  1  0  0  0  0
 15 16  1  0  0  0  0
 16 17  1  0  0  0  0
 17 31  1  0  0  0  0
 17 18  1  0  0  0  0
 17 20  1  0  0  0  0
 18 19  1  0  0  0  0
 18 43  1  0  0  0  0
 18 44  1  0  0  0  0
 19 45  1  0  0  0  0
 20 32  1  0  0  0  0
 20 21  1  0  0  0  0
 20 22  1  0  0  0  0
 21 46  1  0  0  0  0
 22 33  1  0  0  0  0
 22 23  1  0  0  0  0
 23 47  1  0  0  0  0
 24 29  1  0  0  0  0
 24 25  1  0  0  0  0
 24 48  1  0  0  0  0
 25 26  1  0  0  0  0
 25 49  1  0  0  0  0
 25 50  1  0  0  0  0
 26 27  1  0  0  0  0
 26 51  1  0  0  0  0
 26 52  1  0  0  0  0
 27 28  1  0  0  0  0
 27 53  1  0  0  0  0
 27 54  1  0  0  0  0
 28 29  1  0  0  0  0
 28 55  1  0  0  0  0
 28 56  1  0  0  0  0
 29 57  1  0  0  0  0
 29 58  1  0  0  0  0
M  END
> <s_m_source_file>
AV-unprocessed.smi

> <i_m_source_file_index>
109

> <i_lp_mmshare_version>
43012

> <i_f3d_flags>
0

> <s_epik_input>
W0NIMl0xW0NIMl1bQ0gyXVtDSDJdW0NIMl1bQ0hdMVtDQEhdKFtDSDJdW0NIMl1bT0hdKVtOSF1jKG5bY0hdbjIpYyhjMjMpbltjSF1uM1tDQEBIXTRPW0NASF0oW0NIMl1bT0hdKVtDQEBIXShbT0hdKVtDQEhdNFtPSF0=

> <s_epik_cmdline>
J2VwaWtfcHl0aG9uJywgJy1waCcsICc3LjAnLCAnLXRuJywgJzgnLCAnLW1hJywgJzIwMCcsICctbWV0YWxfYmluZGluZycsICctaW1hZScsICc8aW5maWxlLm1hZT4nLCAnLW9tYWUnLCAnPG91dGZpbGUubWFlPic=

> <r_lp_tautomer_probability>
1

> <r_epik_Ionization_Penalty>
0.000793976

> <r_epik_Ionization_Penalty_Charging>
0

> <r_epik_Ionization_Penalty_Neutral>
0.000793976

> <r_epik_State_Penalty>
-0

> <r_epik_Charging_Adjusted_Penalty>
0

> <i_epik_Tot_Q>
0

> <i_epik_Tot_abs_Q>
0

> <r_epik_Metal_State_Penalty>
-0

> <b_epik_Metal_Only>
0

> <s_epik_Chemistry_Notes>
This compound contains an acetal/aminal-like group ( X-CH(R)-Y where X, Y are N, S, or O) that may be acid/base labile, releasing an aldehyde.

> <s_lp_Force_Field>
OPLS_2005

> <r_lp_Energy>
62.1287

> <b_lp_Chiralities_Consistent>
1

> <s_lp_Variant>
AV-unprocessed.smi:109-30

> <Gold.Version>
5.8.1

> <Gold.Id.Protein>
6NUR|6NUR_protein|mol2

> <Gold.PLP.Fitness>
53.4231

> <Gold.PLP.PLP>
-48.6626

> <Gold.PLP.part.hbond>
-5.4091

> <Gold.PLP.part.metal>
0.0000

> <Gold.PLP.part.buried>
-6.4938

> <Gold.PLP.part.nonpolar>
-39.8118

> <Gold.PLP.part.repulsive>
1.8986

> <Gold.PLP.ligand.clash>
0.0000

> <Gold.PLP.ligand.torsion>
2.0447

> <Gold.PLP.Chemscore.Hbond>
2.7898

> <Gold.PLP.Chemscore.CHOScore>
0.0000

> <Gold.PLP.Chemscore.Metal>
0.0000

> <Gold.Chemscore.Hbonds>
donor molecule, donor type, donor heavy atom, donor atom, acceptor molecule, acceptor atom, score
      L1  H    19    45       P1 10747  0.86
      P1  H  6896  6907       L1    23  0.01
      P1  H  7997  8008       L1     7  0.27
      P1  H 10752 10764       L1     9  0.12

> <Gold.PLP.Chemscore.Internal.Correction>
0.4805

> <Gold.Rescore>
     Score         DG    S(hbond)    S(metal)    S(lipo)     H(rot)  DE(clash)    DE(int)     intcor
      6.88      -9.93       2.06        0.00      98.99       5.47       0.83       2.22       ----

> <Gold.Chemscore.Fitness>
6.8764

> <Gold.Chemscore.DG>
-9.9323

> <Gold.Chemscore.ZeroCoef>
-5.4800

> <Gold.Chemscore.Hbond>
2.0552

> <Gold.Chemscore.Metal>
0.0000

> <Gold.Chemscore.Lipo>
98.9876

> <Gold.Chemscore.Internal_Hbond>
0.0000

> <Gold.Chemscore.DEClash>
0.8327

> <Gold.Chemscore.DEInternal>
2.2232

> <Gold.Chemscore.Rot>
5.4662

> <Gold.Chemscore.Internal.Correction>
   9.000000E+99

> <Gold.Chemscore.Hbonds>
donor molecule, donor type, donor heavy atom, donor atom, acceptor molecule, acceptor atom, score
      L1  H    19    45       P1 10747  0.24

> <Gold.Chemscore.Hbond.Weighted>
-6.8643

> <Gold.Chemscore.Metal.Weighted>
-0.0000

> <Gold.Chemscore.Lipo.Weighted>
-11.5815

> <Gold.Chemscore.Internal_Hbond.Weighted>
0.0000

> <Gold.Chemscore.DEClash.Weighted>
0.8327

> <Gold.Chemscore.DEInternal.Weighted>
2.2232

> <Gold.Chemscore.Rot.Weighted>
13.9935

> <Gold.Chemscore.Internal.Correction.Weighted>
   9.000000E+99

> <Gold.Protein.RotatedTorsions>
[ 6907 6896 6895 6894 ] final -100.20 input  -60.11 | X-H torsion
[ 7974 7965 7964 7962 ] final   -5.43 input  175.53 | X-H torsion
[ 8008 7997 7996 7995 ] final  -28.76 input   59.86 | X-H torsion
[ 10167 10162 10161 10158 ] final  -81.95 input  -65.29 | X-H torsion
[ 10718 10713 10712 10709 ] final  -26.97 input   66.30 | X-H torsion
[ 10763 10752 10751 10750 ] final  -59.41 input  -60.55 | X-H torsion
[ 11005 11000 10999 10996 ] final  -49.59 input  -57.11 | X-H torsion

> <Gold.Protein.ActiveResidues>
 VAL166  LYS551  ARG553  GLY616  TRP617  ASP618  TYR619  PRO620  LYS621  CYS622 
 ASP623  PHE694  ASN695  SER759  ASP760  ASP761  ALA762  ILE779  LEU786  VAL792 
 PHE793  MET794  SER795  GLU796  ALA797  LYS798  CYS799  TRP800  GLU811  SER814 

> <Gold.Protein.RotatedAtoms>
  150.7107  134.0923  159.3935 H   0  0  0  0  0  0  0  0  0  0  0  0  # atno 6907 bound_to 6896
  151.8909  135.0414  160.0507 H   0  0  0  0  0  0  0  0  0  0  0  0  # atno 6908 bound_to 6896
  152.2492  133.5165  159.5352 H   0  0  0  0  0  0  0  0  0  0  0  0  # atno 6909 bound_to 6896
  146.2353  140.2020  142.8334 H   0  0  0  0  0  0  0  0  0  0  0  0  # atno 7974 bound_to 7965
  154.4318  140.1836  156.1141 H   0  0  0  0  0  0  0  0  0  0  0  0  # atno 8008 bound_to 7997
  156.0195  140.3342  155.6998 H   0  0  0  0  0  0  0  0  0  0  0  0  # atno 8009 bound_to 7997
  155.5997  140.0639  157.2727 H   0  0  0  0  0  0  0  0  0  0  0  0  # atno 8010 bound_to 7997
  140.4365  143.2530  151.8686 H   0  0  0  0  0  0  0  0  0  0  0  0  # atno 10167 bound_to 10162
  156.4442  130.4470  149.7032 H   0  0  0  0  0  0  0  0  0  0  0  0  # atno 10718 bound_to 10713
  154.2533  135.6322  153.5248 H   0  0  0  0  0  0  0  0  0  0  0  0  # atno 10763 bound_to 10752
  152.9908  135.5570  154.5784 H   0  0  0  0  0  0  0  0  0  0  0  0  # atno 10764 bound_to 10752
  154.5316  135.2889  155.1150 H   0  0  0  0  0  0  0  0  0  0  0  0  # atno 10765 bound_to 10752
  141.0768  133.6664  156.3608 H   0  0  0  0  0  0  0  0  0  0  0  0  # atno 11005 bound_to 11000
  144.9774  140.8427  143.5418 LP  0  0  0  0  0  0  0  0  0  0  0  0  # atno 17320 bound_to 7965
  145.2009  139.2252  143.5193 LP  0  0  0  0  0  0  0  0  0  0  0  0  # atno 17321 bound_to 7965
  139.4787  144.5277  151.8712 LP  0  0  0  0  0  0  0  0  0  0  0  0  # atno 17342 bound_to 10162
  140.4367  144.2042  150.5889 LP  0  0  0  0  0  0  0  0  0  0  0  0  # atno 17343 bound_to 10162
  156.3885  130.7615  151.2614 LP  0  0  0  0  0  0  0  0  0  0  0  0  # atno 17370 bound_to 10713
  157.7505  131.0275  150.4007 LP  0  0  0  0  0  0  0  0  0  0  0  0  # atno 17371 bound_to 10713
  140.5556  134.5985  157.5420 LP  0  0  0  0  0  0  0  0  0  0  0  0  # atno 17394 bound_to 11000
  139.9580  134.7501  156.0298 LP  0  0  0  0  0  0  0  0  0  0  0  0  # atno 17395 bound_to 11000

$$$$
