AV-unprocessed.smi:1791|AV-procd|sdf|7218|dock10
  -GOLD-   22720 8463D 1   1.00000     0.00000
 Structure written by MMmdl.
 38 39  0  0  0  0  0  0  0  0  1 V2000
  151.6061  141.6774  157.7968 C   0  0  0  0  0  0  0  0  0  0  0  0
  151.1615  141.6006  156.4465 O   0  0  0  0  0  0  0  0  0  0  0  0
  150.7491  140.3761  155.9617 C   0  0  0  0  0  0  0  0  0  0  0  0
  150.4769  139.3433  156.8807 C   0  0  0  0  0  0  0  0  0  0  0  0
  150.0637  138.0880  156.3937 C   0  0  0  0  0  0  0  0  0  0  0  0
  149.9423  137.9033  154.9953 C   0  0  0  0  0  0  0  0  0  0  0  0
  149.5314  136.6938  154.3715 N   0  0  0  0  0  0  0  0  0  0  0  0
  149.3260  135.4851  154.9220 C   0  0  0  0  0  0  0  0  0  0  0  0
  149.4254  135.2189  156.1191 O   0  0  0  0  0  0  0  0  0  0  0  0
  149.0002  134.5833  153.9846 N   0  0  0  0  0  0  0  0  0  0  0  0
  148.7201  133.1666  154.2127 C   0  0  2  0  0  0  0  0  0  0  0  0
  150.0227  132.4633  154.6211 C   0  0  0  0  0  0  0  0  0  0  0  0
  148.1003  132.5375  152.9494 C   0  0  2  0  0  0  0  0  0  0  0  0
  146.9353  133.3220  152.3417 C   0  0  0  0  0  0  0  0  0  0  0  0
  146.1305  132.2613  151.6063 C   0  0  0  0  0  0  0  0  0  0  0  0
  146.6823  130.9361  152.1387 C   0  0  0  0  0  0  0  0  0  0  0  0
  147.4897  131.2927  153.2513 O   0  0  0  0  0  0  0  0  0  0  0  0
  150.2226  139.0059  154.1624 C   0  0  0  0  0  0  0  0  0  0  0  0
  150.6191  140.2110  154.6225 N   0  0  0  0  0  0  0  0  0  0  0  0
  151.8828  142.7057  158.0282 H   0  0  0  0  0  0  0  0  0  0  0  0
  152.4851  141.0529  157.9629 H   0  0  0  0  0  0  0  0  0  0  0  0
  150.8202  141.3821  158.4933 H   0  0  0  0  0  0  0  0  0  0  0  0
  150.5823  139.5109  157.9425 H   0  0  0  0  0  0  0  0  0  0  0  0
  149.8423  137.3053  157.1016 H   0  0  0  0  0  0  0  0  0  0  0  0
  149.4531  136.7359  153.3659 H   0  0  0  0  0  0  0  0  0  0  0  0
  148.9452  134.9010  153.0281 H   0  0  0  0  0  0  0  0  0  0  0  0
  148.0133  133.0521  155.0363 H   0  0  0  0  0  0  0  0  0  0  0  0
  149.8531  131.4053  154.8231 H   0  0  0  0  0  0  0  0  0  0  0  0
  150.4396  132.9057  155.5265 H   0  0  0  0  0  0  0  0  0  0  0  0
  150.7771  132.5346  153.8368 H   0  0  0  0  0  0  0  0  0  0  0  0
  148.8690  132.3755  152.1907 H   0  0  0  0  0  0  0  0  0  0  0  0
  146.3232  133.7598  153.1316 H   0  0  0  0  0  0  0  0  0  0  0  0
  147.2677  134.1299  151.6892 H   0  0  0  0  0  0  0  0  0  0  0  0
  145.0660  132.3680  151.8176 H   0  0  0  0  0  0  0  0  0  0  0  0
  146.2671  132.3293  150.5266 H   0  0  0  0  0  0  0  0  0  0  0  0
  145.8954  130.2402  152.4300 H   0  0  0  0  0  0  0  0  0  0  0  0
  147.3050  130.4503  151.3860 H   0  0  0  0  0  0  0  0  0  0  0  0
  150.1327  138.9188  153.0894 H   0  0  0  0  0  0  0  0  0  0  0  0
  1  2  1  0  0  0  0
  1 20  1  0  0  0  0
  1 21  1  0  0  0  0
  1 22  1  0  0  0  0
  2  3  1  0  0  0  0
  3 19  1  0  0  0  0
  3  4  2  0  0  0  0
  4  5  1  0  0  0  0
  4 23  1  0  0  0  0
  5  6  2  0  0  0  0
  5 24  1  0  0  0  0
  6  7  1  0  0  0  0
  6 18  1  0  0  0  0
  7  8  1  0  0  0  0
  7 25  1  0  0  0  0
  8  9  2  0  0  0  0
  8 10  1  0  0  0  0
 10 11  1  0  0  0  0
 10 26  1  0  0  0  0
 11 12  1  0  0  0  0
 11 13  1  0  0  0  0
 11 27  1  0  0  0  0
 12 28  1  0  0  0  0
 12 29  1  0  0  0  0
 12 30  1  0  0  0  0
 13 17  1  0  0  0  0
 13 14  1  0  0  0  0
 13 31  1  0  0  0  0
 14 15  1  0  0  0  0
 14 32  1  0  0  0  0
 14 33  1  0  0  0  0
 15 16  1  0  0  0  0
 15 34  1  0  0  0  0
 15 35  1  0  0  0  0
 16 17  1  0  0  0  0
 16 36  1  0  0  0  0
 16 37  1  0  0  0  0
 18 19  2  0  0  0  0
 18 38  1  0  0  0  0
M  END
> <s_m_source_file>
AV-unprocessed.smi

> <i_m_source_file_index>
1791

> <i_lp_mmshare_version>
43012

> <i_f3d_flags>
0

> <s_epik_input>
W0NIM11PYzFbY0hdW2NIXWMoW2NIXW4xKVtOSF1DKD1PKVtOSF1bQ0BIXShbQ0gzXSlbQ0BASF0yW0NIMl1bQ0gyXVtDSDJdTzI=

> <s_epik_cmdline>
J2VwaWtfcHl0aG9uJywgJy1waCcsICc3LjAnLCAnLXRuJywgJzgnLCAnLW1hJywgJzIwMCcsICctbWV0YWxfYmluZGluZycsICctaW1hZScsICc8aW5maWxlLm1hZT4nLCAnLW9tYWUnLCAnPG91dGZpbGUubWFlPic=

> <r_lp_tautomer_probability>
1

> <r_epik_Ionization_Penalty>
9.18737e-05

> <r_epik_Ionization_Penalty_Charging>
0

> <r_epik_Ionization_Penalty_Neutral>
9.18737e-05

> <r_epik_State_Penalty>
-0

> <r_epik_Charging_Adjusted_Penalty>
0

> <i_epik_Tot_Q>
0

> <i_epik_Tot_abs_Q>
0

> <r_epik_Metal_State_Penalty>
-0

> <b_epik_Metal_Only>
0

> <s_lp_Force_Field>
OPLS_2005

> <r_lp_Energy>
20.7661

> <b_lp_Chiralities_Consistent>
1

> <s_lp_Variant>
AV-unprocessed.smi:1791-1

> <Gold.Version>
5.8.1

> <Gold.Id.Protein>
6NUR|6NUR_protein|mol2

> <Gold.PLP.Fitness>
38.8837

> <Gold.PLP.PLP>
-27.8142

> <Gold.PLP.part.hbond>
-3.0000

> <Gold.PLP.part.metal>
0.0000

> <Gold.PLP.part.buried>
-3.0355

> <Gold.PLP.part.nonpolar>
-21.4844

> <Gold.PLP.part.repulsive>
0.2840

> <Gold.PLP.ligand.clash>
0.0000

> <Gold.PLP.ligand.torsion>
0.4755

> <Gold.PLP.Chemscore.Hbond>
3.0000

> <Gold.PLP.Chemscore.CHOScore>
1.0000

> <Gold.PLP.Chemscore.Metal>
0.0000

> <Gold.Chemscore.Hbonds>
donor molecule, donor type, donor heavy atom, donor atom, acceptor molecule, acceptor atom, score
      L1  H     7    25       P1  7948  1.00
      L1  H    10    26       P1  7948  0.80
      P1  H  7989  7998       L1    19  1.00
      L1  C    18    38       P1  7957  1.00

> <Gold.PLP.Chemscore.Internal.Correction>
0.0205

> <Gold.Rescore>
     Score         DG    S(hbond)    S(metal)    S(lipo)     H(rot)  DE(clash)    DE(int)     intcor
     14.72     -16.47       2.29        0.00      60.83       1.47       0.00       1.76       ----

> <Gold.Chemscore.Fitness>
14.7162

> <Gold.Chemscore.DG>
-16.4731

> <Gold.Chemscore.ZeroCoef>
-5.4800

> <Gold.Chemscore.Hbond>
2.2867

> <Gold.Chemscore.Metal>
0.0000

> <Gold.Chemscore.Lipo>
60.8283

> <Gold.Chemscore.Internal_Hbond>
0.0000

> <Gold.Chemscore.DEClash>
0.0009

> <Gold.Chemscore.DEInternal>
1.7560

> <Gold.Chemscore.Rot>
1.4693

> <Gold.Chemscore.Internal.Correction>
   9.000000E+99

> <Gold.Chemscore.Hbonds>
donor molecule, donor type, donor heavy atom, donor atom, acceptor molecule, acceptor atom, score
      L1  H     7    25       P1  7948  0.81
      L1  H    10    26       P1  7948  0.11
      P1  H  7989  7998       L1    19  0.65

> <Gold.Chemscore.Hbond.Weighted>
-7.6375

> <Gold.Chemscore.Metal.Weighted>
-0.0000

> <Gold.Chemscore.Lipo.Weighted>
-7.1169

> <Gold.Chemscore.Internal_Hbond.Weighted>
0.0000

> <Gold.Chemscore.DEClash.Weighted>
0.0009

> <Gold.Chemscore.DEInternal.Weighted>
1.7560

> <Gold.Chemscore.Rot.Weighted>
3.7613

> <Gold.Chemscore.Internal.Correction.Weighted>
   9.000000E+99

> <Gold.Protein.RotatedTorsions>
[ 6907 6896 6895 6894 ] final  113.00 input  -60.11 | X-H torsion
[ 7974 7965 7964 7962 ] final  101.79 input  175.53 | X-H torsion
[ 8008 7997 7996 7995 ] final  100.33 input   59.86 | X-H torsion
[ 10167 10162 10161 10158 ] final -139.80 input  -65.29 | X-H torsion
[ 10718 10713 10712 10709 ] final  126.25 input   66.30 | X-H torsion
[ 10763 10752 10751 10750 ] final  -65.29 input  -60.55 | X-H torsion
[ 11005 11000 10999 10996 ] final  167.15 input  -57.11 | X-H torsion

> <Gold.Protein.ActiveResidues>
 VAL166  LYS551  ARG553  GLY616  TRP617  ASP618  TYR619  PRO620  LYS621  CYS622 
 ASP623  PHE694  ASN695  SER759  ASP760  ASP761  ALA762  ILE779  LEU786  VAL792 
 PHE793  MET794  SER795  GLU796  ALA797  LYS798  CYS799  TRP800  GLU811  SER814 

> <Gold.Protein.RotatedAtoms>
  152.4885  133.8436  159.7165 H   0  0  0  0  0  0  0  0  0  0  0  0  # atno 6907 bound_to 6896
  150.8993  133.7131  159.2890 H   0  0  0  0  0  0  0  0  0  0  0  0  # atno 6908 bound_to 6896
  151.4577  135.1039  159.9768 H   0  0  0  0  0  0  0  0  0  0  0  0  # atno 6909 bound_to 6896
  145.3677  139.2404  143.3472 H   0  0  0  0  0  0  0  0  0  0  0  0  # atno 7974 bound_to 7965
  156.1193  140.3215  155.8185 H   0  0  0  0  0  0  0  0  0  0  0  0  # atno 8008 bound_to 7997
  155.4533  140.0534  157.3016 H   0  0  0  0  0  0  0  0  0  0  0  0  # atno 8009 bound_to 7997
  154.4816  140.2055  155.9765 H   0  0  0  0  0  0  0  0  0  0  0  0  # atno 8010 bound_to 7997
  139.8344  143.7405  152.2665 H   0  0  0  0  0  0  0  0  0  0  0  0  # atno 10167 bound_to 10162
  157.5435  131.1096  150.8820 H   0  0  0  0  0  0  0  0  0  0  0  0  # atno 10718 bound_to 10713
  154.3429  135.6153  153.5605 H   0  0  0  0  0  0  0  0  0  0  0  0  # atno 10763 bound_to 10752
  152.9803  135.5774  154.4832 H   0  0  0  0  0  0  0  0  0  0  0  0  # atno 10764 bound_to 10752
  154.4539  135.2853  155.1738 H   0  0  0  0  0  0  0  0  0  0  0  0  # atno 10765 bound_to 10752
  140.2738  134.7805  157.3699 H   0  0  0  0  0  0  0  0  0  0  0  0  # atno 11005 bound_to 11000
  146.2899  140.4323  142.8743 LP  0  0  0  0  0  0  0  0  0  0  0  0  # atno 17320 bound_to 7965
  144.8599  140.7124  143.6114 LP  0  0  0  0  0  0  0  0  0  0  0  0  # atno 17321 bound_to 7965
  139.7622  144.7503  151.0347 LP  0  0  0  0  0  0  0  0  0  0  0  0  # atno 17342 bound_to 10162
  140.7804  143.4738  151.0110 LP  0  0  0  0  0  0  0  0  0  0  0  0  # atno 17343 bound_to 10162
  156.9366  130.5369  149.5279 LP  0  0  0  0  0  0  0  0  0  0  0  0  # atno 17370 bound_to 10713
  156.0516  130.5584  150.9001 LP  0  0  0  0  0  0  0  0  0  0  0  0  # atno 17371 bound_to 10713
  140.1348  134.5048  155.8077 LP  0  0  0  0  0  0  0  0  0  0  0  0  # atno 17394 bound_to 11000
  141.2173  133.6803  156.7104 LP  0  0  0  0  0  0  0  0  0  0  0  0  # atno 17395 bound_to 11000

$$$$
