AV-unprocessed.smi:2852|AV-procd|sdf|10972|dock8
  -GOLD-   2272015423D 1   1.00000     0.00000
 Structure written by MMmdl.
 28 29  0  0  0  0  0  0  0  0  1 V2000
  147.4847  141.5477  153.4855 C   0  0  0  0  0  0  0  0  0  0  0  0
  148.7150  140.7853  153.6315 N   0  0  0  0  0  0  0  0  0  0  0  0
  149.3601  140.6072  154.7939 C   0  0  0  0  0  0  0  0  0  0  0  0
  148.9619  141.0638  155.8655 O   0  0  0  0  0  0  0  0  0  0  0  0
  150.6508  139.7874  154.7430 C   0  0  0  0  0  0  0  0  0  0  0  0
  151.4640  140.0081  155.9785 C   0  0  0  0  0  0  0  0  0  0  0  0
  152.4204  139.1593  156.3372 N   0  0  0  0  0  0  0  0  0  0  0  0
  152.9216  139.7173  157.5223 O   0  0  0  0  0  0  0  0  0  0  0  0
  152.2041  140.8466  157.7338 C   0  0  0  0  0  0  0  0  0  0  0  0
  152.5061  141.6375  158.9216 C   0  0  0  0  0  0  0  0  0  0  0  0
  152.3705  142.9719  159.0209 C   0  0  0  0  0  0  0  0  0  0  0  0
  152.6374  143.9036  160.1783 C   0  0  0  0  0  0  0  0  0  0  0  0
  152.1793  145.0038  159.2021 C   0  0  0  0  0  0  0  0  0  0  0  0
  151.9069  144.0273  158.0427 C   0  0  0  0  0  0  0  0  0  0  0  0
  151.2855  141.0814  156.7982 N   0  0  0  0  0  0  0  0  0  0  0  0
  147.1516  141.5208  152.4482 H   0  0  0  0  0  0  0  0  0  0  0  0
  147.6405  142.5900  153.7662 H   0  0  0  0  0  0  0  0  0  0  0  0
  146.6920  141.1330  154.1095 H   0  0  0  0  0  0  0  0  0  0  0  0
  149.1080  140.3769  152.7955 H   0  0  0  0  0  0  0  0  0  0  0  0
  150.4099  138.7282  154.6420 H   0  0  0  0  0  0  0  0  0  0  0  0
  151.2349  140.0641  153.8642 H   0  0  0  0  0  0  0  0  0  0  0  0
  152.8635  141.0898  159.7814 H   0  0  0  0  0  0  0  0  0  0  0  0
  151.9821  143.8210  161.0460 H   0  0  0  0  0  0  0  0  0  0  0  0
  153.6747  144.0304  160.4893 H   0  0  0  0  0  0  0  0  0  0  0  0
  151.2805  145.5221  159.5391 H   0  0  0  0  0  0  0  0  0  0  0  0
  152.9680  145.7223  158.9739 H   0  0  0  0  0  0  0  0  0  0  0  0
  152.5428  144.2214  157.1785 H   0  0  0  0  0  0  0  0  0  0  0  0
  150.8561  144.0109  157.7521 H   0  0  0  0  0  0  0  0  0  0  0  0
  1  2  1  0  0  0  0
  1 16  1  0  0  0  0
  1 17  1  0  0  0  0
  1 18  1  0  0  0  0
  2  3  1  0  0  0  0
  2 19  1  0  0  0  0
  3  4  2  0  0  0  0
  3  5  1  0  0  0  0
  5  6  1  0  0  0  0
  5 20  1  0  0  0  0
  5 21  1  0  0  0  0
  6 15  1  0  0  0  0
  6  7  2  0  0  0  0
  7  8  1  0  0  0  0
  8  9  1  0  0  0  0
  9 10  1  0  0  0  0
  9 15  2  0  0  0  0
 10 11  2  0  0  0  0
 10 22  1  0  0  0  0
 11 14  1  0  0  0  0
 11 12  1  0  0  0  0
 12 13  1  0  0  0  0
 12 23  1  0  0  0  0
 12 24  1  0  0  0  0
 13 14  1  0  0  0  0
 13 25  1  0  0  0  0
 13 26  1  0  0  0  0
 14 27  1  0  0  0  0
 14 28  1  0  0  0  0
M  END
> <s_m_source_file>
AV-unprocessed.smi

> <i_m_source_file_index>
2852

> <i_lp_mmshare_version>
43012

> <i_f3d_flags>
0

> <s_epik_input>
W0NIM11bTkhdQyg9TylbQ0gyXWMxbm9jKG4xKVtDSF09QzJbQ0gyXVtDSDJdW0NIMl0y

> <s_epik_cmdline>
J2VwaWtfcHl0aG9uJywgJy1waCcsICc3LjAnLCAnLXRuJywgJzgnLCAnLW1hJywgJzIwMCcsICctbWV0YWxfYmluZGluZycsICctaW1hZScsICc8aW5maWxlLm1hZT4nLCAnLW9tYWUnLCAnPG91dGZpbGUubWFlPic=

> <r_lp_tautomer_probability>
1

> <r_epik_Ionization_Penalty>
1.02917e-07

> <r_epik_Ionization_Penalty_Charging>
0

> <r_epik_Ionization_Penalty_Neutral>
1.02917e-07

> <r_epik_State_Penalty>
-0

> <r_epik_Charging_Adjusted_Penalty>
0

> <i_epik_Tot_Q>
0

> <i_epik_Tot_abs_Q>
0

> <r_epik_Metal_State_Penalty>
-0

> <b_epik_Metal_Only>
0

> <s_lp_Force_Field>
OPLS_2005

> <r_lp_Energy>
12.6474

> <b_lp_Chiralities_Consistent>
1

> <s_lp_Variant>
AV-unprocessed.smi:2852-1

> <Gold.Version>
5.8.1

> <Gold.Id.Protein>
6NUR|6NUR_protein|mol2

> <Gold.PLP.Fitness>
38.3035

> <Gold.PLP.PLP>
-33.6677

> <Gold.PLP.part.hbond>
-2.4694

> <Gold.PLP.part.metal>
0.0000

> <Gold.PLP.part.buried>
-3.7838

> <Gold.PLP.part.nonpolar>
-27.3948

> <Gold.PLP.part.repulsive>
0.2460

> <Gold.PLP.ligand.clash>
0.0000

> <Gold.PLP.ligand.torsion>
0.6824

> <Gold.PLP.Chemscore.Hbond>
2.0000

> <Gold.PLP.Chemscore.CHOScore>
0.0000

> <Gold.PLP.Chemscore.Metal>
0.0000

> <Gold.Chemscore.Hbonds>
donor molecule, donor type, donor heavy atom, donor atom, acceptor molecule, acceptor atom, score
      L1  H     2    19       P1  7957  1.00
      P1  H  7997  8009       L1     8  0.95

> <Gold.PLP.Chemscore.Internal.Correction>
0.0006

> <Gold.Rescore>
     Score         DG    S(hbond)    S(metal)    S(lipo)     H(rot)  DE(clash)    DE(int)     intcor
     13.90     -16.41       1.66        0.00      75.71       1.35       0.04       2.47       ----

> <Gold.Chemscore.Fitness>
13.8988

> <Gold.Chemscore.DG>
-16.4086

> <Gold.Chemscore.ZeroCoef>
-5.4800

> <Gold.Chemscore.Hbond>
1.6561

> <Gold.Chemscore.Metal>
0.0000

> <Gold.Chemscore.Lipo>
75.7109

> <Gold.Chemscore.Internal_Hbond>
0.0000

> <Gold.Chemscore.DEClash>
0.0376

> <Gold.Chemscore.DEInternal>
2.4722

> <Gold.Chemscore.Rot>
1.3519

> <Gold.Chemscore.Internal.Correction>
   9.000000E+99

> <Gold.Chemscore.Hbonds>
donor molecule, donor type, donor heavy atom, donor atom, acceptor molecule, acceptor atom, score
      L1  H     2    19       P1  7957  1.00
      P1  H  7997  8009       L1     8  0.18

> <Gold.Chemscore.Hbond.Weighted>
-5.5314

> <Gold.Chemscore.Metal.Weighted>
-0.0000

> <Gold.Chemscore.Lipo.Weighted>
-8.8582

> <Gold.Chemscore.Internal_Hbond.Weighted>
0.0000

> <Gold.Chemscore.DEClash.Weighted>
0.0376

> <Gold.Chemscore.DEInternal.Weighted>
2.4722

> <Gold.Chemscore.Rot.Weighted>
3.4610

> <Gold.Chemscore.Internal.Correction.Weighted>
   9.000000E+99

> <Gold.Protein.RotatedTorsions>
[ 6907 6896 6895 6894 ] final  -14.25 input  -60.11 | X-H torsion
[ 7974 7965 7964 7962 ] final  114.50 input  175.53 | X-H torsion
[ 8008 7997 7996 7995 ] final  156.02 input   59.86 | X-H torsion
[ 10167 10162 10161 10158 ] final  161.96 input  -65.29 | X-H torsion
[ 10718 10713 10712 10709 ] final  157.53 input   66.30 | X-H torsion
[ 10763 10752 10751 10750 ] final  -93.78 input  -60.55 | X-H torsion
[ 11005 11000 10999 10996 ] final   47.34 input  -57.11 | X-H torsion

> <Gold.Protein.ActiveResidues>
 VAL166  LYS551  ARG553  GLY616  TRP617  ASP618  TYR619  PRO620  LYS621  CYS622 
 ASP623  PHE694  ASN695  SER759  ASP760  ASP761  ALA762  ILE779  LEU786  VAL792 
 PHE793  MET794  SER795  GLU796  ALA797  LYS798  CYS799  TRP800  GLU811  SER814 

> <Gold.Protein.RotatedAtoms>
  151.3422  135.0866  159.9374 H   0  0  0  0  0  0  0  0  0  0  0  0  # atno 6907 bound_to 6896
  152.5208  133.9435  159.7648 H   0  0  0  0  0  0  0  0  0  0  0  0  # atno 6908 bound_to 6896
  150.9795  133.6207  159.2754 H   0  0  0  0  0  0  0  0  0  0  0  0  # atno 6909 bound_to 6896
  145.2037  139.2940  143.4305 H   0  0  0  0  0  0  0  0  0  0  0  0  # atno 7974 bound_to 7965
  156.2446  140.1924  156.6891 H   0  0  0  0  0  0  0  0  0  0  0  0  # atno 8008 bound_to 7997
  154.6265  140.0601  156.9706 H   0  0  0  0  0  0  0  0  0  0  0  0  # atno 8009 bound_to 7997
  155.1778  140.3274  155.4383 H   0  0  0  0  0  0  0  0  0  0  0  0  # atno 8010 bound_to 7997
  139.4855  144.4484  151.8861 H   0  0  0  0  0  0  0  0  0  0  0  0  # atno 10167 bound_to 10162
  157.1903  131.0653  151.2083 H   0  0  0  0  0  0  0  0  0  0  0  0  # atno 10718 bound_to 10713
  154.6992  135.5182  153.8502 H   0  0  0  0  0  0  0  0  0  0  0  0  # atno 10763 bound_to 10752
  153.0690  135.6595  154.0298 H   0  0  0  0  0  0  0  0  0  0  0  0  # atno 10764 bound_to 10752
  154.0159  135.2998  155.3366 H   0  0  0  0  0  0  0  0  0  0  0  0  # atno 10765 bound_to 10752
  140.1288  134.4733  155.8538 H   0  0  0  0  0  0  0  0  0  0  0  0  # atno 11005 bound_to 11000
  146.3412  140.2290  142.8593 LP  0  0  0  0  0  0  0  0  0  0  0  0  # atno 17320 bound_to 7965
  144.9923  140.8558  143.5332 LP  0  0  0  0  0  0  0  0  0  0  0  0  # atno 17321 bound_to 7965
  140.3940  144.2579  150.5897 LP  0  0  0  0  0  0  0  0  0  0  0  0  # atno 17342 bound_to 10162
  140.5120  143.2288  151.8521 LP  0  0  0  0  0  0  0  0  0  0  0  0  # atno 17343 bound_to 10162
  157.3867  130.7260  149.6668 LP  0  0  0  0  0  0  0  0  0  0  0  0  # atno 17370 bound_to 10713
  155.9712  130.4157  150.4197 LP  0  0  0  0  0  0  0  0  0  0  0  0  # atno 17371 bound_to 10713
  141.2166  133.6788  156.7030 LP  0  0  0  0  0  0  0  0  0  0  0  0  # atno 17394 bound_to 11000
  140.2869  134.8272  157.3982 LP  0  0  0  0  0  0  0  0  0  0  0  0  # atno 17395 bound_to 11000

$$$$
