AV-unprocessed.smi:1487|AV-procd|sdf|6012|dock6
  -GOLD-   22720 6113D 1   1.00000     0.00000
 Structure written by MMmdl.
 48 50  0  0  0  0  0  0  0  0  2 V2000
  153.1249  142.6967  160.9705 C   0  0  0  0  0  0  0  0  0  0  0  0
  152.4421  142.3814  159.6514 C   0  0  0  0  0  0  0  0  0  0  0  0
  152.8229  141.2206  158.9412 C   0  0  0  0  0  0  0  0  0  0  0  0
  152.2122  140.8909  157.7116 C   0  0  0  0  0  0  0  0  0  0  0  0
  152.4226  139.8185  156.8617 N   0  0  0  0  0  0  0  0  0  0  0  0
  151.5515  140.0713  155.8896 C   0  0  0  0  0  0  0  0  0  0  0  0
  150.7975  141.1807  156.0106 N   0  0  0  0  0  0  0  0  0  0  0  0
  149.7848  141.6544  155.0843 C   0  0  0  0  0  0  0  0  0  0  0  0
  148.7132  140.5879  154.7862 C   0  0  1  0  0  0  0  0  0  0  0  0
  147.4836  141.2242  154.4933 O   0  0  0  0  0  0  0  0  0  0  0  0
  149.1067  139.7070  153.5841 C   0  0  0  0  0  0  0  0  0  0  0  0
  148.0718  138.6927  153.2553 N   0  3  1  0  0  0  0  0  0  0  0  0
  147.4113  138.1453  154.4678 C   0  0  0  0  0  0  0  0  0  0  0  0
  146.4842  136.9738  154.1091 C   0  0  0  0  0  0  0  0  0  0  0  0
  145.4358  137.3985  153.0716 C   0  0  0  0  0  0  0  0  0  0  0  0
  146.1020  138.0430  151.8444 C   0  0  2  0  0  0  0  0  0  0  0  0
  146.7823  137.0655  151.0813 O   0  0  0  0  0  0  0  0  0  0  0  0
  147.0803  139.1634  152.2492 C   0  0  0  0  0  0  0  0  0  0  0  0
  151.2030  141.7622  157.2073 C   0  0  0  0  0  0  0  0  0  0  0  0
  150.8164  142.9208  157.9037 C   0  0  0  0  0  0  0  0  0  0  0  0
  151.4356  143.2345  159.1315 C   0  0  0  0  0  0  0  0  0  0  0  0
  151.0086  144.4857  159.8785 C   0  0  0  0  0  0  0  0  0  0  0  0
  153.8439  141.9230  161.2414 H   0  0  0  0  0  0  0  0  0  0  0  0
  152.3920  142.7673  161.7746 H   0  0  0  0  0  0  0  0  0  0  0  0
  153.6606  143.6440  160.9052 H   0  0  0  0  0  0  0  0  0  0  0  0
  153.5896  140.5708  159.3369 H   0  0  0  0  0  0  0  0  0  0  0  0
  151.4538  139.4102  155.0406 H   0  0  0  0  0  0  0  0  0  0  0  0
  149.3288  142.5552  155.4977 H   0  0  0  0  0  0  0  0  0  0  0  0
  150.2825  141.9546  154.1611 H   0  0  0  0  0  0  0  0  0  0  0  0
  148.5765  139.9788  155.6790 H   0  0  0  0  0  0  0  0  0  0  0  0
  146.7853  140.5961  154.6037 H   0  0  0  0  0  0  0  0  0  0  0  0
  149.2713  140.3581  152.7238 H   0  0  0  0  0  0  0  0  0  0  0  0
  150.0576  139.2049  153.7693 H   0  0  0  0  0  0  0  0  0  0  0  0
  148.1654  137.7947  155.1735 H   0  0  0  0  0  0  0  0  0  0  0  0
  146.8497  138.9358  154.9682 H   0  0  0  0  0  0  0  0  0  0  0  0
  147.0759  136.1443  153.7193 H   0  0  0  0  0  0  0  0  0  0  0  0
  145.9886  136.6023  155.0067 H   0  0  0  0  0  0  0  0  0  0  0  0
  144.8259  136.5446  152.7741 H   0  0  0  0  0  0  0  0  0  0  0  0
  144.7547  138.1179  153.5284 H   0  0  0  0  0  0  0  0  0  0  0  0
  145.3269  138.4607  151.2009 H   0  0  0  0  0  0  0  0  0  0  0  0
  147.3374  136.5613  151.6569 H   0  0  0  0  0  0  0  0  0  0  0  0
  146.5209  140.0001  152.6707 H   0  0  0  0  0  0  0  0  0  0  0  0
  147.5811  139.5439  151.3595 H   0  0  0  0  0  0  0  0  0  0  0  0
  150.0474  143.5612  157.4974 H   0  0  0  0  0  0  0  0  0  0  0  0
  150.2422  145.0345  159.3304 H   0  0  0  0  0  0  0  0  0  0  0  0
  151.8580  145.1532  160.0244 H   0  0  0  0  0  0  0  0  0  0  0  0
  150.5998  144.2260  160.8552 H   0  0  0  0  0  0  0  0  0  0  0  0
  148.5663  137.9172  152.8362 H   0  0  0  0  0  0  0  0  0  0  0  0
  1  2  1  0  0  0  0
  1 23  1  0  0  0  0
  1 24  1  0  0  0  0
  1 25  1  0  0  0  0
  2 21  1  0  0  0  0
  2  3  2  0  0  0  0
  3  4  1  0  0  0  0
  3 26  1  0  0  0  0
  4 19  2  0  0  0  0
  4  5  1  0  0  0  0
  5  6  2  0  0  0  0
  6  7  1  0  0  0  0
  6 27  1  0  0  0  0
  7  8  1  0  0  0  0
  7 19  1  0  0  0  0
  8  9  1  0  0  0  0
  8 28  1  0  0  0  0
  8 29  1  0  0  0  0
  9 10  1  0  0  0  0
  9 11  1  0  0  0  0
  9 30  1  0  0  0  0
 10 31  1  0  0  0  0
 11 12  1  0  0  0  0
 11 32  1  0  0  0  0
 11 33  1  0  0  0  0
 12 18  1  0  0  0  0
 12 13  1  0  0  0  0
 12 48  1  0  0  0  0
 13 14  1  0  0  0  0
 13 34  1  0  0  0  0
 13 35  1  0  0  0  0
 14 15  1  0  0  0  0
 14 36  1  0  0  0  0
 14 37  1  0  0  0  0
 15 16  1  0  0  0  0
 15 38  1  0  0  0  0
 15 39  1  0  0  0  0
 16 17  1  0  0  0  0
 16 18  1  0  0  0  0
 16 40  1  0  0  0  0
 17 41  1  0  0  0  0
 18 42  1  0  0  0  0
 18 43  1  0  0  0  0
 19 20  1  0  0  0  0
 20 21  2  0  0  0  0
 20 44  1  0  0  0  0
 21 22  1  0  0  0  0
 22 45  1  0  0  0  0
 22 46  1  0  0  0  0
 22 47  1  0  0  0  0
M  CHG  1  12   1
M  END
> <s_m_source_file>
AV-unprocessed.smi

> <i_m_source_file_index>
1487

> <i_lp_mmshare_version>
43012

> <i_f3d_flags>
0

> <s_epik_input>
W0NIM11jKFtjSF0xKWMoW0NIM10pW2NIXWMoYzEyKW4oW2NIXW4yKVtDSDJdW0NASF0oW09IXSlbQ0gyXU4zW0NIMl1bQ0gyXVtDSDJdW0NAQEhdKFtPSF0pW0NIMl0z

> <s_epik_cmdline>
J2VwaWtfcHl0aG9uJywgJy1waCcsICc3LjAnLCAnLXRuJywgJzgnLCAnLW1hJywgJzIwMCcsICctbWV0YWxfYmluZGluZycsICctaW1hZScsICc8aW5maWxlLm1hZT4nLCAnLW9tYWUnLCAnPG91dGZpbGUubWFlPic=

> <r_epik_Ionization_Penalty>
0.0940186

> <r_epik_Ionization_Penalty_Charging>
0.00679686

> <r_epik_Ionization_Penalty_Neutral>
0.0872218

> <r_epik_State_Penalty>
0.0799311

> <r_epik_Charging_Adjusted_Penalty>
0.086728

> <i_epik_Tot_Q>
1

> <i_epik_Tot_abs_Q>
1

> <r_epik_Metal_State_Penalty>
7.95545e-05

> <b_epik_Metal_Only>
0

> <s_lp_Force_Field>
OPLS_2005

> <r_lp_Energy>
22.2404

> <b_lp_Chiralities_Consistent>
1

> <s_lp_Variant>
AV-unprocessed.smi:1487-6

> <Gold.Version>
5.8.1

> <Gold.Id.Protein>
6NUR|6NUR_protein|mol2

> <Gold.PLP.Fitness>
54.3411

> <Gold.PLP.PLP>
-41.5505

> <Gold.PLP.part.hbond>
-4.7223

> <Gold.PLP.part.metal>
0.0000

> <Gold.PLP.part.buried>
5.0700

> <Gold.PLP.part.nonpolar>
-40.5675

> <Gold.PLP.part.repulsive>
0.0435

> <Gold.PLP.ligand.clash>
0.0000

> <Gold.PLP.ligand.torsion>
0.7233

> <Gold.PLP.Chemscore.Hbond>
4.7340

> <Gold.PLP.Chemscore.CHOScore>
0.0000

> <Gold.PLP.Chemscore.Metal>
0.0000

> <Gold.Chemscore.Hbonds>
donor molecule, donor type, donor heavy atom, donor atom, acceptor molecule, acceptor atom, score
      L1  H    12    48       P1  7948  2.00
      L1  H    17    41       P1  7948  0.75
      P1  H  7954  7966       L1    17  1.00
      P1  H  7997  8009       L1     5  1.00

> <Gold.PLP.Chemscore.Internal.Correction>
0.0352

> <Gold.Rescore>
     Score         DG    S(hbond)    S(metal)    S(lipo)     H(rot)  DE(clash)    DE(int)     intcor
     16.38     -19.53       2.02        0.00     120.82       2.67       2.41       0.74       ----

> <Gold.Chemscore.Fitness>
16.3759

> <Gold.Chemscore.DG>
-19.5270

> <Gold.Chemscore.ZeroCoef>
-5.4800

> <Gold.Chemscore.Hbond>
2.0206

> <Gold.Chemscore.Metal>
0.0000

> <Gold.Chemscore.Lipo>
120.8243

> <Gold.Chemscore.Internal_Hbond>
0.0000

> <Gold.Chemscore.DEClash>
2.4062

> <Gold.Chemscore.DEInternal>
0.7449

> <Gold.Chemscore.Rot>
2.6712

> <Gold.Chemscore.Internal.Correction>
   9.000000E+99

> <Gold.Chemscore.Hbonds>
donor molecule, donor type, donor heavy atom, donor atom, acceptor molecule, acceptor atom, score
      L1  H    12    48       P1  7948  0.98
      L1  H    17    41       P1  7948  0.73
      P1  H  7954  7966       L1    17  0.21
      P1  H  7997  8009       L1     5  0.23

> <Gold.Chemscore.Hbond.Weighted>
-6.7489

> <Gold.Chemscore.Metal.Weighted>
-0.0000

> <Gold.Chemscore.Lipo.Weighted>
-14.1364

> <Gold.Chemscore.Internal_Hbond.Weighted>
0.0000

> <Gold.Chemscore.DEClash.Weighted>
2.4062

> <Gold.Chemscore.DEInternal.Weighted>
0.7449

> <Gold.Chemscore.Rot.Weighted>
6.8383

> <Gold.Chemscore.Internal.Correction.Weighted>
   9.000000E+99

> <Gold.Protein.RotatedTorsions>
[ 6907 6896 6895 6894 ] final   11.11 input  -60.11 | X-H torsion
[ 7974 7965 7964 7962 ] final  -10.51 input  175.53 | X-H torsion
[ 8008 7997 7996 7995 ] final -158.89 input   59.86 | X-H torsion
[ 10167 10162 10161 10158 ] final -120.82 input  -65.29 | X-H torsion
[ 10718 10713 10712 10709 ] final -117.02 input   66.30 | X-H torsion
[ 10763 10752 10751 10750 ] final  166.74 input  -60.55 | X-H torsion
[ 11005 11000 10999 10996 ] final -169.06 input  -57.11 | X-H torsion

> <Gold.Protein.ActiveResidues>
 VAL166  LYS551  ARG553  GLY616  TRP617  ASP618  TYR619  PRO620  LYS621  CYS622 
 ASP623  PHE694  ASN695  SER759  ASP760  ASP761  ALA762  ILE779  LEU786  VAL792 
 PHE793  MET794  SER795  GLU796  ALA797  LYS798  CYS799  TRP800  GLU811  SER814 

> <Gold.Protein.RotatedAtoms>
  151.7491  135.0837  160.0327 H   0  0  0  0  0  0  0  0  0  0  0  0  # atno 6907 bound_to 6896
  152.3429  133.6083  159.5897 H   0  0  0  0  0  0  0  0  0  0  0  0  # atno 6908 bound_to 6896
  150.7490  133.9611  159.3557 H   0  0  0  0  0  0  0  0  0  0  0  0  # atno 6909 bound_to 6896
  146.2218  140.2774  142.8360 H   0  0  0  0  0  0  0  0  0  0  0  0  # atno 7974 bound_to 7965
  155.7544  140.0831  157.2186 H   0  0  0  0  0  0  0  0  0  0  0  0  # atno 8008 bound_to 7997
  154.4009  140.1554  156.2816 H   0  0  0  0  0  0  0  0  0  0  0  0  # atno 8009 bound_to 7997
  155.8900  140.3416  155.5952 H   0  0  0  0  0  0  0  0  0  0  0  0  # atno 8010 bound_to 7997
  140.0317  143.5242  152.2173 H   0  0  0  0  0  0  0  0  0  0  0  0  # atno 10167 bound_to 10162
  156.1004  130.6167  150.9111 H   0  0  0  0  0  0  0  0  0  0  0  0  # atno 10718 bound_to 10713
  154.3434  135.2754  155.2410 H   0  0  0  0  0  0  0  0  0  0  0  0  # atno 10763 bound_to 10752
  154.4671  135.5892  153.6299 H   0  0  0  0  0  0  0  0  0  0  0  0  # atno 10764 bound_to 10752
  152.9855  135.6079  154.3638 H   0  0  0  0  0  0  0  0  0  0  0  0  # atno 10765 bound_to 10752
  140.5350  134.5578  157.5085 H   0  0  0  0  0  0  0  0  0  0  0  0  # atno 11005 bound_to 11000
  144.9223  140.7881  143.5741 LP  0  0  0  0  0  0  0  0  0  0  0  0  # atno 17320 bound_to 7965
  145.2711  139.1954  143.4841 LP  0  0  0  0  0  0  0  0  0  0  0  0  # atno 17321 bound_to 7965
  139.6072  144.7599  151.3035 LP  0  0  0  0  0  0  0  0  0  0  0  0  # atno 17342 bound_to 10162
  140.7299  143.6894  150.7934 LP  0  0  0  0  0  0  0  0  0  0  0  0  # atno 17343 bound_to 10162
  157.6174  131.0932  150.8686 LP  0  0  0  0  0  0  0  0  0  0  0  0  # atno 17370 bound_to 10713
  156.8815  130.5181  149.5290 LP  0  0  0  0  0  0  0  0  0  0  0  0  # atno 17371 bound_to 10713
  139.9534  134.7577  156.0397 LP  0  0  0  0  0  0  0  0  0  0  0  0  # atno 17394 bound_to 11000
  141.1260  133.6599  156.3337 LP  0  0  0  0  0  0  0  0  0  0  0  0  # atno 17395 bound_to 11000

$$$$
