#       Name:                AV-unprocessed.smi:3169
#       Creating user name   scv26
#       Creation time:       Fri Mar 27 17:54:08 2020


#       File generated by GOLD software.
#

@<TRIPOS>MOLECULE
AV-unprocessed.smi:3169
    40    41     1
SMALL
NO_CHARGES


@<TRIPOS>ATOM
      1 ****         0.1790   1.0380   0.2163 O.2            1 S1                 0.0000
      2 ****        -0.2288   0.0457  -0.3881 C.2            1 S1                 0.0000
      3 ****         0.5538  -0.9748  -0.7658 N.am           1 S1                 0.0000
      4 ****         1.9879  -1.0564  -0.5161 C.3            1 S1                 0.0000
      5 ****         2.7856  -0.2308  -1.5388 C.3            1 S1                 0.0000
      6 ****         4.2219  -0.2700  -1.2613 N.pl3          1 S1                 0.0000
      7 ****         5.1342  -1.1847  -1.7206 C.2            1 S1                 0.0000
      8 ****         6.3483  -0.8213  -1.1966 C.2            1 S1                 0.0000
      9 ****         6.1248   0.2976  -0.4393 N.pl3          1 S1                 1.0000
     10 ****         4.8306   0.6309  -0.4794 C.2            1 S1                 0.0000
     11 ****        -1.5053  -0.1445  -0.7471 N.am           1 S1                 0.0000
     12 ****        -2.5995   0.7741  -0.4550 C.3            1 S1                 0.0000
     13 ****        -3.1590   0.5482   0.9588 C.3            1 S1                 0.0000
     14 ****        -4.2647   1.5279   1.3466 C.3            1 S1                 0.0000
     15 ****        -5.0025   0.7456   2.4086 C.3            1 S1                 0.0000
     16 ****        -4.9519  -0.6707   1.8426 C.3            1 S1                 0.0000
     17 ****        -3.7616  -0.7403   1.0609 O.3            1 S1                 0.0000
     18 ****         0.1269  -1.7494  -1.2530 H              1 S1                 0.0000
     19 ****         2.2069  -0.7239   0.5002 H              1 S1                 0.0000
     20 ****         2.2847  -2.1042  -0.5696 H              1 S1                 0.0000
     21 ****         2.6278  -0.6100  -2.5493 H              1 S1                 0.0000
     22 ****         2.4695   0.8136  -1.5345 H              1 S1                 0.0000
     23 ****         4.8589  -2.0044  -2.3684 H              1 S1                 0.0000
     24 ****         7.3282  -1.2639  -1.3024 H              1 S1                 0.0000
     25 ****         4.3684   1.4632   0.0215 H              1 S1                 0.0000
     26 ****        -1.7443  -0.9940  -1.2375 H              1 S1                 0.0000
     27 ****        -2.2601   1.8053  -0.5667 H              1 S1                 0.0000
     28 ****        -3.3841   0.6246  -1.1971 H              1 S1                 0.0000
     29 ****        -2.3609   0.6067   1.7010 H              1 S1                 0.0000
     30 ****        -3.8802   2.4824   1.7068 H              1 S1                 0.0000
     31 ****        -4.9256   1.7214   0.5002 H              1 S1                 0.0000
     32 ****        -4.4590   0.7937   3.3533 H              1 S1                 0.0000
     33 ****        -6.0190   1.1018   2.5785 H              1 S1                 0.0000
     34 ****        -4.9601  -1.4301   2.6248 H              1 S1                 0.0000
     35 ****        -5.8056  -0.8504   1.1881 H              1 S1                 0.0000
     36 ****         6.8341   0.8016   0.0783 H              1 S1                 0.0000
     37 ****         1.1473   1.1160   0.4537 LP             1 S1                 0.0000
     38 ****        -0.4581   1.7660   0.4697 LP             1 S1                 0.0000
     39 ****        -3.1187  -1.3714   1.4948 LP             1 S1                 0.0000
     40 ****        -3.9876  -1.0720   0.1450 LP             1 S1                 0.0000
@<TRIPOS>BOND
    1    1    2 2     
    2    2    3 am    
    3    2   11 am    
    4    3    4 1     
    5    3   18 1     
    6    4    5 1     
    7    4   19 1     
    8    4   20 1     
    9    5    6 1     
   10    5   21 1     
   11    5   22 1     
   12    6   10 1     
   13    6    7 1     
   14    7    8 2     
   15    7   23 1     
   16    8    9 1     
   17    8   24 1     
   18    9   10 2     
   19    9   36 1     
   20   10   25 1     
   21   11   12 1     
   22   11   26 1     
   23   12   13 1     
   24   12   27 1     
   25   12   28 1     
   26   13   17 1     
   27   13   14 1     
   28   13   29 1     
   29   14   15 1     
   30   14   30 1     
   31   14   31 1     
   32   15   16 1     
   33   15   32 1     
   34   15   33 1     
   35   16   17 1     
   36   16   34 1     
   37   16   35 1     
   38    1   37 1     
   39    1   38 1     
   40   17   39 1     
   41   17   40 1     
@<TRIPOS>SUBSTRUCTURE
      1 S1             1
@<TRIPOS>SET
LONE_PAIRS      STATIC     ATOMS    <user>   **** ""
4 37 38 39 40
DONOR_HYDROGENS      STATIC     ATOMS    <user>   **** ""
3 18 36 26
ATOM$BLUE        STATIC     ATOMS    COLORGROUP SYSTEM
4 37 38 39 40
ATOM$RED        STATIC     ATOMS    COLORGROUP SYSTEM
3 18 36 26
