#       Name:                AV-unprocessed.smi:1560
#       Creating user name   scv26
#       Creation time:       Fri Mar 27 06:47:56 2020


#       File generated by GOLD software.
#

@<TRIPOS>MOLECULE
AV-unprocessed.smi:1560
    56    57     1
SMALL
NO_CHARGES


@<TRIPOS>ATOM
      1 ****        -2.9164  -1.4114   0.9177 C.3            1 S1                 0.0000
      2 ****        -1.5100  -0.8376   0.6682 C.3            1 S1                 0.0000
      3 ****        -1.3567   0.0418  -0.6111 C.3            1 S1                 0.0000
      4 ****        -2.1828   1.3352  -0.3824 C.3            1 S1                 0.0000
      5 ****         0.1409   0.4325  -0.8110 C.3            1 S1                 0.0000
      6 ****         0.6989   1.2094   0.2955 N.am           1 S1                 0.0000
      7 ****         1.4998   0.7312   1.2605 C.2            1 S1                 0.0000
      8 ****         1.8287  -0.4531   1.3407 O.2            1 S1                 0.0000
      9 ****         1.9677   1.7420   2.3153 C.3            1 S1                 0.0000
     10 ****         3.3623   1.5208   2.7293 N.am           1 S1                 0.0000
     11 ****         3.5885   0.8042   3.9180 C.2            1 S1                 0.0000
     12 ****         4.8321   0.5494   4.3679 C.2            1 S1                 0.0000
     13 ****         5.9623   1.0390   3.5881 C.2            1 S1                 0.0000
     14 ****         7.1045   0.8192   3.9860 O.2            1 S1                 0.0000
     15 ****         5.6910   1.7259   2.4397 N.pl3          1 S1                -1.0000
     16 ****         4.4210   1.9746   1.9925 C.2            1 S1                 0.0000
     17 ****         4.1979   2.5928   0.9506 O.2            1 S1                 0.0000
     18 ****        -1.8762  -0.7079  -1.8134 N.4            1 S1                 1.0000
     19 ****        -2.0469   0.0880  -3.0620 C.3            1 S1                 0.0000
     20 ****        -2.7640  -0.7454  -4.1385 C.3            1 S1                 0.0000
     21 ****        -2.0368  -1.9395  -4.3907 O.3            1 S1                 0.0000
     22 ****        -1.9401  -2.7518  -3.2293 C.3            1 S1                 0.0000
     23 ****        -1.1814  -1.9878  -2.1326 C.3            1 S1                 0.0000
     24 ****        -2.9268  -2.0043   1.8325 H              1 S1                 0.0000
     25 ****        -3.2410  -2.0636   0.1071 H              1 S1                 0.0000
     26 ****        -3.6605  -0.6242   1.0362 H              1 S1                 0.0000
     27 ****        -1.2391  -0.2538   1.5482 H              1 S1                 0.0000
     28 ****        -0.7908  -1.6561   0.6562 H              1 S1                 0.0000
     29 ****        -1.9824   1.7741   0.5957 H              1 S1                 0.0000
     30 ****        -3.2554   1.1469  -0.4357 H              1 S1                 0.0000
     31 ****        -1.9471   2.1068  -1.1156 H              1 S1                 0.0000
     32 ****         0.7588  -0.4498  -0.9782 H              1 S1                 0.0000
     33 ****         0.2563   1.0455  -1.7043 H              1 S1                 0.0000
     34 ****         0.4814   2.1953   0.3148 H              1 S1                 0.0000
     35 ****         1.8443   2.7603   1.9409 H              1 S1                 0.0000
     36 ****         1.2984   1.6698   3.1735 H              1 S1                 0.0000
     37 ****         2.6985   0.4716   4.4318 H              1 S1                 0.0000
     38 ****         4.9894  -0.0057   5.2810 H              1 S1                 0.0000
     39 ****        -2.6423   0.9831  -2.8920 H              1 S1                 0.0000
     40 ****        -1.0763   0.4126  -3.4377 H              1 S1                 0.0000
     41 ****        -3.7833  -0.9844  -3.8306 H              1 S1                 0.0000
     42 ****        -2.8379  -0.1764  -5.0655 H              1 S1                 0.0000
     43 ****        -2.9336  -3.0454  -2.8861 H              1 S1                 0.0000
     44 ****        -1.4078  -3.6683  -3.4848 H              1 S1                 0.0000
     45 ****        -0.1654  -1.7936  -2.4768 H              1 S1                 0.0000
     46 ****        -1.1070  -2.6337  -1.2600 H              1 S1                 0.0000
     47 ****        -2.8133  -0.9774  -1.5499 H              1 S1                 0.0000
     48 ****         1.4958  -1.1113   0.6654 LP             1 S1                 0.0000
     49 ****         2.4286  -0.7564   2.0811 LP             1 S1                 0.0000
     50 ****         7.2491   0.3104   4.8347 LP             1 S1                 0.0000
     51 ****         7.8890   1.1492   3.4610 LP             1 S1                 0.0000
     52 ****         6.4596   2.0649   1.8972 LP             1 S1                 0.0000
     53 ****         3.2557   2.7548   0.6573 LP             1 S1                 0.0000
     54 ****         4.9590   2.9326   0.3981 LP             1 S1                 0.0000
     55 ****        -1.1153  -1.6993  -4.6957 LP             1 S1                 0.0000
     56 ****        -2.5017  -2.4562  -5.1096 LP             1 S1                 0.0000
@<TRIPOS>BOND
    1    1    2 1     
    2    1   24 1     
    3    1   25 1     
    4    1   26 1     
    5    2    3 1     
    6    2   27 1     
    7    2   28 1     
    8    3    4 1     
    9    3    5 1     
   10    3   18 1     
   11    4   29 1     
   12    4   30 1     
   13    4   31 1     
   14    5    6 1     
   15    5   32 1     
   16    5   33 1     
   17    6    7 am    
   18    6   34 1     
   19    7    8 2     
   20    7    9 1     
   21    9   10 1     
   22    9   35 1     
   23    9   36 1     
   24   10   16 am    
   25   10   11 1     
   26   11   12 2     
   27   11   37 1     
   28   12   13 1     
   29   12   38 1     
   30   13   14 2     
   31   13   15 1     
   32   15   16 1     
   33   16   17 2     
   34   18   23 1     
   35   18   19 1     
   36   18   47 1     
   37   19   20 1     
   38   19   39 1     
   39   19   40 1     
   40   20   21 1     
   41   20   41 1     
   42   20   42 1     
   43   21   22 1     
   44   22   23 1     
   45   22   43 1     
   46   22   44 1     
   47   23   45 1     
   48   23   46 1     
   49    8   48 1     
   50    8   49 1     
   51   14   50 1     
   52   14   51 1     
   53   15   52 1     
   54   17   53 1     
   55   17   54 1     
   56   21   55 1     
   57   21   56 1     
@<TRIPOS>SUBSTRUCTURE
      1 S1             1
@<TRIPOS>SET
LONE_PAIRS      STATIC     ATOMS    <user>   **** ""
9 48 49 50 51 52 53 54 55 56
DONOR_HYDROGENS      STATIC     ATOMS    <user>   **** ""
2 34 47
ATOM$BLUE        STATIC     ATOMS    COLORGROUP SYSTEM
9 48 49 50 51 52 53 54 55 56
ATOM$RED        STATIC     ATOMS    COLORGROUP SYSTEM
2 34 47
