#       Name:                AV-unprocessed.smi:726
#       Creating user name   scv26
#       Creation time:       Fri Mar 27 00:51:09 2020


#       File generated by GOLD software.
#

@<TRIPOS>MOLECULE
AV-unprocessed.smi:726
    32    32     1
SMALL
NO_CHARGES


@<TRIPOS>ATOM
      1 ****         0.0055   2.3469  -0.6182 C.3            1 S1                 0.0000
      2 ****        -0.7317   1.1424  -0.0472 C.2            1 S1                 0.0000
      3 ****        -2.0212   1.2871   0.3372 C.2            1 S1                 0.0000
      4 ****        -2.8007   0.1340   0.8155 C.2            1 S1                 0.0000
      5 ****        -3.9487   0.2506   1.2404 O.2            1 S1                 0.0000
      6 ****        -2.1263  -1.1675   0.7332 C.2            1 S1                 0.0000
      7 ****        -0.8386  -1.2143   0.3409 C.2            1 S1                 0.0000
      8 ****        -0.2062  -2.3878   0.1975 O.3            1 S1                 0.0000
      9 ****        -0.0430  -0.0919   0.0185 N.pl3          1 S1                 0.0000
     10 ****         1.4346  -0.1489  -0.0840 C.3            1 S1                 0.0000
     11 ****         1.9141  -0.7684  -1.4134 C.3            1 S1                 0.0000
     12 ****         2.1178  -0.7215   1.1735 C.2            1 S1                 0.0000
     13 ****         2.7449  -1.7993   1.0690 O.co2          1 S1                 0.0000
     14 ****         1.9999  -0.0576   2.2270 O.co2          1 S1                -1.0000
     15 ****        -0.6986   3.0983  -0.9769 H              1 S1                 0.0000
     16 ****         0.6315   2.0732  -1.4679 H              1 S1                 0.0000
     17 ****         0.6264   2.8119   0.1479 H              1 S1                 0.0000
     18 ****        -2.5194   2.2434   0.2703 H              1 S1                 0.0000
     19 ****        -2.6851  -2.0627   0.9644 H              1 S1                 0.0000
     20 ****         1.8329   0.8623  -0.0905 H              1 S1                 0.0000
     21 ****         2.9995  -0.7139  -1.5020 H              1 S1                 0.0000
     22 ****         1.4927  -0.2316  -2.2633 H              1 S1                 0.0000
     23 ****         1.6308  -1.8156  -1.5130 H              1 S1                 0.0000
     24 ****        -0.8121  -3.0701   0.4412 H              1 S1                 0.0000
     25 ****        -4.3822   1.1513   1.2689 LP             1 S1                 0.0000
     26 ****        -4.4487  -0.5552   1.5574 LP             1 S1                 0.0000
     27 ****         0.5975  -2.4170   0.7919 LP             1 S1                 0.0000
     28 ****         0.0782  -2.5079  -0.7536 LP             1 S1                 0.0000
     29 ****         3.2006  -2.1921   1.8678 LP             1 S1                 0.0000
     30 ****         2.7904  -2.2677   0.1867 LP             1 S1                 0.0000
     31 ****         2.4258  -0.3809   3.0720 LP             1 S1                 0.0000
     32 ****         1.4798   0.7965   2.2242 LP             1 S1                 0.0000
@<TRIPOS>BOND
    1    1    2 1     
    2    1   15 1     
    3    1   16 1     
    4    1   17 1     
    5    2    9 1     
    6    2    3 2     
    7    3    4 1     
    8    3   18 1     
    9    4    5 2     
   10    4    6 1     
   11    6    7 2     
   12    6   19 1     
   13    7    8 1     
   14    7    9 1     
   15    8   24 1     
   16    9   10 1     
   17   10   11 1     
   18   10   12 1     
   19   10   20 1     
   20   11   21 1     
   21   11   22 1     
   22   11   23 1     
   23   12   13 ar    
   24   12   14 ar    
   25    5   25 1     
   26    5   26 1     
   27    8   27 1     
   28    8   28 1     
   29   13   29 1     
   30   13   30 1     
   31   14   31 1     
   32   14   32 1     
@<TRIPOS>SUBSTRUCTURE
      1 S1             1
@<TRIPOS>SET
LONE_PAIRS      STATIC     ATOMS    <user>   **** ""
8 25 26 27 28 29 30 31 32
DONOR_HYDROGENS      STATIC     ATOMS    <user>   **** ""
1 24
ATOM$BLUE        STATIC     ATOMS    COLORGROUP SYSTEM
8 25 26 27 28 29 30 31 32
ATOM$RED        STATIC     ATOMS    COLORGROUP SYSTEM
1 24
