AV-unprocessed.smi:264|AV-procd|sdf|2012|dock2
  -GOLD-   2262021213D 1   1.00000     0.00000
 Structure written by MMmdl.
 52 56  0  0  0  0  0  0  0  0  1 V2000
  155.6476  138.7125  161.4469 C   0  0  0  0  0  0  0  0  0  0  0  0
  154.2795  139.3055  161.0726 C   0  0  1  0  0  0  0  0  0  0  0  0
  154.0791  140.5614  161.7210 O   0  0  0  0  0  0  0  0  0  0  0  0
  153.7864  141.5679  160.7616 C   0  0  0  0  0  0  0  0  0  0  0  0
  153.1859  140.8087  159.5861 C   0  0  0  0  0  0  0  0  0  0  0  0
  154.0088  139.5285  159.5666 C   0  0  1  0  0  0  0  0  0  0  0  0
  155.2177  139.7848  158.8681 O   0  0  0  0  0  0  0  0  0  0  0  0
  153.2977  138.3313  158.8922 C   0  0  0  0  0  0  0  0  0  0  0  0
  152.1289  138.7169  158.1161 N   0  0  0  0  0  0  0  0  0  0  0  0
  150.8274  138.7734  158.5612 C   0  0  0  0  0  0  0  0  0  0  0  0
  149.9496  139.1408  157.6683 N   0  0  0  0  0  0  0  0  0  0  0  0
  150.7040  139.3704  156.5235 C   0  0  0  0  0  0  0  0  0  0  0  0
  150.4024  139.7861  155.1951 C   0  0  0  0  0  0  0  0  0  0  0  0
  149.1677  140.0698  154.7301 N   0  0  0  0  0  0  0  0  0  0  0  0
  148.9241  141.4954  154.5781 C   0  0  0  0  0  0  0  0  0  0  0  0
  147.4352  141.7352  154.2896 C   0  0  0  0  0  0  0  0  0  0  0  0
  147.0239  140.9733  153.1542 O   0  0  0  0  0  0  0  0  0  0  0  0
  147.2389  139.5624  153.2733 C   0  0  2  0  0  0  0  0  0  0  0  0
  146.8200  138.9177  151.9550 C   0  0  0  0  0  0  0  0  0  0  0  0
  146.2011  137.5982  152.3904 C   0  0  0  0  0  0  0  0  0  0  0  0
  145.4842  137.9722  153.5517 O   0  0  0  0  0  0  0  0  0  0  0  0
  146.2847  138.8892  154.2883 C   0  0  0  0  0  0  0  0  0  0  0  0
  148.7329  139.2966  153.5741 C   0  0  0  0  0  0  0  0  0  0  0  0
  151.4252  139.8828  154.3111 N   0  0  0  0  0  0  0  0  0  0  0  0
  152.6735  139.6072  154.7003 C   0  0  0  0  0  0  0  0  0  0  0  0
  153.1071  139.2184  155.9013 N   0  0  0  0  0  0  0  0  0  0  0  0
  152.0776  139.1075  156.7893 C   0  0  0  0  0  0  0  0  0  0  0  0
  155.8123  137.7584  160.9458 H   0  0  0  0  0  0  0  0  0  0  0  0
  155.7099  138.5380  162.5212 H   0  0  0  0  0  0  0  0  0  0  0  0
  156.4646  139.3827  161.1779 H   0  0  0  0  0  0  0  0  0  0  0  0
  153.5061  138.6487  161.4730 H   0  0  0  0  0  0  0  0  0  0  0  0
  153.1113  142.3225  161.1653 H   0  0  0  0  0  0  0  0  0  0  0  0
  154.7138  142.0616  160.4679 H   0  0  0  0  0  0  0  0  0  0  0  0
  152.1422  140.5819  159.8069 H   0  0  0  0  0  0  0  0  0  0  0  0
  153.2166  141.3688  158.6504 H   0  0  0  0  0  0  0  0  0  0  0  0
  155.8235  140.2005  159.4622 H   0  0  0  0  0  0  0  0  0  0  0  0
  153.9896  137.8050  158.2331 H   0  0  0  0  0  0  0  0  0  0  0  0
  152.9821  137.6059  159.6431 H   0  0  0  0  0  0  0  0  0  0  0  0
  150.5472  138.5233  159.5743 H   0  0  0  0  0  0  0  0  0  0  0  0
  149.2202  142.0279  155.4830 H   0  0  0  0  0  0  0  0  0  0  0  0
  149.5320  141.8842  153.7598 H   0  0  0  0  0  0  0  0  0  0  0  0
  146.8325  141.4834  155.1624 H   0  0  0  0  0  0  0  0  0  0  0  0
  147.2601  142.7914  154.0854 H   0  0  0  0  0  0  0  0  0  0  0  0
  146.0535  139.5225  151.4679 H   0  0  0  0  0  0  0  0  0  0  0  0
  147.6391  138.7911  151.2462 H   0  0  0  0  0  0  0  0  0  0  0  0
  145.5459  137.1676  151.6328 H   0  0  0  0  0  0  0  0  0  0  0  0
  146.9689  136.8663  152.6457 H   0  0  0  0  0  0  0  0  0  0  0  0
  146.8387  138.3435  155.0531 H   0  0  0  0  0  0  0  0  0  0  0  0
  145.6313  139.5975  154.7966 H   0  0  0  0  0  0  0  0  0  0  0  0
  149.3277  139.5821  152.7066 H   0  0  0  0  0  0  0  0  0  0  0  0
  148.9087  138.2337  153.7467 H   0  0  0  0  0  0  0  0  0  0  0  0
  153.4337  139.7109  153.9400 H   0  0  0  0  0  0  0  0  0  0  0  0
  1  2  1  0  0  0  0
  1 28  1  0  0  0  0
  1 29  1  0  0  0  0
  1 30  1  0  0  0  0
  2  6  1  0  0  0  0
  2  3  1  0  0  0  0
  2 31  1  0  0  0  0
  3  4  1  0  0  0  0
  4  5  1  0  0  0  0
  4 32  1  0  0  0  0
  4 33  1  0  0  0  0
  5  6  1  0  0  0  0
  5 34  1  0  0  0  0
  5 35  1  0  0  0  0
  6  7  1  0  0  0  0
  6  8  1  0  0  0  0
  7 36  1  0  0  0  0
  8  9  1  0  0  0  0
  8 37  1  0  0  0  0
  8 38  1  0  0  0  0
  9 27  1  0  0  0  0
  9 10  1  0  0  0  0
 10 11  2  0  0  0  0
 10 39  1  0  0  0  0
 11 12  1  0  0  0  0
 12 27  2  0  0  0  0
 12 13  1  0  0  0  0
 13 14  1  0  0  0  0
 13 24  2  0  0  0  0
 14 23  1  0  0  0  0
 14 15  1  0  0  0  0
 15 16  1  0  0  0  0
 15 40  1  0  0  0  0
 15 41  1  0  0  0  0
 16 17  1  0  0  0  0
 16 42  1  0  0  0  0
 16 43  1  0  0  0  0
 17 18  1  0  0  0  0
 18 22  1  0  0  0  0
 18 19  1  0  0  0  0
 18 23  1  0  0  0  0
 19 20  1  0  0  0  0
 19 44  1  0  0  0  0
 19 45  1  0  0  0  0
 20 21  1  0  0  0  0
 20 46  1  0  0  0  0
 20 47  1  0  0  0  0
 21 22  1  0  0  0  0
 22 48  1  0  0  0  0
 22 49  1  0  0  0  0
 23 50  1  0  0  0  0
 23 51  1  0  0  0  0
 24 25  1  0  0  0  0
 25 26  2  0  0  0  0
 25 52  1  0  0  0  0
 26 27  1  0  0  0  0
M  END
> <s_m_source_file>
AV-unprocessed.smi

> <i_m_source_file_index>
264

> <i_lp_mmshare_version>
43012

> <i_f3d_flags>
0

> <s_epik_input>
W0NIMl0xW0NIMl1PW0NAQEhdKFtDSDNdKVtDQEBdMShbT0hdKVtDSDJdbihbY0hdbjIpYyhjMjMpbltjSF1uYzNOKFtDSDJdNClbQ0gyXVtDSDJdT1tDQF00NVtDSDJdW0NIMl1PW0NIMl01

> <s_epik_cmdline>
J2VwaWtfcHl0aG9uJywgJy1waCcsICc3LjAnLCAnLXRuJywgJzgnLCAnLW1hJywgJzIwMCcsICctbWV0YWxfYmluZGluZycsICctaW1hZScsICc8aW5maWxlLm1hZT4nLCAnLW9tYWUnLCAnPG91dGZpbGUubWFlPic=

> <r_lp_tautomer_probability>
1

> <r_epik_Ionization_Penalty>
0.00539389

> <r_epik_Ionization_Penalty_Charging>
0

> <r_epik_Ionization_Penalty_Neutral>
0.00539389

> <r_epik_State_Penalty>
0.00375441

> <r_epik_Charging_Adjusted_Penalty>
0.00375441

> <i_epik_Tot_Q>
0

> <i_epik_Tot_abs_Q>
0

> <r_epik_Metal_State_Penalty>
-0

> <b_epik_Metal_Only>
0

> <s_lp_Force_Field>
OPLS_2005

> <r_lp_Energy>
56.7772

> <b_lp_Chiralities_Consistent>
1

> <s_lp_Variant>
AV-unprocessed.smi:264-6

> <Gold.Version>
5.8.1

> <Gold.Id.Protein>
6NUR|6NUR_protein|mol2

> <Gold.PLP.Fitness>
44.3166

> <Gold.PLP.PLP>
-38.8466

> <Gold.PLP.part.hbond>
-3.0000

> <Gold.PLP.part.metal>
0.0000

> <Gold.PLP.part.buried>
-3.2979

> <Gold.PLP.part.nonpolar>
-33.5270

> <Gold.PLP.part.repulsive>
0.5413

> <Gold.PLP.ligand.clash>
0.0000

> <Gold.PLP.ligand.torsion>
1.5945

> <Gold.PLP.Chemscore.Hbond>
2.8280

> <Gold.PLP.Chemscore.CHOScore>
0.0000

> <Gold.PLP.Chemscore.Metal>
0.0000

> <Gold.Chemscore.Hbonds>
donor molecule, donor type, donor heavy atom, donor atom, acceptor molecule, acceptor atom, score
      P1  H  7989  7998       L1    24  0.39
      P1  H  7997  8009       L1     7  0.86
      P1  H  7997  8010       L1    26  1.00

> <Gold.PLP.Chemscore.Internal.Correction>
0.1749

> <Gold.Rescore>
     Score         DG    S(hbond)    S(metal)    S(lipo)     H(rot)  DE(clash)    DE(int)     intcor
     13.70     -15.93       1.55        0.00      91.24       2.11       0.42       1.82       ----

> <Gold.Chemscore.Fitness>
13.6952

> <Gold.Chemscore.DG>
-15.9317

> <Gold.Chemscore.ZeroCoef>
-5.4800

> <Gold.Chemscore.Hbond>
1.5475

> <Gold.Chemscore.Metal>
0.0000

> <Gold.Chemscore.Lipo>
91.2415

> <Gold.Chemscore.Internal_Hbond>
0.0000

> <Gold.Chemscore.DEClash>
0.4165

> <Gold.Chemscore.DEInternal>
1.8199

> <Gold.Chemscore.Rot>
2.1063

> <Gold.Chemscore.Internal.Correction>
   9.000000E+99

> <Gold.Chemscore.Hbonds>
donor molecule, donor type, donor heavy atom, donor atom, acceptor molecule, acceptor atom, score
      P1  H  7989  7998       L1    24  0.10
      P1  H  7997  8009       L1     7  0.66
      P1  H  7997  8010       L1    26  0.38

> <Gold.Chemscore.Hbond.Weighted>
-5.1686

> <Gold.Chemscore.Metal.Weighted>
-0.0000

> <Gold.Chemscore.Lipo.Weighted>
-10.6753

> <Gold.Chemscore.Internal_Hbond.Weighted>
0.0000

> <Gold.Chemscore.DEClash.Weighted>
0.4165

> <Gold.Chemscore.DEInternal.Weighted>
1.8199

> <Gold.Chemscore.Rot.Weighted>
5.3921

> <Gold.Chemscore.Internal.Correction.Weighted>
   9.000000E+99

> <Gold.Protein.RotatedTorsions>
[ 6907 6896 6895 6894 ] final  167.07 input  -60.11 | X-H torsion
[ 7974 7965 7964 7962 ] final -101.68 input  175.53 | X-H torsion
[ 8008 7997 7996 7995 ] final   89.16 input   59.86 | X-H torsion
[ 10167 10162 10161 10158 ] final -176.49 input  -65.29 | X-H torsion
[ 10718 10713 10712 10709 ] final    4.85 input   66.30 | X-H torsion
[ 10763 10752 10751 10750 ] final   55.36 input  -60.55 | X-H torsion
[ 11005 11000 10999 10996 ] final -119.75 input  -57.11 | X-H torsion

> <Gold.Protein.ActiveResidues>
 VAL166  LYS551  ARG553  GLY616  TRP617  ASP618  TYR619  PRO620  LYS621  CYS622 
 ASP623  PHE694  ASN695  SER759  ASP760  ASP761  ALA762  ILE779  LEU786  VAL792 
 PHE793  MET794  SER795  GLU796  ALA797  LYS798  CYS799  TRP800  GLU811  SER814 

> <Gold.Protein.RotatedAtoms>
  151.8690  133.3472  159.3728 H   0  0  0  0  0  0  0  0  0  0  0  0  # atno 6907 bound_to 6896
  150.7158  134.5132  159.5626 H   0  0  0  0  0  0  0  0  0  0  0  0  # atno 6908 bound_to 6896
  152.2660  134.7984  160.0473 H   0  0  0  0  0  0  0  0  0  0  0  0  # atno 6909 bound_to 6896
  145.2785  140.9319  143.2945 H   0  0  0  0  0  0  0  0  0  0  0  0  # atno 7974 bound_to 7965
  155.9966  140.3363  155.6805 H   0  0  0  0  0  0  0  0  0  0  0  0  # atno 8008 bound_to 7997
  155.6347  140.0689  157.2655 H   0  0  0  0  0  0  0  0  0  0  0  0  # atno 8009 bound_to 7997
  154.4236  140.1753  156.1497 H   0  0  0  0  0  0  0  0  0  0  0  0  # atno 8010 bound_to 7997
  139.5527  144.2067  152.1106 H   0  0  0  0  0  0  0  0  0  0  0  0  # atno 10167 bound_to 10162
  156.8987  130.5714  149.5648 H   0  0  0  0  0  0  0  0  0  0  0  0  # atno 10718 bound_to 10713
  152.9816  135.5713  154.5054 H   0  0  0  0  0  0  0  0  0  0  0  0  # atno 10763 bound_to 10752
  154.4567  135.2780  155.1744 H   0  0  0  0  0  0  0  0  0  0  0  0  # atno 10764 bound_to 10752
  154.3350  135.6241  153.5622 H   0  0  0  0  0  0  0  0  0  0  0  0  # atno 10765 bound_to 10752
  141.0193  134.0148  157.3305 H   0  0  0  0  0  0  0  0  0  0  0  0  # atno 11005 bound_to 11000
  144.9274  139.4339  143.6512 LP  0  0  0  0  0  0  0  0  0  0  0  0  # atno 17320 bound_to 7965
  146.3224  139.8166  142.8935 LP  0  0  0  0  0  0  0  0  0  0  0  0  # atno 17321 bound_to 7965
  140.1566  144.5065  150.6656 LP  0  0  0  0  0  0  0  0  0  0  0  0  # atno 17342 bound_to 10162
  140.6793  143.2319  151.5425 LP  0  0  0  0  0  0  0  0  0  0  0  0  # atno 17343 bound_to 10162
  156.0592  130.5648  150.9158 LP  0  0  0  0  0  0  0  0  0  0  0  0  # atno 17370 bound_to 10713
  157.6039  131.0940  150.8912 LP  0  0  0  0  0  0  0  0  0  0  0  0  # atno 17371 bound_to 10713
  139.9136  135.0194  156.7792 LP  0  0  0  0  0  0  0  0  0  0  0  0  # atno 17394 bound_to 11000
  140.6601  133.9653  155.7800 LP  0  0  0  0  0  0  0  0  0  0  0  0  # atno 17395 bound_to 11000

$$$$
