AV-unprocessed.smi:3031|AV-procd|sdf|11553|dock4
  -GOLD-   2272016513D 1   1.00000     0.00000
 Structure written by MMmdl.
 46 47  0  0  0  0  0  0  0  0  1 V2000
  144.1581  132.3996  149.5105 C   0  0  0  0  0  0  0  0  0  0  0  0
  144.8191  133.5189  150.2617 C   0  0  0  0  0  0  0  0  0  0  0  0
  146.0264  133.4705  151.0148 C   0  0  0  0  0  0  0  0  0  0  0  0
  146.3418  134.6351  151.5572 N   0  0  0  0  0  0  0  0  0  0  0  0
  145.3522  135.4667  151.1686 N   0  0  0  0  0  0  0  0  0  0  0  0
  145.3728  136.8585  151.5832 C   0  0  0  0  0  0  0  0  0  0  0  0
  145.3165  137.0200  153.1153 C   0  0  2  0  0  0  0  0  0  0  0  0
  143.9673  136.5206  153.6632 C   0  0  0  0  0  0  0  0  0  0  0  0
  145.5690  138.4179  153.4828 N   0  0  0  0  0  0  0  0  0  0  0  0
  146.9569  138.8619  153.3563 C   0  0  0  0  0  0  0  0  0  0  0  0
  147.1944  140.1815  154.1103 C   0  0  2  0  0  0  0  0  0  0  0  0
  146.2412  141.1336  153.6873 O   0  0  0  0  0  0  0  0  0  0  0  0
  148.6037  140.8171  154.0215 C   0  0  0  0  0  0  0  0  0  0  0  0
  149.6194  140.3252  154.9609 N   0  0  0  0  0  0  0  0  0  0  0  0
  150.4042  141.4035  155.5644 C   0  0  0  0  0  0  0  0  0  0  0  0
  151.4806  140.8674  156.5237 C   0  0  0  0  0  0  0  0  0  0  0  0
  152.3328  139.9642  155.8285 O   0  0  0  0  0  0  0  0  0  0  0  0
  151.6209  138.8750  155.2520 C   0  0  0  0  0  0  0  0  0  0  0  0
  150.5449  139.4137  154.2931 C   0  0  0  0  0  0  0  0  0  0  0  0
  144.4178  134.8186  150.3892 C   0  0  0  0  0  0  0  0  0  0  0  0
  144.7640  132.0709  148.6660 H   0  0  0  0  0  0  0  0  0  0  0  0
  143.1865  132.6943  149.1132 H   0  0  0  0  0  0  0  0  0  0  0  0
  143.9941  131.5302  150.1473 H   0  0  0  0  0  0  0  0  0  0  0  0
  146.6800  132.6269  151.1816 H   0  0  0  0  0  0  0  0  0  0  0  0
  146.2703  137.3310  151.1808 H   0  0  0  0  0  0  0  0  0  0  0  0
  144.5229  137.3604  151.1184 H   0  0  0  0  0  0  0  0  0  0  0  0
  146.1009  136.3944  153.5435 H   0  0  0  0  0  0  0  0  0  0  0  0
  143.7685  135.5007  153.3328 H   0  0  0  0  0  0  0  0  0  0  0  0
  143.1428  137.1452  153.3179 H   0  0  0  0  0  0  0  0  0  0  0  0
  143.9470  136.5072  154.7525 H   0  0  0  0  0  0  0  0  0  0  0  0
  144.9718  139.0226  152.9275 H   0  0  0  0  0  0  0  0  0  0  0  0
  147.6554  138.1018  153.7001 H   0  0  0  0  0  0  0  0  0  0  0  0
  147.1870  139.0193  152.3017 H   0  0  0  0  0  0  0  0  0  0  0  0
  146.9888  139.9963  155.1654 H   0  0  0  0  0  0  0  0  0  0  0  0
  145.5800  140.6854  153.1820 H   0  0  0  0  0  0  0  0  0  0  0  0
  148.9499  140.6333  153.0031 H   0  0  0  0  0  0  0  0  0  0  0  0
  148.5274  141.9028  154.0971 H   0  0  0  0  0  0  0  0  0  0  0  0
  150.8853  141.9933  154.7827 H   0  0  0  0  0  0  0  0  0  0  0  0
  149.7697  142.0894  156.1162 H   0  0  0  0  0  0  0  0  0  0  0  0
  152.0785  141.6885  156.9190 H   0  0  0  0  0  0  0  0  0  0  0  0
  151.0223  140.3644  157.3765 H   0  0  0  0  0  0  0  0  0  0  0  0
  152.3215  138.2350  154.7155 H   0  0  0  0  0  0  0  0  0  0  0  0
  151.1690  138.2687  156.0385 H   0  0  0  0  0  0  0  0  0  0  0  0
  149.9948  138.5723  153.8700 H   0  0  0  0  0  0  0  0  0  0  0  0
  151.0278  139.9224  153.4571 H   0  0  0  0  0  0  0  0  0  0  0  0
  143.5554  135.3321  149.9902 H   0  0  0  0  0  0  0  0  0  0  0  0
  1  2  1  0  0  0  0
  1 21  1  0  0  0  0
  1 22  1  0  0  0  0
  1 23  1  0  0  0  0
  2 20  2  0  0  0  0
  2  3  1  0  0  0  0
  3  4  2  0  0  0  0
  3 24  1  0  0  0  0
  4  5  1  0  0  0  0
  5  6  1  0  0  0  0
  5 20  1  0  0  0  0
  6  7  1  0  0  0  0
  6 25  1  0  0  0  0
  6 26  1  0  0  0  0
  7  8  1  0  0  0  0
  7  9  1  0  0  0  0
  7 27  1  0  0  0  0
  8 28  1  0  0  0  0
  8 29  1  0  0  0  0
  8 30  1  0  0  0  0
  9 10  1  0  0  0  0
  9 31  1  0  0  0  0
 10 11  1  0  0  0  0
 10 32  1  0  0  0  0
 10 33  1  0  0  0  0
 11 12  1  0  0  0  0
 11 13  1  0  0  0  0
 11 34  1  0  0  0  0
 12 35  1  0  0  0  0
 13 14  1  0  0  0  0
 13 36  1  0  0  0  0
 13 37  1  0  0  0  0
 14 19  1  0  0  0  0
 14 15  1  0  0  0  0
 15 16  1  0  0  0  0
 15 38  1  0  0  0  0
 15 39  1  0  0  0  0
 16 17  1  0  0  0  0
 16 40  1  0  0  0  0
 16 41  1  0  0  0  0
 17 18  1  0  0  0  0
 18 19  1  0  0  0  0
 18 42  1  0  0  0  0
 18 43  1  0  0  0  0
 19 44  1  0  0  0  0
 19 45  1  0  0  0  0
 20 46  1  0  0  0  0
M  END
> <s_m_source_file>
AV-unprocessed.smi

> <i_m_source_file_index>
3031

> <i_lp_mmshare_version>
43012

> <i_f3d_flags>
0

> <s_epik_input>
W0NIM11jMVtjSF1ubihbY0hdMSlbQ0gyXVtDQEhdKFtDSDNdKVtOSF1bQ0gyXVtDQEhdKFtPSF0pW0NIMl1OMltDSDJdW0NIMl1PW0NIMl1bQ0gyXTI=

> <s_epik_cmdline>
J2VwaWtfcHl0aG9uJywgJy1waCcsICc3LjAnLCAnLXRuJywgJzgnLCAnLW1hJywgJzIwMCcsICctbWV0YWxfYmluZGluZycsICctaW1hZScsICc8aW5maWxlLm1hZT4nLCAnLW9tYWUnLCAnPG91dGZpbGUubWFlPic=

> <r_lp_tautomer_probability>
1

> <r_epik_Ionization_Penalty>
2.8101

> <r_epik_Ionization_Penalty_Charging>
0

> <r_epik_Ionization_Penalty_Neutral>
2.8101

> <r_epik_State_Penalty>
2.12351

> <r_epik_Charging_Adjusted_Penalty>
2.12351

> <i_epik_Tot_Q>
0

> <i_epik_Tot_abs_Q>
0

> <r_epik_Metal_State_Penalty>
2.12345

> <b_epik_Metal_Only>
0

> <s_lp_Force_Field>
OPLS_2005

> <r_lp_Energy>
35.4854

> <b_lp_Chiralities_Consistent>
1

> <s_lp_Variant>
AV-unprocessed.smi:3031-13

> <Gold.Version>
5.8.1

> <Gold.Id.Protein>
6NUR|6NUR_protein|mol2

> <Gold.PLP.Fitness>
44.1807

> <Gold.PLP.PLP>
-35.3294

> <Gold.PLP.part.hbond>
-2.9136

> <Gold.PLP.part.metal>
0.0000

> <Gold.PLP.part.buried>
-2.4673

> <Gold.PLP.part.nonpolar>
-30.0781

> <Gold.PLP.part.repulsive>
0.2375

> <Gold.PLP.ligand.clash>
0.0000

> <Gold.PLP.ligand.torsion>
1.1485

> <Gold.PLP.Chemscore.Hbond>
2.9263

> <Gold.PLP.Chemscore.CHOScore>
0.7480

> <Gold.PLP.Chemscore.Metal>
0.0000

> <Gold.Chemscore.Hbonds>
donor molecule, donor type, donor heavy atom, donor atom, acceptor molecule, acceptor atom, score
      L1  H     9    31       P1 10175  1.00
      L1  H    12    35       P1 10175  1.00
      P1  H  7997  8009       L1    17  0.94
      L1  C    20    46       P1 10186  0.52

> <Gold.PLP.Chemscore.Internal.Correction>
0.1257

> <Gold.Rescore>
     Score         DG    S(hbond)    S(metal)    S(lipo)     H(rot)  DE(clash)    DE(int)     intcor
     16.13     -18.32       2.60        0.00      90.94       2.53       0.97       1.22       ----

> <Gold.Chemscore.Fitness>
16.1257

> <Gold.Chemscore.DG>
-18.3164

> <Gold.Chemscore.ZeroCoef>
-5.4800

> <Gold.Chemscore.Hbond>
2.5993

> <Gold.Chemscore.Metal>
0.0000

> <Gold.Chemscore.Lipo>
90.9383

> <Gold.Chemscore.Internal_Hbond>
0.0000

> <Gold.Chemscore.DEClash>
0.9749

> <Gold.Chemscore.DEInternal>
1.2157

> <Gold.Chemscore.Rot>
2.5333

> <Gold.Chemscore.Internal.Correction>
   9.000000E+99

> <Gold.Chemscore.Hbonds>
donor molecule, donor type, donor heavy atom, donor atom, acceptor molecule, acceptor atom, score
      L1  H     9    31       P1 10175  0.97
      L1  H    12    35       P1 10175  0.71
      P1  H  7997  8009       L1    17  0.83

> <Gold.Chemscore.Hbond.Weighted>
-8.6817

> <Gold.Chemscore.Metal.Weighted>
-0.0000

> <Gold.Chemscore.Lipo.Weighted>
-10.6398

> <Gold.Chemscore.Internal_Hbond.Weighted>
0.0000

> <Gold.Chemscore.DEClash.Weighted>
0.9749

> <Gold.Chemscore.DEInternal.Weighted>
1.2157

> <Gold.Chemscore.Rot.Weighted>
6.4852

> <Gold.Chemscore.Internal.Correction.Weighted>
   9.000000E+99

> <Gold.Protein.RotatedTorsions>
[ 6907 6896 6895 6894 ] final  -75.42 input  -60.11 | X-H torsion
[ 7974 7965 7964 7962 ] final -152.34 input  175.53 | X-H torsion
[ 8008 7997 7996 7995 ] final -154.90 input   59.86 | X-H torsion
[ 10167 10162 10161 10158 ] final  -37.65 input  -65.29 | X-H torsion
[ 10718 10713 10712 10709 ] final -149.06 input   66.30 | X-H torsion
[ 10763 10752 10751 10750 ] final   68.18 input  -60.55 | X-H torsion
[ 11005 11000 10999 10996 ] final -110.25 input  -57.11 | X-H torsion

> <Gold.Protein.ActiveResidues>
 VAL166  LYS551  ARG553  GLY616  TRP617  ASP618  TYR619  PRO620  LYS621  CYS622 
 ASP623  PHE694  ASN695  SER759  ASP760  ASP761  ALA762  ILE779  LEU786  VAL792 
 PHE793  MET794  SER795  GLU796  ALA797  LYS798  CYS799  TRP800  GLU811  SER814 

> <Gold.Protein.RotatedAtoms>
  150.7059  134.4723  159.5430 H   0  0  0  0  0  0  0  0  0  0  0  0  # atno 6907 bound_to 6896
  152.2377  134.8257  160.0474 H   0  0  0  0  0  0  0  0  0  0  0  0  # atno 6908 bound_to 6896
  151.9050  133.3512  159.3880 H   0  0  0  0  0  0  0  0  0  0  0  0  # atno 6909 bound_to 6896
  144.7799  140.4675  143.5846 H   0  0  0  0  0  0  0  0  0  0  0  0  # atno 7974 bound_to 7965
  155.6935  140.0758  157.2439 H   0  0  0  0  0  0  0  0  0  0  0  0  # atno 8008 bound_to 7997
  154.4085  140.1660  156.2165 H   0  0  0  0  0  0  0  0  0  0  0  0  # atno 8009 bound_to 7997
  155.9431  140.3383  155.6347 H   0  0  0  0  0  0  0  0  0  0  0  0  # atno 8010 bound_to 7997
  140.7113  143.3328  151.2530 H   0  0  0  0  0  0  0  0  0  0  0  0  # atno 10167 bound_to 10162
  156.4283  130.8063  151.2289 H   0  0  0  0  0  0  0  0  0  0  0  0  # atno 10718 bound_to 10713
  153.0222  135.5257  154.7094 H   0  0  0  0  0  0  0  0  0  0  0  0  # atno 10763 bound_to 10752
  154.6181  135.2886  155.0359 H   0  0  0  0  0  0  0  0  0  0  0  0  # atno 10764 bound_to 10752
  154.1356  135.6586  153.4984 H   0  0  0  0  0  0  0  0  0  0  0  0  # atno 10765 bound_to 10752
  141.0802  133.9232  157.2304 H   0  0  0  0  0  0  0  0  0  0  0  0  # atno 11005 bound_to 11000
  145.6078  139.1510  143.3092 LP  0  0  0  0  0  0  0  0  0  0  0  0  # atno 17320 bound_to 7965
  146.2002  140.6196  142.9106 LP  0  0  0  0  0  0  0  0  0  0  0  0  # atno 17321 bound_to 7965
  139.6815  143.9847  152.2811 LP  0  0  0  0  0  0  0  0  0  0  0  0  # atno 17342 bound_to 10162
  139.9478  144.6640  150.8202 LP  0  0  0  0  0  0  0  0  0  0  0  0  # atno 17343 bound_to 10162
  157.7508  131.0206  150.3716 LP  0  0  0  0  0  0  0  0  0  0  0  0  # atno 17370 bound_to 10713
  156.4048  130.3923  149.6933 LP  0  0  0  0  0  0  0  0  0  0  0  0  # atno 17371 bound_to 10713
  139.9616  135.0153  156.9276 LP  0  0  0  0  0  0  0  0  0  0  0  0  # atno 17394 bound_to 11000
  140.5484  134.0651  155.7362 LP  0  0  0  0  0  0  0  0  0  0  0  0  # atno 17395 bound_to 11000

$$$$
