AV-unprocessed.smi:1824|AV-procd|sdf|7397|dock9
  -GOLD-   22720 9 63D 1   1.00000     0.00000
 Structure written by MMmdl.
 44 46  0  0  0  0  0  0  0  0  1 V2000
  147.2518  137.6957  154.5179 C   0  0  0  0  0  0  0  0  0  0  0  0
  147.2991  139.1899  154.8545 C   0  0  1  0  0  0  0  0  0  0  0  0
  148.7141  139.6504  155.2483 C   0  0  0  0  0  0  0  0  0  0  0  0
  148.7738  141.0870  155.4863 N   0  0  0  0  0  0  0  0  0  0  0  0
  150.1147  141.4962  155.9042 C   0  0  0  0  0  0  0  0  0  0  0  0
  150.1859  142.2193  157.2663 C   0  0  2  0  0  0  0  0  0  0  0  0
  148.9649  142.8975  157.4967 O   0  0  0  0  0  0  0  0  0  0  0  0
  151.3347  143.2460  157.3147 C   0  0  0  0  0  0  0  0  0  0  0  0
  151.4893  143.8465  158.6281 N   0  0  0  0  0  0  0  0  0  0  0  0
  151.0262  145.0438  159.0365 C   0  0  0  0  0  0  0  0  0  0  0  0
  151.2842  145.4010  160.2914 N   0  0  0  0  0  0  0  0  0  0  0  0
  151.9985  144.3083  160.7519 C   0  0  0  0  0  0  0  0  0  0  0  0
  152.5693  144.0534  162.0193 C   0  0  0  0  0  0  0  0  0  0  0  0
  153.2645  142.8500  162.2614 C   0  0  0  0  0  0  0  0  0  0  0  0
  153.8060  142.6219  163.4816 F   0  0  0  0  0  0  0  0  0  0  0  0
  153.3985  141.8846  161.2412 C   0  0  0  0  0  0  0  0  0  0  0  0
  154.0674  140.7319  161.4820 F   0  0  0  0  0  0  0  0  0  0  0  0
  152.8376  142.1161  159.9706 C   0  0  0  0  0  0  0  0  0  0  0  0
  152.1455  143.3182  159.7341 C   0  0  0  0  0  0  0  0  0  0  0  0
  148.3218  141.7863  154.2857 C   0  0  0  0  0  0  0  0  0  0  0  0
  146.9195  141.3383  153.8273 C   0  0  2  0  0  0  0  0  0  0  0  0
  145.7881  141.8763  154.7197 C   0  0  0  0  0  0  0  0  0  0  0  0
  146.8678  139.9159  153.7048 O   0  0  0  0  0  0  0  0  0  0  0  0
  147.5621  137.0910  155.3702 H   0  0  0  0  0  0  0  0  0  0  0  0
  147.9102  137.4586  153.6817 H   0  0  0  0  0  0  0  0  0  0  0  0
  146.2418  137.3902  154.2437 H   0  0  0  0  0  0  0  0  0  0  0  0
  146.6119  139.3768  155.6801 H   0  0  0  0  0  0  0  0  0  0  0  0
  149.0274  139.1142  156.1449 H   0  0  0  0  0  0  0  0  0  0  0  0
  149.4190  139.3780  154.4610 H   0  0  0  0  0  0  0  0  0  0  0  0
  150.7200  140.5922  155.9846 H   0  0  0  0  0  0  0  0  0  0  0  0
  150.5936  142.0938  155.1268 H   0  0  0  0  0  0  0  0  0  0  0  0
  150.3358  141.4898  158.0636 H   0  0  0  0  0  0  0  0  0  0  0  0
  148.8254  143.5131  156.7937 H   0  0  0  0  0  0  0  0  0  0  0  0
  152.2789  142.7678  157.0511 H   0  0  0  0  0  0  0  0  0  0  0  0
  151.1714  144.0386  156.5827 H   0  0  0  0  0  0  0  0  0  0  0  0
  150.4654  145.6891  158.3757 H   0  0  0  0  0  0  0  0  0  0  0  0
  152.4724  144.7849  162.8076 H   0  0  0  0  0  0  0  0  0  0  0  0
  152.9368  141.3784  159.1883 H   0  0  0  0  0  0  0  0  0  0  0  0
  148.3102  142.8629  154.4532 H   0  0  0  0  0  0  0  0  0  0  0  0
  149.0311  141.6086  153.4759 H   0  0  0  0  0  0  0  0  0  0  0  0
  146.7513  141.7374  152.8267 H   0  0  0  0  0  0  0  0  0  0  0  0
  145.7748  142.9664  154.7128 H   0  0  0  0  0  0  0  0  0  0  0  0
  145.8977  141.5597  155.7566 H   0  0  0  0  0  0  0  0  0  0  0  0
  144.8163  141.5321  154.3656 H   0  0  0  0  0  0  0  0  0  0  0  0
  1  2  1  0  0  0  0
  1 24  1  0  0  0  0
  1 25  1  0  0  0  0
  1 26  1  0  0  0  0
  2 23  1  0  0  0  0
  2  3  1  0  0  0  0
  2 27  1  0  0  0  0
  3  4  1  0  0  0  0
  3 28  1  0  0  0  0
  3 29  1  0  0  0  0
  4  5  1  0  0  0  0
  4 20  1  0  0  0  0
  5  6  1  0  0  0  0
  5 30  1  0  0  0  0
  5 31  1  0  0  0  0
  6  7  1  0  0  0  0
  6  8  1  0  0  0  0
  6 32  1  0  0  0  0
  7 33  1  0  0  0  0
  8  9  1  0  0  0  0
  8 34  1  0  0  0  0
  8 35  1  0  0  0  0
  9 19  1  0  0  0  0
  9 10  1  0  0  0  0
 10 11  2  0  0  0  0
 10 36  1  0  0  0  0
 11 12  1  0  0  0  0
 12 19  2  0  0  0  0
 12 13  1  0  0  0  0
 13 14  2  0  0  0  0
 13 37  1  0  0  0  0
 14 15  1  0  0  0  0
 14 16  1  0  0  0  0
 16 17  1  0  0  0  0
 16 18  2  0  0  0  0
 18 19  1  0  0  0  0
 18 38  1  0  0  0  0
 20 21  1  0  0  0  0
 20 39  1  0  0  0  0
 20 40  1  0  0  0  0
 21 22  1  0  0  0  0
 21 23  1  0  0  0  0
 21 41  1  0  0  0  0
 22 42  1  0  0  0  0
 22 43  1  0  0  0  0
 22 44  1  0  0  0  0
M  END
> <s_m_source_file>
AV-unprocessed.smi

> <i_m_source_file_index>
1824

> <i_lp_mmshare_version>
43012

> <i_f3d_flags>
0

> <s_epik_input>
W0NIM11bQ0BASF0xW0NIMl1OKFtDSDJdW0NASF0oTzEpW0NIM10pW0NIMl1bQ0BIXShbT0hdKVtDSDJdbihbY0hdbjIpYyhjMjMpW2NIXWMoRiljKEYpW2NIXTM=

> <s_epik_cmdline>
J2VwaWtfcHl0aG9uJywgJy1waCcsICc3LjAnLCAnLXRuJywgJzgnLCAnLW1hJywgJzIwMCcsICctbWV0YWxfYmluZGluZycsICctaW1hZScsICc8aW5maWxlLm1hZT4nLCAnLW9tYWUnLCAnPG91dGZpbGUubWFlPic=

> <r_epik_Ionization_Penalty>
0.273778

> <r_epik_Ionization_Penalty_Charging>
0

> <r_epik_Ionization_Penalty_Neutral>
0.273778

> <r_epik_State_Penalty>
0.246794

> <r_epik_Charging_Adjusted_Penalty>
0.246794

> <i_epik_Tot_Q>
0

> <i_epik_Tot_abs_Q>
0

> <r_epik_Metal_State_Penalty>
0.238234

> <b_epik_Metal_Only>
0

> <s_lp_Force_Field>
OPLS_2005

> <r_lp_Energy>
30.6075

> <b_lp_Chiralities_Consistent>
1

> <s_lp_Variant>
AV-unprocessed.smi:1824-5

> <Gold.Version>
5.8.1

> <Gold.Id.Protein>
6NUR|6NUR_protein|mol2

> <Gold.PLP.Fitness>
54.6135

> <Gold.PLP.PLP>
-52.5445

> <Gold.PLP.part.hbond>
-1.1268

> <Gold.PLP.part.metal>
0.0000

> <Gold.PLP.part.buried>
-5.5302

> <Gold.PLP.part.nonpolar>
-46.7838

> <Gold.PLP.part.repulsive>
0.4857

> <Gold.PLP.ligand.clash>
0.0000

> <Gold.PLP.ligand.torsion>
1.4509

> <Gold.PLP.Chemscore.Hbond>
1.0000

> <Gold.PLP.Chemscore.CHOScore>
0.6469

> <Gold.PLP.Chemscore.Metal>
0.0000

> <Gold.Chemscore.Hbonds>
donor molecule, donor type, donor heavy atom, donor atom, acceptor molecule, acceptor atom, score
      L1  H     7    33       P1  8028  1.00
      L1  C    10    36       P1  8029  0.37

> <Gold.PLP.Chemscore.Internal.Correction>
0.0303

> <Gold.Rescore>
     Score         DG    S(hbond)    S(metal)    S(lipo)     H(rot)  DE(clash)    DE(int)     intcor
     15.27     -16.78       0.86        0.00     121.43       2.26       0.18       1.32       ----

> <Gold.Chemscore.Fitness>
15.2725

> <Gold.Chemscore.DG>
-16.7790

> <Gold.Chemscore.ZeroCoef>
-5.4800

> <Gold.Chemscore.Hbond>
0.8629

> <Gold.Chemscore.Metal>
0.0000

> <Gold.Chemscore.Lipo>
121.4299

> <Gold.Chemscore.Internal_Hbond>
0.0000

> <Gold.Chemscore.DEClash>
0.1847

> <Gold.Chemscore.DEInternal>
1.3218

> <Gold.Chemscore.Rot>
2.2619

> <Gold.Chemscore.Internal.Correction>
   9.000000E+99

> <Gold.Chemscore.Hbonds>
donor molecule, donor type, donor heavy atom, donor atom, acceptor molecule, acceptor atom, score
      L1  H     7    33       P1  8028  0.60

> <Gold.Chemscore.Hbond.Weighted>
-2.8822

> <Gold.Chemscore.Metal.Weighted>
-0.0000

> <Gold.Chemscore.Lipo.Weighted>
-14.2073

> <Gold.Chemscore.Internal_Hbond.Weighted>
0.0000

> <Gold.Chemscore.DEClash.Weighted>
0.1847

> <Gold.Chemscore.DEInternal.Weighted>
1.3218

> <Gold.Chemscore.Rot.Weighted>
5.7904

> <Gold.Chemscore.Internal.Correction.Weighted>
   9.000000E+99

> <Gold.Protein.RotatedTorsions>
[ 6907 6896 6895 6894 ] final -153.28 input  -60.11 | X-H torsion
[ 7974 7965 7964 7962 ] final  -20.75 input  175.53 | X-H torsion
[ 8008 7997 7996 7995 ] final  137.52 input   59.86 | X-H torsion
[ 10167 10162 10161 10158 ] final   69.21 input  -65.29 | X-H torsion
[ 10718 10713 10712 10709 ] final  -45.82 input   66.30 | X-H torsion
[ 10763 10752 10751 10750 ] final   61.20 input  -60.55 | X-H torsion
[ 11005 11000 10999 10996 ] final   70.03 input  -57.11 | X-H torsion

> <Gold.Protein.ActiveResidues>
 VAL166  LYS551  ARG553  GLY616  TRP617  ASP618  TYR619  PRO620  LYS621  CYS622 
 ASP623  PHE694  ASN695  SER759  ASP760  ASP761  ALA762  ILE779  LEU786  VAL792 
 PHE793  MET794  SER795  GLU796  ALA797  LYS798  CYS799  TRP800  GLU811  SER814 

> <Gold.Protein.RotatedAtoms>
  151.2403  133.4403  159.2606 H   0  0  0  0  0  0  0  0  0  0  0  0  # atno 6907 bound_to 6896
  151.0712  134.9799  159.8320 H   0  0  0  0  0  0  0  0  0  0  0  0  # atno 6908 bound_to 6896
  152.5412  134.2348  159.8891 H   0  0  0  0  0  0  0  0  0  0  0  0  # atno 6909 bound_to 6896
  146.1771  140.4245  142.8509 H   0  0  0  0  0  0  0  0  0  0  0  0  # atno 7974 bound_to 7965
  156.3002  140.2417  156.3923 H   0  0  0  0  0  0  0  0  0  0  0  0  # atno 8008 bound_to 7997
  154.8602  140.0420  157.1680 H   0  0  0  0  0  0  0  0  0  0  0  0  # atno 8009 bound_to 7997
  154.8904  140.2962  155.5378 H   0  0  0  0  0  0  0  0  0  0  0  0  # atno 8010 bound_to 7997
  140.0703  144.5158  150.7232 H   0  0  0  0  0  0  0  0  0  0  0  0  # atno 10167 bound_to 10162
  156.2245  130.4168  149.8951 H   0  0  0  0  0  0  0  0  0  0  0  0  # atno 10718 bound_to 10713
  152.9943  135.5509  154.5996 H   0  0  0  0  0  0  0  0  0  0  0  0  # atno 10763 bound_to 10752
  154.5340  135.2815  155.1157 H   0  0  0  0  0  0  0  0  0  0  0  0  # atno 10764 bound_to 10752
  154.2460  135.6407  153.5276 H   0  0  0  0  0  0  0  0  0  0  0  0  # atno 10765 bound_to 10752
  139.9620  134.7044  156.0625 H   0  0  0  0  0  0  0  0  0  0  0  0  # atno 11005 bound_to 11000
  144.8254  140.6620  143.6325 LP  0  0  0  0  0  0  0  0  0  0  0  0  # atno 17320 bound_to 7965
  145.4180  139.1568  143.4089 LP  0  0  0  0  0  0  0  0  0  0  0  0  # atno 17321 bound_to 7965
  140.7129  143.2519  151.4526 LP  0  0  0  0  0  0  0  0  0  0  0  0  # atno 17342 bound_to 10162
  139.5840  144.1646  152.2005 LP  0  0  0  0  0  0  0  0  0  0  0  0  # atno 17343 bound_to 10162
  156.6586  130.8773  151.3543 LP  0  0  0  0  0  0  0  0  0  0  0  0  # atno 17370 bound_to 10713
  157.7104  130.9433  150.1069 LP  0  0  0  0  0  0  0  0  0  0  0  0  # atno 17371 bound_to 10713
  141.1298  133.6589  156.3434 LP  0  0  0  0  0  0  0  0  0  0  0  0  # atno 17394 bound_to 11000
  140.5478  134.6057  157.5399 LP  0  0  0  0  0  0  0  0  0  0  0  0  # atno 17395 bound_to 11000

$$$$
