AV-unprocessed.smi:2403|AV-procd|sdf|9510|dock2
  -GOLD-   2272013133D 1   1.00000     0.00000
 Structure written by MMmdl.
 48 50  0  0  0  0  0  0  0  0  2 V2000
  147.5315  133.1046  152.0547 C   0  0  0  0  0  0  0  0  0  0  0  0
  146.1055  133.4975  151.7090 C   0  0  0  0  0  0  0  0  0  0  0  0
  145.2112  132.5185  151.2213 C   0  0  0  0  0  0  0  0  0  0  0  0
  143.8898  132.8861  150.9010 C   0  0  0  0  0  0  0  0  0  0  0  0
  143.4938  134.1663  151.0578 N   0  3  0  0  0  0  0  0  0  0  0  0
  144.3117  135.1354  151.5209 C   0  0  0  0  0  0  0  0  0  0  0  0
  145.6500  134.8305  151.8750 C   0  0  0  0  0  0  0  0  0  0  0  0
  146.5603  135.8162  152.3494 N   0  0  0  0  0  0  0  0  0  0  0  0
  146.3136  136.8316  153.1942 C   0  0  0  0  0  0  0  0  0  0  0  0
  145.2217  137.0729  153.7083 O   0  0  0  0  0  0  0  0  0  0  0  0
  147.4293  137.5404  153.4420 N   0  0  0  0  0  0  0  0  0  0  0  0
  147.5829  138.6997  154.3412 C   0  0  0  0  0  0  0  0  0  0  0  0
  147.2275  138.3722  155.8205 C   0  0  0  0  0  0  0  0  0  0  0  0
  146.3767  139.0388  156.4115 O   0  0  0  0  0  0  0  0  0  0  0  0
  147.8848  137.3664  156.4212 N   0  0  0  0  0  0  0  0  0  0  0  0
  147.6706  136.9241  157.7901 C   0  0  0  0  0  0  0  0  0  0  0  0
  148.7466  137.3832  158.7514 C   0  0  0  0  0  0  0  0  0  0  0  0
  150.1972  137.0420  158.5040 C   0  0  0  0  0  0  0  0  0  0  0  0
  149.4559  136.3993  159.6519 C   0  0  0  0  0  0  0  0  0  0  0  0
  149.0571  139.1673  154.2796 C   0  0  0  0  0  0  0  0  0  0  0  0
  149.0297  140.6909  154.3797 C   0  0  0  0  0  0  0  0  0  0  0  0
  147.7788  141.0846  153.6060 C   0  0  0  0  0  0  0  0  0  0  0  0
  146.7853  139.9341  153.8130 C   0  0  0  0  0  0  0  0  0  0  0  0
  147.6960  132.0362  151.9112 H   0  0  0  0  0  0  0  0  0  0  0  0
  147.7502  133.3406  153.0967 H   0  0  0  0  0  0  0  0  0  0  0  0
  148.2383  133.6427  151.4225 H   0  0  0  0  0  0  0  0  0  0  0  0
  145.5313  131.4949  151.0911 H   0  0  0  0  0  0  0  0  0  0  0  0
  143.1451  132.2013  150.5221 H   0  0  0  0  0  0  0  0  0  0  0  0
  143.8644  136.1165  151.5768 H   0  0  0  0  0  0  0  0  0  0  0  0
  147.5246  135.6842  152.0810 H   0  0  0  0  0  0  0  0  0  0  0  0
  148.2714  137.2479  152.9685 H   0  0  0  0  0  0  0  0  0  0  0  0
  148.5746  136.8644  155.8820 H   0  0  0  0  0  0  0  0  0  0  0  0
  146.6986  137.2804  158.1347 H   0  0  0  0  0  0  0  0  0  0  0  0
  147.6362  135.8339  157.8140 H   0  0  0  0  0  0  0  0  0  0  0  0
  148.5653  138.3719  159.1692 H   0  0  0  0  0  0  0  0  0  0  0  0
  150.4332  136.4152  157.6463 H   0  0  0  0  0  0  0  0  0  0  0  0
  150.9398  137.7996  158.7467 H   0  0  0  0  0  0  0  0  0  0  0  0
  149.7024  136.7294  160.6590 H   0  0  0  0  0  0  0  0  0  0  0  0
  149.1989  135.3461  159.5563 H   0  0  0  0  0  0  0  0  0  0  0  0
  149.6857  138.7264  155.0552 H   0  0  0  0  0  0  0  0  0  0  0  0
  149.5049  138.8901  153.3234 H   0  0  0  0  0  0  0  0  0  0  0  0
  148.9327  140.9946  155.4227 H   0  0  0  0  0  0  0  0  0  0  0  0
  149.9324  141.1546  153.9808 H   0  0  0  0  0  0  0  0  0  0  0  0
  147.3774  142.0461  153.9277 H   0  0  0  0  0  0  0  0  0  0  0  0
  148.0216  141.1684  152.5458 H   0  0  0  0  0  0  0  0  0  0  0  0
  146.2737  139.7358  152.8706 H   0  0  0  0  0  0  0  0  0  0  0  0
  146.0044  140.2425  154.5096 H   0  0  0  0  0  0  0  0  0  0  0  0
  142.5351  134.4149  150.8126 H   0  0  0  0  0  0  0  0  0  0  0  0
  1  2  1  0  0  0  0
  1 24  1  0  0  0  0
  1 25  1  0  0  0  0
  1 26  1  0  0  0  0
  2  7  1  0  0  0  0
  2  3  2  0  0  0  0
  3  4  1  0  0  0  0
  3 27  1  0  0  0  0
  4  5  2  0  0  0  0
  4 28  1  0  0  0  0
  5  6  1  0  0  0  0
  5 48  1  0  0  0  0
  6  7  2  0  0  0  0
  6 29  1  0  0  0  0
  7  8  1  0  0  0  0
  8  9  1  0  0  0  0
  8 30  1  0  0  0  0
  9 10  2  0  0  0  0
  9 11  1  0  0  0  0
 11 12  1  0  0  0  0
 11 31  1  0  0  0  0
 12 23  1  0  0  0  0
 12 13  1  0  0  0  0
 12 20  1  0  0  0  0
 13 14  2  0  0  0  0
 13 15  1  0  0  0  0
 15 16  1  0  0  0  0
 15 32  1  0  0  0  0
 16 17  1  0  0  0  0
 16 33  1  0  0  0  0
 16 34  1  0  0  0  0
 17 19  1  0  0  0  0
 17 18  1  0  0  0  0
 17 35  1  0  0  0  0
 18 19  1  0  0  0  0
 18 36  1  0  0  0  0
 18 37  1  0  0  0  0
 19 38  1  0  0  0  0
 19 39  1  0  0  0  0
 20 21  1  0  0  0  0
 20 40  1  0  0  0  0
 20 41  1  0  0  0  0
 21 22  1  0  0  0  0
 21 42  1  0  0  0  0
 21 43  1  0  0  0  0
 22 23  1  0  0  0  0
 22 44  1  0  0  0  0
 22 45  1  0  0  0  0
 23 46  1  0  0  0  0
 23 47  1  0  0  0  0
M  CHG  1   5   1
M  END
> <s_m_source_file>
AV-unprocessed.smi

> <i_m_source_file_index>
2403

> <i_lp_mmshare_version>
43012

> <i_f3d_flags>
0

> <s_epik_input>
W0NIM11jMVtjSF1bY0hdbltjSF1jMVtOSF1DKD1PKVtOSF1DMihbQ0gyXVtDSDJdW0NIMl1bQ0gyXTIpQyg9TylbTkhdW0NIMl1bQ0hdM1tDSDJdW0NIMl0z

> <s_epik_cmdline>
J2VwaWtfcHl0aG9uJywgJy1waCcsICc3LjAnLCAnLXRuJywgJzgnLCAnLW1hJywgJzIwMCcsICctbWV0YWxfYmluZGluZycsICctaW1hZScsICc8aW5maWxlLm1hZT4nLCAnLW9tYWUnLCAnPG91dGZpbGUubWFlPic=

> <r_epik_Ionization_Penalty>
2.03963

> <r_epik_Ionization_Penalty_Charging>
2.03961

> <r_epik_Ionization_Penalty_Neutral>
1.99712e-05

> <r_epik_State_Penalty>
2.17125

> <r_epik_Charging_Adjusted_Penalty>
4.21085

> <i_epik_Tot_Q>
1

> <i_epik_Tot_abs_Q>
1

> <r_epik_Metal_State_Penalty>
2.19001

> <b_epik_Metal_Only>
0

> <s_lp_Force_Field>
OPLS_2005

> <r_lp_Energy>
38.2062

> <b_lp_Chiralities_Consistent>
1

> <s_lp_Variant>
AV-unprocessed.smi:2403-2

> <Gold.Version>
5.8.1

> <Gold.Id.Protein>
6NUR|6NUR_protein|mol2

> <Gold.PLP.Fitness>
43.4237

> <Gold.PLP.PLP>
-32.5876

> <Gold.PLP.part.hbond>
-2.8532

> <Gold.PLP.part.metal>
0.0000

> <Gold.PLP.part.buried>
-4.2229

> <Gold.PLP.part.nonpolar>
-26.4459

> <Gold.PLP.part.repulsive>
0.1998

> <Gold.PLP.ligand.clash>
0.0000

> <Gold.PLP.ligand.torsion>
0.8262

> <Gold.PLP.Chemscore.Hbond>
3.9440

> <Gold.PLP.Chemscore.CHOScore>
0.0000

> <Gold.PLP.Chemscore.Metal>
0.0000

> <Gold.Chemscore.Hbonds>
donor molecule, donor type, donor heavy atom, donor atom, acceptor molecule, acceptor atom, score
      L1  H     5    48       P1 10186  1.90
      L1  H     8    30       P1  7948  0.98
      L1  H    11    31       P1  7948  0.96

> <Gold.PLP.Chemscore.Internal.Correction>
0.6565

> <Gold.Rescore>
     Score         DG    S(hbond)    S(metal)    S(lipo)     H(rot)  DE(clash)    DE(int)     intcor
     17.47     -19.34       2.71        0.00      76.83       1.63       0.25       1.62       ----

> <Gold.Chemscore.Fitness>
17.4701

> <Gold.Chemscore.DG>
-19.3426

> <Gold.Chemscore.ZeroCoef>
-5.4800

> <Gold.Chemscore.Hbond>
2.7075

> <Gold.Chemscore.Metal>
0.0000

> <Gold.Chemscore.Lipo>
76.8260

> <Gold.Chemscore.Internal_Hbond>
0.0000

> <Gold.Chemscore.DEClash>
0.2492

> <Gold.Chemscore.DEInternal>
1.6233

> <Gold.Chemscore.Rot>
1.6286

> <Gold.Chemscore.Internal.Correction>
   9.000000E+99

> <Gold.Chemscore.Hbonds>
donor molecule, donor type, donor heavy atom, donor atom, acceptor molecule, acceptor atom, score
      L1  H     5    48       P1 10186  0.21
      L1  H     8    30       P1  7948  0.88
      L1  H    11    31       P1  7948  0.92

> <Gold.Chemscore.Hbond.Weighted>
-9.0432

> <Gold.Chemscore.Metal.Weighted>
-0.0000

> <Gold.Chemscore.Lipo.Weighted>
-8.9886

> <Gold.Chemscore.Internal_Hbond.Weighted>
0.0000

> <Gold.Chemscore.DEClash.Weighted>
0.2492

> <Gold.Chemscore.DEInternal.Weighted>
1.6233

> <Gold.Chemscore.Rot.Weighted>
4.1692

> <Gold.Chemscore.Internal.Correction.Weighted>
   9.000000E+99

> <Gold.Protein.RotatedTorsions>
[ 6907 6896 6895 6894 ] final  110.38 input  -60.11 | X-H torsion
[ 7974 7965 7964 7962 ] final  -36.05 input  175.53 | X-H torsion
[ 8008 7997 7996 7995 ] final  -22.72 input   59.86 | X-H torsion
[ 10167 10162 10161 10158 ] final  170.65 input  -65.29 | X-H torsion
[ 10718 10713 10712 10709 ] final -155.66 input   66.30 | X-H torsion
[ 10763 10752 10751 10750 ] final   57.92 input  -60.55 | X-H torsion
[ 11005 11000 10999 10996 ] final  103.94 input  -57.11 | X-H torsion

> <Gold.Protein.ActiveResidues>
 VAL166  LYS551  ARG553  GLY616  TRP617  ASP618  TYR619  PRO620  LYS621  CYS622 
 ASP623  PHE694  ASN695  SER759  ASP760  ASP761  ALA762  ILE779  LEU786  VAL792 
 PHE793  MET794  SER795  GLU796  ALA797  LYS798  CYS799  TRP800  GLU811  SER814 

> <Gold.Protein.RotatedAtoms>
  152.5022  133.8808  159.7345 H   0  0  0  0  0  0  0  0  0  0  0  0  # atno 6907 bound_to 6896
  150.9271  133.6802  159.2825 H   0  0  0  0  0  0  0  0  0  0  0  0  # atno 6908 bound_to 6896
  151.4159  135.0996  159.9651 H   0  0  0  0  0  0  0  0  0  0  0  0  # atno 6909 bound_to 6896
  146.0694  140.6232  142.8959 H   0  0  0  0  0  0  0  0  0  0  0  0  # atno 7974 bound_to 7965
  154.4627  140.2000  156.0201 H   0  0  0  0  0  0  0  0  0  0  0  0  # atno 8008 bound_to 7997
  156.0870  140.3263  155.7738 H   0  0  0  0  0  0  0  0  0  0  0  0  # atno 8009 bound_to 7997
  155.5019  140.0554  157.2928 H   0  0  0  0  0  0  0  0  0  0  0  0  # atno 8010 bound_to 7997
  139.5024  144.3573  151.9861 H   0  0  0  0  0  0  0  0  0  0  0  0  # atno 10167 bound_to 10162
  156.5159  130.8456  151.2664 H   0  0  0  0  0  0  0  0  0  0  0  0  # atno 10718 bound_to 10713
  152.9860  135.5625  154.5469 H   0  0  0  0  0  0  0  0  0  0  0  0  # atno 10763 bound_to 10752
  154.4913  135.2793  155.1496 H   0  0  0  0  0  0  0  0  0  0  0  0  # atno 10764 bound_to 10752
  154.2965  135.6316  153.5460 H   0  0  0  0  0  0  0  0  0  0  0  0  # atno 10765 bound_to 10752
  139.8787  134.9282  156.5286 H   0  0  0  0  0  0  0  0  0  0  0  0  # atno 11005 bound_to 11000
  144.7222  140.4411  143.6999 LP  0  0  0  0  0  0  0  0  0  0  0  0  # atno 17320 bound_to 7965
  145.6418  139.1551  143.2911 LP  0  0  0  0  0  0  0  0  0  0  0  0  # atno 17321 bound_to 7965
  140.3009  144.3647  150.6060 LP  0  0  0  0  0  0  0  0  0  0  0  0  # atno 17342 bound_to 10162
  140.5874  143.2169  151.7317 LP  0  0  0  0  0  0  0  0  0  0  0  0  # atno 17343 bound_to 10162
  157.7444  130.9934  150.2670 LP  0  0  0  0  0  0  0  0  0  0  0  0  # atno 17370 bound_to 10713
  156.3196  130.3784  149.7587 LP  0  0  0  0  0  0  0  0  0  0  0  0  # atno 17371 bound_to 10713
  140.8397  133.8214  155.9063 LP  0  0  0  0  0  0  0  0  0  0  0  0  # atno 17394 bound_to 11000
  140.9249  134.2095  157.4902 LP  0  0  0  0  0  0  0  0  0  0  0  0  # atno 17395 bound_to 11000

$$$$
