AV-unprocessed.smi:473|AV-procd|sdf|2662|dock6
  -GOLD-   2262023 73D 1   1.00000     0.00000
 Structure written by MMmdl.
 42 44  0  0  0  0  0  0  0  0  1 V2000
  153.0990  142.4944  161.0140 C   0  0  0  0  0  0  0  0  0  0  0  0
  152.4362  142.2450  159.6705 C   0  0  0  0  0  0  0  0  0  0  0  0
  152.8056  141.1039  158.9228 C   0  0  0  0  0  0  0  0  0  0  0  0
  152.2087  140.8333  157.6719 C   0  0  0  0  0  0  0  0  0  0  0  0
  152.4100  139.7886  156.7859 N   0  0  0  0  0  0  0  0  0  0  0  0
  151.5600  140.0964  155.8103 C   0  0  0  0  0  0  0  0  0  0  0  0
  150.8304  141.2185  155.9600 N   0  0  0  0  0  0  0  0  0  0  0  0
  149.8448  141.7523  155.0375 C   0  0  0  0  0  0  0  0  0  0  0  0
  148.6961  140.7605  154.7650 C   0  0  1  0  0  0  0  0  0  0  0  0
  149.1266  139.6692  153.9757 O   0  0  0  0  0  0  0  0  0  0  0  0
  148.0295  140.2244  156.0427 C   0  0  0  0  0  0  0  0  0  0  0  0
  147.3257  141.2683  156.6961 O   0  0  0  0  0  0  0  0  0  0  0  0
  147.9878  141.7419  157.8573 C   0  0  0  0  0  0  0  0  0  0  0  0
  147.0240  142.5967  158.6179 C   0  0  0  0  0  0  0  0  0  0  0  0
  145.9630  143.3686  158.2324 C   0  0  0  0  0  0  0  0  0  0  0  0
  145.4264  143.9404  159.4191 C   0  0  0  0  0  0  0  0  0  0  0  0
  146.1965  143.4710  160.4444 C   0  0  0  0  0  0  0  0  0  0  0  0
  147.1738  142.6494  159.9742 O   0  0  0  0  0  0  0  0  0  0  0  0
  151.2271  141.7447  157.1845 C   0  0  0  0  0  0  0  0  0  0  0  0
  150.8526  142.8841  157.9178 C   0  0  0  0  0  0  0  0  0  0  0  0
  151.4567  143.1381  159.1667 C   0  0  0  0  0  0  0  0  0  0  0  0
  151.0410  144.3687  159.9528 C   0  0  0  0  0  0  0  0  0  0  0  0
  153.8288  141.7191  161.2486 H   0  0  0  0  0  0  0  0  0  0  0  0
  152.3542  142.5042  161.8102 H   0  0  0  0  0  0  0  0  0  0  0  0
  153.6180  143.4531  161.0132 H   0  0  0  0  0  0  0  0  0  0  0  0
  153.5512  140.4230  159.3061 H   0  0  0  0  0  0  0  0  0  0  0  0
  151.4593  139.4688  154.9369 H   0  0  0  0  0  0  0  0  0  0  0  0
  149.4612  142.6866  155.4494 H   0  0  0  0  0  0  0  0  0  0  0  0
  150.3493  142.0087  154.1050 H   0  0  0  0  0  0  0  0  0  0  0  0
  147.9303  141.2712  154.1798 H   0  0  0  0  0  0  0  0  0  0  0  0
  149.4705  140.0053  153.1622 H   0  0  0  0  0  0  0  0  0  0  0  0
  147.3224  139.4377  155.7757 H   0  0  0  0  0  0  0  0  0  0  0  0
  148.7712  139.7783  156.7076 H   0  0  0  0  0  0  0  0  0  0  0  0
  148.3160  140.9060  158.4768 H   0  0  0  0  0  0  0  0  0  0  0  0
  148.8683  142.3244  157.5834 H   0  0  0  0  0  0  0  0  0  0  0  0
  145.6165  143.5060  157.2188 H   0  0  0  0  0  0  0  0  0  0  0  0
  144.5834  144.6091  159.5111 H   0  0  0  0  0  0  0  0  0  0  0  0
  146.1887  143.6130  161.5152 H   0  0  0  0  0  0  0  0  0  0  0  0
  150.1029  143.5540  157.5228 H   0  0  0  0  0  0  0  0  0  0  0  0
  150.2891  144.9479  159.4159 H   0  0  0  0  0  0  0  0  0  0  0  0
  151.8988  145.0181  160.1298 H   0  0  0  0  0  0  0  0  0  0  0  0
  150.6175  144.0813  160.9154 H   0  0  0  0  0  0  0  0  0  0  0  0
  1  2  1  0  0  0  0
  1 23  1  0  0  0  0
  1 24  1  0  0  0  0
  1 25  1  0  0  0  0
  2 21  1  0  0  0  0
  2  3  2  0  0  0  0
  3  4  1  0  0  0  0
  3 26  1  0  0  0  0
  4 19  2  0  0  0  0
  4  5  1  0  0  0  0
  5  6  2  0  0  0  0
  6  7  1  0  0  0  0
  6 27  1  0  0  0  0
  7  8  1  0  0  0  0
  7 19  1  0  0  0  0
  8  9  1  0  0  0  0
  8 28  1  0  0  0  0
  8 29  1  0  0  0  0
  9 10  1  0  0  0  0
  9 11  1  0  0  0  0
  9 30  1  0  0  0  0
 10 31  1  0  0  0  0
 11 12  1  0  0  0  0
 11 32  1  0  0  0  0
 11 33  1  0  0  0  0
 12 13  1  0  0  0  0
 13 14  1  0  0  0  0
 13 34  1  0  0  0  0
 13 35  1  0  0  0  0
 14 18  1  0  0  0  0
 14 15  2  0  0  0  0
 15 16  1  0  0  0  0
 15 36  1  0  0  0  0
 16 17  2  0  0  0  0
 16 37  1  0  0  0  0
 17 18  1  0  0  0  0
 17 38  1  0  0  0  0
 19 20  1  0  0  0  0
 20 21  2  0  0  0  0
 20 39  1  0  0  0  0
 21 22  1  0  0  0  0
 22 40  1  0  0  0  0
 22 41  1  0  0  0  0
 22 42  1  0  0  0  0
M  END
> <s_m_source_file>
AV-unprocessed.smi

> <i_m_source_file_index>
473

> <i_lp_mmshare_version>
43012

> <i_f3d_flags>
0

> <s_epik_input>
W0NIM11jKFtjSF0xKWMoW0NIM10pW2NIXWMoYzEyKW4oW2NIXW4yKVtDSDJdW0NASF0oW09IXSlbQ0gyXU9bQ0gyXWMzW2NIXVtjSF1bY0hdbzM=

> <s_epik_cmdline>
J2VwaWtfcHl0aG9uJywgJy1waCcsICc3LjAnLCAnLXRuJywgJzgnLCAnLW1hJywgJzIwMCcsICctbWV0YWxfYmluZGluZycsICctaW1hZScsICc8aW5maWxlLm1hZT4nLCAnLW9tYWUnLCAnPG91dGZpbGUubWFlPic=

> <r_epik_Ionization_Penalty>
0.112477

> <r_epik_Ionization_Penalty_Charging>
0

> <r_epik_Ionization_Penalty_Neutral>
0.112477

> <r_epik_State_Penalty>
0.102177

> <r_epik_Charging_Adjusted_Penalty>
0.102177

> <i_epik_Tot_Q>
0

> <i_epik_Tot_abs_Q>
0

> <r_epik_Metal_State_Penalty>
0.000111506

> <b_epik_Metal_Only>
0

> <s_lp_Force_Field>
OPLS_2005

> <r_lp_Energy>
9.30743

> <b_lp_Chiralities_Consistent>
1

> <s_lp_Variant>
AV-unprocessed.smi:473-2

> <Gold.Version>
5.8.1

> <Gold.Id.Protein>
6NUR|6NUR_protein|mol2

> <Gold.PLP.Fitness>
48.4787

> <Gold.PLP.PLP>
-39.6726

> <Gold.PLP.part.hbond>
-4.0000

> <Gold.PLP.part.metal>
0.0000

> <Gold.PLP.part.buried>
-3.9530

> <Gold.PLP.part.nonpolar>
-31.0254

> <Gold.PLP.part.repulsive>
0.1164

> <Gold.PLP.ligand.clash>
0.0000

> <Gold.PLP.ligand.torsion>
0.8423

> <Gold.PLP.Chemscore.Hbond>
3.4757

> <Gold.PLP.Chemscore.CHOScore>
0.0000

> <Gold.PLP.Chemscore.Metal>
0.0000

> <Gold.Chemscore.Hbonds>
donor molecule, donor type, donor heavy atom, donor atom, acceptor molecule, acceptor atom, score
      L1  H    10    31       P1  7957  1.00
      P1  H  6933  6944       L1    18  0.74
      P1  H  6934  6946       L1    18  0.78
      P1  H  7997  8009       L1     5  0.99

> <Gold.PLP.Chemscore.Internal.Correction>
0.0636

> <Gold.Rescore>
     Score         DG    S(hbond)    S(metal)    S(lipo)     H(rot)  DE(clash)    DE(int)     intcor
     18.80     -20.34       2.66        0.00     103.71       2.41       0.63       0.90       ----

> <Gold.Chemscore.Fitness>
18.8034

> <Gold.Chemscore.DG>
-20.3359

> <Gold.Chemscore.ZeroCoef>
-5.4800

> <Gold.Chemscore.Hbond>
2.6609

> <Gold.Chemscore.Metal>
0.0000

> <Gold.Chemscore.Lipo>
103.7084

> <Gold.Chemscore.Internal_Hbond>
0.0000

> <Gold.Chemscore.DEClash>
0.6314

> <Gold.Chemscore.DEInternal>
0.9012

> <Gold.Chemscore.Rot>
2.4083

> <Gold.Chemscore.Internal.Correction>
   9.000000E+99

> <Gold.Chemscore.Hbonds>
donor molecule, donor type, donor heavy atom, donor atom, acceptor molecule, acceptor atom, score
      L1  H    10    31       P1  7957  0.92
      P1  H  6933  6944       L1    18  0.50
      P1  H  6934  6946       L1    18  0.40
      P1  H  7997  8009       L1     5  0.19

> <Gold.Chemscore.Hbond.Weighted>
-8.8873

> <Gold.Chemscore.Metal.Weighted>
-0.0000

> <Gold.Chemscore.Lipo.Weighted>
-12.1339

> <Gold.Chemscore.Internal_Hbond.Weighted>
0.0000

> <Gold.Chemscore.DEClash.Weighted>
0.6314

> <Gold.Chemscore.DEInternal.Weighted>
0.9012

> <Gold.Chemscore.Rot.Weighted>
6.1653

> <Gold.Chemscore.Internal.Correction.Weighted>
   9.000000E+99

> <Gold.Protein.RotatedTorsions>
[ 6907 6896 6895 6894 ] final  -52.17 input  -60.11 | X-H torsion
[ 7974 7965 7964 7962 ] final   -6.77 input  175.53 | X-H torsion
[ 8008 7997 7996 7995 ] final -156.47 input   59.86 | X-H torsion
[ 10167 10162 10161 10158 ] final  147.51 input  -65.29 | X-H torsion
[ 10718 10713 10712 10709 ] final  -54.03 input   66.30 | X-H torsion
[ 10763 10752 10751 10750 ] final -148.03 input  -60.55 | X-H torsion
[ 11005 11000 10999 10996 ] final -156.14 input  -57.11 | X-H torsion

> <Gold.Protein.ActiveResidues>
 VAL166  LYS551  ARG553  GLY616  TRP617  ASP618  TYR619  PRO620  LYS621  CYS622 
 ASP623  PHE694  ASN695  SER759  ASP760  ASP761  ALA762  ILE779  LEU786  VAL792 
 PHE793  MET794  SER795  GLU796  ALA797  LYS798  CYS799  TRP800  GLU811  SER814 

> <Gold.Protein.RotatedAtoms>
  150.8543  134.7877  159.7032 H   0  0  0  0  0  0  0  0  0  0  0  0  # atno 6907 bound_to 6896
  152.4599  134.5205  159.9791 H   0  0  0  0  0  0  0  0  0  0  0  0  # atno 6908 bound_to 6896
  151.5320  133.3409  159.2955 H   0  0  0  0  0  0  0  0  0  0  0  0  # atno 6909 bound_to 6896
  146.2323  140.2220  142.8338 H   0  0  0  0  0  0  0  0  0  0  0  0  # atno 7974 bound_to 7965
  155.7177  140.0786  157.2344 H   0  0  0  0  0  0  0  0  0  0  0  0  # atno 8008 bound_to 7997
  154.4049  140.1618  156.2420 H   0  0  0  0  0  0  0  0  0  0  0  0  # atno 8009 bound_to 7997
  155.9225  140.3397  155.6187 H   0  0  0  0  0  0  0  0  0  0  0  0  # atno 8010 bound_to 7997
  139.4889  144.5749  151.6983 H   0  0  0  0  0  0  0  0  0  0  0  0  # atno 10167 bound_to 10162
  156.1485  130.4152  149.9984 H   0  0  0  0  0  0  0  0  0  0  0  0  # atno 10718 bound_to 10713
  154.8254  135.3345  154.6911 H   0  0  0  0  0  0  0  0  0  0  0  0  # atno 10763 bound_to 10752
  153.7537  135.6937  153.4944 H   0  0  0  0  0  0  0  0  0  0  0  0  # atno 10764 bound_to 10752
  153.2158  135.4466  155.0383 H   0  0  0  0  0  0  0  0  0  0  0  0  # atno 10765 bound_to 10752
  140.6789  134.4167  157.5228 H   0  0  0  0  0  0  0  0  0  0  0  0  # atno 11005 bound_to 11000
  144.9624  140.8288  143.5505 LP  0  0  0  0  0  0  0  0  0  0  0  0  # atno 17320 bound_to 7965
  145.2193  139.2167  143.5102 LP  0  0  0  0  0  0  0  0  0  0  0  0  # atno 17321 bound_to 7965
  140.5344  144.0679  150.6065 LP  0  0  0  0  0  0  0  0  0  0  0  0  # atno 17342 bound_to 10162
  140.3680  143.2870  152.0310 LP  0  0  0  0  0  0  0  0  0  0  0  0  # atno 17343 bound_to 10162
  156.7849  130.9235  151.3646 LP  0  0  0  0  0  0  0  0  0  0  0  0  # atno 17370 bound_to 10713
  157.6637  130.8988  149.9884 LP  0  0  0  0  0  0  0  0  0  0  0  0  # atno 17371 bound_to 10713
  139.8958  134.8674  156.2116 LP  0  0  0  0  0  0  0  0  0  0  0  0  # atno 17394 bound_to 11000
  141.0334  133.6976  156.1469 LP  0  0  0  0  0  0  0  0  0  0  0  0  # atno 17395 bound_to 11000

$$$$
