#       Name:                AV-unprocessed.smi:2659
#       Creating user name   scv26
#       Creation time:       Fri Mar 27 14:33:06 2020


#       File generated by GOLD software.
#

@<TRIPOS>MOLECULE
AV-unprocessed.smi:2659
    52    53     1
SMALL
NO_CHARGES


@<TRIPOS>ATOM
      1 ****        -0.8796  -3.3274   1.1622 C.3            1 S1                 0.0000
      2 ****        -1.3128  -2.0233   0.7003 N.pl3          1 S1                 0.0000
      3 ****        -2.6291  -1.7605   0.5557 N.2            1 S1                 0.0000
      4 ****        -2.6908  -0.5026   0.1312 C.2            1 S1                 0.0000
      5 ****        -4.0330   0.1326  -0.1304 C.3            1 S1                 0.0000
      6 ****        -4.7727   0.6624   1.1310 C.3            1 S1                 0.0000
      7 ****        -5.5028  -0.4951   1.8413 C.3            1 S1                 0.0000
      8 ****        -5.8204   1.7024   0.6880 C.3            1 S1                 0.0000
      9 ****        -3.8071   1.3366   2.1296 C.3            1 S1                 0.0000
     10 ****        -1.4017   0.0867  -0.0233 C.2            1 S1                 0.0000
     11 ****        -0.5602  -0.9227   0.3565 C.2            1 S1                 0.0000
     12 ****         0.7981  -0.9285   0.4127 N.am           1 S1                 0.0000
     13 ****         1.6547   0.0735   0.1493 C.2            1 S1                 0.0000
     14 ****         1.3392   1.2107  -0.2017 O.2            1 S1                 0.0000
     15 ****         2.9246  -0.3208   0.3176 N.am           1 S1                 0.0000
     16 ****         4.0979   0.5181   0.1018 C.3            1 S1                 0.0000
     17 ****         4.4605   0.6119  -1.3893 C.3            1 S1                 0.0000
     18 ****         5.6599   1.5122  -1.6740 C.3            1 S1                 0.0000
     19 ****         6.1224   0.9829  -3.0122 C.3            1 S1                 0.0000
     20 ****         5.8854  -0.5179  -2.8609 C.3            1 S1                 0.0000
     21 ****         4.8456  -0.6632  -1.8958 O.3            1 S1                 0.0000
     22 ****        -0.2372  -3.2119   2.0354 H              1 S1                 0.0000
     23 ****        -0.3207  -3.8278   0.3713 H              1 S1                 0.0000
     24 ****        -1.7376  -3.9432   1.4352 H              1 S1                 0.0000
     25 ****        -3.8718   0.9655  -0.8161 H              1 S1                 0.0000
     26 ****        -4.6752  -0.5581  -0.6788 H              1 S1                 0.0000
     27 ****        -6.0716  -0.1375   2.7004 H              1 S1                 0.0000
     28 ****        -4.8036  -1.2467   2.2080 H              1 S1                 0.0000
     29 ****        -6.2029  -0.9965   1.1722 H              1 S1                 0.0000
     30 ****        -6.5286   1.2747  -0.0226 H              1 S1                 0.0000
     31 ****        -5.3509   2.5616   0.2075 H              1 S1                 0.0000
     32 ****        -6.3937   2.0780   1.5363 H              1 S1                 0.0000
     33 ****        -4.3494   1.7769   2.9670 H              1 S1                 0.0000
     34 ****        -3.2387   2.1354   1.6518 H              1 S1                 0.0000
     35 ****        -3.0937   0.6281   2.5516 H              1 S1                 0.0000
     36 ****        -1.1602   1.0853  -0.3540 H              1 S1                 0.0000
     37 ****         1.2130  -1.8035   0.6972 H              1 S1                 0.0000
     38 ****         3.0953  -1.2739   0.6027 H              1 S1                 0.0000
     39 ****         3.9215   1.5140   0.5114 H              1 S1                 0.0000
     40 ****         4.9309   0.0956   0.6643 H              1 S1                 0.0000
     41 ****         3.6078   0.9654  -1.9716 H              1 S1                 0.0000
     42 ****         5.4010   2.5710  -1.6983 H              1 S1                 0.0000
     43 ****         6.4393   1.3661  -0.9247 H              1 S1                 0.0000
     44 ****         5.4940   1.3838  -3.8085 H              1 S1                 0.0000
     45 ****         7.1599   1.2305  -3.2379 H              1 S1                 0.0000
     46 ****         5.6159  -0.9883  -3.8068 H              1 S1                 0.0000
     47 ****         6.7804  -1.0112  -2.4806 H              1 S1                 0.0000
     48 ****        -3.3943  -2.3801   0.7306 LP             1 S1                 0.0000
     49 ****         0.3746   1.4504  -0.3120 LP             1 S1                 0.0000
     50 ****         2.0475   1.8946  -0.3765 LP             1 S1                 0.0000
     51 ****         4.0553  -1.1001  -2.3254 LP             1 S1                 0.0000
     52 ****         5.1724  -1.2329  -1.1418 LP             1 S1                 0.0000
@<TRIPOS>BOND
    1    1    2 1     
    2    1   22 1     
    3    1   23 1     
    4    1   24 1     
    5    2   11 1     
    6    2    3 1     
    7    3    4 2     
    8    4    5 1     
    9    4   10 1     
   10    5    6 1     
   11    5   25 1     
   12    5   26 1     
   13    6    7 1     
   14    6    8 1     
   15    6    9 1     
   16    7   27 1     
   17    7   28 1     
   18    7   29 1     
   19    8   30 1     
   20    8   31 1     
   21    8   32 1     
   22    9   33 1     
   23    9   34 1     
   24    9   35 1     
   25   10   11 2     
   26   10   36 1     
   27   11   12 1     
   28   12   13 am    
   29   12   37 1     
   30   13   14 2     
   31   13   15 am    
   32   15   16 1     
   33   15   38 1     
   34   16   17 1     
   35   16   39 1     
   36   16   40 1     
   37   17   21 1     
   38   17   18 1     
   39   17   41 1     
   40   18   19 1     
   41   18   42 1     
   42   18   43 1     
   43   19   20 1     
   44   19   44 1     
   45   19   45 1     
   46   20   21 1     
   47   20   46 1     
   48   20   47 1     
   49    3   48 1     
   50   14   49 1     
   51   14   50 1     
   52   21   51 1     
   53   21   52 1     
@<TRIPOS>SUBSTRUCTURE
      1 S1             1
@<TRIPOS>SET
LONE_PAIRS      STATIC     ATOMS    <user>   **** ""
5 48 49 50 51 52
DONOR_HYDROGENS      STATIC     ATOMS    <user>   **** ""
2 37 38
ATOM$BLUE        STATIC     ATOMS    COLORGROUP SYSTEM
5 48 49 50 51 52
ATOM$RED        STATIC     ATOMS    COLORGROUP SYSTEM
2 37 38
