AV-unprocessed.smi:1005|AV-procd|sdf|4362|dock6
  -GOLD-   22720 2263D 1   1.00000     0.00000
 Structure written by MMmdl.
 56 58  0  0  0  0  0  0  0  0  2 V2000
  153.2235  142.8355  161.3467 C   0  0  0  0  0  0  0  0  0  0  0  0
  152.5486  142.4657  160.0375 C   0  0  0  0  0  0  0  0  0  0  0  0
  152.9891  141.3201  159.3368 C   0  0  0  0  0  0  0  0  0  0  0  0
  152.3894  140.9432  158.1151 C   0  0  0  0  0  0  0  0  0  0  0  0
  152.6569  139.8775  157.2726 N   0  0  0  0  0  0  0  0  0  0  0  0
  151.7679  140.0724  156.3030 C   0  0  0  0  0  0  0  0  0  0  0  0
  150.9505  141.1365  156.4212 N   0  0  0  0  0  0  0  0  0  0  0  0
  149.9078  141.5505  155.4990 C   0  0  0  0  0  0  0  0  0  0  0  0
  149.6537  140.5110  154.3898 C   0  0  2  0  0  0  0  0  0  0  0  0
  149.1937  141.1903  153.2364 O   0  0  0  0  0  0  0  0  0  0  0  0
  148.6030  139.4638  154.8158 C   0  0  0  0  0  0  0  0  0  0  0  0
  149.1025  138.3875  155.6728 N   0  0  0  0  0  0  0  0  0  0  0  0
  148.1174  138.0308  156.6876 C   0  0  0  0  0  0  0  0  0  0  0  0
  148.6167  136.8978  157.5990 C   0  0  0  0  0  0  0  0  0  0  0  0
  148.9611  135.7683  156.8036 O   0  0  0  0  0  0  0  0  0  0  0  0
  149.9660  136.0551  155.8339 C   0  0  1  0  0  0  0  0  0  0  0  0
  150.2495  134.7670  155.0406 C   0  0  0  0  0  0  0  0  0  0  0  0
  149.2155  134.4881  154.0117 N   0  3  0  0  0  0  0  0  0  0  0  0
  147.8309  134.5551  154.5337 C   0  0  0  0  0  0  0  0  0  0  0  0
  149.4666  133.2142  153.3023 C   0  0  0  0  0  0  0  0  0  0  0  0
  149.4612  137.1888  154.9186 C   0  0  0  0  0  0  0  0  0  0  0  0
  151.3280  141.7500  157.6103 C   0  0  0  0  0  0  0  0  0  0  0  0
  150.8802  142.8914  158.2983 C   0  0  0  0  0  0  0  0  0  0  0  0
  151.4902  143.2536  159.5175 C   0  0  0  0  0  0  0  0  0  0  0  0
  150.9999  144.4886  160.2527 C   0  0  0  0  0  0  0  0  0  0  0  0
  154.0376  142.1495  161.5829 H   0  0  0  0  0  0  0  0  0  0  0  0
  152.5073  142.8012  162.1682 H   0  0  0  0  0  0  0  0  0  0  0  0
  153.6403  143.8416  161.2917 H   0  0  0  0  0  0  0  0  0  0  0  0
  153.7946  140.7193  159.7326 H   0  0  0  0  0  0  0  0  0  0  0  0
  151.7033  139.4003  155.4596 H   0  0  0  0  0  0  0  0  0  0  0  0
  148.9971  141.7183  156.0753 H   0  0  0  0  0  0  0  0  0  0  0  0
  150.1843  142.5130  155.0654 H   0  0  0  0  0  0  0  0  0  0  0  0
  150.5951  140.0133  154.1522 H   0  0  0  0  0  0  0  0  0  0  0  0
  149.1026  140.5616  152.5363 H   0  0  0  0  0  0  0  0  0  0  0  0
  147.8299  139.9921  155.3754 H   0  0  0  0  0  0  0  0  0  0  0  0
  148.0951  139.0542  153.9409 H   0  0  0  0  0  0  0  0  0  0  0  0
  147.8798  138.9037  157.2971 H   0  0  0  0  0  0  0  0  0  0  0  0
  147.1866  137.7229  156.2082 H   0  0  0  0  0  0  0  0  0  0  0  0
  149.4814  137.2210  158.1810 H   0  0  0  0  0  0  0  0  0  0  0  0
  147.8404  136.6117  158.3089 H   0  0  0  0  0  0  0  0  0  0  0  0
  150.8701  136.3941  156.3408 H   0  0  0  0  0  0  0  0  0  0  0  0
  151.2226  134.8720  154.5580 H   0  0  0  0  0  0  0  0  0  0  0  0
  150.3317  133.9119  155.7133 H   0  0  0  0  0  0  0  0  0  0  0  0
  147.6715  133.8120  155.3163 H   0  0  0  0  0  0  0  0  0  0  0  0
  147.1119  134.3653  153.7361 H   0  0  0  0  0  0  0  0  0  0  0  0
  147.6026  135.5382  154.9437 H   0  0  0  0  0  0  0  0  0  0  0  0
  149.4122  132.3675  153.9882 H   0  0  0  0  0  0  0  0  0  0  0  0
  150.4532  133.2164  152.8375 H   0  0  0  0  0  0  0  0  0  0  0  0
  148.7320  133.0612  152.5109 H   0  0  0  0  0  0  0  0  0  0  0  0
  148.5988  136.8417  154.3470 H   0  0  0  0  0  0  0  0  0  0  0  0
  150.2423  137.4224  154.1956 H   0  0  0  0  0  0  0  0  0  0  0  0
  150.0740  143.4828  157.8898 H   0  0  0  0  0  0  0  0  0  0  0  0
  150.1495  144.9433  159.7436 H   0  0  0  0  0  0  0  0  0  0  0  0
  151.7923  145.2348  160.3136 H   0  0  0  0  0  0  0  0  0  0  0  0
  150.6851  144.2330  161.2646 H   0  0  0  0  0  0  0  0  0  0  0  0
  149.3031  135.2159  153.3160 H   0  0  0  0  0  0  0  0  0  0  0  0
  1  2  1  0  0  0  0
  1 26  1  0  0  0  0
  1 27  1  0  0  0  0
  1 28  1  0  0  0  0
  2 24  1  0  0  0  0
  2  3  2  0  0  0  0
  3  4  1  0  0  0  0
  3 29  1  0  0  0  0
  4 22  2  0  0  0  0
  4  5  1  0  0  0  0
  5  6  2  0  0  0  0
  6  7  1  0  0  0  0
  6 30  1  0  0  0  0
  7  8  1  0  0  0  0
  7 22  1  0  0  0  0
  8  9  1  0  0  0  0
  8 31  1  0  0  0  0
  8 32  1  0  0  0  0
  9 10  1  0  0  0  0
  9 11  1  0  0  0  0
  9 33  1  0  0  0  0
 10 34  1  0  0  0  0
 11 12  1  0  0  0  0
 11 35  1  0  0  0  0
 11 36  1  0  0  0  0
 12 21  1  0  0  0  0
 12 13  1  0  0  0  0
 13 14  1  0  0  0  0
 13 37  1  0  0  0  0
 13 38  1  0  0  0  0
 14 15  1  0  0  0  0
 14 39  1  0  0  0  0
 14 40  1  0  0  0  0
 15 16  1  0  0  0  0
 16 17  1  0  0  0  0
 16 21  1  0  0  0  0
 16 41  1  0  0  0  0
 17 18  1  0  0  0  0
 17 42  1  0  0  0  0
 17 43  1  0  0  0  0
 18 19  1  0  0  0  0
 18 20  1  0  0  0  0
 18 56  1  0  0  0  0
 19 44  1  0  0  0  0
 19 45  1  0  0  0  0
 19 46  1  0  0  0  0
 20 47  1  0  0  0  0
 20 48  1  0  0  0  0
 20 49  1  0  0  0  0
 21 50  1  0  0  0  0
 21 51  1  0  0  0  0
 22 23  1  0  0  0  0
 23 24  2  0  0  0  0
 23 52  1  0  0  0  0
 24 25  1  0  0  0  0
 25 53  1  0  0  0  0
 25 54  1  0  0  0  0
 25 55  1  0  0  0  0
M  CHG  1  18   1
M  END
> <s_m_source_file>
AV-unprocessed.smi

> <i_m_source_file_index>
1005

> <i_lp_mmshare_version>
43012

> <i_f3d_flags>
0

> <s_epik_input>
W0NIM11jKFtjSF0xKWMoW0NIM10pW2NIXWMoYzEyKW4oW2NIXW4yKVtDSDJdW0NASF0oW09IXSlbQ0gyXU4zW0NIMl1bQ0gyXU9bQ0BIXShbQ0gyXTMpW0NIMl1OKFtDSDNdKVtDSDNd

> <s_epik_cmdline>
J2VwaWtfcHl0aG9uJywgJy1waCcsICc3LjAnLCAnLXRuJywgJzgnLCAnLW1hJywgJzIwMCcsICctbWV0YWxfYmluZGluZycsICctaW1hZScsICc8aW5maWxlLm1hZT4nLCAnLW9tYWUnLCAnPG91dGZpbGUubWFlPic=

> <r_epik_Ionization_Penalty>
0.226781

> <r_epik_Ionization_Penalty_Charging>
0.00915946

> <r_epik_Ionization_Penalty_Neutral>
0.217622

> <r_epik_State_Penalty>
0.173018

> <r_epik_Charging_Adjusted_Penalty>
0.182178

> <i_epik_Tot_Q>
1

> <i_epik_Tot_abs_Q>
1

> <r_epik_Metal_State_Penalty>
0.0905268

> <b_epik_Metal_Only>
0

> <s_lp_Force_Field>
OPLS_2005

> <r_lp_Energy>
36.5786

> <b_lp_Chiralities_Consistent>
1

> <s_lp_Variant>
AV-unprocessed.smi:1005-1

> <Gold.Version>
5.8.1

> <Gold.Id.Protein>
6NUR|6NUR_protein|mol2

> <Gold.PLP.Fitness>
57.0397

> <Gold.PLP.PLP>
-44.9481

> <Gold.PLP.part.hbond>
-4.4807

> <Gold.PLP.part.metal>
0.0000

> <Gold.PLP.part.buried>
-5.0041

> <Gold.PLP.part.nonpolar>
-35.2857

> <Gold.PLP.part.repulsive>
0.0321

> <Gold.PLP.ligand.clash>
0.0000

> <Gold.PLP.ligand.torsion>
1.3060

> <Gold.PLP.Chemscore.Hbond>
4.8780

> <Gold.PLP.Chemscore.CHOScore>
0.0000

> <Gold.PLP.Chemscore.Metal>
0.0000

> <Gold.Chemscore.Hbonds>
donor molecule, donor type, donor heavy atom, donor atom, acceptor molecule, acceptor atom, score
      L1  H    10    34       P1  7957  0.94
      L1  H    18    56       P1  7948  1.60
      P1  H  7997  8009       L1     5  1.00
      P1  H  8011  8017       L1    10  0.85

> <Gold.PLP.Chemscore.Internal.Correction>
0.0695

> <Gold.Rescore>
     Score         DG    S(hbond)    S(metal)    S(lipo)     H(rot)  DE(clash)    DE(int)     intcor
     19.68     -22.56       2.97        0.00     113.92       2.41       0.08       2.80       ----

> <Gold.Chemscore.Fitness>
19.6810

> <Gold.Chemscore.DG>
-22.5552

> <Gold.Chemscore.ZeroCoef>
-5.4800

> <Gold.Chemscore.Hbond>
2.9716

> <Gold.Chemscore.Metal>
0.0000

> <Gold.Chemscore.Lipo>
113.9227

> <Gold.Chemscore.Internal_Hbond>
0.0000

> <Gold.Chemscore.DEClash>
0.0771

> <Gold.Chemscore.DEInternal>
2.7971

> <Gold.Chemscore.Rot>
2.4136

> <Gold.Chemscore.Internal.Correction>
   9.000000E+99

> <Gold.Chemscore.Hbonds>
donor molecule, donor type, donor heavy atom, donor atom, acceptor molecule, acceptor atom, score
      L1  H    10    34       P1  7957  0.87
      L1  H    18    56       P1  7948  0.12
      P1  H  7997  8009       L1     5  0.46
      P1  H  8011  8017       L1    10  0.14

> <Gold.Chemscore.Hbond.Weighted>
-9.9250

> <Gold.Chemscore.Metal.Weighted>
-0.0000

> <Gold.Chemscore.Lipo.Weighted>
-13.3290

> <Gold.Chemscore.Internal_Hbond.Weighted>
0.0000

> <Gold.Chemscore.DEClash.Weighted>
0.0771

> <Gold.Chemscore.DEInternal.Weighted>
2.7971

> <Gold.Chemscore.Rot.Weighted>
6.1788

> <Gold.Chemscore.Internal.Correction.Weighted>
   9.000000E+99

> <Gold.Protein.RotatedTorsions>
[ 6907 6896 6895 6894 ] final  -45.32 input  -60.11 | X-H torsion
[ 7974 7965 7964 7962 ] final  -94.46 input  175.53 | X-H torsion
[ 8008 7997 7996 7995 ] final  170.35 input   59.86 | X-H torsion
[ 10167 10162 10161 10158 ] final -136.35 input  -65.29 | X-H torsion
[ 10718 10713 10712 10709 ] final  -29.64 input   66.30 | X-H torsion
[ 10763 10752 10751 10750 ] final   87.99 input  -60.55 | X-H torsion
[ 11005 11000 10999 10996 ] final -160.06 input  -57.11 | X-H torsion

> <Gold.Protein.ActiveResidues>
 VAL166  LYS551  ARG553  GLY616  TRP617  ASP618  TYR619  PRO620  LYS621  CYS622 
 ASP623  PHE694  ASN695  SER759  ASP760  ASP761  ALA762  ILE779  LEU786  VAL792 
 PHE793  MET794  SER795  GLU796  ALA797  LYS798  CYS799  TRP800  GLU811  SER814 

> <Gold.Protein.RotatedAtoms>
  150.9232  134.8650  159.7502 H   0  0  0  0  0  0  0  0  0  0  0  0  # atno 6907 bound_to 6896
  152.5003  134.4187  159.9483 H   0  0  0  0  0  0  0  0  0  0  0  0  # atno 6908 bound_to 6896
  151.4219  133.3656  159.2792 H   0  0  0  0  0  0  0  0  0  0  0  0  # atno 6909 bound_to 6896
  145.3730  140.9508  143.2436 H   0  0  0  0  0  0  0  0  0  0  0  0  # atno 7974 bound_to 7965
  156.1374  140.1540  156.8974 H   0  0  0  0  0  0  0  0  0  0  0  0  # atno 8008 bound_to 7997
  154.4958  140.0838  156.7733 H   0  0  0  0  0  0  0  0  0  0  0  0  # atno 8009 bound_to 7997
  155.4143  140.3420  155.4268 H   0  0  0  0  0  0  0  0  0  0  0  0  # atno 8010 bound_to 7997
  139.8686  143.6985  152.2642 H   0  0  0  0  0  0  0  0  0  0  0  0  # atno 10167 bound_to 10162
  156.4098  130.4406  149.7260 H   0  0  0  0  0  0  0  0  0  0  0  0  # atno 10718 bound_to 10713
  153.1724  135.4523  154.9920 H   0  0  0  0  0  0  0  0  0  0  0  0  # atno 10763 bound_to 10752
  154.7975  135.3243  154.7634 H   0  0  0  0  0  0  0  0  0  0  0  0  # atno 10764 bound_to 10752
  153.8109  135.6955  153.4896 H   0  0  0  0  0  0  0  0  0  0  0  0  # atno 10765 bound_to 10752
  140.6357  134.4604  157.5231 H   0  0  0  0  0  0  0  0  0  0  0  0  # atno 11005 bound_to 11000
  144.8562  139.5245  143.6833 LP  0  0  0  0  0  0  0  0  0  0  0  0  # atno 17320 bound_to 7965
  146.2877  139.7049  142.9184 LP  0  0  0  0  0  0  0  0  0  0  0  0  # atno 17321 bound_to 7965
  139.7305  144.7583  151.0810 LP  0  0  0  0  0  0  0  0  0  0  0  0  # atno 17342 bound_to 10162
  140.7764  143.5094  150.9671 LP  0  0  0  0  0  0  0  0  0  0  0  0  # atno 17343 bound_to 10162
  156.4243  130.7784  151.2802 LP  0  0  0  0  0  0  0  0  0  0  0  0  # atno 17370 bound_to 10713
  157.7506  131.0173  150.3580 LP  0  0  0  0  0  0  0  0  0  0  0  0  # atno 17371 bound_to 10713
  139.9099  134.8368  156.1567 LP  0  0  0  0  0  0  0  0  0  0  0  0  # atno 17394 bound_to 11000
  141.0643  133.6827  156.2013 LP  0  0  0  0  0  0  0  0  0  0  0  0  # atno 17395 bound_to 11000

$$$$
