#       Name:                AV-unprocessed.smi:243
#       Creating user name   scv26
#       Creation time:       Thu Mar 26 20:46:58 2020


#       File generated by GOLD software.
#

@<TRIPOS>MOLECULE
AV-unprocessed.smi:243
    65    68     1
SMALL
NO_CHARGES


@<TRIPOS>ATOM
      1 ****        -6.0903   0.4534  -0.9896 C.3            1 S1                 0.0000
      2 ****        -5.5421   1.5517  -0.0667 C.3            1 S1                 0.0000
      3 ****        -4.0604   1.5301   0.0245 N.4            1 S1                 1.0000
      4 ****        -3.5629   2.1959   1.2552 C.3            1 S1                 0.0000
      5 ****        -2.0429   2.0263   1.4040 C.3            1 S1                 0.0000
      6 ****        -1.3067   2.5544   0.1536 C.3            1 S1                 0.0000
      7 ****         0.1651   2.6006   0.2312 N.pl3          1 S1                 0.0000
      8 ****         0.8558   3.4690  -0.7161 C.3            1 S1                 0.0000
      9 ****         0.8937   1.5695   0.7396 C.ar           1 S1                 0.0000
     10 ****         0.7467   1.2687   2.0553 N.ar           1 S1                 0.0000
     11 ****         1.4564   0.2847   2.6137 C.ar           1 S1                 0.0000
     12 ****         2.3661  -0.5098   2.0491 N.ar           1 S1                 0.0000
     13 ****         2.5350  -0.2072   0.7308 C.ar           1 S1                 0.0000
     14 ****         1.8530   0.8101   0.0030 C.ar           1 S1                 0.0000
     15 ****         2.2959   0.8134  -1.3159 N.2            1 S1                 0.0000
     16 ****         3.1860  -0.1393  -1.3623 C.2            1 S1                 0.0000
     17 ****         3.3842  -0.8123  -0.1789 N.pl3          1 S1                 0.0000
     18 ****         4.3074  -1.9113   0.0567 C.3            1 S1                 0.0000
     19 ****         3.7541  -3.2956  -0.3661 C.3            1 S1                 0.0000
     20 ****         3.5422  -3.3124  -1.7651 O.3            1 S1                 0.0000
     21 ****         4.6893  -4.4300   0.0199 C.3            1 S1                 0.0000
     22 ****         4.2819  -4.7327   1.4608 C.3            1 S1                 0.0000
     23 ****         2.9164  -4.3428   1.5765 O.3            1 S1                 0.0000
     24 ****         2.4786  -3.7239   0.3715 C.3            1 S1                 0.0000
     25 ****        -1.8575   1.8700  -1.1262 C.3            1 S1                 0.0000
     26 ****        -1.4891   0.3808  -1.2813 C.3            1 S1                 0.0000
     27 ****        -3.3876   2.0613  -1.1919 C.3            1 S1                 0.0000
     28 ****        -7.1801   0.4400  -0.9620 H              1 S1                 0.0000
     29 ****        -5.7414  -0.5323  -0.6802 H              1 S1                 0.0000
     30 ****        -5.7975   0.6040  -2.0282 H              1 S1                 0.0000
     31 ****        -5.8843   2.5359  -0.3903 H              1 S1                 0.0000
     32 ****        -5.9652   1.3890   0.9255 H              1 S1                 0.0000
     33 ****        -3.8240   3.2550   1.2277 H              1 S1                 0.0000
     34 ****        -4.0545   1.7709   2.1312 H              1 S1                 0.0000
     35 ****        -1.7089   2.5664   2.2908 H              1 S1                 0.0000
     36 ****        -1.8216   0.9728   1.5743 H              1 S1                 0.0000
     37 ****        -1.5946   3.6043   0.0794 H              1 S1                 0.0000
     38 ****         1.8978   3.6157  -0.4286 H              1 S1                 0.0000
     39 ****         0.3828   4.4508  -0.7462 H              1 S1                 0.0000
     40 ****         0.8293   3.0518  -1.7227 H              1 S1                 0.0000
     41 ****         1.2705   0.1107   3.6633 H              1 S1                 0.0000
     42 ****         3.7223  -0.3822  -2.2683 H              1 S1                 0.0000
     43 ****         5.2327  -1.6975  -0.4802 H              1 S1                 0.0000
     44 ****         4.5679  -1.9129   1.1156 H              1 S1                 0.0000
     45 ****         2.8707  -2.6813  -1.9735 H              1 S1                 0.0000
     46 ****         4.4948  -5.3100  -0.5958 H              1 S1                 0.0000
     47 ****         5.7462  -4.1811  -0.0819 H              1 S1                 0.0000
     48 ****         4.4160  -5.7847   1.7136 H              1 S1                 0.0000
     49 ****         4.8727  -4.1409   2.1605 H              1 S1                 0.0000
     50 ****         1.7777  -2.9127   0.5632 H              1 S1                 0.0000
     51 ****         1.9433  -4.4810  -0.2039 H              1 S1                 0.0000
     52 ****        -1.4417   2.3870  -1.9915 H              1 S1                 0.0000
     53 ****        -1.8100  -0.2148  -0.4272 H              1 S1                 0.0000
     54 ****        -0.4176   0.2422  -1.4004 H              1 S1                 0.0000
     55 ****        -1.9572  -0.0441  -2.1695 H              1 S1                 0.0000
     56 ****        -3.7717   1.5737  -2.0873 H              1 S1                 0.0000
     57 ****        -3.6249   3.1214  -1.2961 H              1 S1                 0.0000
     58 ****        -3.7955   0.5587   0.1054 H              1 S1                 0.0000
     59 ****         0.0999   1.7897   2.6124 LP             1 S1                 0.0000
     60 ****         2.8603  -1.2337   2.5303 LP             1 S1                 0.0000
     61 ****         1.9989   1.4113  -2.0605 LP             1 S1                 0.0000
     62 ****         3.2485  -4.2245  -2.0511 LP             1 S1                 0.0000
     63 ****         4.3899  -3.0717  -2.2378 LP             1 S1                 0.0000
     64 ****         2.8202  -3.6966   2.3336 LP             1 S1                 0.0000
     65 ****         2.3558  -5.1514   1.7552 LP             1 S1                 0.0000
@<TRIPOS>BOND
    1    1    2 1     
    2    1   28 1     
    3    1   29 1     
    4    1   30 1     
    5    2    3 1     
    6    2   31 1     
    7    2   32 1     
    8    3   27 1     
    9    3    4 1     
   10    3   58 1     
   11    4    5 1     
   12    4   33 1     
   13    4   34 1     
   14    5    6 1     
   15    5   35 1     
   16    5   36 1     
   17    6    7 1     
   18    6   25 1     
   19    6   37 1     
   20    7    8 1     
   21    7    9 1     
   22    8   38 1     
   23    8   39 1     
   24    8   40 1     
   25    9   14 ar    
   26    9   10 ar    
   27   10   11 ar    
   28   11   12 ar    
   29   11   41 1     
   30   12   13 ar    
   31   13   17 1     
   32   13   14 ar    
   33   14   15 1     
   34   15   16 2     
   35   16   17 1     
   36   16   42 1     
   37   17   18 1     
   38   18   19 1     
   39   18   43 1     
   40   18   44 1     
   41   19   24 1     
   42   19   20 1     
   43   19   21 1     
   44   20   45 1     
   45   21   22 1     
   46   21   46 1     
   47   21   47 1     
   48   22   23 1     
   49   22   48 1     
   50   22   49 1     
   51   23   24 1     
   52   24   50 1     
   53   24   51 1     
   54   25   26 1     
   55   25   27 1     
   56   25   52 1     
   57   26   53 1     
   58   26   54 1     
   59   26   55 1     
   60   27   56 1     
   61   27   57 1     
   62   10   59 1     
   63   12   60 1     
   64   15   61 1     
   65   20   62 1     
   66   20   63 1     
   67   23   64 1     
   68   23   65 1     
@<TRIPOS>SUBSTRUCTURE
      1 S1             1
@<TRIPOS>SET
LONE_PAIRS      STATIC     ATOMS    <user>   **** ""
7 59 60 61 62 63 64 65
DONOR_HYDROGENS      STATIC     ATOMS    <user>   **** ""
2 58 45
ATOM$BLUE        STATIC     ATOMS    COLORGROUP SYSTEM
7 59 60 61 62 63 64 65
ATOM$RED        STATIC     ATOMS    COLORGROUP SYSTEM
2 58 45
