AV-unprocessed.smi:3112|AV-procd|sdf|11840|dock1
  -GOLD-   2272017213D 1   1.00000     0.00000
 Structure written by MMmdl.
 37 37  0  0  0  0  0  0  0  0  2 V2000
  147.5676  139.1815  153.5030 C   0  0  0  0  0  0  0  0  0  0  0  0
  147.2112  140.6576  153.7249 C   0  0  0  0  0  0  0  0  0  0  0  0
  148.4140  141.5239  154.1400 C   0  0  2  0  0  0  0  0  0  0  0  0
  149.5495  141.1186  153.4001 O   0  0  0  0  0  0  0  0  0  0  0  0
  148.7338  141.3839  155.6367 C   0  0  0  0  0  0  0  0  0  0  0  0
  149.7989  142.3231  156.0458 N   0  3  0  0  0  0  0  0  0  0  0  0
  150.2870  142.1507  157.4343 C   0  0  2  0  0  0  0  0  0  0  0  0
  149.2045  142.6648  158.3978 C   0  0  0  0  0  0  0  0  0  0  0  0
  151.6502  142.8677  157.6264 C   0  0  1  0  0  0  0  0  0  0  0  0
  151.5536  144.4016  157.5207 C   0  0  0  0  0  0  0  0  0  0  0  0
  152.2678  142.4946  158.8947 N   0  0  0  0  0  0  0  0  0  0  0  0
  152.5354  143.2827  159.9971 C   0  0  0  0  0  0  0  0  0  0  0  0
  153.0779  142.4752  160.9551 C   0  0  0  0  0  0  0  0  0  0  0  0
  153.0961  141.1909  160.3444 C   0  0  0  0  0  0  0  0  0  0  0  0
  152.6023  141.2042  159.1175 N   0  0  0  0  0  0  0  0  0  0  0  0
  146.6920  138.6170  153.1819 H   0  0  0  0  0  0  0  0  0  0  0  0
  147.9410  138.7188  154.4167 H   0  0  0  0  0  0  0  0  0  0  0  0
  148.3327  139.0716  152.7341 H   0  0  0  0  0  0  0  0  0  0  0  0
  146.7926  141.0488  152.7967 H   0  0  0  0  0  0  0  0  0  0  0  0
  146.4186  140.7353  154.4705 H   0  0  0  0  0  0  0  0  0  0  0  0
  148.2004  142.5688  153.9101 H   0  0  0  0  0  0  0  0  0  0  0  0
  149.2882  140.4531  152.7815 H   0  0  0  0  0  0  0  0  0  0  0  0
  147.8442  141.6026  156.2291 H   0  0  0  0  0  0  0  0  0  0  0  0
  149.0257  140.3584  155.8668 H   0  0  0  0  0  0  0  0  0  0  0  0
  150.5827  142.2069  155.4180 H   0  0  0  0  0  0  0  0  0  0  0  0
  150.4214  141.0860  157.6344 H   0  0  0  0  0  0  0  0  0  0  0  0
  149.4519  142.4479  159.4365 H   0  0  0  0  0  0  0  0  0  0  0  0
  148.2442  142.1888  158.1956 H   0  0  0  0  0  0  0  0  0  0  0  0
  149.0663  143.7424  158.3030 H   0  0  0  0  0  0  0  0  0  0  0  0
  152.3208  142.5377  156.8302 H   0  0  0  0  0  0  0  0  0  0  0  0
  151.2751  144.7188  156.5161 H   0  0  0  0  0  0  0  0  0  0  0  0
  152.5128  144.8698  157.7449 H   0  0  0  0  0  0  0  0  0  0  0  0
  150.8160  144.8069  158.2138 H   0  0  0  0  0  0  0  0  0  0  0  0
  152.3187  144.3408  160.0107 H   0  0  0  0  0  0  0  0  0  0  0  0
  153.4096  142.7580  161.9432 H   0  0  0  0  0  0  0  0  0  0  0  0
  153.4450  140.2547  160.7550 H   0  0  0  0  0  0  0  0  0  0  0  0
  149.4451  143.2634  155.9432 H   0  0  0  0  0  0  0  0  0  0  0  0
  1  2  1  0  0  0  0
  1 16  1  0  0  0  0
  1 17  1  0  0  0  0
  1 18  1  0  0  0  0
  2  3  1  0  0  0  0
  2 19  1  0  0  0  0
  2 20  1  0  0  0  0
  3  4  1  0  0  0  0
  3  5  1  0  0  0  0
  3 21  1  0  0  0  0
  4 22  1  0  0  0  0
  5  6  1  0  0  0  0
  5 23  1  0  0  0  0
  5 24  1  0  0  0  0
  6  7  1  0  0  0  0
  6 25  1  0  0  0  0
  6 37  1  0  0  0  0
  7  8  1  0  0  0  0
  7  9  1  0  0  0  0
  7 26  1  0  0  0  0
  8 27  1  0  0  0  0
  8 28  1  0  0  0  0
  8 29  1  0  0  0  0
  9 10  1  0  0  0  0
  9 11  1  0  0  0  0
  9 30  1  0  0  0  0
 10 31  1  0  0  0  0
 10 32  1  0  0  0  0
 10 33  1  0  0  0  0
 11 15  1  0  0  0  0
 11 12  1  0  0  0  0
 12 13  2  0  0  0  0
 12 34  1  0  0  0  0
 13 14  1  0  0  0  0
 13 35  1  0  0  0  0
 14 15  2  0  0  0  0
 14 36  1  0  0  0  0
M  CHG  1   6   1
M  END
> <s_m_source_file>
AV-unprocessed.smi

> <i_m_source_file_index>
3112

> <i_lp_mmshare_version>
43012

> <i_f3d_flags>
0

> <s_epik_input>
W0NIM11bQ0gyXVtDQEhdKFtPSF0pW0NIMl1bTkhdW0NASF0oW0NIM10pW0NASF0oW0NIM10pbjFbY0hdW2NIXVtjSF1uMQ==

> <s_epik_cmdline>
J2VwaWtfcHl0aG9uJywgJy1waCcsICc3LjAnLCAnLXRuJywgJzgnLCAnLW1hJywgJzIwMCcsICctbWV0YWxfYmluZGluZycsICctaW1hZScsICc8aW5maWxlLm1hZT4nLCAnLW9tYWUnLCAnPG91dGZpbGUubWFlPic=

> <r_lp_tautomer_probability>
1

> <r_epik_Ionization_Penalty>
0.0154842

> <r_epik_Ionization_Penalty_Charging>
0.0154724

> <r_epik_Ionization_Penalty_Neutral>
1.17979e-05

> <r_epik_State_Penalty>
0.0121607

> <r_epik_Charging_Adjusted_Penalty>
0.0276331

> <i_epik_Tot_Q>
1

> <i_epik_Tot_abs_Q>
1

> <r_epik_Metal_State_Penalty>
0.0121863

> <b_epik_Metal_Only>
0

> <s_lp_Force_Field>
OPLS_2005

> <r_lp_Energy>
12.9231

> <b_lp_Chiralities_Consistent>
1

> <s_lp_Variant>
AV-unprocessed.smi:3112-5

> <Gold.Version>
5.8.1

> <Gold.Id.Protein>
6NUR|6NUR_protein|mol2

> <Gold.PLP.Fitness>
47.1929

> <Gold.PLP.PLP>
-36.2307

> <Gold.PLP.part.hbond>
-3.8412

> <Gold.PLP.part.metal>
0.0000

> <Gold.PLP.part.buried>
-3.4900

> <Gold.PLP.part.nonpolar>
-28.7621

> <Gold.PLP.part.repulsive>
0.1174

> <Gold.PLP.ligand.clash>
0.0000

> <Gold.PLP.ligand.torsion>
0.5068

> <Gold.PLP.Chemscore.Hbond>
3.8885

> <Gold.PLP.Chemscore.CHOScore>
0.0000

> <Gold.PLP.Chemscore.Metal>
0.0000

> <Gold.Chemscore.Hbonds>
donor molecule, donor type, donor heavy atom, donor atom, acceptor molecule, acceptor atom, score
      L1  H     4    22       P1  7957  0.75
      L1  H     6    37       P1  8028  2.00
      P1  H  7989  7998       L1     4  0.17
      P1  H  8011  8017       L1     4  0.95

> <Gold.PLP.Chemscore.Internal.Correction>
0.3103

> <Gold.Rescore>
     Score         DG    S(hbond)    S(metal)    S(lipo)     H(rot)  DE(clash)    DE(int)     intcor
     16.47     -16.94       2.02        0.00      92.97       2.41       0.09       0.38       ----

> <Gold.Chemscore.Fitness>
16.4680

> <Gold.Chemscore.DG>
-16.9380

> <Gold.Chemscore.ZeroCoef>
-5.4800

> <Gold.Chemscore.Hbond>
2.0201

> <Gold.Chemscore.Metal>
0.0000

> <Gold.Chemscore.Lipo>
92.9706

> <Gold.Chemscore.Internal_Hbond>
0.0000

> <Gold.Chemscore.DEClash>
0.0916

> <Gold.Chemscore.DEInternal>
0.3784

> <Gold.Chemscore.Rot>
2.4089

> <Gold.Chemscore.Internal.Correction>
   9.000000E+99

> <Gold.Chemscore.Hbonds>
donor molecule, donor type, donor heavy atom, donor atom, acceptor molecule, acceptor atom, score
      L1  H     4    22       P1  7957  0.74
      L1  H     6    37       P1  8028  0.98
      P1  H  7989  7998       L1     4  0.07
      P1  H  8011  8017       L1     4  0.09

> <Gold.Chemscore.Hbond.Weighted>
-6.7471

> <Gold.Chemscore.Metal.Weighted>
-0.0000

> <Gold.Chemscore.Lipo.Weighted>
-10.8776

> <Gold.Chemscore.Internal_Hbond.Weighted>
0.0000

> <Gold.Chemscore.DEClash.Weighted>
0.0916

> <Gold.Chemscore.DEInternal.Weighted>
0.3784

> <Gold.Chemscore.Rot.Weighted>
6.1667

> <Gold.Chemscore.Internal.Correction.Weighted>
   9.000000E+99

> <Gold.Protein.RotatedTorsions>
[ 6907 6896 6895 6894 ] final -102.77 input  -60.11 | X-H torsion
[ 7974 7965 7964 7962 ] final   43.78 input  175.53 | X-H torsion
[ 8008 7997 7996 7995 ] final  163.85 input   59.86 | X-H torsion
[ 10167 10162 10161 10158 ] final  164.27 input  -65.29 | X-H torsion
[ 10718 10713 10712 10709 ] final -115.07 input   66.30 | X-H torsion
[ 10763 10752 10751 10750 ] final  -55.52 input  -60.55 | X-H torsion
[ 11005 11000 10999 10996 ] final  -81.21 input  -57.11 | X-H torsion

> <Gold.Protein.ActiveResidues>
 VAL166  LYS551  ARG553  GLY616  TRP617  ASP618  TYR619  PRO620  LYS621  CYS622 
 ASP623  PHE694  ASN695  SER759  ASP760  ASP761  ALA762  ILE779  LEU786  VAL792 
 PHE793  MET794  SER795  GLU796  ALA797  LYS798  CYS799  TRP800  GLU811  SER814 

> <Gold.Protein.RotatedAtoms>
  150.7211  134.0530  159.3804 H   0  0  0  0  0  0  0  0  0  0  0  0  # atno 6907 bound_to 6896
  151.8508  135.0556  160.0468 H   0  0  0  0  0  0  0  0  0  0  0  0  # atno 6908 bound_to 6896
  152.2792  133.5418  159.5523 H   0  0  0  0  0  0  0  0  0  0  0  0  # atno 6909 bound_to 6896
  146.0625  139.5148  142.9649 H   0  0  0  0  0  0  0  0  0  0  0  0  # atno 7974 bound_to 7965
  156.1926  140.1712  156.8062 H   0  0  0  0  0  0  0  0  0  0  0  0  # atno 8008 bound_to 7997
  154.5489  140.0721  156.8667 H   0  0  0  0  0  0  0  0  0  0  0  0  # atno 8009 bound_to 7997
  155.3067  140.3365  155.4248 H   0  0  0  0  0  0  0  0  0  0  0  0  # atno 8010 bound_to 7997
  139.4886  144.4252  151.9138 H   0  0  0  0  0  0  0  0  0  0  0  0  # atno 10167 bound_to 10162
  156.0871  130.6061  150.8858 H   0  0  0  0  0  0  0  0  0  0  0  0  # atno 10718 bound_to 10713
  154.1921  135.6425  153.5063 H   0  0  0  0  0  0  0  0  0  0  0  0  # atno 10763 bound_to 10752
  153.0032  135.5431  154.6404 H   0  0  0  0  0  0  0  0  0  0  0  0  # atno 10764 bound_to 10752
  154.5796  135.2924  155.0719 H   0  0  0  0  0  0  0  0  0  0  0  0  # atno 10765 bound_to 10752
  141.1667  133.7186  156.8388 H   0  0  0  0  0  0  0  0  0  0  0  0  # atno 11005 bound_to 11000
  145.6534  141.0257  143.1748 LP  0  0  0  0  0  0  0  0  0  0  0  0  # atno 17320 bound_to 7965
  144.7183  139.8118  143.7391 LP  0  0  0  0  0  0  0  0  0  0  0  0  # atno 17321 bound_to 7965
  140.3698  144.2870  150.5921 LP  0  0  0  0  0  0  0  0  0  0  0  0  # atno 17342 bound_to 10162
  140.5329  143.2239  151.8209 LP  0  0  0  0  0  0  0  0  0  0  0  0  # atno 17343 bound_to 10162
  157.6009  131.0941  150.8961 LP  0  0  0  0  0  0  0  0  0  0  0  0  # atno 17370 bound_to 10713
  156.9119  130.5284  149.5280 LP  0  0  0  0  0  0  0  0  0  0  0  0  # atno 17371 bound_to 10713
  140.1998  134.8905  157.3156 LP  0  0  0  0  0  0  0  0  0  0  0  0  # atno 17394 bound_to 11000
  140.2200  134.4035  155.7570 LP  0  0  0  0  0  0  0  0  0  0  0  0  # atno 17395 bound_to 11000

$$$$
