AV-unprocessed.smi:1950|AV-procd|sdf|7880|dock1
  -GOLD-   2272010 33D 1   1.00000     0.00000
 Structure written by MMmdl.
 32 33  0  0  0  0  0  0  0  0  2 V2000
  152.2005  143.9102  161.6905 C   0  0  0  0  0  0  0  0  0  0  0  0
  152.1459  144.6075  160.3294 C   0  0  0  0  0  0  0  0  0  0  0  0
  151.8371  145.7992  160.3032 O   0  0  0  0  0  0  0  0  0  0  0  0
  152.4359  143.9008  159.2103 N   0  0  0  0  0  0  0  0  0  0  0  0
  152.7398  142.4650  159.2342 C   0  0  0  0  0  0  0  0  0  0  0  0
  151.5787  141.6972  158.5766 C   0  0  0  0  0  0  0  0  0  0  0  0
  151.3065  142.2068  157.1454 C   0  0  0  0  0  0  0  0  0  0  0  0
  150.0948  141.5800  156.6237 N   0  0  0  0  0  0  0  0  0  0  0  0
  150.0303  140.7121  155.6034 C   0  0  0  0  0  0  0  0  0  0  0  0
  151.0594  140.3814  155.0098 O   0  0  0  0  0  0  0  0  0  0  0  0
  148.7769  140.2805  155.3341 N   0  5  0  0  0  0  0  0  0  0  0  0
  147.8073  141.1661  155.0510 C   0  0  0  0  0  0  0  0  0  0  0  0
  147.2745  141.9700  155.9851 N   0  0  0  0  0  0  0  0  0  0  0  0
  146.2838  142.8051  155.4865 N   0  0  0  0  0  0  0  0  0  0  0  0
  146.0891  142.6038  154.1836 C   0  0  0  0  0  0  0  0  0  0  0  0
  147.0941  141.3728  153.4487 S   0  0  0  0  0  0  0  0  0  0  0  0
  151.1836  143.7475  157.1129 C   0  0  0  0  0  0  0  0  0  0  0  0
  152.3653  144.4164  157.8371 C   0  0  0  0  0  0  0  0  0  0  0  0
  153.1938  143.5010  161.8769 H   0  0  0  0  0  0  0  0  0  0  0  0
  151.4685  143.1037  161.7405 H   0  0  0  0  0  0  0  0  0  0  0  0
  151.9754  144.6144  162.4921 H   0  0  0  0  0  0  0  0  0  0  0  0
  153.6666  142.2828  158.6883 H   0  0  0  0  0  0  0  0  0  0  0  0
  152.9099  142.0851  160.2424 H   0  0  0  0  0  0  0  0  0  0  0  0
  151.8021  140.6299  158.5570 H   0  0  0  0  0  0  0  0  0  0  0  0
  150.6825  141.8143  159.1882 H   0  0  0  0  0  0  0  0  0  0  0  0
  152.1558  141.9146  156.5250 H   0  0  0  0  0  0  0  0  0  0  0  0
  149.2263  141.8225  157.0772 H   0  0  0  0  0  0  0  0  0  0  0  0
  145.3466  143.1809  153.6532 H   0  0  0  0  0  0  0  0  0  0  0  0
  151.1345  144.0998  156.0820 H   0  0  0  0  0  0  0  0  0  0  0  0
  150.2509  144.0547  157.5886 H   0  0  0  0  0  0  0  0  0  0  0  0
  152.2675  145.4994  157.7802 H   0  0  0  0  0  0  0  0  0  0  0  0
  153.2967  144.1823  157.3197 H   0  0  0  0  0  0  0  0  0  0  0  0
  1  2  1  0  0  0  0
  1 19  1  0  0  0  0
  1 20  1  0  0  0  0
  1 21  1  0  0  0  0
  2  3  2  0  0  0  0
  2  4  1  0  0  0  0
  4 18  1  0  0  0  0
  4  5  1  0  0  0  0
  5  6  1  0  0  0  0
  5 22  1  0  0  0  0
  5 23  1  0  0  0  0
  6  7  1  0  0  0  0
  6 24  1  0  0  0  0
  6 25  1  0  0  0  0
  7  8  1  0  0  0  0
  7 17  1  0  0  0  0
  7 26  1  0  0  0  0
  8  9  1  0  0  0  0
  8 27  1  0  0  0  0
  9 10  2  0  0  0  0
  9 11  1  0  0  0  0
 11 12  1  0  0  0  0
 12 16  1  0  0  0  0
 12 13  2  0  0  0  0
 13 14  1  0  0  0  0
 14 15  2  0  0  0  0
 15 16  1  0  0  0  0
 15 28  1  0  0  0  0
 17 18  1  0  0  0  0
 17 29  1  0  0  0  0
 17 30  1  0  0  0  0
 18 31  1  0  0  0  0
 18 32  1  0  0  0  0
M  CHG  1  11  -1
M  END
> <s_m_source_file>
AV-unprocessed.smi

> <i_m_source_file_index>
1950

> <i_lp_mmshare_version>
43012

> <i_f3d_flags>
0

> <s_epik_input>
W0NIM11DKD1PKU4xW0NIMl1bQ0gyXVtDSF0oW0NIMl1bQ0gyXTEpW05IXUMoPU8pW05IXWMybm5bY0hdczI=

> <s_epik_cmdline>
J2VwaWtfcHl0aG9uJywgJy1waCcsICc3LjAnLCAnLXRuJywgJzgnLCAnLW1hJywgJzIwMCcsICctbWV0YWxfYmluZGluZycsICctaW1hZScsICc8aW5maWxlLm1hZT4nLCAnLW9tYWUnLCAnPG91dGZpbGUubWFlPic=

> <r_lp_tautomer_probability>
1

> <r_epik_Ionization_Penalty>
3.45176

> <r_epik_Ionization_Penalty_Charging>
3.40771

> <r_epik_Ionization_Penalty_Neutral>
0.0440522

> <r_epik_State_Penalty>
3.40583

> <r_epik_Charging_Adjusted_Penalty>
6.81354

> <i_epik_Tot_Q>
-1

> <i_epik_Tot_abs_Q>
1

> <r_epik_Metal_State_Penalty>
0.49593

> <b_epik_Metal_Only>
1

> <s_lp_Force_Field>
OPLS_2005

> <r_lp_Energy>
20.3266

> <b_lp_Chiralities_Consistent>
1

> <s_lp_Variant>
AV-unprocessed.smi:1950-2

> <Gold.Version>
5.8.1

> <Gold.Id.Protein>
6NUR|6NUR_protein|mol2

> <Gold.PLP.Fitness>
38.7300

> <Gold.PLP.PLP>
-38.1534

> <Gold.PLP.part.hbond>
-1.0000

> <Gold.PLP.part.metal>
0.0000

> <Gold.PLP.part.buried>
-4.1064

> <Gold.PLP.part.nonpolar>
-33.4336

> <Gold.PLP.part.repulsive>
0.6836

> <Gold.PLP.ligand.clash>
0.0000

> <Gold.PLP.ligand.torsion>
1.2291

> <Gold.PLP.Chemscore.Hbond>
1.0000

> <Gold.PLP.Chemscore.CHOScore>
0.0000

> <Gold.PLP.Chemscore.Metal>
0.0000

> <Gold.Chemscore.Hbonds>
donor molecule, donor type, donor heavy atom, donor atom, acceptor molecule, acceptor atom, score
      P1  H  7989  7998       L1    10  1.00

> <Gold.PLP.Chemscore.Internal.Correction>
0.0348

> <Gold.Rescore>
     Score         DG    S(hbond)    S(metal)    S(lipo)     H(rot)  DE(clash)    DE(int)     intcor
     13.43     -15.71       0.99        0.00      81.15       1.00       0.90       1.37       ----

> <Gold.Chemscore.Fitness>
13.4307

> <Gold.Chemscore.DG>
-15.7052

> <Gold.Chemscore.ZeroCoef>
-5.4800

> <Gold.Chemscore.Hbond>
0.9854

> <Gold.Chemscore.Metal>
0.0000

> <Gold.Chemscore.Lipo>
81.1455

> <Gold.Chemscore.Internal_Hbond>
0.0000

> <Gold.Chemscore.DEClash>
0.9044

> <Gold.Chemscore.DEInternal>
1.3701

> <Gold.Chemscore.Rot>
1.0000

> <Gold.Chemscore.Internal.Correction>
   9.000000E+99

> <Gold.Chemscore.Hbonds>
donor molecule, donor type, donor heavy atom, donor atom, acceptor molecule, acceptor atom, score
      P1  H  7989  7998       L1    10  0.98

> <Gold.Chemscore.Hbond.Weighted>
-3.2912

> <Gold.Chemscore.Metal.Weighted>
-0.0000

> <Gold.Chemscore.Lipo.Weighted>
-9.4940

> <Gold.Chemscore.Internal_Hbond.Weighted>
0.0000

> <Gold.Chemscore.DEClash.Weighted>
0.9044

> <Gold.Chemscore.DEInternal.Weighted>
1.3701

> <Gold.Chemscore.Rot.Weighted>
2.5600

> <Gold.Chemscore.Internal.Correction.Weighted>
   9.000000E+99

> <Gold.Protein.RotatedTorsions>
[ 6907 6896 6895 6894 ] final   93.28 input  -60.11 | X-H torsion
[ 7974 7965 7964 7962 ] final -169.60 input  175.53 | X-H torsion
[ 8008 7997 7996 7995 ] final -142.38 input   59.86 | X-H torsion
[ 10167 10162 10161 10158 ] final  155.95 input  -65.29 | X-H torsion
[ 10718 10713 10712 10709 ] final  173.40 input   66.30 | X-H torsion
[ 10763 10752 10751 10750 ] final   92.61 input  -60.55 | X-H torsion
[ 11005 11000 10999 10996 ] final   15.69 input  -57.11 | X-H torsion

> <Gold.Protein.ActiveResidues>
 VAL166  LYS551  ARG553  GLY616  TRP617  ASP618  TYR619  PRO620  LYS621  CYS622 
 ASP623  PHE694  ASN695  SER759  ASP760  ASP761  ALA762  ILE779  LEU786  VAL792 
 PHE793  MET794  SER795  GLU796  ALA797  LYS798  CYS799  TRP800  GLU811  SER814 

> <Gold.Protein.RotatedAtoms>
  152.5452  134.1373  159.8463 H   0  0  0  0  0  0  0  0  0  0  0  0  # atno 6907 bound_to 6896
  151.1412  133.4963  159.2604 H   0  0  0  0  0  0  0  0  0  0  0  0  # atno 6908 bound_to 6896
  151.1571  135.0265  159.8748 H   0  0  0  0  0  0  0  0  0  0  0  0  # atno 6909 bound_to 6896
  144.7183  140.2198  143.6317 H   0  0  0  0  0  0  0  0  0  0  0  0  # atno 7974 bound_to 7965
  155.4933  140.0569  157.2950 H   0  0  0  0  0  0  0  0  0  0  0  0  # atno 8008 bound_to 7997
  154.4615  140.1998  156.0184 H   0  0  0  0  0  0  0  0  0  0  0  0  # atno 8009 bound_to 7997
  156.0898  140.3235  155.7805 H   0  0  0  0  0  0  0  0  0  0  0  0  # atno 8010 bound_to 7997
  139.4821  144.5053  151.8107 H   0  0  0  0  0  0  0  0  0  0  0  0  # atno 10167 bound_to 10162
  156.9648  131.0072  151.2919 H   0  0  0  0  0  0  0  0  0  0  0  0  # atno 10718 bound_to 10713
  153.2211  135.4355  155.0490 H   0  0  0  0  0  0  0  0  0  0  0  0  # atno 10763 bound_to 10752
  154.8250  135.3356  154.6926 H   0  0  0  0  0  0  0  0  0  0  0  0  # atno 10764 bound_to 10752
  153.7358  135.7008  153.5034 H   0  0  0  0  0  0  0  0  0  0  0  0  # atno 10765 bound_to 10752
  140.4555  134.1181  155.7708 H   0  0  0  0  0  0  0  0  0  0  0  0  # atno 11005 bound_to 11000
  145.8512  139.2176  143.1771 LP  0  0  0  0  0  0  0  0  0  0  0  0  # atno 17320 bound_to 7965
  146.0259  140.8304  142.9900 LP  0  0  0  0  0  0  0  0  0  0  0  0  # atno 17321 bound_to 7965
  140.4550  144.1802  150.5900 LP  0  0  0  0  0  0  0  0  0  0  0  0  # atno 17342 bound_to 10162
  140.4545  143.2473  151.9303 LP  0  0  0  0  0  0  0  0  0  0  0  0  # atno 17343 bound_to 10162
  157.5633  130.8260  149.8294 LP  0  0  0  0  0  0  0  0  0  0  0  0  # atno 17370 bound_to 10713
  156.0307  130.3765  150.1696 LP  0  0  0  0  0  0  0  0  0  0  0  0  # atno 17371 bound_to 10713
  141.1645  133.8729  157.1754 LP  0  0  0  0  0  0  0  0  0  0  0  0  # atno 17394 bound_to 11000
  139.9979  135.0039  157.0124 LP  0  0  0  0  0  0  0  0  0  0  0  0  # atno 17395 bound_to 11000

$$$$
