AV-unprocessed.smi:3241|AV-procd|sdf|12388|dock6
  -GOLD-   2272018253D 1   1.00000     0.00000
 Structure written by MMmdl.
 44 45  0  0  0  0  0  0  0  0  2 V2000
  153.1875  140.8336  159.8323 C   0  0  0  0  0  0  0  0  0  0  0  0
  152.2680  142.0558  159.9916 C   0  0  1  0  0  0  0  0  0  0  0  0
  152.8514  143.0443  161.0214 C   0  0  0  0  0  0  0  0  0  0  0  0
  151.9574  144.2815  161.1948 C   0  0  0  0  0  0  0  0  0  0  0  0
  151.7202  144.9827  159.8503 C   0  0  0  0  0  0  0  0  0  0  0  0
  151.1275  144.0102  158.8202 C   0  0  0  0  0  0  0  0  0  0  0  0
  152.0170  142.7621  158.6400 C   0  0  2  0  0  0  0  0  0  0  0  0
  151.3642  141.8377  157.7784 O   0  0  0  0  0  0  0  0  0  0  0  0
  151.0252  142.3620  156.5033 C   0  0  0  0  0  0  0  0  0  0  0  0
  149.9679  141.4531  155.8687 C   0  0  0  0  0  0  0  0  0  0  0  0
  149.0065  142.2406  155.0732 N   0  3  0  0  0  0  0  0  0  0  0  0
  147.6798  141.6091  154.9266 C   0  0  0  0  0  0  0  0  0  0  0  0
  146.7972  142.3720  153.9259 C   0  0  0  0  0  0  0  0  0  0  0  0
  145.7362  143.1141  154.5827 N   0  0  0  0  0  0  0  0  0  0  0  0
  144.6797  143.7888  154.0083 C   0  0  0  0  0  0  0  0  0  0  0  0
  143.9408  144.3253  155.0236 C   0  0  0  0  0  0  0  0  0  0  0  0
  144.6345  143.9206  156.1979 C   0  0  0  0  0  0  0  0  0  0  0  0
  145.7071  143.1927  155.9308 N   0  0  0  0  0  0  0  0  0  0  0  0
  154.1591  141.1188  159.4279 H   0  0  0  0  0  0  0  0  0  0  0  0
  152.7526  140.0927  159.1611 H   0  0  0  0  0  0  0  0  0  0  0  0
  153.3580  140.3433  160.7912 H   0  0  0  0  0  0  0  0  0  0  0  0
  151.3095  141.7021  160.3745 H   0  0  0  0  0  0  0  0  0  0  0  0
  152.9760  142.5486  161.9848 H   0  0  0  0  0  0  0  0  0  0  0  0
  153.8472  143.3598  160.7065 H   0  0  0  0  0  0  0  0  0  0  0  0
  151.0012  143.9849  161.6277 H   0  0  0  0  0  0  0  0  0  0  0  0
  152.4149  144.9756  161.9005 H   0  0  0  0  0  0  0  0  0  0  0  0
  151.0511  145.8326  159.9876 H   0  0  0  0  0  0  0  0  0  0  0  0
  152.6615  145.3866  159.4751 H   0  0  0  0  0  0  0  0  0  0  0  0
  150.1313  143.7056  159.1435 H   0  0  0  0  0  0  0  0  0  0  0  0
  150.9975  144.5294  157.8709 H   0  0  0  0  0  0  0  0  0  0  0  0
  152.9819  143.0561  158.2217 H   0  0  0  0  0  0  0  0  0  0  0  0
  150.6260  143.3715  156.6027 H   0  0  0  0  0  0  0  0  0  0  0  0
  151.9073  142.4195  155.8636 H   0  0  0  0  0  0  0  0  0  0  0  0
  150.4446  140.7020  155.2375 H   0  0  0  0  0  0  0  0  0  0  0  0
  149.4267  140.9210  156.6521 H   0  0  0  0  0  0  0  0  0  0  0  0
  148.8827  143.1417  155.5136 H   0  0  0  0  0  0  0  0  0  0  0  0
  147.8149  140.5827  154.5833 H   0  0  0  0  0  0  0  0  0  0  0  0
  147.1882  141.5590  155.8993 H   0  0  0  0  0  0  0  0  0  0  0  0
  147.3972  143.0591  153.3269 H   0  0  0  0  0  0  0  0  0  0  0  0
  146.3384  141.6705  153.2284 H   0  0  0  0  0  0  0  0  0  0  0  0
  144.5426  143.8301  152.9376 H   0  0  0  0  0  0  0  0  0  0  0  0
  143.0421  144.9184  154.9405 H   0  0  0  0  0  0  0  0  0  0  0  0
  144.3915  144.1311  157.2290 H   0  0  0  0  0  0  0  0  0  0  0  0
  149.3971  142.3863  154.1530 H   0  0  0  0  0  0  0  0  0  0  0  0
  1  2  1  0  0  0  0
  1 19  1  0  0  0  0
  1 20  1  0  0  0  0
  1 21  1  0  0  0  0
  2  7  1  0  0  0  0
  2  3  1  0  0  0  0
  2 22  1  0  0  0  0
  3  4  1  0  0  0  0
  3 23  1  0  0  0  0
  3 24  1  0  0  0  0
  4  5  1  0  0  0  0
  4 25  1  0  0  0  0
  4 26  1  0  0  0  0
  5  6  1  0  0  0  0
  5 27  1  0  0  0  0
  5 28  1  0  0  0  0
  6  7  1  0  0  0  0
  6 29  1  0  0  0  0
  6 30  1  0  0  0  0
  7  8  1  0  0  0  0
  7 31  1  0  0  0  0
  8  9  1  0  0  0  0
  9 10  1  0  0  0  0
  9 32  1  0  0  0  0
  9 33  1  0  0  0  0
 10 11  1  0  0  0  0
 10 34  1  0  0  0  0
 10 35  1  0  0  0  0
 11 12  1  0  0  0  0
 11 36  1  0  0  0  0
 11 44  1  0  0  0  0
 12 13  1  0  0  0  0
 12 37  1  0  0  0  0
 12 38  1  0  0  0  0
 13 14  1  0  0  0  0
 13 39  1  0  0  0  0
 13 40  1  0  0  0  0
 14 18  1  0  0  0  0
 14 15  1  0  0  0  0
 15 16  2  0  0  0  0
 15 41  1  0  0  0  0
 16 17  1  0  0  0  0
 16 42  1  0  0  0  0
 17 18  2  0  0  0  0
 17 43  1  0  0  0  0
M  CHG  1  11   1
M  END
> <s_m_source_file>
AV-unprocessed.smi

> <i_m_source_file_index>
3241

> <i_lp_mmshare_version>
43012

> <i_f3d_flags>
0

> <s_epik_input>
W0NIM11bQ0BASF0xW0NIMl1bQ0gyXVtDSDJdW0NIMl1bQ0BIXTFPW0NIMl1bQ0gyXVtOSF1bQ0gyXVtDSDJdbjJbY0hdW2NIXVtjSF1uMg==

> <s_epik_cmdline>
J2VwaWtfcHl0aG9uJywgJy1waCcsICc3LjAnLCAnLXRuJywgJzgnLCAnLW1hJywgJzIwMCcsICctbWV0YWxfYmluZGluZycsICctaW1hZScsICc8aW5maWxlLm1hZT4nLCAnLW9tYWUnLCAnPG91dGZpbGUubWFlPic=

> <r_lp_tautomer_probability>
1

> <r_epik_Ionization_Penalty>
0.00924946

> <r_epik_Ionization_Penalty_Charging>
0.00924645

> <r_epik_Ionization_Penalty_Neutral>
3.00629e-06

> <r_epik_State_Penalty>
0.0070118

> <r_epik_Charging_Adjusted_Penalty>
0.0162583

> <i_epik_Tot_Q>
1

> <i_epik_Tot_abs_Q>
1

> <r_epik_Metal_State_Penalty>
0.00702523

> <b_epik_Metal_Only>
0

> <s_lp_Force_Field>
OPLS_2005

> <r_lp_Energy>
14.0519

> <b_lp_Chiralities_Consistent>
1

> <s_lp_Variant>
AV-unprocessed.smi:3241-4

> <Gold.Version>
5.8.1

> <Gold.Id.Protein>
6NUR|6NUR_protein|mol2

> <Gold.PLP.Fitness>
50.0283

> <Gold.PLP.PLP>
-43.2882

> <Gold.PLP.part.hbond>
-0.9707

> <Gold.PLP.part.metal>
0.0000

> <Gold.PLP.part.buried>
-6.3305

> <Gold.PLP.part.nonpolar>
-36.6845

> <Gold.PLP.part.repulsive>
0.3927

> <Gold.PLP.ligand.clash>
0.0000

> <Gold.PLP.ligand.torsion>
0.8657

> <Gold.PLP.Chemscore.Hbond>
2.0000

> <Gold.PLP.Chemscore.CHOScore>
0.7811

> <Gold.PLP.Chemscore.Metal>
0.0000

> <Gold.Chemscore.Hbonds>
donor molecule, donor type, donor heavy atom, donor atom, acceptor molecule, acceptor atom, score
      L1  H    11    36       P1  8028  2.00
      L1  C    15    41       P1 10174  0.59

> <Gold.PLP.Chemscore.Internal.Correction>
0.1282

> <Gold.Rescore>
     Score         DG    S(hbond)    S(metal)    S(lipo)     H(rot)  DE(clash)    DE(int)     intcor
     17.43     -18.34       1.00        0.00     122.78       1.89       0.15       0.76       ----

> <Gold.Chemscore.Fitness>
17.4292

> <Gold.Chemscore.DG>
-18.3365

> <Gold.Chemscore.ZeroCoef>
-5.4800

> <Gold.Chemscore.Hbond>
0.9975

> <Gold.Chemscore.Metal>
0.0000

> <Gold.Chemscore.Lipo>
122.7758

> <Gold.Chemscore.Internal_Hbond>
0.0000

> <Gold.Chemscore.DEClash>
0.1474

> <Gold.Chemscore.DEInternal>
0.7599

> <Gold.Chemscore.Rot>
1.8906

> <Gold.Chemscore.Internal.Correction>
   9.000000E+99

> <Gold.Chemscore.Hbonds>
donor molecule, donor type, donor heavy atom, donor atom, acceptor molecule, acceptor atom, score
      L1  H    11    36       P1  8028  0.97

> <Gold.Chemscore.Hbond.Weighted>
-3.3318

> <Gold.Chemscore.Metal.Weighted>
-0.0000

> <Gold.Chemscore.Lipo.Weighted>
-14.3648

> <Gold.Chemscore.Internal_Hbond.Weighted>
0.0000

> <Gold.Chemscore.DEClash.Weighted>
0.1474

> <Gold.Chemscore.DEInternal.Weighted>
0.7599

> <Gold.Chemscore.Rot.Weighted>
4.8400

> <Gold.Chemscore.Internal.Correction.Weighted>
   9.000000E+99

> <Gold.Protein.RotatedTorsions>
[ 6907 6896 6895 6894 ] final  172.24 input  -60.11 | X-H torsion
[ 7974 7965 7964 7962 ] final  105.61 input  175.53 | X-H torsion
[ 8008 7997 7996 7995 ] final   59.93 input   59.86 | X-H torsion
[ 10167 10162 10161 10158 ] final  168.24 input  -65.29 | X-H torsion
[ 10718 10713 10712 10709 ] final  -61.40 input   66.30 | X-H torsion
[ 10763 10752 10751 10750 ] final  169.20 input  -60.55 | X-H torsion
[ 11005 11000 10999 10996 ] final   15.29 input  -57.11 | X-H torsion

> <Gold.Protein.ActiveResidues>
 VAL166  LYS551  ARG553  GLY616  TRP617  ASP618  TYR619  PRO620  LYS621  CYS622 
 ASP623  PHE694  ASN695  SER759  ASP760  ASP761  ALA762  ILE779  LEU786  VAL792 
 PHE793  MET794  SER795  GLU796  ALA797  LYS798  CYS799  TRP800  GLU811  SER814 

> <Gold.Protein.RotatedAtoms>
  151.7875  133.3356  159.3489 H   0  0  0  0  0  0  0  0  0  0  0  0  # atno 6907 bound_to 6896
  150.7404  134.5874  159.5979 H   0  0  0  0  0  0  0  0  0  0  0  0  # atno 6908 bound_to 6896
  152.3233  134.7354  160.0359 H   0  0  0  0  0  0  0  0  0  0  0  0  # atno 6909 bound_to 6896
  145.3175  139.2522  143.3730 H   0  0  0  0  0  0  0  0  0  0  0  0  # atno 7974 bound_to 7965
  155.5741  140.3490  155.4523 H   0  0  0  0  0  0  0  0  0  0  0  0  # atno 8008 bound_to 7997
  156.0422  140.1298  157.0168 H   0  0  0  0  0  0  0  0  0  0  0  0  # atno 8009 bound_to 7997
  154.4397  140.1021  156.6239 H   0  0  0  0  0  0  0  0  0  0  0  0  # atno 8010 bound_to 7997
  139.4963  144.3835  151.9596 H   0  0  0  0  0  0  0  0  0  0  0  0  # atno 10167 bound_to 10162
  156.0924  130.4198  150.0988 H   0  0  0  0  0  0  0  0  0  0  0  0  # atno 10718 bound_to 10713
  154.3797  135.2753  155.2218 H   0  0  0  0  0  0  0  0  0  0  0  0  # atno 10763 bound_to 10752
  154.4331  135.5972  153.6084 H   0  0  0  0  0  0  0  0  0  0  0  0  # atno 10764 bound_to 10752
  152.9835  135.6000  154.4038 H   0  0  0  0  0  0  0  0  0  0  0  0  # atno 10765 bound_to 10752
  140.4600  134.1137  155.7715 H   0  0  0  0  0  0  0  0  0  0  0  0  # atno 11005 bound_to 11000
  146.3095  140.3725  142.8675 LP  0  0  0  0  0  0  0  0  0  0  0  0  # atno 17320 bound_to 7965
  144.8966  140.7591  143.5893 LP  0  0  0  0  0  0  0  0  0  0  0  0  # atno 17321 bound_to 7965
  140.3272  144.3359  150.5995 LP  0  0  0  0  0  0  0  0  0  0  0  0  # atno 17342 bound_to 10162
  140.5675  143.2184  151.7658 LP  0  0  0  0  0  0  0  0  0  0  0  0  # atno 17343 bound_to 10162
  156.8995  130.9615  151.3578 LP  0  0  0  0  0  0  0  0  0  0  0  0  # atno 17370 bound_to 10713
  157.6077  130.8559  149.8902 LP  0  0  0  0  0  0  0  0  0  0  0  0  # atno 17371 bound_to 10713
  141.1626  133.8765  157.1806 LP  0  0  0  0  0  0  0  0  0  0  0  0  # atno 17394 bound_to 11000
  139.9952  135.0049  157.0065 LP  0  0  0  0  0  0  0  0  0  0  0  0  # atno 17395 bound_to 11000

$$$$
