AV-unprocessed.smi:1627|AV-procd|sdf|6516|dock5
  -GOLD-   22720 7183D 1   1.00000     0.00000
 Structure written by MMmdl.
 43 44  0  0  0  0  0  0  0  0  1 V2000
  154.5210  133.6284  161.1129 C   0  0  0  0  0  0  0  0  0  0  0  0
  155.0205  134.9008  161.8128 C   0  0  2  0  0  0  0  0  0  0  0  0
  154.6375  134.8130  163.1830 O   0  0  0  0  0  0  0  0  0  0  0  0
  155.3945  133.9032  163.9752 C   0  0  0  0  0  0  0  0  0  0  0  0
  154.4377  133.0200  164.7851 C   0  0  0  0  0  0  0  0  0  0  0  0
  153.7271  133.7851  165.6131 F   0  0  0  0  0  0  0  0  0  0  0  0
  153.6005  132.3801  163.9691 F   0  0  0  0  0  0  0  0  0  0  0  0
  155.1256  132.1346  165.5057 F   0  0  0  0  0  0  0  0  0  0  0  0
  154.4211  136.1624  161.1701 C   0  0  0  0  0  0  0  0  0  0  0  0
  153.5866  136.0500  160.2724 O   0  0  0  0  0  0  0  0  0  0  0  0
  154.8730  137.3355  161.6506 N   0  0  0  0  0  0  0  0  0  0  0  0
  154.4763  138.6505  161.2872 C   0  0  0  0  0  0  0  0  0  0  0  0
  154.7730  139.7033  162.1760 C   0  0  0  0  0  0  0  0  0  0  0  0
  154.3654  141.0112  161.8523 C   0  0  0  0  0  0  0  0  0  0  0  0
  153.6631  141.2235  160.6484 C   0  0  0  0  0  0  0  0  0  0  0  0
  153.2504  142.5224  160.3194 N   0  0  0  0  0  0  0  0  0  0  0  0
  152.5131  143.1803  161.3956 C   0  0  0  0  0  0  0  0  0  0  0  0
  152.2698  144.6630  161.0645 C   0  0  0  0  0  0  0  0  0  0  0  0
  151.5751  144.8142  159.7015 C   0  0  0  0  0  0  0  0  0  0  0  0
  152.3731  144.0779  158.6134 C   0  0  0  0  0  0  0  0  0  0  0  0
  152.6139  142.6102  159.0073 C   0  0  0  0  0  0  0  0  0  0  0  0
  153.3606  140.2176  159.7944 N   0  0  0  0  0  0  0  0  0  0  0  0
  153.7548  138.9655  160.1101 C   0  0  0  0  0  0  0  0  0  0  0  0
  154.7657  133.6383  160.0502 H   0  0  0  0  0  0  0  0  0  0  0  0
  153.4403  133.5148  161.2077 H   0  0  0  0  0  0  0  0  0  0  0  0
  154.9830  132.7423  161.5486 H   0  0  0  0  0  0  0  0  0  0  0  0
  156.1097  134.9265  161.7425 H   0  0  0  0  0  0  0  0  0  0  0  0
  156.0166  133.2801  163.3312 H   0  0  0  0  0  0  0  0  0  0  0  0
  156.0608  134.4348  164.6556 H   0  0  0  0  0  0  0  0  0  0  0  0
  155.6279  137.2788  162.3188 H   0  0  0  0  0  0  0  0  0  0  0  0
  155.3086  139.5150  163.0950 H   0  0  0  0  0  0  0  0  0  0  0  0
  154.5858  141.8335  162.5175 H   0  0  0  0  0  0  0  0  0  0  0  0
  151.5585  142.6737  161.5459 H   0  0  0  0  0  0  0  0  0  0  0  0
  153.0707  143.0952  162.3292 H   0  0  0  0  0  0  0  0  0  0  0  0
  151.6678  145.1263  161.8465 H   0  0  0  0  0  0  0  0  0  0  0  0
  153.2224  145.1942  161.0495 H   0  0  0  0  0  0  0  0  0  0  0  0
  150.5662  144.4037  159.7568 H   0  0  0  0  0  0  0  0  0  0  0  0
  151.4709  145.8689  159.4456 H   0  0  0  0  0  0  0  0  0  0  0  0
  151.8441  144.1272  157.6612 H   0  0  0  0  0  0  0  0  0  0  0  0
  153.3313  144.5770  158.4630 H   0  0  0  0  0  0  0  0  0  0  0  0
  153.2418  142.1236  158.2597 H   0  0  0  0  0  0  0  0  0  0  0  0
  151.6646  142.0727  159.0259 H   0  0  0  0  0  0  0  0  0  0  0  0
  153.4555  138.2071  159.4038 H   0  0  0  0  0  0  0  0  0  0  0  0
  1  2  1  0  0  0  0
  1 24  1  0  0  0  0
  1 25  1  0  0  0  0
  1 26  1  0  0  0  0
  2  3  1  0  0  0  0
  2  9  1  0  0  0  0
  2 27  1  0  0  0  0
  3  4  1  0  0  0  0
  4  5  1  0  0  0  0
  4 28  1  0  0  0  0
  4 29  1  0  0  0  0
  5  6  1  0  0  0  0
  5  7  1  0  0  0  0
  5  8  1  0  0  0  0
  9 10  2  0  0  0  0
  9 11  1  0  0  0  0
 11 12  1  0  0  0  0
 11 30  1  0  0  0  0
 12 23  1  0  0  0  0
 12 13  2  0  0  0  0
 13 14  1  0  0  0  0
 13 31  1  0  0  0  0
 14 15  2  0  0  0  0
 14 32  1  0  0  0  0
 15 16  1  0  0  0  0
 15 22  1  0  0  0  0
 16 21  1  0  0  0  0
 16 17  1  0  0  0  0
 17 18  1  0  0  0  0
 17 33  1  0  0  0  0
 17 34  1  0  0  0  0
 18 19  1  0  0  0  0
 18 35  1  0  0  0  0
 18 36  1  0  0  0  0
 19 20  1  0  0  0  0
 19 37  1  0  0  0  0
 19 38  1  0  0  0  0
 20 21  1  0  0  0  0
 20 39  1  0  0  0  0
 20 40  1  0  0  0  0
 21 41  1  0  0  0  0
 21 42  1  0  0  0  0
 22 23  2  0  0  0  0
 23 43  1  0  0  0  0
M  END
> <s_m_source_file>
AV-unprocessed.smi

> <i_m_source_file_index>
1627

> <i_lp_mmshare_version>
43012

> <i_f3d_flags>
0

> <s_epik_input>
RkMoRikoRilbQ0gyXU9bQ0BASF0oW0NIM10pQyg9TylbTkhdYzFbY0hdW2NIXWMobltjSF0xKU4yW0NIMl1bQ0gyXVtDSDJdW0NIMl1bQ0gyXTI=

> <s_epik_cmdline>
J2VwaWtfcHl0aG9uJywgJy1waCcsICc3LjAnLCAnLXRuJywgJzgnLCAnLW1hJywgJzIwMCcsICctbWV0YWxfYmluZGluZycsICctaW1hZScsICc8aW5maWxlLm1hZT4nLCAnLW9tYWUnLCAnPG91dGZpbGUubWFlPic=

> <r_lp_tautomer_probability>
1

> <r_epik_Ionization_Penalty>
0.0254771

> <r_epik_Ionization_Penalty_Charging>
0

> <r_epik_Ionization_Penalty_Neutral>
0.0254771

> <r_epik_State_Penalty>
0.0187406

> <r_epik_Charging_Adjusted_Penalty>
0.0187406

> <i_epik_Tot_Q>
0

> <i_epik_Tot_abs_Q>
0

> <r_epik_Metal_State_Penalty>
0.017939

> <b_epik_Metal_Only>
0

> <s_lp_Force_Field>
OPLS_2005

> <r_lp_Energy>
26.2479

> <b_lp_Chiralities_Consistent>
1

> <s_lp_Variant>
AV-unprocessed.smi:1627-1

> <Gold.Version>
5.8.1

> <Gold.Id.Protein>
6NUR|6NUR_protein|mol2

> <Gold.PLP.Fitness>
48.4116

> <Gold.PLP.PLP>
-46.5269

> <Gold.PLP.part.hbond>
-1.0000

> <Gold.PLP.part.metal>
0.0000

> <Gold.PLP.part.buried>
-4.6284

> <Gold.PLP.part.nonpolar>
-40.0617

> <Gold.PLP.part.repulsive>
0.0132

> <Gold.PLP.ligand.clash>
0.0000

> <Gold.PLP.ligand.torsion>
0.6561

> <Gold.PLP.Chemscore.Hbond>
1.0000

> <Gold.PLP.Chemscore.CHOScore>
0.0000

> <Gold.PLP.Chemscore.Metal>
0.0000

> <Gold.Chemscore.Hbonds>
donor molecule, donor type, donor heavy atom, donor atom, acceptor molecule, acceptor atom, score
      P1  H  6896  6907       L1    10  1.00

> <Gold.PLP.Chemscore.Internal.Correction>
0.1969

> <Gold.Rescore>
     Score         DG    S(hbond)    S(metal)    S(lipo)     H(rot)  DE(clash)    DE(int)     intcor
     14.80     -16.62       0.99        0.00     107.67       1.87       0.04       1.77       ----

> <Gold.Chemscore.Fitness>
14.8010

> <Gold.Chemscore.DG>
-16.6179

> <Gold.Chemscore.ZeroCoef>
-5.4800

> <Gold.Chemscore.Hbond>
0.9938

> <Gold.Chemscore.Metal>
0.0000

> <Gold.Chemscore.Lipo>
107.6667

> <Gold.Chemscore.Internal_Hbond>
0.0000

> <Gold.Chemscore.DEClash>
0.0439

> <Gold.Chemscore.DEInternal>
1.7730

> <Gold.Chemscore.Rot>
1.8665

> <Gold.Chemscore.Internal.Correction>
   9.000000E+99

> <Gold.Chemscore.Hbonds>
donor molecule, donor type, donor heavy atom, donor atom, acceptor molecule, acceptor atom, score
      P1  H  6896  6907       L1    10  1.00

> <Gold.Chemscore.Hbond.Weighted>
-3.3193

> <Gold.Chemscore.Metal.Weighted>
-0.0000

> <Gold.Chemscore.Lipo.Weighted>
-12.5970

> <Gold.Chemscore.Internal_Hbond.Weighted>
0.0000

> <Gold.Chemscore.DEClash.Weighted>
0.0439

> <Gold.Chemscore.DEInternal.Weighted>
1.7730

> <Gold.Chemscore.Rot.Weighted>
4.7783

> <Gold.Chemscore.Internal.Correction.Weighted>
   9.000000E+99

> <Gold.Protein.RotatedTorsions>
[ 6907 6896 6895 6894 ] final   43.47 input  -60.11 | X-H torsion
[ 7974 7965 7964 7962 ] final -147.35 input  175.53 | X-H torsion
[ 8008 7997 7996 7995 ] final   16.44 input   59.86 | X-H torsion
[ 10167 10162 10161 10158 ] final -167.28 input  -65.29 | X-H torsion
[ 10718 10713 10712 10709 ] final   56.96 input   66.30 | X-H torsion
[ 10763 10752 10751 10750 ] final   57.18 input  -60.55 | X-H torsion
[ 11005 11000 10999 10996 ] final   76.99 input  -57.11 | X-H torsion

> <Gold.Protein.ActiveResidues>
 VAL166  LYS551  ARG553  GLY616  TRP617  ASP618  TYR619  PRO620  LYS621  CYS622 
 ASP623  PHE694  ASN695  SER759  ASP760  ASP761  ALA762  ILE779  LEU786  VAL792 
 PHE793  MET794  SER795  GLU796  ALA797  LYS798  CYS799  TRP800  GLU811  SER814 

> <Gold.Protein.RotatedAtoms>
  152.2207  134.8416  160.0486 H   0  0  0  0  0  0  0  0  0  0  0  0  # atno 6907 bound_to 6896
  151.9200  133.3578  159.3902 H   0  0  0  0  0  0  0  0  0  0  0  0  # atno 6908 bound_to 6896
  150.6999  134.4570  159.5407 H   0  0  0  0  0  0  0  0  0  0  0  0  # atno 6909 bound_to 6896
  144.8099  140.5337  143.5650 H   0  0  0  0  0  0  0  0  0  0  0  0  # atno 7974 bound_to 7965
  154.8770  140.2967  155.5447 H   0  0  0  0  0  0  0  0  0  0  0  0  # atno 8008 bound_to 7997
  156.3022  140.2449  156.3701 H   0  0  0  0  0  0  0  0  0  0  0  0  # atno 8009 bound_to 7997
  154.8757  140.0400  157.1741 H   0  0  0  0  0  0  0  0  0  0  0  0  # atno 8010 bound_to 7997
  139.6060  144.0912  152.1793 H   0  0  0  0  0  0  0  0  0  0  0  0  # atno 10167 bound_to 10162
  157.5475  130.8741  149.8913 H   0  0  0  0  0  0  0  0  0  0  0  0  # atno 10718 bound_to 10713
  152.9845  135.5650  154.5350 H   0  0  0  0  0  0  0  0  0  0  0  0  # atno 10763 bound_to 10752
  154.4814  135.2789  155.1569 H   0  0  0  0  0  0  0  0  0  0  0  0  # atno 10764 bound_to 10752
  154.3076  135.6295  153.5505 H   0  0  0  0  0  0  0  0  0  0  0  0  # atno 10765 bound_to 10752
  139.9274  134.7646  156.1465 H   0  0  0  0  0  0  0  0  0  0  0  0  # atno 11005 bound_to 11000
  145.5349  139.1475  143.3479 LP  0  0  0  0  0  0  0  0  0  0  0  0  # atno 17320 bound_to 7965
  146.2396  140.5489  142.8940 LP  0  0  0  0  0  0  0  0  0  0  0  0  # atno 17321 bound_to 7965
  140.0520  144.5925  150.7329 LP  0  0  0  0  0  0  0  0  0  0  0  0  # atno 17342 bound_to 10162
  140.7285  143.2662  151.4037 LP  0  0  0  0  0  0  0  0  0  0  0  0  # atno 17343 bound_to 10162
  156.0548  130.3710  150.1117 LP  0  0  0  0  0  0  0  0  0  0  0  0  # atno 17370 bound_to 10713
  156.9292  130.9708  151.3536 LP  0  0  0  0  0  0  0  0  0  0  0  0  # atno 17371 bound_to 10713
  141.0841  133.6742  156.2398 LP  0  0  0  0  0  0  0  0  0  0  0  0  # atno 17394 bound_to 11000
  140.6298  134.5276  157.5558 LP  0  0  0  0  0  0  0  0  0  0  0  0  # atno 17395 bound_to 11000

$$$$
