AV-unprocessed.smi:287|AV-procd|sdf|2180|dock1
  -GOLD-   2262021543D 1   1.00000     0.00000
 Structure written by MMmdl.
 55 58  0  0  0  0  0  0  0  0  1 V2000
  156.1986  131.4077  153.9904 C   0  0  0  0  0  0  0  0  0  0  0  0
  155.1894  130.3748  154.3582 C   0  0  0  0  0  0  0  0  0  0  0  0
  153.8255  130.3527  154.3784 C   0  0  0  0  0  0  0  0  0  0  0  0
  153.4263  129.0586  154.8276 C   0  0  0  0  0  0  0  0  0  0  0  0
  151.9925  128.5792  155.0105 C   0  0  2  0  0  0  0  0  0  0  0  0
  151.7460  128.2301  156.4875 C   0  0  0  0  0  0  0  0  0  0  0  0
  151.7137  127.3920  154.2935 O   0  0  0  0  0  0  0  0  0  0  0  0
  150.9555  129.6201  154.5299 C   0  0  0  0  0  0  0  0  0  0  0  0
  150.6894  130.6569  155.5218 N   0  0  0  0  0  0  0  0  0  0  0  0
  149.9660  131.7460  155.1881 C   0  0  0  0  0  0  0  0  0  0  0  0
  150.0662  132.8990  155.9005 N   0  0  0  0  0  0  0  0  0  0  0  0
  149.3412  133.9659  155.5490 C   0  0  0  0  0  0  0  0  0  0  0  0
  148.4754  134.0922  154.5403 N   0  0  0  0  0  0  0  0  0  0  0  0
  148.3729  132.9345  153.8254 C   0  0  0  0  0  0  0  0  0  0  0  0
  149.0775  131.7268  154.0826 C   0  0  0  0  0  0  0  0  0  0  0  0
  148.7175  130.7647  153.1477 N   0  0  0  0  0  0  0  0  0  0  0  0
  147.8492  131.3739  152.3848 C   0  0  0  0  0  0  0  0  0  0  0  0
  147.5797  132.6830  152.7279 N   0  0  0  0  0  0  0  0  0  0  0  0
  146.6526  133.6682  152.0815 C   0  0  1  0  0  0  0  0  0  0  0  0
  146.2943  133.1748  150.8248 O   0  0  0  0  0  0  0  0  0  0  0  0
  144.9844  132.6207  150.8802 C   0  0  2  0  0  0  0  0  0  0  0  0
  144.3826  132.5583  149.4684 C   0  0  0  0  0  0  0  0  0  0  0  0
  143.0957  131.9805  149.5200 O   0  0  0  0  0  0  0  0  0  0  0  0
  144.2846  133.6133  151.8082 C   0  0  1  0  0  0  0  0  0  0  0  0
  143.0622  133.1193  152.3237 O   0  0  0  0  0  0  0  0  0  0  0  0
  145.3415  133.8677  152.8810 C   0  0  1  0  0  0  0  0  0  0  0  0
  145.2016  132.9916  153.9905 O   0  0  0  0  0  0  0  0  0  0  0  0
  154.6043  128.3888  155.0571 C   0  0  0  0  0  0  0  0  0  0  0  0
  154.9408  127.0170  155.5421 C   0  0  0  0  0  0  0  0  0  0  0  0
  155.6772  129.1787  154.7721 O   0  0  0  0  0  0  0  0  0  0  0  0
  147.2467  134.5766  151.9745 H   0  0  0  0  0  0  0  0  0  0  0  0
  145.0092  131.6331  151.3454 H   0  0  0  0  0  0  0  0  0  0  0  0
  144.0920  134.5421  151.2690 H   0  0  0  0  0  0  0  0  0  0  0  0
  145.2916  134.8942  153.2455 H   0  0  0  0  0  0  0  0  0  0  0  0
  155.7198  132.2739  153.5332 H   0  0  0  0  0  0  0  0  0  0  0  0
  156.9217  131.0075  153.2794 H   0  0  0  0  0  0  0  0  0  0  0  0
  156.7418  131.7478  154.8721 H   0  0  0  0  0  0  0  0  0  0  0  0
  153.1820  131.1735  154.0981 H   0  0  0  0  0  0  0  0  0  0  0  0
  151.8991  129.0985  157.1296 H   0  0  0  0  0  0  0  0  0  0  0  0
  152.4251  127.4473  156.8286 H   0  0  0  0  0  0  0  0  0  0  0  0
  150.7266  127.8786  156.6519 H   0  0  0  0  0  0  0  0  0  0  0  0
  151.6419  127.6064  153.3761 H   0  0  0  0  0  0  0  0  0  0  0  0
  151.2632  130.0674  153.5832 H   0  0  0  0  0  0  0  0  0  0  0  0
  150.0107  129.1086  154.3404 H   0  0  0  0  0  0  0  0  0  0  0  0
  151.0404  130.4830  156.4531 H   0  0  0  0  0  0  0  0  0  0  0  0
  149.4732  134.8434  156.1644 H   0  0  0  0  0  0  0  0  0  0  0  0
  147.3843  130.8766  151.5462 H   0  0  0  0  0  0  0  0  0  0  0  0
  144.2728  133.5640  149.0619 H   0  0  0  0  0  0  0  0  0  0  0  0
  145.0240  132.0003  148.7856 H   0  0  0  0  0  0  0  0  0  0  0  0
  142.4545  132.6746  149.5295 H   0  0  0  0  0  0  0  0  0  0  0  0
  143.2026  132.8471  153.2178 H   0  0  0  0  0  0  0  0  0  0  0  0
  144.2833  132.7996  154.1045 H   0  0  0  0  0  0  0  0  0  0  0  0
  154.4789  126.8256  156.5107 H   0  0  0  0  0  0  0  0  0  0  0  0
  156.0178  126.8899  155.6537 H   0  0  0  0  0  0  0  0  0  0  0  0
  154.5849  126.2620  154.8413 H   0  0  0  0  0  0  0  0  0  0  0  0
  1  2  1  0  0  0  0
  1 35  1  0  0  0  0
  1 36  1  0  0  0  0
  1 37  1  0  0  0  0
  2 30  1  0  0  0  0
  2  3  2  0  0  0  0
  3  4  1  0  0  0  0
  3 38  1  0  0  0  0
  4  5  1  0  0  0  0
  4 28  2  0  0  0  0
  5  6  1  0  0  0  0
  5  7  1  0  0  0  0
  5  8  1  0  0  0  0
  6 39  1  0  0  0  0
  6 40  1  0  0  0  0
  6 41  1  0  0  0  0
  7 42  1  0  0  0  0
  8  9  1  0  0  0  0
  8 43  1  0  0  0  0
  8 44  1  0  0  0  0
  9 10  1  0  0  0  0
  9 45  1  0  0  0  0
 10 15  1  0  0  0  0
 10 11  2  0  0  0  0
 11 12  1  0  0  0  0
 12 13  2  0  0  0  0
 12 46  1  0  0  0  0
 13 14  1  0  0  0  0
 14 18  1  0  0  0  0
 14 15  2  0  0  0  0
 15 16  1  0  0  0  0
 16 17  2  0  0  0  0
 17 18  1  0  0  0  0
 17 47  1  0  0  0  0
 18 19  1  0  0  0  0
 19 31  1  0  0  0  0
 19 26  1  0  0  0  0
 19 20  1  0  0  0  0
 20 21  1  0  0  0  0
 21 32  1  0  0  0  0
 21 22  1  0  0  0  0
 21 24  1  0  0  0  0
 22 23  1  0  0  0  0
 22 48  1  0  0  0  0
 22 49  1  0  0  0  0
 23 50  1  0  0  0  0
 24 33  1  0  0  0  0
 24 25  1  0  0  0  0
 24 26  1  0  0  0  0
 25 51  1  0  0  0  0
 26 34  1  0  0  0  0
 26 27  1  0  0  0  0
 27 52  1  0  0  0  0
 28 29  1  0  0  0  0
 28 30  1  0  0  0  0
 29 53  1  0  0  0  0
 29 54  1  0  0  0  0
 29 55  1  0  0  0  0
M  END
> <s_m_source_file>
AV-unprocessed.smi

> <i_m_source_file_index>
287

> <i_lp_mmshare_version>
43012

> <i_f3d_flags>
0

> <s_epik_input>
W0NIM11jMVtjSF1jKGMobzEpW0NIM10pW0NAQF0oW0NIM10pKFtPSF0pW0NIMl1bTkhdYyhuW2NIXW4yKWMoYzIzKW5bY0hdbjNbQ0BASF00T1tDQEhdKFtDSDJdW09IXSlbQ0BASF0oW09IXSlbQ0BIXTRbT0hd

> <s_epik_cmdline>
J2VwaWtfcHl0aG9uJywgJy1waCcsICc3LjAnLCAnLXRuJywgJzgnLCAnLW1hJywgJzIwMCcsICctbWV0YWxfYmluZGluZycsICctaW1hZScsICc8aW5maWxlLm1hZT4nLCAnLW9tYWUnLCAnPG91dGZpbGUubWFlPic=

> <r_lp_tautomer_probability>
1

> <r_epik_Ionization_Penalty>
0.000992612

> <r_epik_Ionization_Penalty_Charging>
0

> <r_epik_Ionization_Penalty_Neutral>
0.000992612

> <r_epik_State_Penalty>
-0

> <r_epik_Charging_Adjusted_Penalty>
0

> <i_epik_Tot_Q>
0

> <i_epik_Tot_abs_Q>
0

> <r_epik_Metal_State_Penalty>
-0

> <b_epik_Metal_Only>
0

> <s_epik_Chemistry_Notes>
This compound contains an acetal/aminal-like group ( X-CH(R)-Y where X, Y are N, S, or O) that may be acid/base labile, releasing an aldehyde.

> <s_lp_Force_Field>
OPLS_2005

> <r_lp_Energy>
46.7929

> <b_lp_Chiralities_Consistent>
1

> <s_lp_Variant>
AV-unprocessed.smi:287-4

> <Gold.Version>
5.8.1

> <Gold.Id.Protein>
6NUR|6NUR_protein|mol2

> <Gold.PLP.Fitness>
54.3847

> <Gold.PLP.PLP>
-41.3416

> <Gold.PLP.part.hbond>
-5.7096

> <Gold.PLP.part.metal>
0.0000

> <Gold.PLP.part.buried>
-4.9366

> <Gold.PLP.part.nonpolar>
-34.2546

> <Gold.PLP.part.repulsive>
1.7004

> <Gold.PLP.ligand.clash>
0.0000

> <Gold.PLP.ligand.torsion>
0.9654

> <Gold.PLP.Chemscore.Hbond>
4.5853

> <Gold.PLP.Chemscore.CHOScore>
0.2707

> <Gold.PLP.Chemscore.Metal>
0.0000

> <Gold.Chemscore.Hbonds>
donor molecule, donor type, donor heavy atom, donor atom, acceptor molecule, acceptor atom, score
      L1  H     7    42       P1 10737  1.00
      L1  H    23    50       P1 10186  0.42
      L1  H    25    51       P1 10957  0.98
      L1  H    27    52       P1 10957  1.00
      P1  H 10785 10796       L1    23  1.00
      L1  C    17    47       P1 10747  0.38

> <Gold.PLP.Chemscore.Internal.Correction>
0.4058

> <Gold.Rescore>
     Score         DG    S(hbond)    S(metal)    S(lipo)     H(rot)  DE(clash)    DE(int)     intcor
      9.08     -13.02       3.70        0.00      73.95       5.27       1.52       2.43       ----

> <Gold.Chemscore.Fitness>
9.0775

> <Gold.Chemscore.DG>
-13.0192

> <Gold.Chemscore.ZeroCoef>
-5.4800

> <Gold.Chemscore.Hbond>
3.7039

> <Gold.Chemscore.Metal>
0.0000

> <Gold.Chemscore.Lipo>
73.9487

> <Gold.Chemscore.Internal_Hbond>
0.0000

> <Gold.Chemscore.DEClash>
1.5155

> <Gold.Chemscore.DEInternal>
2.4262

> <Gold.Chemscore.Rot>
5.2672

> <Gold.Chemscore.Internal.Correction>
   9.000000E+99

> <Gold.Chemscore.Hbonds>
donor molecule, donor type, donor heavy atom, donor atom, acceptor molecule, acceptor atom, score
      L1  H     7    42       P1 10737  0.99
      L1  H    23    50       P1 10186  0.41
      L1  H    25    51       P1 10957  0.51
      L1  H    27    52       P1 10957  0.83
      P1  H 10785 10796       L1    23  0.63

> <Gold.Chemscore.Hbond.Weighted>
-12.3711

> <Gold.Chemscore.Metal.Weighted>
-0.0000

> <Gold.Chemscore.Lipo.Weighted>
-8.6520

> <Gold.Chemscore.Internal_Hbond.Weighted>
0.0000

> <Gold.Chemscore.DEClash.Weighted>
1.5155

> <Gold.Chemscore.DEInternal.Weighted>
2.4262

> <Gold.Chemscore.Rot.Weighted>
13.4839

> <Gold.Chemscore.Internal.Correction.Weighted>
   9.000000E+99

> <Gold.Protein.RotatedTorsions>
[ 6907 6896 6895 6894 ] final  -89.01 input  -60.11 | X-H torsion
[ 7974 7965 7964 7962 ] final   81.42 input  175.53 | X-H torsion
[ 8008 7997 7996 7995 ] final  139.48 input   59.86 | X-H torsion
[ 10167 10162 10161 10158 ] final -111.98 input  -65.29 | X-H torsion
[ 10718 10713 10712 10709 ] final  -78.31 input   66.30 | X-H torsion
[ 10763 10752 10751 10750 ] final  -22.34 input  -60.55 | X-H torsion
[ 11005 11000 10999 10996 ] final -147.10 input  -57.11 | X-H torsion

> <Gold.Protein.ActiveResidues>
 VAL166  LYS551  ARG553  GLY616  TRP617  ASP618  TYR619  PRO620  LYS621  CYS622 
 ASP623  PHE694  ASN695  SER759  ASP760  ASP761  ALA762  ILE779  LEU786  VAL792 
 PHE793  MET794  SER795  GLU796  ALA797  LYS798  CYS799  TRP800  GLU811  SER814 

> <Gold.Protein.RotatedAtoms>
  150.6871  134.2653  159.4565 H   0  0  0  0  0  0  0  0  0  0  0  0  # atno 6907 bound_to 6896
  152.0580  134.9609  160.0584 H   0  0  0  0  0  0  0  0  0  0  0  0  # atno 6908 bound_to 6896
  152.1048  133.4234  159.4640 H   0  0  0  0  0  0  0  0  0  0  0  0  # atno 6909 bound_to 6896
  145.6384  139.2420  143.2045 H   0  0  0  0  0  0  0  0  0  0  0  0  # atno 7974 bound_to 7965
  156.2989  140.2366  156.4244 H   0  0  0  0  0  0  0  0  0  0  0  0  # atno 8008 bound_to 7997
  154.8327  140.0432  157.1508 H   0  0  0  0  0  0  0  0  0  0  0  0  # atno 8009 bound_to 7997
  154.9190  140.3001  155.5229 H   0  0  0  0  0  0  0  0  0  0  0  0  # atno 8010 bound_to 7997
  140.1277  143.4388  152.1648 H   0  0  0  0  0  0  0  0  0  0  0  0  # atno 10167 bound_to 10162
  156.0121  130.4514  150.3477 H   0  0  0  0  0  0  0  0  0  0  0  0  # atno 10718 bound_to 10713
  153.6504  135.6981  153.5211 H   0  0  0  0  0  0  0  0  0  0  0  0  # atno 10763 bound_to 10752
  153.2711  135.4214  155.0988 H   0  0  0  0  0  0  0  0  0  0  0  0  # atno 10764 bound_to 10752
  154.8478  135.3579  154.6048 H   0  0  0  0  0  0  0  0  0  0  0  0  # atno 10765 bound_to 10752
  140.7751  134.3144  157.5063 H   0  0  0  0  0  0  0  0  0  0  0  0  # atno 11005 bound_to 11000
  146.1301  140.7197  142.9416 LP  0  0  0  0  0  0  0  0  0  0  0  0  # atno 17320 bound_to 7965
  144.7167  140.4233  143.7039 LP  0  0  0  0  0  0  0  0  0  0  0  0  # atno 17321 bound_to 7965
  139.5536  144.7356  151.4362 LP  0  0  0  0  0  0  0  0  0  0  0  0  # atno 17342 bound_to 10162
  140.6835  143.8027  150.7154 LP  0  0  0  0  0  0  0  0  0  0  0  0  # atno 17343 bound_to 10162
  157.1570  131.0335  151.2858 LP  0  0  0  0  0  0  0  0  0  0  0  0  # atno 17370 bound_to 10713
  157.4343  130.7508  149.7016 LP  0  0  0  0  0  0  0  0  0  0  0  0  # atno 17371 bound_to 10713
  139.8750  134.9284  156.3451 LP  0  0  0  0  0  0  0  0  0  0  0  0  # atno 17394 bound_to 11000
  140.9536  133.7434  156.0306 LP  0  0  0  0  0  0  0  0  0  0  0  0  # atno 17395 bound_to 11000

$$$$
