AV-unprocessed.smi:82|AV-procd|sdf|799|dock1
  -GOLD-   2262017183D 1   1.00000     0.00000
 Structure written by MMmdl.
 58 61  0  0  0  0  0  0  0  0  1 V2000
  151.9822  144.4373  160.0938 C   0  0  0  0  0  0  0  0  0  0  0  0
  152.9223  143.4625  159.6768 O   0  0  0  0  0  0  0  0  0  0  0  0
  152.5441  142.1477  160.0487 C   0  0  0  0  0  0  0  0  0  0  0  0
  153.4661  141.1501  159.3282 C   0  0  0  0  0  0  0  0  0  0  0  0
  152.7908  140.0158  158.6833 N   0  0  0  0  0  0  0  0  0  0  0  0
  152.7640  138.8518  159.5784 C   0  0  0  0  0  0  0  0  0  0  0  0
  152.0969  137.6245  158.9420 C   0  0  0  0  0  0  0  0  0  0  0  0
  150.7411  137.9639  158.5223 N   0  0  0  0  0  0  0  0  0  0  0  0
  149.9046  136.9513  158.1795 C   0  0  0  0  0  0  0  0  0  0  0  0
  148.8860  136.5990  159.0094 N   0  0  0  0  0  0  0  0  0  0  0  0
  148.0664  135.5948  158.6851 C   0  0  0  0  0  0  0  0  0  0  0  0
  148.0793  134.8265  157.5946 N   0  0  0  0  0  0  0  0  0  0  0  0
  149.0893  135.1829  156.7502 C   0  0  0  0  0  0  0  0  0  0  0  0
  150.0412  136.2197  156.9658 C   0  0  0  0  0  0  0  0  0  0  0  0
  150.9190  136.2851  155.8900 N   0  0  0  0  0  0  0  0  0  0  0  0
  150.5196  135.3320  155.0932 C   0  0  0  0  0  0  0  0  0  0  0  0
  149.4086  134.6393  155.5179 N   0  0  0  0  0  0  0  0  0  0  0  0
  148.7873  133.5293  154.8572 C   0  0  0  0  0  0  0  0  0  0  0  0
  149.1584  133.1557  153.4207 C   0  0  0  0  0  0  0  0  0  0  0  0
  147.7109  132.6688  153.1811 C   0  0  0  0  0  0  0  0  0  0  0  0
  147.0791  133.0511  151.8314 C   0  0  0  0  0  0  0  0  0  0  0  0
  147.4842  132.1819  150.7940 O   0  0  0  0  0  0  0  0  0  0  0  0
  147.4269  131.1803  153.4740 C   0  0  0  0  0  0  0  0  0  0  0  0
  148.2890  130.3195  152.7586 O   0  0  0  0  0  0  0  0  0  0  0  0
  147.3465  133.6149  154.3475 C   0  0  0  0  0  0  0  0  0  0  0  0
  150.7039  139.1229  157.6356 C   0  0  0  0  0  0  0  0  0  0  0  0
  151.4058  140.3404  158.2806 C   0  0  2  0  0  0  0  0  0  0  0  0
  151.2891  141.5232  157.2983 C   0  0  0  0  0  0  0  0  0  0  0  0
  152.3239  145.4280  159.7943 H   0  0  0  0  0  0  0  0  0  0  0  0
  151.8666  144.4353  161.1783 H   0  0  0  0  0  0  0  0  0  0  0  0
  151.0065  144.2654  159.6372 H   0  0  0  0  0  0  0  0  0  0  0  0
  152.6338  142.0274  161.1295 H   0  0  0  0  0  0  0  0  0  0  0  0
  151.5004  141.9854  159.7785 H   0  0  0  0  0  0  0  0  0  0  0  0
  154.0816  141.6805  158.6001 H   0  0  0  0  0  0  0  0  0  0  0  0
  154.1503  140.7792  160.0890 H   0  0  0  0  0  0  0  0  0  0  0  0
  153.7766  138.5651  159.8582 H   0  0  0  0  0  0  0  0  0  0  0  0
  152.2460  139.1071  160.5044 H   0  0  0  0  0  0  0  0  0  0  0  0
  152.6758  137.2853  158.0819 H   0  0  0  0  0  0  0  0  0  0  0  0
  152.0729  136.8070  159.6639 H   0  0  0  0  0  0  0  0  0  0  0  0
  147.2879  135.3767  159.4013 H   0  0  0  0  0  0  0  0  0  0  0  0
  151.0242  135.1136  154.1632 H   0  0  0  0  0  0  0  0  0  0  0  0
  148.9135  132.6737  155.5229 H   0  0  0  0  0  0  0  0  0  0  0  0
  149.4141  134.0267  152.8142 H   0  0  0  0  0  0  0  0  0  0  0  0
  149.9267  132.3863  153.3386 H   0  0  0  0  0  0  0  0  0  0  0  0
  145.9904  133.0520  151.8885 H   0  0  0  0  0  0  0  0  0  0  0  0
  147.3704  134.0608  151.5401 H   0  0  0  0  0  0  0  0  0  0  0  0
  148.1605  131.6114  151.1255 H   0  0  0  0  0  0  0  0  0  0  0  0
  147.5510  130.9576  154.5339 H   0  0  0  0  0  0  0  0  0  0  0  0
  146.3955  130.9220  153.2317 H   0  0  0  0  0  0  0  0  0  0  0  0
  148.4040  130.6650  151.8868 H   0  0  0  0  0  0  0  0  0  0  0  0
  146.5997  133.2251  155.0401 H   0  0  0  0  0  0  0  0  0  0  0  0
  147.0832  134.6227  154.0209 H   0  0  0  0  0  0  0  0  0  0  0  0
  151.1939  138.8618  156.6962 H   0  0  0  0  0  0  0  0  0  0  0  0
  149.6768  139.3872  157.3868 H   0  0  0  0  0  0  0  0  0  0  0  0
  150.8394  140.6054  159.1751 H   0  0  0  0  0  0  0  0  0  0  0  0
  150.2666  141.6305  156.9351 H   0  0  0  0  0  0  0  0  0  0  0  0
  151.9333  141.3829  156.4298 H   0  0  0  0  0  0  0  0  0  0  0  0
  151.5472  142.4741  157.7633 H   0  0  0  0  0  0  0  0  0  0  0  0
  1  2  1  0  0  0  0
  1 29  1  0  0  0  0
  1 30  1  0  0  0  0
  1 31  1  0  0  0  0
  2  3  1  0  0  0  0
  3  4  1  0  0  0  0
  3 32  1  0  0  0  0
  3 33  1  0  0  0  0
  4  5  1  0  0  0  0
  4 34  1  0  0  0  0
  4 35  1  0  0  0  0
  5 27  1  0  0  0  0
  5  6  1  0  0  0  0
  6  7  1  0  0  0  0
  6 36  1  0  0  0  0
  6 37  1  0  0  0  0
  7  8  1  0  0  0  0
  7 38  1  0  0  0  0
  7 39  1  0  0  0  0
  8  9  1  0  0  0  0
  8 26  1  0  0  0  0
  9 14  1  0  0  0  0
  9 10  2  0  0  0  0
 10 11  1  0  0  0  0
 11 12  2  0  0  0  0
 11 40  1  0  0  0  0
 12 13  1  0  0  0  0
 13 17  1  0  0  0  0
 13 14  2  0  0  0  0
 14 15  1  0  0  0  0
 15 16  2  0  0  0  0
 16 17  1  0  0  0  0
 16 41  1  0  0  0  0
 17 18  1  0  0  0  0
 18 25  1  0  0  0  0
 18 19  1  0  0  0  0
 18 42  1  0  0  0  0
 19 20  1  0  0  0  0
 19 43  1  0  0  0  0
 19 44  1  0  0  0  0
 20 21  1  0  0  0  0
 20 23  1  0  0  0  0
 20 25  1  0  0  0  0
 21 22  1  0  0  0  0
 21 45  1  0  0  0  0
 21 46  1  0  0  0  0
 22 47  1  0  0  0  0
 23 24  1  0  0  0  0
 23 48  1  0  0  0  0
 23 49  1  0  0  0  0
 24 50  1  0  0  0  0
 25 51  1  0  0  0  0
 25 52  1  0  0  0  0
 26 27  1  0  0  0  0
 26 53  1  0  0  0  0
 26 54  1  0  0  0  0
 27 28  1  0  0  0  0
 27 55  1  0  0  0  0
 28 56  1  0  0  0  0
 28 57  1  0  0  0  0
 28 58  1  0  0  0  0
M  END
> <s_m_source_file>
AV-unprocessed.smi

> <i_m_source_file_index>
82

> <i_lp_mmshare_version>
43012

> <i_f3d_flags>
0

> <s_epik_input>
W0NIM11PW0NIMl1bQ0gyXU4xW0NIMl1bQ0gyXU4oW0NIMl1bQ0BIXTFbQ0gzXSljKG5bY0hdbjIpYyhjMjMpbltjSF1uM1tDSF0oW0NIMl00KVtDSDJdQzQoW0NIMl1bT0hdKVtDSDJdW09IXQ==

> <s_epik_cmdline>
J2VwaWtfcHl0aG9uJywgJy1waCcsICc3LjAnLCAnLXRuJywgJzgnLCAnLW1hJywgJzIwMCcsICctbWV0YWxfYmluZGluZycsICctaW1hZScsICc8aW5maWxlLm1hZT4nLCAnLW9tYWUnLCAnPG91dGZpbGUubWFlPic=

> <r_lp_tautomer_probability>
1

> <r_epik_Ionization_Penalty>
0.549054

> <r_epik_Ionization_Penalty_Charging>
0

> <r_epik_Ionization_Penalty_Neutral>
0.549054

> <r_epik_State_Penalty>
0.552556

> <r_epik_Charging_Adjusted_Penalty>
0.552556

> <i_epik_Tot_Q>
0

> <i_epik_Tot_abs_Q>
0

> <r_epik_Metal_State_Penalty>
0.545162

> <b_epik_Metal_Only>
0

> <s_lp_Force_Field>
OPLS_2005

> <r_lp_Energy>
68.3354

> <b_lp_Chiralities_Consistent>
1

> <s_lp_Variant>
AV-unprocessed.smi:82-6

> <Gold.Version>
5.8.1

> <Gold.Id.Protein>
6NUR|6NUR_protein|mol2

> <Gold.PLP.Fitness>
44.4726

> <Gold.PLP.PLP>
-39.7215

> <Gold.PLP.part.hbond>
-1.5068

> <Gold.PLP.part.metal>
0.0000

> <Gold.PLP.part.buried>
-7.1274

> <Gold.PLP.part.nonpolar>
-30.3192

> <Gold.PLP.part.repulsive>
0.0596

> <Gold.PLP.ligand.clash>
0.0000

> <Gold.PLP.ligand.torsion>
1.4614

> <Gold.PLP.Chemscore.Hbond>
1.6088

> <Gold.PLP.Chemscore.CHOScore>
0.5826

> <Gold.PLP.Chemscore.Metal>
0.0000

> <Gold.Chemscore.Hbonds>
donor molecule, donor type, donor heavy atom, donor atom, acceptor molecule, acceptor atom, score
      L1  H    22    47       P1 10747  0.30
      L1  H    24    50       P1 10747  1.00
      L1  C    16    41       P1  7949  0.28

> <Gold.PLP.Chemscore.Internal.Correction>
1.0999

> <Gold.Rescore>
     Score         DG    S(hbond)    S(metal)    S(lipo)     H(rot)  DE(clash)    DE(int)     intcor
      9.21     -11.35       1.49        0.00      91.68       3.84       0.08       2.06       ----

> <Gold.Chemscore.Fitness>
9.2060

> <Gold.Chemscore.DG>
-11.3482

> <Gold.Chemscore.ZeroCoef>
-5.4800

> <Gold.Chemscore.Hbond>
1.4911

> <Gold.Chemscore.Metal>
0.0000

> <Gold.Chemscore.Lipo>
91.6847

> <Gold.Chemscore.Internal_Hbond>
0.0000

> <Gold.Chemscore.DEClash>
0.0842

> <Gold.Chemscore.DEInternal>
2.0580

> <Gold.Chemscore.Rot>
3.8434

> <Gold.Chemscore.Internal.Correction>
   9.000000E+99

> <Gold.Chemscore.Hbonds>
donor molecule, donor type, donor heavy atom, donor atom, acceptor molecule, acceptor atom, score
      L1  H    22    47       P1 10747  0.29
      L1  H    24    50       P1 10747  0.96

> <Gold.Chemscore.Hbond.Weighted>
-4.9802

> <Gold.Chemscore.Metal.Weighted>
-0.0000

> <Gold.Chemscore.Lipo.Weighted>
-10.7271

> <Gold.Chemscore.Internal_Hbond.Weighted>
0.0000

> <Gold.Chemscore.DEClash.Weighted>
0.0842

> <Gold.Chemscore.DEInternal.Weighted>
2.0580

> <Gold.Chemscore.Rot.Weighted>
9.8391

> <Gold.Chemscore.Internal.Correction.Weighted>
   9.000000E+99

> <Gold.Protein.RotatedTorsions>
[ 6907 6896 6895 6894 ] final   43.57 input  -60.11 | X-H torsion
[ 7974 7965 7964 7962 ] final  159.10 input  175.53 | X-H torsion
[ 8008 7997 7996 7995 ] final  -82.03 input   59.86 | X-H torsion
[ 10167 10162 10161 10158 ] final  145.50 input  -65.29 | X-H torsion
[ 10718 10713 10712 10709 ] final  112.31 input   66.30 | X-H torsion
[ 10763 10752 10751 10750 ] final  102.41 input  -60.55 | X-H torsion
[ 11005 11000 10999 10996 ] final   63.95 input  -57.11 | X-H torsion

> <Gold.Protein.ActiveResidues>
 VAL166  LYS551  ARG553  GLY616  TRP617  ASP618  TYR619  PRO620  LYS621  CYS622 
 ASP623  PHE694  ASN695  SER759  ASP760  ASP761  ALA762  ILE779  LEU786  VAL792 
 PHE793  MET794  SER795  GLU796  ALA797  LYS798  CYS799  TRP800  GLU811  SER814 

> <Gold.Protein.RotatedAtoms>
  152.2218  134.8405  160.0484 H   0  0  0  0  0  0  0  0  0  0  0  0  # atno 6907 bound_to 6896
  151.9186  133.3574  159.3897 H   0  0  0  0  0  0  0  0  0  0  0  0  # atno 6908 bound_to 6896
  150.7002  134.4584  159.5413 H   0  0  0  0  0  0  0  0  0  0  0  0  # atno 6909 bound_to 6896
  144.7809  139.7570  143.6260 H   0  0  0  0  0  0  0  0  0  0  0  0  # atno 7974 bound_to 7965
  154.6044  140.0639  156.9411 H   0  0  0  0  0  0  0  0  0  0  0  0  # atno 8008 bound_to 7997
  155.2078  140.3320  155.4315 H   0  0  0  0  0  0  0  0  0  0  0  0  # atno 8009 bound_to 7997
  156.2338  140.1853  156.7156 H   0  0  0  0  0  0  0  0  0  0  0  0  # atno 8010 bound_to 7997
  139.4925  144.5897  151.6706 H   0  0  0  0  0  0  0  0  0  0  0  0  # atno 10167 bound_to 10162
  157.6399  131.0965  150.6877 H   0  0  0  0  0  0  0  0  0  0  0  0  # atno 10718 bound_to 10713
  153.3393  135.4011  155.1559 H   0  0  0  0  0  0  0  0  0  0  0  0  # atno 10763 bound_to 10752
  154.8640  135.3629  154.5367 H   0  0  0  0  0  0  0  0  0  0  0  0  # atno 10764 bound_to 10752
  153.5811  135.7076  153.5522 H   0  0  0  0  0  0  0  0  0  0  0  0  # atno 10765 bound_to 10752
  139.9991  134.6471  155.9961 H   0  0  0  0  0  0  0  0  0  0  0  0  # atno 11005 bound_to 11000
  146.2016  139.5315  142.9739 LP  0  0  0  0  0  0  0  0  0  0  0  0  # atno 17320 bound_to 7965
  145.6053  141.0348  143.1996 LP  0  0  0  0  0  0  0  0  0  0  0  0  # atno 17321 bound_to 7965
  140.5521  144.0408  150.6131 LP  0  0  0  0  0  0  0  0  0  0  0  0  # atno 17342 bound_to 10162
  140.3466  143.2988  152.0532 LP  0  0  0  0  0  0  0  0  0  0  0  0  # atno 17343 bound_to 10162
  156.7202  130.4678  149.5525 LP  0  0  0  0  0  0  0  0  0  0  0  0  # atno 17370 bound_to 10713
  156.1670  130.6412  151.0791 LP  0  0  0  0  0  0  0  0  0  0  0  0  # atno 17371 bound_to 10713
  141.1628  133.6538  156.4375 LP  0  0  0  0  0  0  0  0  0  0  0  0  # atno 17394 bound_to 11000
  140.4762  134.6707  157.5151 LP  0  0  0  0  0  0  0  0  0  0  0  0  # atno 17395 bound_to 11000

$$$$
