AV-unprocessed.smi:3064|AV-procd|sdf|11690|dock7
  -GOLD-   2272017 93D 1   1.00000     0.00000
 Structure written by MMmdl.
 21 22  0  0  0  0  0  0  0  0  1 V2000
  152.6061  143.2509  159.8712 C   0  0  0  0  0  0  0  0  0  0  0  0
  152.3261  144.3055  159.0404 C   0  0  0  0  0  0  0  0  0  0  0  0
  151.6426  143.7720  157.5292 S   0  0  0  0  0  0  0  0  0  0  0  0
  151.7475  142.1092  158.1005 C   0  0  0  0  0  0  0  0  0  0  0  0
  151.3385  140.9381  157.2646 C   0  0  1  0  0  0  0  0  0  0  0  0
  150.8578  141.3594  155.8624 C   0  0  0  0  0  0  0  0  0  0  0  0
  150.5434  140.1787  155.0595 N   0  0  0  0  0  0  0  0  0  0  0  0
  151.6818  139.2633  154.9985 C   0  0  0  0  0  0  0  0  0  0  0  0
  152.1507  138.8962  156.4182 C   0  0  0  0  0  0  0  0  0  0  0  0
  152.4718  140.0819  157.1381 O   0  0  0  0  0  0  0  0  0  0  0  0
  152.2831  142.0079  159.3219 N   0  0  0  0  0  0  0  0  0  0  0  0
  153.0359  143.2925  160.8611 H   0  0  0  0  0  0  0  0  0  0  0  0
  152.4830  145.3581  159.2233 H   0  0  0  0  0  0  0  0  0  0  0  0
  150.5421  140.4098  157.7923 H   0  0  0  0  0  0  0  0  0  0  0  0
  149.9805  142.0016  155.9418 H   0  0  0  0  0  0  0  0  0  0  0  0
  151.6328  141.9466  155.3679 H   0  0  0  0  0  0  0  0  0  0  0  0
  150.2861  140.4647  154.1202 H   0  0  0  0  0  0  0  0  0  0  0  0
  151.4087  138.3622  154.4490 H   0  0  0  0  0  0  0  0  0  0  0  0
  152.5029  139.7276  154.4508 H   0  0  0  0  0  0  0  0  0  0  0  0
  151.3844  138.3286  156.9484 H   0  0  0  0  0  0  0  0  0  0  0  0
  153.0367  138.2633  156.3678 H   0  0  0  0  0  0  0  0  0  0  0  0
  1 11  1  0  0  0  0
  1  2  2  0  0  0  0
  1 12  1  0  0  0  0
  2  3  1  0  0  0  0
  2 13  1  0  0  0  0
  3  4  1  0  0  0  0
  4  5  1  0  0  0  0
  4 11  2  0  0  0  0
  5 10  1  0  0  0  0
  5  6  1  0  0  0  0
  5 14  1  0  0  0  0
  6  7  1  0  0  0  0
  6 15  1  0  0  0  0
  6 16  1  0  0  0  0
  7  8  1  0  0  0  0
  7 17  1  0  0  0  0
  8  9  1  0  0  0  0
  8 18  1  0  0  0  0
  8 19  1  0  0  0  0
  9 10  1  0  0  0  0
  9 20  1  0  0  0  0
  9 21  1  0  0  0  0
M  END
> <s_m_source_file>
AV-unprocessed.smi

> <i_m_source_file_index>
3064

> <i_lp_mmshare_version>
43012

> <i_f3d_flags>
0

> <s_epik_input>
bjFbY0hdW2NIXXNjMVtDQEBIXTJbQ0gyXVtOSF1bQ0gyXVtDSDJdTzI=

> <s_epik_cmdline>
J2VwaWtfcHl0aG9uJywgJy1waCcsICc3LjAnLCAnLXRuJywgJzgnLCAnLW1hJywgJzIwMCcsICctbWV0YWxfYmluZGluZycsICctaW1hZScsICc8aW5maWxlLm1hZT4nLCAnLW9tYWUnLCAnPG91dGZpbGUubWFlPic=

> <r_epik_Ionization_Penalty>
0.980767

> <r_epik_Ionization_Penalty_Charging>
0

> <r_epik_Ionization_Penalty_Neutral>
0.980767

> <r_epik_State_Penalty>
1.0271

> <r_epik_Charging_Adjusted_Penalty>
1.0271

> <i_epik_Tot_Q>
0

> <i_epik_Tot_abs_Q>
0

> <r_epik_Metal_State_Penalty>
1.02673

> <b_epik_Metal_Only>
0

> <s_lp_Force_Field>
OPLS_2005

> <r_lp_Energy>
8.04051

> <b_lp_Chiralities_Consistent>
1

> <s_lp_Variant>
AV-unprocessed.smi:3064-4

> <Gold.Version>
5.8.1

> <Gold.Id.Protein>
6NUR|6NUR_protein|mol2

> <Gold.PLP.Fitness>
29.2109

> <Gold.PLP.PLP>
-26.5513

> <Gold.PLP.part.hbond>
-2.0000

> <Gold.PLP.part.metal>
0.0000

> <Gold.PLP.part.buried>
-2.0085

> <Gold.PLP.part.nonpolar>
-21.8384

> <Gold.PLP.part.repulsive>
0.0000

> <Gold.PLP.ligand.clash>
0.0000

> <Gold.PLP.ligand.torsion>
0.0255

> <Gold.PLP.Chemscore.Hbond>
0.9000

> <Gold.PLP.Chemscore.CHOScore>
0.0000

> <Gold.PLP.Chemscore.Metal>
0.0000

> <Gold.Chemscore.Hbonds>
donor molecule, donor type, donor heavy atom, donor atom, acceptor molecule, acceptor atom, score
      P1  H  7997  8008       L1    10  0.90

> <Gold.PLP.Chemscore.Internal.Correction>
0.0106

> <Gold.Rescore>
     Score         DG    S(hbond)    S(metal)    S(lipo)     H(rot)  DE(clash)    DE(int)     intcor
     14.16     -14.18       0.90        0.00      70.62       1.00       0.02       0.01       ----

> <Gold.Chemscore.Fitness>
14.1558

> <Gold.Chemscore.DG>
-14.1821

> <Gold.Chemscore.ZeroCoef>
-5.4800

> <Gold.Chemscore.Hbond>
0.8982

> <Gold.Chemscore.Metal>
0.0000

> <Gold.Chemscore.Lipo>
70.6162

> <Gold.Chemscore.Internal_Hbond>
0.0000

> <Gold.Chemscore.DEClash>
0.0202

> <Gold.Chemscore.DEInternal>
0.0061

> <Gold.Chemscore.Rot>
1.0000

> <Gold.Chemscore.Internal.Correction>
   9.000000E+99

> <Gold.Chemscore.Hbonds>
donor molecule, donor type, donor heavy atom, donor atom, acceptor molecule, acceptor atom, score
      P1  H  7997  8008       L1    10  0.17

> <Gold.Chemscore.Hbond.Weighted>
-3.0000

> <Gold.Chemscore.Metal.Weighted>
-0.0000

> <Gold.Chemscore.Lipo.Weighted>
-8.2621

> <Gold.Chemscore.Internal_Hbond.Weighted>
0.0000

> <Gold.Chemscore.DEClash.Weighted>
0.0202

> <Gold.Chemscore.DEInternal.Weighted>
0.0061

> <Gold.Chemscore.Rot.Weighted>
2.5600

> <Gold.Chemscore.Internal.Correction.Weighted>
   9.000000E+99

> <Gold.Protein.RotatedTorsions>
[ 6907 6896 6895 6894 ] final   19.31 input  -60.11 | X-H torsion
[ 7974 7965 7964 7962 ] final -130.48 input  175.53 | X-H torsion
[ 8008 7997 7996 7995 ] final  -70.04 input   59.86 | X-H torsion
[ 10167 10162 10161 10158 ] final  124.62 input  -65.29 | X-H torsion
[ 10718 10713 10712 10709 ] final   64.30 input   66.30 | X-H torsion
[ 10763 10752 10751 10750 ] final   19.61 input  -60.55 | X-H torsion
[ 11005 11000 10999 10996 ] final  145.47 input  -57.11 | X-H torsion

> <Gold.Protein.ActiveResidues>
 VAL166  LYS551  ARG553  GLY616  TRP617  ASP618  TYR619  PRO620  LYS621  CYS622 
 ASP623  PHE694  ASN695  SER759  ASP760  ASP761  ALA762  ILE779  LEU786  VAL792 
 PHE793  MET794  SER795  GLU796  ALA797  LYS798  CYS799  TRP800  GLU811  SER814 

> <Gold.Protein.RotatedAtoms>
  151.8789  135.0461  160.0486 H   0  0  0  0  0  0  0  0  0  0  0  0  # atno 6907 bound_to 6896
  152.2529  133.5226  159.5344 H   0  0  0  0  0  0  0  0  0  0  0  0  # atno 6908 bound_to 6896
  150.7090  134.0852  159.3954 H   0  0  0  0  0  0  0  0  0  0  0  0  # atno 6909 bound_to 6896
  144.9470  140.7303  143.4811 H   0  0  0  0  0  0  0  0  0  0  0  0  # atno 7974 bound_to 7965
  154.4983  140.0842  156.7743 H   0  0  0  0  0  0  0  0  0  0  0  0  # atno 8008 bound_to 7997
  155.4064  140.3439  155.4242 H   0  0  0  0  0  0  0  0  0  0  0  0  # atno 8009 bound_to 7997
  156.1423  140.1533  156.8889 H   0  0  0  0  0  0  0  0  0  0  0  0  # atno 8010 bound_to 7997
  139.5731  144.6949  151.3724 H   0  0  0  0  0  0  0  0  0  0  0  0  # atno 10167 bound_to 10162
  157.6030  130.9152  149.9827 H   0  0  0  0  0  0  0  0  0  0  0  0  # atno 10718 bound_to 10713
  153.1147  135.6705  153.9438 H   0  0  0  0  0  0  0  0  0  0  0  0  # atno 10763 bound_to 10752
  153.8971  135.3040  155.3449 H   0  0  0  0  0  0  0  0  0  0  0  0  # atno 10764 bound_to 10752
  154.7565  135.5009  153.9462 H   0  0  0  0  0  0  0  0  0  0  0  0  # atno 10765 bound_to 10752
  140.0715  134.9149  157.1352 H   0  0  0  0  0  0  0  0  0  0  0  0  # atno 11005 bound_to 11000
  145.2902  139.1886  143.4744 LP  0  0  0  0  0  0  0  0  0  0  0  0  # atno 17320 bound_to 7965
  146.3307  140.2877  142.8613 LP  0  0  0  0  0  0  0  0  0  0  0  0  # atno 17321 bound_to 7965
  140.7015  143.7619  150.7411 LP  0  0  0  0  0  0  0  0  0  0  0  0  # atno 17342 bound_to 10162
  140.1131  143.4680  152.2358 LP  0  0  0  0  0  0  0  0  0  0  0  0  # atno 17343 bound_to 10162
  156.1108  130.3650  150.0052 LP  0  0  0  0  0  0  0  0  0  0  0  0  # atno 17370 bound_to 10713
  156.8151  130.9338  151.3643 LP  0  0  0  0  0  0  0  0  0  0  0  0  # atno 17371 bound_to 10713
  140.3620  134.2483  155.7186 LP  0  0  0  0  0  0  0  0  0  0  0  0  # atno 17394 bound_to 11000
  141.2013  133.7965  157.0445 LP  0  0  0  0  0  0  0  0  0  0  0  0  # atno 17395 bound_to 11000

$$$$
