AV-unprocessed.smi:2021|AV-procd|sdf|8176|dock3
  -GOLD-   2272010423D 1   1.00000     0.00000
 Structure written by MMmdl.
 42 43  0  0  0  0  0  0  0  0  2 V2000
  145.4545  130.4256  151.6734 C   0  0  0  0  0  0  0  0  0  0  0  0
  144.8887  131.6529  150.9435 C   0  0  0  0  0  0  0  0  0  0  0  0
  145.7906  132.0352  149.7580 C   0  0  0  0  0  0  0  0  0  0  0  0
  144.7004  132.8291  151.9264 C   0  0  0  0  0  0  0  0  0  0  0  0
  143.8486  133.9192  151.3762 N   0  3  2  0  0  0  0  0  0  0  0  0
  144.5027  134.6943  150.2940 C   0  0  0  0  0  0  0  0  0  0  0  0
  145.5118  135.7052  150.8673 C   0  0  0  0  0  0  0  0  0  0  0  0
  144.8479  136.5635  151.7864 O   0  0  0  0  0  0  0  0  0  0  0  0
  144.3112  135.8578  152.9013 C   0  0  1  0  0  0  0  0  0  0  0  0
  143.6831  136.8812  153.8649 C   0  0  0  0  0  0  0  0  0  0  0  0
  144.3746  138.1660  153.8254 N   0  0  0  0  0  0  0  0  0  0  0  0
  145.6395  138.3678  154.2213 C   0  0  0  0  0  0  0  0  0  0  0  0
  146.3578  137.4725  154.6669 O   0  0  0  0  0  0  0  0  0  0  0  0
  146.0031  139.6527  154.0640 N   0  0  0  0  0  0  0  0  0  0  0  0
  147.2630  140.2494  154.3365 C   0  0  0  0  0  0  0  0  0  0  0  0
  148.4300  139.5907  154.2607 N   0  0  0  0  0  0  0  0  0  0  0  0
  149.5093  140.4080  154.5705 N   0  0  0  0  0  0  0  0  0  0  0  0
  149.1148  141.6498  154.8667 C   0  0  0  0  0  0  0  0  0  0  0  0
  147.3857  141.9420  154.7955 S   0  0  0  0  0  0  0  0  0  0  0  0
  143.2699  134.8366  152.3921 C   0  0  0  0  0  0  0  0  0  0  0  0
  146.4380  130.6329  152.0968 H   0  0  0  0  0  0  0  0  0  0  0  0
  145.5561  129.5767  150.9966 H   0  0  0  0  0  0  0  0  0  0  0  0
  144.7996  130.1163  152.4887 H   0  0  0  0  0  0  0  0  0  0  0  0
  143.9187  131.3578  150.5448 H   0  0  0  0  0  0  0  0  0  0  0  0
  146.7848  132.3309  150.0950 H   0  0  0  0  0  0  0  0  0  0  0  0
  145.3717  132.8644  149.1877 H   0  0  0  0  0  0  0  0  0  0  0  0
  145.9098  131.1977  149.0700 H   0  0  0  0  0  0  0  0  0  0  0  0
  144.2880  132.4729  152.8702 H   0  0  0  0  0  0  0  0  0  0  0  0
  145.6868  133.2282  152.1661 H   0  0  0  0  0  0  0  0  0  0  0  0
  144.9824  134.0287  149.5755 H   0  0  0  0  0  0  0  0  0  0  0  0
  143.7303  135.2318  149.7425 H   0  0  0  0  0  0  0  0  0  0  0  0
  146.3480  135.2011  151.3542 H   0  0  0  0  0  0  0  0  0  0  0  0
  145.9315  136.3107  150.0640 H   0  0  0  0  0  0  0  0  0  0  0  0
  145.1161  135.3339  153.4179 H   0  0  0  0  0  0  0  0  0  0  0  0
  142.6363  137.0451  153.6076 H   0  0  0  0  0  0  0  0  0  0  0  0
  143.6941  136.4962  154.8861 H   0  0  0  0  0  0  0  0  0  0  0  0
  143.8522  138.9542  153.4717 H   0  0  0  0  0  0  0  0  0  0  0  0
  145.2991  140.2773  153.6990 H   0  0  0  0  0  0  0  0  0  0  0  0
  149.8475  142.3991  155.1277 H   0  0  0  0  0  0  0  0  0  0  0  0
  142.4401  135.3701  151.9266 H   0  0  0  0  0  0  0  0  0  0  0  0
  142.8402  134.2805  153.2238 H   0  0  0  0  0  0  0  0  0  0  0  0
  143.0707  133.4443  150.9405 H   0  0  0  0  0  0  0  0  0  0  0  0
  1  2  1  0  0  0  0
  1 21  1  0  0  0  0
  1 22  1  0  0  0  0
  1 23  1  0  0  0  0
  2  3  1  0  0  0  0
  2  4  1  0  0  0  0
  2 24  1  0  0  0  0
  3 25  1  0  0  0  0
  3 26  1  0  0  0  0
  3 27  1  0  0  0  0
  4  5  1  0  0  0  0
  4 28  1  0  0  0  0
  4 29  1  0  0  0  0
  5 20  1  0  0  0  0
  5  6  1  0  0  0  0
  5 42  1  0  0  0  0
  6  7  1  0  0  0  0
  6 30  1  0  0  0  0
  6 31  1  0  0  0  0
  7  8  1  0  0  0  0
  7 32  1  0  0  0  0
  7 33  1  0  0  0  0
  8  9  1  0  0  0  0
  9 10  1  0  0  0  0
  9 20  1  0  0  0  0
  9 34  1  0  0  0  0
 10 11  1  0  0  0  0
 10 35  1  0  0  0  0
 10 36  1  0  0  0  0
 11 12  1  0  0  0  0
 11 37  1  0  0  0  0
 12 13  2  0  0  0  0
 12 14  1  0  0  0  0
 14 15  1  0  0  0  0
 14 38  1  0  0  0  0
 15 19  1  0  0  0  0
 15 16  2  0  0  0  0
 16 17  1  0  0  0  0
 17 18  2  0  0  0  0
 18 19  1  0  0  0  0
 18 39  1  0  0  0  0
 20 40  1  0  0  0  0
 20 41  1  0  0  0  0
M  CHG  1   5   1
M  END
> <s_m_source_file>
AV-unprocessed.smi

> <i_m_source_file_index>
2021

> <i_lp_mmshare_version>
43012

> <i_f3d_flags>
0

> <s_epik_input>
W0NIM11bQ0hdKFtDSDNdKVtDSDJdTjFbQ0gyXVtDSDJdT1tDQEhdKFtDSDJdMSlbQ0gyXVtOSF1DKD1PKVtOSF1jMm5uW2NIXXMy

> <s_epik_cmdline>
J2VwaWtfcHl0aG9uJywgJy1waCcsICc3LjAnLCAnLXRuJywgJzgnLCAnLW1hJywgJzIwMCcsICctbWV0YWxfYmluZGluZycsICctaW1hZScsICc8aW5maWxlLm1hZT4nLCAnLW9tYWUnLCAnPG91dGZpbGUubWFlPic=

> <r_lp_tautomer_probability>
1

> <r_epik_Ionization_Penalty>
0.102019

> <r_epik_Ionization_Penalty_Charging>
0.098413

> <r_epik_Ionization_Penalty_Neutral>
0.00360555

> <r_epik_State_Penalty>
0.0884988

> <r_epik_Charging_Adjusted_Penalty>
0.186912

> <i_epik_Tot_Q>
1

> <i_epik_Tot_abs_Q>
1

> <r_epik_Metal_State_Penalty>
0.454709

> <b_epik_Metal_Only>
0

> <s_lp_Force_Field>
OPLS_2005

> <r_lp_Energy>
18.1157

> <b_lp_Chiralities_Consistent>
1

> <s_lp_Variant>
AV-unprocessed.smi:2021-2

> <Gold.Version>
5.8.1

> <Gold.Id.Protein>
6NUR|6NUR_protein|mol2

> <Gold.PLP.Fitness>
39.6011

> <Gold.PLP.PLP>
-32.4469

> <Gold.PLP.part.hbond>
-2.8376

> <Gold.PLP.part.metal>
0.0000

> <Gold.PLP.part.buried>
-4.5561

> <Gold.PLP.part.nonpolar>
-26.1817

> <Gold.PLP.part.repulsive>
1.6803

> <Gold.PLP.ligand.clash>
0.0000

> <Gold.PLP.ligand.torsion>
0.7438

> <Gold.PLP.Chemscore.Hbond>
2.2710

> <Gold.PLP.Chemscore.CHOScore>
0.5761

> <Gold.PLP.Chemscore.Metal>
0.0000

> <Gold.Chemscore.Hbonds>
donor molecule, donor type, donor heavy atom, donor atom, acceptor molecule, acceptor atom, score
      L1  H    11    37       P1 10175  1.00
      L1  H    14    38       P1 10175  0.92
      P1  H  7989  7998       L1    17  0.04
      L1  C    18    39       P1  8028  0.65

> <Gold.PLP.Chemscore.Internal.Correction>
0.1007

> <Gold.Rescore>
     Score         DG    S(hbond)    S(metal)    S(lipo)     H(rot)  DE(clash)    DE(int)     intcor
     13.68     -15.61       1.93        0.00      72.59       1.88       0.05       1.88       ----

> <Gold.Chemscore.Fitness>
13.6839

> <Gold.Chemscore.DG>
-15.6117

> <Gold.Chemscore.ZeroCoef>
-5.4800

> <Gold.Chemscore.Hbond>
1.9326

> <Gold.Chemscore.Metal>
0.0000

> <Gold.Chemscore.Lipo>
72.5875

> <Gold.Chemscore.Internal_Hbond>
0.0000

> <Gold.Chemscore.DEClash>
0.0473

> <Gold.Chemscore.DEInternal>
1.8806

> <Gold.Chemscore.Rot>
1.8812

> <Gold.Chemscore.Internal.Correction>
   9.000000E+99

> <Gold.Chemscore.Hbonds>
donor molecule, donor type, donor heavy atom, donor atom, acceptor molecule, acceptor atom, score
      L1  H    11    37       P1 10175  0.98
      L1  H    14    38       P1 10175  0.84
      P1  H  7989  7998       L1    17  0.02

> <Gold.Chemscore.Hbond.Weighted>
-6.4549

> <Gold.Chemscore.Metal.Weighted>
-0.0000

> <Gold.Chemscore.Lipo.Weighted>
-8.4927

> <Gold.Chemscore.Internal_Hbond.Weighted>
0.0000

> <Gold.Chemscore.DEClash.Weighted>
0.0473

> <Gold.Chemscore.DEInternal.Weighted>
1.8806

> <Gold.Chemscore.Rot.Weighted>
4.8159

> <Gold.Chemscore.Internal.Correction.Weighted>
   9.000000E+99

> <Gold.Protein.RotatedTorsions>
[ 6907 6896 6895 6894 ] final  159.50 input  -60.11 | X-H torsion
[ 7974 7965 7964 7962 ] final  -59.48 input  175.53 | X-H torsion
[ 8008 7997 7996 7995 ] final  -45.12 input   59.86 | X-H torsion
[ 10167 10162 10161 10158 ] final   83.94 input  -65.29 | X-H torsion
[ 10718 10713 10712 10709 ] final  144.91 input   66.30 | X-H torsion
[ 10763 10752 10751 10750 ] final   98.53 input  -60.55 | X-H torsion
[ 11005 11000 10999 10996 ] final  -24.87 input  -57.11 | X-H torsion

> <Gold.Protein.ActiveResidues>
 VAL166  LYS551  ARG553  GLY616  TRP617  ASP618  TYR619  PRO620  LYS621  CYS622 
 ASP623  PHE694  ASN695  SER759  ASP760  ASP761  ALA762  ILE779  LEU786  VAL792 
 PHE793  MET794  SER795  GLU796  ALA797  LYS798  CYS799  TRP800  GLU811  SER814 

> <Gold.Protein.RotatedAtoms>
  151.9847  133.3770  159.4120 H   0  0  0  0  0  0  0  0  0  0  0  0  # atno 6907 bound_to 6896
  150.6930  134.4001  159.5124 H   0  0  0  0  0  0  0  0  0  0  0  0  # atno 6908 bound_to 6896
  152.1725  134.8822  160.0584 H   0  0  0  0  0  0  0  0  0  0  0  0  # atno 6909 bound_to 6896
  145.8269  140.8504  143.0103 H   0  0  0  0  0  0  0  0  0  0  0  0  # atno 7974 bound_to 7965
  154.3999  140.1405  156.3796 H   0  0  0  0  0  0  0  0  0  0  0  0  # atno 8008 bound_to 7997
  155.8016  140.3475  155.5385 H   0  0  0  0  0  0  0  0  0  0  0  0  # atno 8009 bound_to 7997
  155.8477  140.0936  157.1685 H   0  0  0  0  0  0  0  0  0  0  0  0  # atno 8010 bound_to 7997
  139.9132  144.6259  150.8516 H   0  0  0  0  0  0  0  0  0  0  0  0  # atno 10167 bound_to 10162
  157.3516  131.0951  151.0995 H   0  0  0  0  0  0  0  0  0  0  0  0  # atno 10718 bound_to 10713
  153.2902  135.4145  155.1159 H   0  0  0  0  0  0  0  0  0  0  0  0  # atno 10763 bound_to 10752
  154.8518  135.3516  154.5992 H   0  0  0  0  0  0  0  0  0  0  0  0  # atno 10764 bound_to 10752
  153.6414  135.7056  153.5298 H   0  0  0  0  0  0  0  0  0  0  0  0  # atno 10765 bound_to 10752
  140.8885  133.7605  156.0391 H   0  0  0  0  0  0  0  0  0  0  0  0  # atno 11005 bound_to 11000
  144.6743  140.0616  143.7476 LP  0  0  0  0  0  0  0  0  0  0  0  0  # atno 17320 bound_to 7965
  145.9613  139.2803  143.1154 LP  0  0  0  0  0  0  0  0  0  0  0  0  # atno 17321 bound_to 7965
  140.7680  143.3351  151.2327 LP  0  0  0  0  0  0  0  0  0  0  0  0  # atno 17342 bound_to 10162
  139.6925  143.9668  152.2866 LP  0  0  0  0  0  0  0  0  0  0  0  0  # atno 17343 bound_to 10162
  157.2169  130.6463  149.5796 LP  0  0  0  0  0  0  0  0  0  0  0  0  # atno 17370 bound_to 10713
  155.9722  130.4642  150.6208 LP  0  0  0  0  0  0  0  0  0  0  0  0  # atno 17371 bound_to 10713
  140.8376  134.3105  157.5326 LP  0  0  0  0  0  0  0  0  0  0  0  0  # atno 17394 bound_to 11000
  139.8727  134.9398  156.3752 LP  0  0  0  0  0  0  0  0  0  0  0  0  # atno 17395 bound_to 11000

$$$$
