AV-unprocessed.smi:1388|AV-procd|sdf|5641|dock1
  -GOLD-   22720 5253D 1   1.00000     0.00000
 Structure written by MMmdl.
 45 46  0  0  0  0  0  0  0  0  1 V2000
  143.1336  137.1115  153.5967 C   0  0  0  0  0  0  0  0  0  0  0  0
  144.1476  138.0247  153.0929 N   0  0  0  0  0  0  0  0  0  0  0  0
  145.4587  137.7471  153.0458 C   0  0  0  0  0  0  0  0  0  0  0  0
  145.9408  136.6830  153.4332 O   0  0  0  0  0  0  0  0  0  0  0  0
  146.3683  138.8420  152.4771 C   0  0  0  0  0  0  0  0  0  0  0  0
  146.9902  139.7178  153.4973 N   0  0  0  0  0  0  0  0  0  0  0  0
  147.3663  141.0315  152.9533 C   0  0  0  0  0  0  0  0  0  0  0  0
  147.9488  141.9317  154.0575 C   0  0  0  0  0  0  0  0  0  0  0  0
  149.1613  141.2739  154.7347 C   0  0  0  0  0  0  0  0  0  0  0  0
  149.6167  142.0766  155.8661 N   0  0  0  0  0  0  0  0  0  0  0  0
  150.6358  141.7595  156.6784 C   0  0  0  0  0  0  0  0  0  0  0  0
  151.2981  140.7273  156.5660 O   0  0  0  0  0  0  0  0  0  0  0  0
  150.8337  142.7149  157.6041 N   0  0  0  0  0  0  0  0  0  0  0  0
  151.7909  142.7425  158.6576 C   0  0  0  0  0  0  0  0  0  0  0  0
  152.3902  141.6212  159.1316 N   0  0  0  0  0  0  0  0  0  0  0  0
  153.2841  141.7183  160.1369 C   0  0  0  0  0  0  0  0  0  0  0  0
  153.6372  142.9402  160.7346 C   0  0  0  0  0  0  0  0  0  0  0  0
  153.0253  144.1115  160.2567 C   0  0  0  0  0  0  0  0  0  0  0  0
  152.0883  144.0195  159.2054 C   0  0  0  0  0  0  0  0  0  0  0  0
  151.4264  145.2855  158.6860 C   0  0  0  0  0  0  0  0  0  0  0  0
  148.7659  139.8693  155.2099 C   0  0  0  0  0  0  0  0  0  0  0  0
  148.1680  139.0454  154.0563 C   0  0  0  0  0  0  0  0  0  0  0  0
  142.1523  137.5834  153.5486 H   0  0  0  0  0  0  0  0  0  0  0  0
  143.3322  136.8429  154.6352 H   0  0  0  0  0  0  0  0  0  0  0  0
  143.1029  136.1989  153.0002 H   0  0  0  0  0  0  0  0  0  0  0  0
  143.8358  138.9224  152.7513 H   0  0  0  0  0  0  0  0  0  0  0  0
  147.1483  138.3456  151.8979 H   0  0  0  0  0  0  0  0  0  0  0  0
  145.7978  139.4477  151.7702 H   0  0  0  0  0  0  0  0  0  0  0  0
  148.0892  140.9103  152.1447 H   0  0  0  0  0  0  0  0  0  0  0  0
  146.5011  141.5394  152.5274 H   0  0  0  0  0  0  0  0  0  0  0  0
  148.2349  142.8944  153.6323 H   0  0  0  0  0  0  0  0  0  0  0  0
  147.1754  142.1398  154.7988 H   0  0  0  0  0  0  0  0  0  0  0  0
  149.9671  141.1733  154.0047 H   0  0  0  0  0  0  0  0  0  0  0  0
  149.1280  142.9442  156.0320 H   0  0  0  0  0  0  0  0  0  0  0  0
  150.2303  143.5218  157.5491 H   0  0  0  0  0  0  0  0  0  0  0  0
  153.7297  140.7945  160.4746 H   0  0  0  0  0  0  0  0  0  0  0  0
  154.3579  142.9772  161.5383 H   0  0  0  0  0  0  0  0  0  0  0  0
  153.2743  145.0672  160.6943 H   0  0  0  0  0  0  0  0  0  0  0  0
  151.7733  146.1664  159.2270 H   0  0  0  0  0  0  0  0  0  0  0  0
  150.3439  145.2256  158.8021 H   0  0  0  0  0  0  0  0  0  0  0  0
  151.6551  145.4291  157.6295 H   0  0  0  0  0  0  0  0  0  0  0  0
  149.6366  139.3543  155.6177 H   0  0  0  0  0  0  0  0  0  0  0  0
  148.0387  139.9374  156.0208 H   0  0  0  0  0  0  0  0  0  0  0  0
  147.8870  138.0622  154.4362 H   0  0  0  0  0  0  0  0  0  0  0  0
  148.9177  138.8826  153.2798 H   0  0  0  0  0  0  0  0  0  0  0  0
  1  2  1  0  0  0  0
  1 23  1  0  0  0  0
  1 24  1  0  0  0  0
  1 25  1  0  0  0  0
  2  3  1  0  0  0  0
  2 26  1  0  0  0  0
  3  4  2  0  0  0  0
  3  5  1  0  0  0  0
  5  6  1  0  0  0  0
  5 27  1  0  0  0  0
  5 28  1  0  0  0  0
  6 22  1  0  0  0  0
  6  7  1  0  0  0  0
  7  8  1  0  0  0  0
  7 29  1  0  0  0  0
  7 30  1  0  0  0  0
  8  9  1  0  0  0  0
  8 31  1  0  0  0  0
  8 32  1  0  0  0  0
  9 10  1  0  0  0  0
  9 21  1  0  0  0  0
  9 33  1  0  0  0  0
 10 11  1  0  0  0  0
 10 34  1  0  0  0  0
 11 12  2  0  0  0  0
 11 13  1  0  0  0  0
 13 14  1  0  0  0  0
 13 35  1  0  0  0  0
 14 19  1  0  0  0  0
 14 15  2  0  0  0  0
 15 16  1  0  0  0  0
 16 17  2  0  0  0  0
 16 36  1  0  0  0  0
 17 18  1  0  0  0  0
 17 37  1  0  0  0  0
 18 19  2  0  0  0  0
 18 38  1  0  0  0  0
 19 20  1  0  0  0  0
 20 39  1  0  0  0  0
 20 40  1  0  0  0  0
 20 41  1  0  0  0  0
 21 22  1  0  0  0  0
 21 42  1  0  0  0  0
 21 43  1  0  0  0  0
 22 44  1  0  0  0  0
 22 45  1  0  0  0  0
M  END
> <s_m_source_file>
AV-unprocessed.smi

> <i_m_source_file_index>
1388

> <i_lp_mmshare_version>
43012

> <i_f3d_flags>
0

> <s_epik_input>
W0NIM11bTkhdQyg9TylbQ0gyXU4xW0NIMl1bQ0gyXVtDSF0oW0NIMl1bQ0gyXTEpW05IXUMoPU8pW05IXWMybltjSF1bY0hdW2NIXWMyW0NIM10=

> <s_epik_cmdline>
J2VwaWtfcHl0aG9uJywgJy1waCcsICc3LjAnLCAnLXRuJywgJzgnLCAnLW1hJywgJzIwMCcsICctbWV0YWxfYmluZGluZycsICctaW1hZScsICc8aW5maWxlLm1hZT4nLCAnLW9tYWUnLCAnPG91dGZpbGUubWFlPic=

> <r_epik_Ionization_Penalty>
0.164795

> <r_epik_Ionization_Penalty_Charging>
0

> <r_epik_Ionization_Penalty_Neutral>
0.164795

> <r_epik_State_Penalty>
0.154069

> <r_epik_Charging_Adjusted_Penalty>
0.154069

> <i_epik_Tot_Q>
0

> <i_epik_Tot_abs_Q>
0

> <r_epik_Metal_State_Penalty>
0.158585

> <b_epik_Metal_Only>
0

> <s_lp_Force_Field>
OPLS_2005

> <r_lp_Energy>
17.3475

> <b_lp_Chiralities_Consistent>
1

> <s_lp_Variant>
AV-unprocessed.smi:1388-1

> <Gold.Version>
5.8.1

> <Gold.Id.Protein>
6NUR|6NUR_protein|mol2

> <Gold.PLP.Fitness>
46.8532

> <Gold.PLP.PLP>
-42.0391

> <Gold.PLP.part.hbond>
-3.3375

> <Gold.PLP.part.metal>
0.0000

> <Gold.PLP.part.buried>
-3.7884

> <Gold.PLP.part.nonpolar>
-33.8587

> <Gold.PLP.part.repulsive>
0.5657

> <Gold.PLP.ligand.clash>
0.0000

> <Gold.PLP.ligand.torsion>
0.6730

> <Gold.PLP.Chemscore.Hbond>
2.0397

> <Gold.PLP.Chemscore.CHOScore>
0.0000

> <Gold.PLP.Chemscore.Metal>
0.0000

> <Gold.Chemscore.Hbonds>
donor molecule, donor type, donor heavy atom, donor atom, acceptor molecule, acceptor atom, score
      L1  H     2    26       P1 10175  1.00
      L1  H    10    34       P1  8028  1.00

> <Gold.PLP.Chemscore.Internal.Correction>
0.0410

> <Gold.Rescore>
     Score         DG    S(hbond)    S(metal)    S(lipo)     H(rot)  DE(clash)    DE(int)     intcor
     17.69     -21.93       2.47        0.00     106.50       1.66       2.47       1.76       ----

> <Gold.Chemscore.Fitness>
17.6942

> <Gold.Chemscore.DG>
-21.9277

> <Gold.Chemscore.ZeroCoef>
-5.4800

> <Gold.Chemscore.Hbond>
2.4675

> <Gold.Chemscore.Metal>
0.0000

> <Gold.Chemscore.Lipo>
106.4951

> <Gold.Chemscore.Internal_Hbond>
0.0000

> <Gold.Chemscore.DEClash>
2.4705

> <Gold.Chemscore.DEInternal>
1.7630

> <Gold.Chemscore.Rot>
1.6616

> <Gold.Chemscore.Internal.Correction>
   9.000000E+99

> <Gold.Chemscore.Hbonds>
donor molecule, donor type, donor heavy atom, donor atom, acceptor molecule, acceptor atom, score
      L1  H     2    26       P1 10175  0.95
      L1  H    10    34       P1  8028  0.94

> <Gold.Chemscore.Hbond.Weighted>
-8.2416

> <Gold.Chemscore.Metal.Weighted>
-0.0000

> <Gold.Chemscore.Lipo.Weighted>
-12.4599

> <Gold.Chemscore.Internal_Hbond.Weighted>
0.0000

> <Gold.Chemscore.DEClash.Weighted>
2.4705

> <Gold.Chemscore.DEInternal.Weighted>
1.7630

> <Gold.Chemscore.Rot.Weighted>
4.2538

> <Gold.Chemscore.Internal.Correction.Weighted>
   9.000000E+99

> <Gold.Protein.RotatedTorsions>
[ 6907 6896 6895 6894 ] final -125.72 input  -60.11 | X-H torsion
[ 7974 7965 7964 7962 ] final  -64.28 input  175.53 | X-H torsion
[ 8008 7997 7996 7995 ] final -112.18 input   59.86 | X-H torsion
[ 10167 10162 10161 10158 ] final -171.38 input  -65.29 | X-H torsion
[ 10718 10713 10712 10709 ] final -144.71 input   66.30 | X-H torsion
[ 10763 10752 10751 10750 ] final  -89.55 input  -60.55 | X-H torsion
[ 11005 11000 10999 10996 ] final  134.19 input  -57.11 | X-H torsion

> <Gold.Protein.ActiveResidues>
 VAL166  LYS551  ARG553  GLY616  TRP617  ASP618  TYR619  PRO620  LYS621  CYS622 
 ASP623  PHE694  ASN695  SER759  ASP760  ASP761  ALA762  ILE779  LEU786  VAL792 
 PHE793  MET794  SER795  GLU796  ALA797  LYS798  CYS799  TRP800  GLU811  SER814 

> <Gold.Protein.RotatedAtoms>
  150.8896  133.7261  159.2908 H   0  0  0  0  0  0  0  0  0  0  0  0  # atno 6907 bound_to 6896
  151.4816  135.1051  159.9789 H   0  0  0  0  0  0  0  0  0  0  0  0  # atno 6908 bound_to 6896
  152.4811  133.8211  159.7109 H   0  0  0  0  0  0  0  0  0  0  0  0  # atno 6909 bound_to 6896
  145.7686  140.8824  143.0392 H   0  0  0  0  0  0  0  0  0  0  0  0  # atno 7974 bound_to 7965
  155.0012  140.0394  157.2361 H   0  0  0  0  0  0  0  0  0  0  0  0  # atno 8008 bound_to 7997
  154.7542  140.2772  155.6244 H   0  0  0  0  0  0  0  0  0  0  0  0  # atno 8009 bound_to 7997
  156.2891  140.2641  156.2303 H   0  0  0  0  0  0  0  0  0  0  0  0  # atno 8010 bound_to 7997
  139.5806  144.1432  152.1509 H   0  0  0  0  0  0  0  0  0  0  0  0  # atno 10167 bound_to 10162
  156.3734  130.7800  151.1983 H   0  0  0  0  0  0  0  0  0  0  0  0  # atno 10718 bound_to 10713
  154.6564  135.5337  153.7964 H   0  0  0  0  0  0  0  0  0  0  0  0  # atno 10763 bound_to 10752
  153.0416  135.6495  154.0938 H   0  0  0  0  0  0  0  0  0  0  0  0  # atno 10764 bound_to 10752
  154.0851  135.2944  155.3262 H   0  0  0  0  0  0  0  0  0  0  0  0  # atno 10765 bound_to 10752
  139.9899  134.9519  156.9831 H   0  0  0  0  0  0  0  0  0  0  0  0  # atno 11005 bound_to 11000
  144.6817  139.9824  143.7483 LP  0  0  0  0  0  0  0  0  0  0  0  0  # atno 17320 bound_to 7965
  146.0192  139.3236  143.0823 LP  0  0  0  0  0  0  0  0  0  0  0  0  # atno 17321 bound_to 7965
  140.0985  144.5560  150.7005 LP  0  0  0  0  0  0  0  0  0  0  0  0  # atno 17342 bound_to 10162
  140.7084  143.2486  151.4655 LP  0  0  0  0  0  0  0  0  0  0  0  0  # atno 17343 bound_to 10162
  157.7486  131.0365  150.4414 LP  0  0  0  0  0  0  0  0  0  0  0  0  # atno 17370 bound_to 10713
  156.4645  130.4039  149.6556 LP  0  0  0  0  0  0  0  0  0  0  0  0  # atno 17371 bound_to 10713
  140.4929  134.1175  155.7236 LP  0  0  0  0  0  0  0  0  0  0  0  0  # atno 17394 bound_to 11000
  141.1557  133.8887  157.1983 LP  0  0  0  0  0  0  0  0  0  0  0  0  # atno 17395 bound_to 11000

$$$$
