#       Name:                AV-unprocessed.smi:1352
#       Creating user name   scv26
#       Creation time:       Fri Mar 27 05:12:04 2020


#       File generated by GOLD software.
#

@<TRIPOS>MOLECULE
AV-unprocessed.smi:1352
    51    52     1
SMALL
NO_CHARGES


@<TRIPOS>ATOM
      1 ****         0.4852   4.5045   3.2573 C.3            1 S1                 0.0000
      2 ****        -0.3437   3.6669   2.2733 C.3            1 S1                 0.0000
      3 ****        -1.8114   3.5648   2.7205 C.3            1 S1                 0.0000
      4 ****        -2.6199   2.7063   1.7337 C.3            1 S1                 0.0000
      5 ****        -4.0847   2.5747   2.1745 C.3            1 S1                 0.0000
      6 ****        -1.9567   1.3262   1.5606 C.3            1 S1                 0.0000
      7 ****        -0.5421   1.4539   1.1240 N.4            1 S1                 1.0000
      8 ****         0.0699   0.1367   0.8152 C.3            1 S1                 0.0000
      9 ****         1.2658   0.2561  -0.1494 C.3            1 S1                 0.0000
     10 ****         1.8266  -1.0504  -0.4730 N.am           1 S1                 0.0000
     11 ****         1.3117  -1.9081  -1.3670 C.2            1 S1                 0.0000
     12 ****         0.2789  -1.6798  -1.9984 O.2            1 S1                 0.0000
     13 ****         2.0749  -3.2277  -1.5512 C.3            1 S1                 0.0000
     14 ****         1.7729  -3.9049  -2.8235 N.am           1 S1                 0.0000
     15 ****         0.8265  -4.9483  -2.7866 C.2            1 S1                 0.0000
     16 ****         0.4782  -5.6304  -3.8892 C.2            1 S1                 0.0000
     17 ****         1.1031  -5.2709  -5.1400 C.2            1 S1                 0.0000
     18 ****         2.0072  -4.2722  -5.1871 C.2            1 S1                 0.0000
     19 ****         2.3882  -3.5215  -3.9849 C.2            1 S1                 0.0000
     20 ****         3.2091  -2.6042  -4.0188 O.2            1 S1                 0.0000
     21 ****         0.2552   2.2594   2.0870 C.3            1 S1                 0.0000
     22 ****         0.5042   4.0492   4.2481 H              1 S1                 0.0000
     23 ****         0.0745   5.5095   3.3605 H              1 S1                 0.0000
     24 ****         1.5163   4.6047   2.9171 H              1 S1                 0.0000
     25 ****        -0.3185   4.1756   1.3082 H              1 S1                 0.0000
     26 ****        -1.8646   3.1300   3.7199 H              1 S1                 0.0000
     27 ****        -2.2490   4.5614   2.7913 H              1 S1                 0.0000
     28 ****        -2.6131   3.2079   0.7646 H              1 S1                 0.0000
     29 ****        -4.1654   2.0753   3.1406 H              1 S1                 0.0000
     30 ****        -4.6627   1.9974   1.4521 H              1 S1                 0.0000
     31 ****        -4.5569   3.5535   2.2656 H              1 S1                 0.0000
     32 ****        -1.9991   0.7629   2.4944 H              1 S1                 0.0000
     33 ****        -2.5157   0.7531   0.8195 H              1 S1                 0.0000
     34 ****         0.3637  -0.3626   1.7398 H              1 S1                 0.0000
     35 ****        -0.6820  -0.5017   0.3491 H              1 S1                 0.0000
     36 ****         0.9681   0.7700  -1.0652 H              1 S1                 0.0000
     37 ****         2.0659   0.8490   0.2920 H              1 S1                 0.0000
     38 ****         2.6759  -1.3166   0.0049 H              1 S1                 0.0000
     39 ****         3.1478  -3.0395  -1.4746 H              1 S1                 0.0000
     40 ****         1.8392  -3.8771  -0.7067 H              1 S1                 0.0000
     41 ****         0.4011  -5.1510  -1.8144 H              1 S1                 0.0000
     42 ****        -0.2522  -6.4249  -3.8424 H              1 S1                 0.0000
     43 ****         0.8434  -5.8048  -6.0424 H              1 S1                 0.0000
     44 ****         2.4638  -4.0165  -6.1320 H              1 S1                 0.0000
     45 ****         1.2811   2.3574   1.7337 H              1 S1                 0.0000
     46 ****         0.3014   1.7384   3.0450 H              1 S1                 0.0000
     47 ****        -0.5642   1.9680   0.2547 H              1 S1                 0.0000
     48 ****        -0.2157  -0.8226  -1.8549 LP             1 S1                 0.0000
     49 ****        -0.0649  -2.3517  -2.6545 LP             1 S1                 0.0000
     50 ****         3.4452  -2.1132  -3.1802 LP             1 S1                 0.0000
     51 ****         3.6397  -2.3502  -4.8849 LP             1 S1                 0.0000
@<TRIPOS>BOND
    1    1    2 1     
    2    1   22 1     
    3    1   23 1     
    4    1   24 1     
    5    2   21 1     
    6    2    3 1     
    7    2   25 1     
    8    3    4 1     
    9    3   26 1     
   10    3   27 1     
   11    4    5 1     
   12    4    6 1     
   13    4   28 1     
   14    5   29 1     
   15    5   30 1     
   16    5   31 1     
   17    6    7 1     
   18    6   32 1     
   19    6   33 1     
   20    7    8 1     
   21    7   21 1     
   22    7   47 1     
   23    8    9 1     
   24    8   34 1     
   25    8   35 1     
   26    9   10 1     
   27    9   36 1     
   28    9   37 1     
   29   10   11 am    
   30   10   38 1     
   31   11   12 2     
   32   11   13 1     
   33   13   14 1     
   34   13   39 1     
   35   13   40 1     
   36   14   19 am    
   37   14   15 1     
   38   15   16 2     
   39   15   41 1     
   40   16   17 1     
   41   16   42 1     
   42   17   18 2     
   43   17   43 1     
   44   18   19 1     
   45   18   44 1     
   46   19   20 2     
   47   21   45 1     
   48   21   46 1     
   49   12   48 1     
   50   12   49 1     
   51   20   50 1     
   52   20   51 1     
@<TRIPOS>SUBSTRUCTURE
      1 S1             1
@<TRIPOS>SET
LONE_PAIRS      STATIC     ATOMS    <user>   **** ""
4 48 49 50 51
DONOR_HYDROGENS      STATIC     ATOMS    <user>   **** ""
2 47 38
ATOM$BLUE        STATIC     ATOMS    COLORGROUP SYSTEM
4 48 49 50 51
ATOM$RED        STATIC     ATOMS    COLORGROUP SYSTEM
2 47 38
