#       Name:                AV-unprocessed.smi:215
#       Creating user name   scv26
#       Creation time:       Thu Mar 26 20:04:37 2020


#       File generated by GOLD software.
#

@<TRIPOS>MOLECULE
AV-unprocessed.smi:215
    68    71     1
SMALL
NO_CHARGES


@<TRIPOS>ATOM
      1 ****        -2.6482  -2.5182  -0.5647 C.3            1 S1                 0.0000
      2 ****        -2.5226  -1.0746  -1.0996 C.3            1 S1                 0.0000
      3 ****        -3.8803  -0.3554  -1.3052 C.3            1 S1                 0.0000
      4 ****        -4.5041  -0.5193  -2.6545 N.4            1 S1                 1.0000
      5 ****        -4.5022  -1.9043  -3.1849 C.3            1 S1                 0.0000
      6 ****        -5.8584   0.0920  -2.7420 C.3            1 S1                 0.0000
      7 ****        -6.1380   0.6745  -4.1372 C.3            1 S1                 0.0000
      8 ****        -5.2913   1.7791  -4.3751 O.3            1 S1                 0.0000
      9 ****        -3.5092   1.1123  -1.0402 C.3            1 S1                 0.0000
     10 ****        -2.4221   1.0496   0.0263 C.3            1 S1                 0.0000
     11 ****        -1.7941  -0.2513  -0.1337 N.pl3          1 S1                 0.0000
     12 ****        -0.4477  -0.3452   0.0298 C.ar           1 S1                 0.0000
     13 ****         0.2816  -1.0974  -0.8363 N.ar           1 S1                 0.0000
     14 ****         1.6048  -1.2068  -0.6911 C.ar           1 S1                 0.0000
     15 ****         2.3885  -0.6606   0.2390 N.ar           1 S1                 0.0000
     16 ****         1.6670   0.0940   1.1171 C.ar           1 S1                 0.0000
     17 ****         0.2586   0.3054   1.0831 C.ar           1 S1                 0.0000
     18 ****        -0.1195   1.1220   2.1426 N.2            1 S1                 0.0000
     19 ****         0.9986   1.3815   2.7632 C.2            1 S1                 0.0000
     20 ****         2.1221   0.8012   2.2190 N.pl3          1 S1                 0.0000
     21 ****         3.4657   0.9136   2.7152 C.3            1 S1                 0.0000
     22 ****         4.6143   1.3658   1.8102 C.3            1 S1                 0.0000
     23 ****         5.5654   0.3539   2.4886 C.3            1 S1                 0.0000
     24 ****         6.3833  -0.5173   1.5227 C.3            1 S1                 0.0000
     25 ****         7.3006   0.2558   0.7751 O.3            1 S1                 0.0000
     26 ****         6.5439   0.9122   3.5447 C.3            1 S1                 0.0000
     27 ****         5.9024   1.6825   4.5413 O.3            1 S1                 0.0000
     28 ****         4.2939  -0.3329   3.0372 C.3            1 S1                 0.0000
     29 ****        -1.9724  -1.0682  -2.0415 H              1 S1                 0.0000
     30 ****        -4.5795  -0.6911  -0.5369 H              1 S1                 0.0000
     31 ****        -3.1785  -3.1788  -1.2463 H              1 S1                 0.0000
     32 ****        -3.1800  -2.5374   0.3871 H              1 S1                 0.0000
     33 ****        -1.6695  -2.9669  -0.3964 H              1 S1                 0.0000
     34 ****        -5.0349  -2.5802  -2.5149 H              1 S1                 0.0000
     35 ****        -3.4877  -2.2735  -3.3310 H              1 S1                 0.0000
     36 ****        -4.9883  -1.9542  -4.1586 H              1 S1                 0.0000
     37 ****        -6.6110  -0.6561  -2.4876 H              1 S1                 0.0000
     38 ****        -5.9863   0.8888  -2.0101 H              1 S1                 0.0000
     39 ****        -6.0057  -0.0655  -4.9259 H              1 S1                 0.0000
     40 ****        -7.1712   1.0180  -4.1945 H              1 S1                 0.0000
     41 ****        -5.5135   2.1553  -5.2138 H              1 S1                 0.0000
     42 ****        -3.0951   1.5603  -1.9451 H              1 S1                 0.0000
     43 ****        -4.3511   1.7268  -0.7213 H              1 S1                 0.0000
     44 ****        -1.7168   1.8744  -0.0854 H              1 S1                 0.0000
     45 ****        -2.8581   1.1066   1.0243 H              1 S1                 0.0000
     46 ****         2.1071  -1.8206  -1.4241 H              1 S1                 0.0000
     47 ****         1.0311   2.0046   3.6454 H              1 S1                 0.0000
     48 ****         3.4156   1.5588   3.5936 H              1 S1                 0.0000
     49 ****         4.4399   1.1413   0.7571 H              1 S1                 0.0000
     50 ****         4.8976   2.4108   1.9388 H              1 S1                 0.0000
     51 ****         6.9286  -1.2950   2.0582 H              1 S1                 0.0000
     52 ****         5.7300  -1.0301   0.8159 H              1 S1                 0.0000
     53 ****         7.7607  -0.3165   0.1801 H              1 S1                 0.0000
     54 ****         7.0770   0.1022   4.0436 H              1 S1                 0.0000
     55 ****         7.3005   1.5458   3.0813 H              1 S1                 0.0000
     56 ****         6.5576   1.9960   5.1460 H              1 S1                 0.0000
     57 ****         4.3293  -0.5813   4.0984 H              1 S1                 0.0000
     58 ****         3.9936  -1.2029   2.4521 H              1 S1                 0.0000
     59 ****        -3.9207   0.0184  -3.2802 H              1 S1                 0.0000
     60 ****        -4.3381   1.4770  -4.3835 LP             1 S1                 0.0000
     61 ****        -5.4183   2.4618  -3.6555 LP             1 S1                 0.0000
     62 ****        -0.1761  -1.5725  -1.5879 LP             1 S1                 0.0000
     63 ****         3.3792  -0.7879   0.2869 LP             1 S1                 0.0000
     64 ****        -1.0390   1.4384   2.3760 LP             1 S1                 0.0000
     65 ****         7.9530   0.6953   1.3925 LP             1 S1                 0.0000
     66 ****         6.8084   0.9555   0.2572 LP             1 S1                 0.0000
     67 ****         5.2368   1.1170   5.0284 LP             1 S1                 0.0000
     68 ****         5.4345   2.4586   4.1187 LP             1 S1                 0.0000
@<TRIPOS>BOND
    1    1    2 1     
    2    1   31 1     
    3    1   32 1     
    4    1   33 1     
    5    2   29 1     
    6    2   11 1     
    7    2    3 1     
    8    3   30 1     
    9    3    4 1     
   10    3    9 1     
   11    4    5 1     
   12    4    6 1     
   13    4   59 1     
   14    5   34 1     
   15    5   35 1     
   16    5   36 1     
   17    6    7 1     
   18    6   37 1     
   19    6   38 1     
   20    7    8 1     
   21    7   39 1     
   22    7   40 1     
   23    8   41 1     
   24    9   10 1     
   25    9   42 1     
   26    9   43 1     
   27   10   11 1     
   28   10   44 1     
   29   10   45 1     
   30   11   12 1     
   31   12   17 ar    
   32   12   13 ar    
   33   13   14 ar    
   34   14   15 ar    
   35   14   46 1     
   36   15   16 ar    
   37   16   20 1     
   38   16   17 ar    
   39   17   18 1     
   40   18   19 2     
   41   19   20 1     
   42   19   47 1     
   43   20   21 1     
   44   21   28 1     
   45   21   22 1     
   46   21   48 1     
   47   22   23 1     
   48   22   49 1     
   49   22   50 1     
   50   23   24 1     
   51   23   26 1     
   52   23   28 1     
   53   24   25 1     
   54   24   51 1     
   55   24   52 1     
   56   25   53 1     
   57   26   27 1     
   58   26   54 1     
   59   26   55 1     
   60   27   56 1     
   61   28   57 1     
   62   28   58 1     
   63    8   60 1     
   64    8   61 1     
   65   13   62 1     
   66   15   63 1     
   67   18   64 1     
   68   25   65 1     
   69   25   66 1     
   70   27   67 1     
   71   27   68 1     
@<TRIPOS>SUBSTRUCTURE
      1 S1             1
@<TRIPOS>SET
LONE_PAIRS      STATIC     ATOMS    <user>   **** ""
9 60 61 62 63 64 65 66 67 68
DONOR_HYDROGENS      STATIC     ATOMS    <user>   **** ""
4 59 41 53 56
ATOM$BLUE        STATIC     ATOMS    COLORGROUP SYSTEM
9 60 61 62 63 64 65 66 67 68
ATOM$RED        STATIC     ATOMS    COLORGROUP SYSTEM
4 59 41 53 56
