AV-unprocessed.smi:2913|AV-procd|sdf|11184|dock1
  -GOLD-   2272016 73D 1   1.00000     0.00000
 Structure written by MMmdl.
 41 42  0  0  0  0  0  0  0  0  1 V2000
  151.6602  144.0960  159.4464 C   0  0  0  0  0  0  0  0  0  0  0  0
  152.4343  143.0859  160.2773 C   0  0  0  0  0  0  0  0  0  0  0  0
  152.8472  143.4151  161.5216 C   0  0  0  0  0  0  0  0  0  0  0  0
  153.5973  142.4941  162.3773 C   0  0  0  0  0  0  0  0  0  0  0  0
  153.9652  142.8020  163.5114 O   0  0  0  0  0  0  0  0  0  0  0  0
  153.8641  141.2745  161.8346 N   0  0  0  0  0  0  0  0  0  0  0  0
  154.6202  140.2839  162.6057 C   0  0  0  0  0  0  0  0  0  0  0  0
  153.4407  140.9193  160.5428 C   0  0  0  0  0  0  0  0  0  0  0  0
  152.7377  141.7605  159.7522 C   0  0  0  0  0  0  0  0  0  0  0  0
  152.3038  141.4502  158.4521 N   0  0  0  0  0  0  0  0  0  0  0  0
  151.5234  140.4391  158.0265 C   0  0  0  0  0  0  0  0  0  0  0  0
  150.9947  139.5866  158.7393 O   0  0  0  0  0  0  0  0  0  0  0  0
  151.3712  140.4883  156.6952 N   0  0  0  0  0  0  0  0  0  0  0  0
  150.5470  139.5889  155.8908 C   0  0  2  0  0  0  0  0  0  0  0  0
  151.4593  138.5561  155.2107 C   0  0  0  0  0  0  0  0  0  0  0  0
  149.7339  140.4183  154.8775 C   0  0  1  0  0  0  0  0  0  0  0  0
  148.5399  139.6862  154.2629 C   0  0  0  0  0  0  0  0  0  0  0  0
  147.6567  140.8391  153.8453 C   0  0  0  0  0  0  0  0  0  0  0  0
  147.8550  141.8158  155.0000 C   0  0  0  0  0  0  0  0  0  0  0  0
  149.1602  141.5601  155.5126 O   0  0  0  0  0  0  0  0  0  0  0  0
  151.5033  145.0297  159.9877 H   0  0  0  0  0  0  0  0  0  0  0  0
  150.6819  143.6963  159.1778 H   0  0  0  0  0  0  0  0  0  0  0  0
  152.2023  144.3271  158.5290 H   0  0  0  0  0  0  0  0  0  0  0  0
  152.6205  144.3968  161.9118 H   0  0  0  0  0  0  0  0  0  0  0  0
  154.7658  139.3472  162.0670 H   0  0  0  0  0  0  0  0  0  0  0  0
  154.1014  140.0455  163.5353 H   0  0  0  0  0  0  0  0  0  0  0  0
  155.6090  140.6697  162.8578 H   0  0  0  0  0  0  0  0  0  0  0  0
  153.7427  139.9259  160.2530 H   0  0  0  0  0  0  0  0  0  0  0  0
  152.6148  142.0973  157.7424 H   0  0  0  0  0  0  0  0  0  0  0  0
  151.8424  141.2284  156.1965 H   0  0  0  0  0  0  0  0  0  0  0  0
  149.8462  139.0465  156.5277 H   0  0  0  0  0  0  0  0  0  0  0  0
  150.8812  137.8300  154.6394 H   0  0  0  0  0  0  0  0  0  0  0  0
  152.0387  137.9999  155.9484 H   0  0  0  0  0  0  0  0  0  0  0  0
  152.1615  139.0349  154.5274 H   0  0  0  0  0  0  0  0  0  0  0  0
  150.3823  140.7779  154.0764 H   0  0  0  0  0  0  0  0  0  0  0  0
  148.8174  139.0404  153.4295 H   0  0  0  0  0  0  0  0  0  0  0  0
  148.0303  139.0798  155.0134 H   0  0  0  0  0  0  0  0  0  0  0  0
  148.0250  141.2750  152.9154 H   0  0  0  0  0  0  0  0  0  0  0  0
  146.6145  140.5535  153.7011 H   0  0  0  0  0  0  0  0  0  0  0  0
  147.7467  142.8544  154.6869 H   0  0  0  0  0  0  0  0  0  0  0  0
  147.1296  141.6236  155.7916 H   0  0  0  0  0  0  0  0  0  0  0  0
  1  2  1  0  0  0  0
  1 21  1  0  0  0  0
  1 22  1  0  0  0  0
  1 23  1  0  0  0  0
  2  9  1  0  0  0  0
  2  3  2  0  0  0  0
  3  4  1  0  0  0  0
  3 24  1  0  0  0  0
  4  5  2  0  0  0  0
  4  6  1  0  0  0  0
  6  7  1  0  0  0  0
  6  8  1  0  0  0  0
  7 25  1  0  0  0  0
  7 26  1  0  0  0  0
  7 27  1  0  0  0  0
  8  9  2  0  0  0  0
  8 28  1  0  0  0  0
  9 10  1  0  0  0  0
 10 11  1  0  0  0  0
 10 29  1  0  0  0  0
 11 12  2  0  0  0  0
 11 13  1  0  0  0  0
 13 14  1  0  0  0  0
 13 30  1  0  0  0  0
 14 15  1  0  0  0  0
 14 16  1  0  0  0  0
 14 31  1  0  0  0  0
 15 32  1  0  0  0  0
 15 33  1  0  0  0  0
 15 34  1  0  0  0  0
 16 20  1  0  0  0  0
 16 17  1  0  0  0  0
 16 35  1  0  0  0  0
 17 18  1  0  0  0  0
 17 36  1  0  0  0  0
 17 37  1  0  0  0  0
 18 19  1  0  0  0  0
 18 38  1  0  0  0  0
 18 39  1  0  0  0  0
 19 20  1  0  0  0  0
 19 40  1  0  0  0  0
 19 41  1  0  0  0  0
M  END
> <s_m_source_file>
AV-unprocessed.smi

> <i_m_source_file_index>
2913

> <i_lp_mmshare_version>
43012

> <i_f3d_flags>
0

> <s_epik_input>
W0NIM11jMVtjSF1jKD1PKW4oW0NIM10pW2NIXWMxW05IXUMoPU8pW05IXVtDQEhdKFtDSDNdKVtDQEBIXTJbQ0gyXVtDSDJdW0NIMl1PMg==

> <s_epik_cmdline>
J2VwaWtfcHl0aG9uJywgJy1waCcsICc3LjAnLCAnLXRuJywgJzgnLCAnLW1hJywgJzIwMCcsICctbWV0YWxfYmluZGluZycsICctaW1hZScsICc8aW5maWxlLm1hZT4nLCAnLW9tYWUnLCAnPG91dGZpbGUubWFlPic=

> <r_lp_tautomer_probability>
1

> <r_epik_Ionization_Penalty>
2.72039e-05

> <r_epik_Ionization_Penalty_Charging>
8.03976e-06

> <r_epik_Ionization_Penalty_Neutral>
1.91642e-05

> <r_epik_State_Penalty>
-0

> <r_epik_Charging_Adjusted_Penalty>
8.03976e-06

> <i_epik_Tot_Q>
0

> <i_epik_Tot_abs_Q>
0

> <r_epik_Metal_State_Penalty>
-0

> <b_epik_Metal_Only>
0

> <s_lp_Force_Field>
OPLS_2005

> <r_lp_Energy>
32.0319

> <b_lp_Chiralities_Consistent>
1

> <s_lp_Variant>
AV-unprocessed.smi:2913-3

> <Gold.Version>
5.8.1

> <Gold.Id.Protein>
6NUR|6NUR_protein|mol2

> <Gold.PLP.Fitness>
42.6931

> <Gold.PLP.PLP>
-44.6469

> <Gold.PLP.part.hbond>
-0.3802

> <Gold.PLP.part.metal>
0.0000

> <Gold.PLP.part.buried>
-3.0545

> <Gold.PLP.part.nonpolar>
-41.1659

> <Gold.PLP.part.repulsive>
0.3920

> <Gold.PLP.ligand.clash>
0.0000

> <Gold.PLP.ligand.torsion>
0.9837

> <Gold.PLP.Chemscore.Hbond>
0.0000

> <Gold.PLP.Chemscore.CHOScore>
0.0000

> <Gold.PLP.Chemscore.Metal>
0.0000

> <Gold.PLP.Chemscore.Internal.Correction>
0.0137

> <Gold.Rescore>
     Score         DG    S(hbond)    S(metal)    S(lipo)     H(rot)  DE(clash)    DE(int)     intcor
     13.38     -14.09       0.00        0.00     100.10       1.21       0.03       0.68       ----

> <Gold.Chemscore.Fitness>
13.3834

> <Gold.Chemscore.DG>
-14.0939

> <Gold.Chemscore.ZeroCoef>
-5.4800

> <Gold.Chemscore.Hbond>
0.0000

> <Gold.Chemscore.Metal>
0.0000

> <Gold.Chemscore.Lipo>
100.1011

> <Gold.Chemscore.Internal_Hbond>
0.0000

> <Gold.Chemscore.DEClash>
0.0329

> <Gold.Chemscore.DEInternal>
0.6776

> <Gold.Chemscore.Rot>
1.2101

> <Gold.Chemscore.Internal.Correction>
   9.000000E+99

> <Gold.Chemscore.Hbond.Weighted>
-0.0000

> <Gold.Chemscore.Metal.Weighted>
-0.0000

> <Gold.Chemscore.Lipo.Weighted>
-11.7118

> <Gold.Chemscore.Internal_Hbond.Weighted>
0.0000

> <Gold.Chemscore.DEClash.Weighted>
0.0329

> <Gold.Chemscore.DEInternal.Weighted>
0.6776

> <Gold.Chemscore.Rot.Weighted>
3.0979

> <Gold.Chemscore.Internal.Correction.Weighted>
   9.000000E+99

> <Gold.Protein.RotatedTorsions>
[ 6907 6896 6895 6894 ] final  -54.08 input  -60.11 | X-H torsion
[ 7974 7965 7964 7962 ] final   67.39 input  175.53 | X-H torsion
[ 8008 7997 7996 7995 ] final -119.21 input   59.86 | X-H torsion
[ 10167 10162 10161 10158 ] final  -95.75 input  -65.29 | X-H torsion
[ 10718 10713 10712 10709 ] final  173.98 input   66.30 | X-H torsion
[ 10763 10752 10751 10750 ] final -116.32 input  -60.55 | X-H torsion
[ 11005 11000 10999 10996 ] final  179.10 input  -57.11 | X-H torsion

> <Gold.Protein.ActiveResidues>
 VAL166  LYS551  ARG553  GLY616  TRP617  ASP618  TYR619  PRO620  LYS621  CYS622 
 ASP623  PHE694  ASN695  SER759  ASP760  ASP761  ALA762  ILE779  LEU786  VAL792 
 PHE793  MET794  SER795  GLU796  ALA797  LYS798  CYS799  TRP800  GLU811  SER814 

> <Gold.Protein.RotatedAtoms>
  150.8369  134.7646  159.6899 H   0  0  0  0  0  0  0  0  0  0  0  0  # atno 6907 bound_to 6896
  152.4464  134.5482  159.9869 H   0  0  0  0  0  0  0  0  0  0  0  0  # atno 6908 bound_to 6896
  151.5631  133.3362  159.3010 H   0  0  0  0  0  0  0  0  0  0  0  0  # atno 6909 bound_to 6896
  145.8152  139.3054  143.1076 H   0  0  0  0  0  0  0  0  0  0  0  0  # atno 7974 bound_to 7965
  155.1121  140.0397  157.2727 H   0  0  0  0  0  0  0  0  0  0  0  0  # atno 8008 bound_to 7997
  154.6677  140.2605  155.7014 H   0  0  0  0  0  0  0  0  0  0  0  0  # atno 8009 bound_to 7997
  156.2645  140.2804  156.1174 H   0  0  0  0  0  0  0  0  0  0  0  0  # atno 8010 bound_to 7997
  140.3009  143.3163  152.0249 H   0  0  0  0  0  0  0  0  0  0  0  0  # atno 10167 bound_to 10162
  156.9564  131.0047  151.2937 H   0  0  0  0  0  0  0  0  0  0  0  0  # atno 10718 bound_to 10713
  154.8515  135.4350  154.1802 H   0  0  0  0  0  0  0  0  0  0  0  0  # atno 10763 bound_to 10752
  153.2895  135.6960  153.7313 H   0  0  0  0  0  0  0  0  0  0  0  0  # atno 10764 bound_to 10752
  153.6486  135.3455  155.3067 H   0  0  0  0  0  0  0  0  0  0  0  0  # atno 10765 bound_to 10752
  140.4025  134.6765  157.4569 H   0  0  0  0  0  0  0  0  0  0  0  0  # atno 11005 bound_to 11000
  145.9735  140.8741  143.0150 LP  0  0  0  0  0  0  0  0  0  0  0  0  # atno 17320 bound_to 7965
  144.6753  140.1979  143.7390 LP  0  0  0  0  0  0  0  0  0  0  0  0  # atno 17321 bound_to 7965
  139.4915  144.6456  151.6785 LP  0  0  0  0  0  0  0  0  0  0  0  0  # atno 17342 bound_to 10162
  140.5652  144.0202  150.6189 LP  0  0  0  0  0  0  0  0  0  0  0  0  # atno 17343 bound_to 10162
  157.5687  130.8296  149.8363 LP  0  0  0  0  0  0  0  0  0  0  0  0  # atno 17370 bound_to 10713
  156.0341  130.3756  150.1608 LP  0  0  0  0  0  0  0  0  0  0  0  0  # atno 17371 bound_to 10713
  140.0326  134.6384  155.9086 LP  0  0  0  0  0  0  0  0  0  0  0  0  # atno 17394 bound_to 11000
  141.1851  133.6554  156.5186 LP  0  0  0  0  0  0  0  0  0  0  0  0  # atno 17395 bound_to 11000

$$$$
