AV-unprocessed.smi:2760|AV-procd|sdf|10628|dock2
  -GOLD-   2272015 73D 1   1.00000     0.00000
 Structure written by MMmdl.
 32 33  0  0  0  0  0  0  0  0  1 V2000
  153.8397  140.0363  159.0226 O   0  0  0  0  0  0  0  0  0  0  0  0
  153.6047  141.0442  159.6855 C   0  0  0  0  0  0  0  0  0  0  0  0
  152.6215  142.0603  159.3113 C   0  0  0  0  0  0  0  0  0  0  0  0
  152.4187  143.1473  160.0987 C   0  0  0  0  0  0  0  0  0  0  0  0
  151.4345  144.2238  159.7787 C   0  0  0  0  0  0  0  0  0  0  0  0
  151.4320  144.9478  158.4496 C   0  0  0  0  0  0  0  0  0  0  0  0
  151.8399  145.6798  159.7051 C   0  0  0  0  0  0  0  0  0  0  0  0
  153.1498  143.3117  161.2836 N   0  0  0  0  0  0  0  0  0  0  0  0
  154.0290  142.4259  161.6360 C   0  0  0  0  0  0  0  0  0  0  0  0
  155.1067  142.3958  163.0978 S   0  0  0  0  0  0  0  0  0  0  0  0
  154.6954  143.9835  163.8773 C   0  0  0  0  0  0  0  0  0  0  0  0
  155.9479  144.7185  164.3662 C   0  0  0  0  0  0  0  0  0  0  0  0
  156.8569  143.7833  164.9237 O   0  0  0  0  0  0  0  0  0  0  0  0
  156.3645  143.1766  166.1082 C   0  0  0  0  0  0  0  0  0  0  0  0
  156.8383  143.9746  167.3292 C   0  0  0  0  0  0  0  0  0  0  0  0
  156.6261  143.2580  168.4324 F   0  0  0  0  0  0  0  0  0  0  0  0
  158.1419  144.2344  167.2321 F   0  0  0  0  0  0  0  0  0  0  0  0
  156.1597  145.1177  167.4246 F   0  0  0  0  0  0  0  0  0  0  0  0
  154.2568  141.2959  160.8435 N   0  0  0  0  0  0  0  0  0  0  0  0
  154.9467  140.6247  161.1480 H   0  0  0  0  0  0  0  0  0  0  0  0
  152.0617  141.9312  158.3970 H   0  0  0  0  0  0  0  0  0  0  0  0
  150.4540  144.0257  160.2092 H   0  0  0  0  0  0  0  0  0  0  0  0
  152.2123  144.7109  157.7294 H   0  0  0  0  0  0  0  0  0  0  0  0
  150.4646  145.1957  158.0175 H   0  0  0  0  0  0  0  0  0  0  0  0
  151.1440  146.4128  160.1074 H   0  0  0  0  0  0  0  0  0  0  0  0
  152.8928  145.9277  159.8231 H   0  0  0  0  0  0  0  0  0  0  0  0
  154.0110  143.8106  164.7083 H   0  0  0  0  0  0  0  0  0  0  0  0
  154.1693  144.6030  163.1506 H   0  0  0  0  0  0  0  0  0  0  0  0
  156.4136  145.2562  163.5389 H   0  0  0  0  0  0  0  0  0  0  0  0
  155.6694  145.4562  165.1203 H   0  0  0  0  0  0  0  0  0  0  0  0
  155.2738  143.1452  166.0865 H   0  0  0  0  0  0  0  0  0  0  0  0
  156.7198  142.1472  166.1759 H   0  0  0  0  0  0  0  0  0  0  0  0
  1  2  2  0  0  0  0
  2 19  1  0  0  0  0
  2  3  1  0  0  0  0
  3 21  1  0  0  0  0
  3  4  2  0  0  0  0
  4  5  1  0  0  0  0
  4  8  1  0  0  0  0
  5  7  1  0  0  0  0
  5  6  1  0  0  0  0
  5 22  1  0  0  0  0
  6  7  1  0  0  0  0
  6 23  1  0  0  0  0
  6 24  1  0  0  0  0
  7 25  1  0  0  0  0
  7 26  1  0  0  0  0
  8  9  2  0  0  0  0
  9 10  1  0  0  0  0
  9 19  1  0  0  0  0
 10 11  1  0  0  0  0
 11 12  1  0  0  0  0
 11 27  1  0  0  0  0
 11 28  1  0  0  0  0
 12 13  1  0  0  0  0
 12 29  1  0  0  0  0
 12 30  1  0  0  0  0
 13 14  1  0  0  0  0
 14 15  1  0  0  0  0
 14 31  1  0  0  0  0
 14 32  1  0  0  0  0
 15 16  1  0  0  0  0
 15 17  1  0  0  0  0
 15 18  1  0  0  0  0
 19 20  1  0  0  0  0
M  END
> <s_m_source_file>
AV-unprocessed.smi

> <i_m_source_file_index>
2760

> <i_lp_mmshare_version>
43012

> <i_f3d_flags>
0

> <s_epik_input>
W09IXWMxW2NIXWMoW0NIXTJbQ0gyXVtDSDJdMiluYyhuMSlTW0NIMl1bQ0gyXU9bQ0gyXUMoRikoRilG

> <s_epik_cmdline>
J2VwaWtfcHl0aG9uJywgJy1waCcsICc3LjAnLCAnLXRuJywgJzgnLCAnLW1hJywgJzIwMCcsICctbWV0YWxfYmluZGluZycsICctaW1hZScsICc8aW5maWxlLm1hZT4nLCAnLW9tYWUnLCAnPG91dGZpbGUubWFlPic=

> <r_lp_tautomer_probability>
0.660323

> <r_epik_Ionization_Penalty>
0.00540315

> <r_epik_Ionization_Penalty_Charging>
0.00540219

> <r_epik_Ionization_Penalty_Neutral>
9.53041e-07

> <r_epik_State_Penalty>
0.139188

> <r_epik_Charging_Adjusted_Penalty>
0.14459

> <i_epik_Tot_Q>
0

> <i_epik_Tot_abs_Q>
0

> <r_epik_Metal_State_Penalty>
0.790013

> <b_epik_Metal_Only>
0

> <s_lp_Force_Field>
OPLS_2005

> <r_lp_Energy>
15.5574

> <b_lp_Chiralities_Consistent>
1

> <s_lp_Variant>
AV-unprocessed.smi:2760-1

> <Gold.Version>
5.8.1

> <Gold.Id.Protein>
6NUR|6NUR_protein|mol2

> <Gold.PLP.Fitness>
48.4606

> <Gold.PLP.PLP>
-46.9480

> <Gold.PLP.part.hbond>
-1.0000

> <Gold.PLP.part.metal>
0.0000

> <Gold.PLP.part.buried>
-4.2174

> <Gold.PLP.part.nonpolar>
-40.5885

> <Gold.PLP.part.repulsive>
0.0841

> <Gold.PLP.ligand.clash>
0.0000

> <Gold.PLP.ligand.torsion>
0.8433

> <Gold.PLP.Chemscore.Hbond>
1.0000

> <Gold.PLP.Chemscore.CHOScore>
0.0000

> <Gold.PLP.Chemscore.Metal>
0.0000

> <Gold.Chemscore.Hbonds>
donor molecule, donor type, donor heavy atom, donor atom, acceptor molecule, acceptor atom, score
      P1  H  7997  8010       L1     1  0.94

> <Gold.PLP.Chemscore.Internal.Correction>
0.1992

> <Gold.Rescore>
     Score         DG    S(hbond)    S(metal)    S(lipo)     H(rot)  DE(clash)    DE(int)     intcor
     12.67     -14.48       0.97        0.00     105.44       2.57       0.80       1.01       ----

> <Gold.Chemscore.Fitness>
12.6719

> <Gold.Chemscore.DG>
-14.4823

> <Gold.Chemscore.ZeroCoef>
-5.4800

> <Gold.Chemscore.Hbond>
0.9699

> <Gold.Chemscore.Metal>
0.0000

> <Gold.Chemscore.Lipo>
105.4435

> <Gold.Chemscore.Internal_Hbond>
0.0000

> <Gold.Chemscore.DEClash>
0.7979

> <Gold.Chemscore.DEInternal>
1.0125

> <Gold.Chemscore.Rot>
2.5680

> <Gold.Chemscore.Internal.Correction>
   9.000000E+99

> <Gold.Chemscore.Hbonds>
donor molecule, donor type, donor heavy atom, donor atom, acceptor molecule, acceptor atom, score
      P1  H  7997  8010       L1     1  0.85

> <Gold.Chemscore.Hbond.Weighted>
-3.2395

> <Gold.Chemscore.Metal.Weighted>
-0.0000

> <Gold.Chemscore.Lipo.Weighted>
-12.3369

> <Gold.Chemscore.Internal_Hbond.Weighted>
0.0000

> <Gold.Chemscore.DEClash.Weighted>
0.7979

> <Gold.Chemscore.DEInternal.Weighted>
1.0125

> <Gold.Chemscore.Rot.Weighted>
6.5741

> <Gold.Chemscore.Internal.Correction.Weighted>
   9.000000E+99

> <Gold.Protein.RotatedTorsions>
[ 6907 6896 6895 6894 ] final  117.25 input  -60.11 | X-H torsion
[ 7974 7965 7964 7962 ] final  179.56 input  175.53 | X-H torsion
[ 8008 7997 7996 7995 ] final   11.38 input   59.86 | X-H torsion
[ 10167 10162 10161 10158 ] final   82.53 input  -65.29 | X-H torsion
[ 10718 10713 10712 10709 ] final  149.37 input   66.30 | X-H torsion
[ 10763 10752 10751 10750 ] final  -83.43 input  -60.55 | X-H torsion
[ 11005 11000 10999 10996 ] final  133.07 input  -57.11 | X-H torsion

> <Gold.Protein.ActiveResidues>
 VAL166  LYS551  ARG553  GLY616  TRP617  ASP618  TYR619  PRO620  LYS621  CYS622 
 ASP623  PHE694  ASN695  SER759  ASP760  ASP761  ALA762  ILE779  LEU786  VAL792 
 PHE793  MET794  SER795  GLU796  ALA797  LYS798  CYS799  TRP800  GLU811  SER814 

> <Gold.Protein.RotatedAtoms>
  152.4624  133.7850  159.6870 H   0  0  0  0  0  0  0  0  0  0  0  0  # atno 6907 bound_to 6896
  150.8574  133.7685  159.3010 H   0  0  0  0  0  0  0  0  0  0  0  0  # atno 6908 bound_to 6896
  151.5262  135.1071  159.9943 H   0  0  0  0  0  0  0  0  0  0  0  0  # atno 6909 bound_to 6896
  144.7144  140.0567  143.6434 H   0  0  0  0  0  0  0  0  0  0  0  0  # atno 7974 bound_to 7965
  154.8061  140.2860  155.5887 H   0  0  0  0  0  0  0  0  0  0  0  0  # atno 8008 bound_to 7997
  156.2983  140.2577  156.2869 H   0  0  0  0  0  0  0  0  0  0  0  0  # atno 8009 bound_to 7997
  154.9502  140.0379  157.2129 H   0  0  0  0  0  0  0  0  0  0  0  0  # atno 8010 bound_to 7997
  139.9278  144.6171  150.8375 H   0  0  0  0  0  0  0  0  0  0  0  0  # atno 10167 bound_to 10162
  157.2969  131.0864  151.1419 H   0  0  0  0  0  0  0  0  0  0  0  0  # atno 10718 bound_to 10713
  154.5877  135.5556  153.7247 H   0  0  0  0  0  0  0  0  0  0  0  0  # atno 10763 bound_to 10752
  153.0105  135.6335  154.1894 H   0  0  0  0  0  0  0  0  0  0  0  0  # atno 10764 bound_to 10752
  154.1834  135.2886  155.3025 H   0  0  0  0  0  0  0  0  0  0  0  0  # atno 10765 bound_to 10752
  139.9829  134.9542  156.9673 H   0  0  0  0  0  0  0  0  0  0  0  0  # atno 11005 bound_to 11000
  145.9898  139.3006  143.0991 LP  0  0  0  0  0  0  0  0  0  0  0  0  # atno 17320 bound_to 7965
  145.8915  140.9300  143.0549 LP  0  0  0  0  0  0  0  0  0  0  0  0  # atno 17321 bound_to 7965
  140.7645  143.3251  151.2534 LP  0  0  0  0  0  0  0  0  0  0  0  0  # atno 17342 bound_to 10162
  139.6807  143.9859  152.2807 LP  0  0  0  0  0  0  0  0  0  0  0  0  # atno 17343 bound_to 10162
  157.2793  130.6742  149.6058 LP  0  0  0  0  0  0  0  0  0  0  0  0  # atno 17370 bound_to 10713
  155.9669  130.4454  150.5502 LP  0  0  0  0  0  0  0  0  0  0  0  0  # atno 17371 bound_to 10713
  140.5060  134.1050  155.7260 LP  0  0  0  0  0  0  0  0  0  0  0  0  # atno 17394 bound_to 11000
  141.1499  133.8988  157.2125 LP  0  0  0  0  0  0  0  0  0  0  0  0  # atno 17395 bound_to 11000

$$$$
