AV-unprocessed.smi:514|AV-procd|sdf|2779|dock7
  -GOLD-   2262023253D 1   1.00000     0.00000
 Structure written by MMmdl.
 44 46  0  0  0  0  0  0  0  0  2 V2000
  146.7818  142.2709  154.3762 C   0  0  0  0  0  0  0  0  0  0  0  0
  147.7823  141.1197  154.2017 C   0  0  0  0  0  0  0  0  0  0  0  0
  149.1138  141.5344  154.4727 O   0  0  0  0  0  0  0  0  0  0  0  0
  149.5982  141.1383  155.7471 C   0  0  0  0  0  0  0  0  0  0  0  0
  150.8837  141.9253  156.0486 C   0  0  0  0  0  0  0  0  0  0  0  0
  151.7455  141.2309  157.0014 N   0  0  0  0  0  0  0  0  0  0  0  0
  152.2306  141.6710  158.1989 C   0  0  0  0  0  0  0  0  0  0  0  0
  151.9734  142.9466  158.7191 N   0  0  0  0  0  0  0  0  0  0  0  0
  152.8754  143.6505  159.6299 C   0  0  0  0  0  0  0  0  0  0  0  0
  152.1157  144.1873  160.8592 C   0  0  0  0  0  0  0  0  0  0  0  0
  151.0948  145.1371  160.4320 N   0  0  0  0  0  0  0  0  0  0  0  0
  150.1743  144.4502  159.5335 C   0  0  0  0  0  0  0  0  0  0  0  0
  150.9506  143.9127  158.3151 C   0  0  0  0  0  0  0  0  0  0  0  0
  152.9499  140.7633  158.8637 N   0  0  0  0  0  0  0  0  0  0  0  0
  152.9428  139.6663  158.0187 C   0  0  0  0  0  0  0  0  0  0  0  0
  152.2162  139.9163  156.8980 C   0  0  0  0  0  0  0  0  0  0  0  0
  151.9955  138.9200  155.8247 C   0  0  0  0  0  0  0  0  0  0  0  0
  151.3153  139.1890  154.8368 O   0  0  0  0  0  0  0  0  0  0  0  0
  152.6202  137.7286  156.0874 N   0  5  0  0  0  0  0  0  0  0  0  0
  153.3689  137.4359  157.2069 C   0  0  0  0  0  0  0  0  0  0  0  0
  153.8917  136.3324  157.3691 O   0  0  0  0  0  0  0  0  0  0  0  0
  153.5440  138.3880  158.1763 N   0  0  0  0  0  0  0  0  0  0  0  0
  154.3363  138.1073  159.3770 C   0  0  0  0  0  0  0  0  0  0  0  0
  145.7592  141.9123  154.2580 H   0  0  0  0  0  0  0  0  0  0  0  0
  146.9362  143.0601  153.6414 H   0  0  0  0  0  0  0  0  0  0  0  0
  146.8662  142.7139  155.3687 H   0  0  0  0  0  0  0  0  0  0  0  0
  147.5353  140.3303  154.9116 H   0  0  0  0  0  0  0  0  0  0  0  0
  147.7040  140.6769  153.2078 H   0  0  0  0  0  0  0  0  0  0  0  0
  148.8424  141.3325  156.5078 H   0  0  0  0  0  0  0  0  0  0  0  0
  149.7942  140.0675  155.7676 H   0  0  0  0  0  0  0  0  0  0  0  0
  151.4380  142.1230  155.1341 H   0  0  0  0  0  0  0  0  0  0  0  0
  150.6411  142.9117  156.4423 H   0  0  0  0  0  0  0  0  0  0  0  0
  153.6604  142.9733  159.9674 H   0  0  0  0  0  0  0  0  0  0  0  0
  153.3742  144.4627  159.0993 H   0  0  0  0  0  0  0  0  0  0  0  0
  151.6560  143.3701  161.4170 H   0  0  0  0  0  0  0  0  0  0  0  0
  152.8053  144.6914  161.5363 H   0  0  0  0  0  0  0  0  0  0  0  0
  150.5914  145.4799  161.2376 H   0  0  0  0  0  0  0  0  0  0  0  0
  149.6665  143.6433  160.0634 H   0  0  0  0  0  0  0  0  0  0  0  0
  149.4077  145.1539  159.2092 H   0  0  0  0  0  0  0  0  0  0  0  0
  151.4314  144.7377  157.7875 H   0  0  0  0  0  0  0  0  0  0  0  0
  150.2617  143.4761  157.5992 H   0  0  0  0  0  0  0  0  0  0  0  0
  153.8478  137.3435  159.9830 H   0  0  0  0  0  0  0  0  0  0  0  0
  154.4739  138.9876  160.0043 H   0  0  0  0  0  0  0  0  0  0  0  0
  155.3303  137.7468  159.1086 H   0  0  0  0  0  0  0  0  0  0  0  0
  1  2  1  0  0  0  0
  1 24  1  0  0  0  0
  1 25  1  0  0  0  0
  1 26  1  0  0  0  0
  2  3  1  0  0  0  0
  2 27  1  0  0  0  0
  2 28  1  0  0  0  0
  3  4  1  0  0  0  0
  4  5  1  0  0  0  0
  4 29  1  0  0  0  0
  4 30  1  0  0  0  0
  5  6  1  0  0  0  0
  5 31  1  0  0  0  0
  5 32  1  0  0  0  0
  6 16  1  0  0  0  0
  6  7  1  0  0  0  0
  7  8  1  0  0  0  0
  7 14  2  0  0  0  0
  8 13  1  0  0  0  0
  8  9  1  0  0  0  0
  9 10  1  0  0  0  0
  9 33  1  0  0  0  0
  9 34  1  0  0  0  0
 10 11  1  0  0  0  0
 10 35  1  0  0  0  0
 10 36  1  0  0  0  0
 11 12  1  0  0  0  0
 11 37  1  0  0  0  0
 12 13  1  0  0  0  0
 12 38  1  0  0  0  0
 12 39  1  0  0  0  0
 13 40  1  0  0  0  0
 13 41  1  0  0  0  0
 14 15  1  0  0  0  0
 15 22  1  0  0  0  0
 15 16  2  0  0  0  0
 16 17  1  0  0  0  0
 17 18  2  0  0  0  0
 17 19  1  0  0  0  0
 19 20  1  0  0  0  0
 20 21  2  0  0  0  0
 20 22  1  0  0  0  0
 22 23  1  0  0  0  0
 23 42  1  0  0  0  0
 23 43  1  0  0  0  0
 23 44  1  0  0  0  0
M  CHG  1  19  -1
M  END
> <s_m_source_file>
AV-unprocessed.smi

> <i_m_source_file_index>
514

> <i_lp_mmshare_version>
43012

> <i_f3d_flags>
0

> <s_epik_input>
W0NIM11uMWMoPU8pW25IXWMoPU8pYyhjMTIpbihbQ0gyXVtDSDJdT1tDSDJdW0NIM10pYyhuMilOM1tDSDJdW0NIMl1bTkhdW0NIMl1bQ0gyXTM=

> <s_epik_cmdline>
J2VwaWtfcHl0aG9uJywgJy1waCcsICc3LjAnLCAnLXRuJywgJzgnLCAnLW1hJywgJzIwMCcsICctbWV0YWxfYmluZGluZycsICctaW1hZScsICc8aW5maWxlLm1hZT4nLCAnLW9tYWUnLCAnPG91dGZpbGUubWFlPic=

> <r_epik_Ionization_Penalty>
8.82895

> <r_epik_Ionization_Penalty_Charging>
0.0771612

> <r_epik_Ionization_Penalty_Neutral>
8.75178

> <r_epik_State_Penalty>
8.91747

> <r_epik_Charging_Adjusted_Penalty>
8.99464

> <i_epik_Tot_Q>
-1

> <i_epik_Tot_abs_Q>
1

> <r_epik_Metal_State_Penalty>
4.86816

> <b_epik_Metal_Only>
1

> <s_lp_Force_Field>
OPLS_2005

> <r_lp_Energy>
52.9187

> <b_lp_Chiralities_Consistent>
1

> <s_lp_Variant>
AV-unprocessed.smi:514-4

> <Gold.Version>
5.8.1

> <Gold.Id.Protein>
6NUR|6NUR_protein|mol2

> <Gold.PLP.Fitness>
47.6323

> <Gold.PLP.PLP>
-41.8850

> <Gold.PLP.part.hbond>
-3.3809

> <Gold.PLP.part.metal>
0.0000

> <Gold.PLP.part.buried>
-7.9003

> <Gold.PLP.part.nonpolar>
-30.3802

> <Gold.PLP.part.repulsive>
0.3259

> <Gold.PLP.ligand.clash>
0.0000

> <Gold.PLP.ligand.torsion>
0.7380

> <Gold.PLP.Chemscore.Hbond>
2.3822

> <Gold.PLP.Chemscore.CHOScore>
0.0000

> <Gold.PLP.Chemscore.Metal>
0.0000

> <Gold.Chemscore.Hbonds>
donor molecule, donor type, donor heavy atom, donor atom, acceptor molecule, acceptor atom, score
      P1  H  7989  7998       L1    18  0.67
      P1  H  8011  8017       L1     3  0.03
      P1  H 10752 10763       L1    21  0.54

> <Gold.PLP.Chemscore.Internal.Correction>
0.0767

> <Gold.Rescore>
     Score         DG    S(hbond)    S(metal)    S(lipo)     H(rot)  DE(clash)    DE(int)     intcor
     12.98     -16.22       1.79        0.00      77.66       1.70       1.81       1.43       ----

> <Gold.Chemscore.Fitness>
12.9797

> <Gold.Chemscore.DG>
-16.2183

> <Gold.Chemscore.ZeroCoef>
-5.4800

> <Gold.Chemscore.Hbond>
1.7939

> <Gold.Chemscore.Metal>
0.0000

> <Gold.Chemscore.Lipo>
77.6637

> <Gold.Chemscore.Internal_Hbond>
0.0000

> <Gold.Chemscore.DEClash>
1.8073

> <Gold.Chemscore.DEInternal>
1.4313

> <Gold.Chemscore.Rot>
1.6953

> <Gold.Chemscore.Internal.Correction>
   9.000000E+99

> <Gold.Chemscore.Hbonds>
donor molecule, donor type, donor heavy atom, donor atom, acceptor molecule, acceptor atom, score
      P1  H  7989  7998       L1    18  0.67
      P1  H  8011  8017       L1     3  0.02
      P1  H 10752 10763       L1    21  0.24

> <Gold.Chemscore.Hbond.Weighted>
-5.9916

> <Gold.Chemscore.Metal.Weighted>
-0.0000

> <Gold.Chemscore.Lipo.Weighted>
-9.0866

> <Gold.Chemscore.Internal_Hbond.Weighted>
0.0000

> <Gold.Chemscore.DEClash.Weighted>
1.8073

> <Gold.Chemscore.DEInternal.Weighted>
1.4313

> <Gold.Chemscore.Rot.Weighted>
4.3399

> <Gold.Chemscore.Internal.Correction.Weighted>
   9.000000E+99

> <Gold.Protein.RotatedTorsions>
[ 6907 6896 6895 6894 ] final -155.47 input  -60.11 | X-H torsion
[ 7974 7965 7964 7962 ] final   37.70 input  175.53 | X-H torsion
[ 8008 7997 7996 7995 ] final -167.25 input   59.86 | X-H torsion
[ 10167 10162 10161 10158 ] final  -92.90 input  -65.29 | X-H torsion
[ 10718 10713 10712 10709 ] final -153.85 input   66.30 | X-H torsion
[ 10763 10752 10751 10750 ] final  127.65 input  -60.55 | X-H torsion
[ 11005 11000 10999 10996 ] final   -8.08 input  -57.11 | X-H torsion

> <Gold.Protein.ActiveResidues>
 VAL166  LYS551  ARG553  GLY616  TRP617  ASP618  TYR619  PRO620  LYS621  CYS622 
 ASP623  PHE694  ASN695  SER759  ASP760  ASP761  ALA762  ILE779  LEU786  VAL792 
 PHE793  MET794  SER795  GLU796  ALA797  LYS798  CYS799  TRP800  GLU811  SER814 

> <Gold.Protein.RotatedAtoms>
  151.2729  133.4246  159.2622 H   0  0  0  0  0  0  0  0  0  0  0  0  # atno 6907 bound_to 6896
  151.0429  134.9620  159.8181 H   0  0  0  0  0  0  0  0  0  0  0  0  # atno 6908 bound_to 6896
  152.5368  134.2687  159.9015 H   0  0  0  0  0  0  0  0  0  0  0  0  # atno 6909 bound_to 6896
  146.1118  139.5862  142.9347 H   0  0  0  0  0  0  0  0  0  0  0  0  # atno 7974 bound_to 7965
  155.8751  140.1000  157.1524 H   0  0  0  0  0  0  0  0  0  0  0  0  # atno 8008 bound_to 7997
  154.4000  140.1339  156.4190 H   0  0  0  0  0  0  0  0  0  0  0  0  # atno 8009 bound_to 7997
  155.7706  140.3461  155.5247 H   0  0  0  0  0  0  0  0  0  0  0  0  # atno 8010 bound_to 7997
  140.3301  143.3000  151.9952 H   0  0  0  0  0  0  0  0  0  0  0  0  # atno 10167 bound_to 10162
  156.4913  130.8349  151.2571 H   0  0  0  0  0  0  0  0  0  0  0  0  # atno 10718 bound_to 10713
  153.7129  135.3265  155.3250 H   0  0  0  0  0  0  0  0  0  0  0  0  # atno 10763 bound_to 10752
  154.8379  135.4481  154.1296 H   0  0  0  0  0  0  0  0  0  0  0  0  # atno 10764 bound_to 10752
  153.2394  135.6969  153.7879 H   0  0  0  0  0  0  0  0  0  0  0  0  # atno 10765 bound_to 10752
  140.7196  133.8840  155.8811 H   0  0  0  0  0  0  0  0  0  0  0  0  # atno 11005 bound_to 11000
  145.5648  141.0400  143.2206 LP  0  0  0  0  0  0  0  0  0  0  0  0  # atno 17320 bound_to 7965
  144.7518  139.7175  143.7270 LP  0  0  0  0  0  0  0  0  0  0  0  0  # atno 17321 bound_to 7965
  139.4858  144.6242  151.7197 LP  0  0  0  0  0  0  0  0  0  0  0  0  # atno 17342 bound_to 10162
  140.5405  144.0587  150.6086 LP  0  0  0  0  0  0  0  0  0  0  0  0  # atno 17343 bound_to 10162
  157.7473  131.0012  150.2956 LP  0  0  0  0  0  0  0  0  0  0  0  0  # atno 17370 bound_to 10713
  156.3424  130.3817  149.7398 LP  0  0  0  0  0  0  0  0  0  0  0  0  # atno 17371 bound_to 10713
  141.0015  134.1144  157.4313 LP  0  0  0  0  0  0  0  0  0  0  0  0  # atno 17394 bound_to 11000
  139.8851  135.0069  156.6415 LP  0  0  0  0  0  0  0  0  0  0  0  0  # atno 17395 bound_to 11000

$$$$
