AV-unprocessed.smi:2784|AV-procd|sdf|10738|dock1
  -GOLD-   2272015173D 1   1.00000     0.00000
 Structure written by MMmdl.
 31 32  0  0  0  0  0  0  0  0  1 V2000
  149.5520  144.4918  160.3581 C   0  0  0  0  0  0  0  0  0  0  0  0
  150.5150  143.4644  160.5337 O   0  0  0  0  0  0  0  0  0  0  0  0
  151.5867  143.5245  159.6024 C   0  0  2  0  0  0  0  0  0  0  0  0
  152.1484  144.9485  159.5627 C   0  0  0  0  0  0  0  0  0  0  0  0
  152.7204  145.0908  158.1569 C   0  0  0  0  0  0  0  0  0  0  0  0
  151.7190  144.3440  157.2768 C   0  0  0  0  0  0  0  0  0  0  0  0
  151.1462  143.2124  158.1535 C   0  0  1  0  0  0  0  0  0  0  0  0
  151.6578  141.9105  157.7313 N   0  0  0  0  0  0  0  0  0  0  0  0
  151.4553  141.3453  156.5320 C   0  0  0  0  0  0  0  0  0  0  0  0
  150.7954  141.9083  155.6528 O   0  0  0  0  0  0  0  0  0  0  0  0
  152.0524  140.0953  156.4850 N   0  0  0  0  0  0  0  0  0  0  0  0
  151.6994  139.2652  155.5531 C   0  0  0  0  0  0  0  0  0  0  0  0
  152.1883  137.9887  155.3256 N   0  0  0  0  0  0  0  0  0  0  0  0
  151.5289  137.4668  154.2470 C   0  0  0  0  0  0  0  0  0  0  0  0
  150.6595  138.3752  153.8138 C   0  0  0  0  0  0  0  0  0  0  0  0
  150.7383  139.4892  154.5938 O   0  0  0  0  0  0  0  0  0  0  0  0
  148.7520  144.3691  161.0879 H   0  0  0  0  0  0  0  0  0  0  0  0
  149.1073  144.4494  159.3632 H   0  0  0  0  0  0  0  0  0  0  0  0
  149.9866  145.4811  160.5042 H   0  0  0  0  0  0  0  0  0  0  0  0
  152.3936  142.8577  159.9141 H   0  0  0  0  0  0  0  0  0  0  0  0
  151.3423  145.6714  159.6973 H   0  0  0  0  0  0  0  0  0  0  0  0
  152.8897  145.1292  160.3414 H   0  0  0  0  0  0  0  0  0  0  0  0
  152.8489  146.1313  157.8575 H   0  0  0  0  0  0  0  0  0  0  0  0
  153.6948  144.6034  158.1041 H   0  0  0  0  0  0  0  0  0  0  0  0
  150.9119  145.0225  156.9975 H   0  0  0  0  0  0  0  0  0  0  0  0
  152.1732  143.9911  156.3498 H   0  0  0  0  0  0  0  0  0  0  0  0
  150.0566  143.2250  158.0849 H   0  0  0  0  0  0  0  0  0  0  0  0
  152.1985  141.3939  158.4096 H   0  0  0  0  0  0  0  0  0  0  0  0
  152.9020  137.4916  155.8384 H   0  0  0  0  0  0  0  0  0  0  0  0
  151.7591  136.4721  153.8948 H   0  0  0  0  0  0  0  0  0  0  0  0
  149.9475  138.3811  153.0018 H   0  0  0  0  0  0  0  0  0  0  0  0
  1  2  1  0  0  0  0
  1 17  1  0  0  0  0
  1 18  1  0  0  0  0
  1 19  1  0  0  0  0
  2  3  1  0  0  0  0
  3  7  1  0  0  0  0
  3  4  1  0  0  0  0
  3 20  1  0  0  0  0
  4  5  1  0  0  0  0
  4 21  1  0  0  0  0
  4 22  1  0  0  0  0
  5  6  1  0  0  0  0
  5 23  1  0  0  0  0
  5 24  1  0  0  0  0
  6  7  1  0  0  0  0
  6 25  1  0  0  0  0
  6 26  1  0  0  0  0
  7  8  1  0  0  0  0
  7 27  1  0  0  0  0
  8 28  1  0  0  0  0
  8  9  1  0  0  0  0
  9 11  1  0  0  0  0
  9 10  2  0  0  0  0
 11 12  2  0  0  0  0
 12 16  1  0  0  0  0
 12 13  1  0  0  0  0
 13 29  1  0  0  0  0
 13 14  1  0  0  0  0
 14 30  1  0  0  0  0
 14 15  2  0  0  0  0
 15 31  1  0  0  0  0
 15 16  1  0  0  0  0
M  END
> <s_m_source_file>
AV-unprocessed.smi

> <i_m_source_file_index>
2784

> <i_lp_mmshare_version>
43012

> <i_f3d_flags>
0

> <s_epik_input>
W0NIM11PW0NAQEhdMVtDSDJdW0NIMl1bQ0gyXVtDQEhdMVtOSF1DKD1PKVtOSF1jMm5bY0hdW2NIXW8y

> <s_epik_cmdline>
J2VwaWtfcHl0aG9uJywgJy1waCcsICc3LjAnLCAnLXRuJywgJzgnLCAnLW1hJywgJzIwMCcsICctbWV0YWxfYmluZGluZycsICctaW1hZScsICc8aW5maWxlLm1hZT4nLCAnLW9tYWUnLCAnPG91dGZpbGUubWFlPic=

> <r_lp_tautomer_probability>
0.107061

> <r_epik_Ionization_Penalty>
1.29244

> <r_epik_Ionization_Penalty_Charging>
1.29208

> <r_epik_Ionization_Penalty_Neutral>
0.000359742

> <r_epik_State_Penalty>
2.59896

> <r_epik_Charging_Adjusted_Penalty>
3.89105

> <i_epik_Tot_Q>
0

> <i_epik_Tot_abs_Q>
0

> <r_epik_Metal_State_Penalty>
3.62496

> <b_epik_Metal_Only>
0

> <s_lp_Force_Field>
OPLS_2005

> <r_lp_Energy>
42.0746

> <b_lp_Chiralities_Consistent>
1

> <s_lp_Variant>
AV-unprocessed.smi:2784-13

> <Gold.Version>
5.8.1

> <Gold.Id.Protein>
6NUR|6NUR_protein|mol2

> <Gold.PLP.Fitness>
39.8277

> <Gold.PLP.PLP>
-28.7186

> <Gold.PLP.part.hbond>
-2.9651

> <Gold.PLP.part.metal>
0.0000

> <Gold.PLP.part.buried>
-1.9481

> <Gold.PLP.part.nonpolar>
-23.0141

> <Gold.PLP.part.repulsive>
0.5370

> <Gold.PLP.ligand.clash>
0.0000

> <Gold.PLP.ligand.torsion>
0.1034

> <Gold.PLP.Chemscore.Hbond>
1.3088

> <Gold.PLP.Chemscore.CHOScore>
2.4613

> <Gold.PLP.Chemscore.Metal>
0.0000

> <Gold.Chemscore.Hbonds>
donor molecule, donor type, donor heavy atom, donor atom, acceptor molecule, acceptor atom, score
      P1  H  7989  7998       L1    16  1.00
      P1  H  7997  8009       L1    11  0.37
      L1  C    14    30       P1  7949  0.73
      L1  C    15    31       P1  7948  0.79
      L1  C    15    31       P1  7957  1.00

> <Gold.PLP.Chemscore.Internal.Correction>
0.0060

> <Gold.Rescore>
     Score         DG    S(hbond)    S(metal)    S(lipo)     H(rot)  DE(clash)    DE(int)     intcor
     11.58     -13.76       0.40        0.00      88.21       1.32       0.41       1.77       ----

> <Gold.Chemscore.Fitness>
11.5759

> <Gold.Chemscore.DG>
-13.7645

> <Gold.Chemscore.ZeroCoef>
-5.4800

> <Gold.Chemscore.Hbond>
0.4047

> <Gold.Chemscore.Metal>
0.0000

> <Gold.Chemscore.Lipo>
88.2148

> <Gold.Chemscore.Internal_Hbond>
0.0000

> <Gold.Chemscore.DEClash>
0.4144

> <Gold.Chemscore.DEInternal>
1.7743

> <Gold.Chemscore.Rot>
1.3235

> <Gold.Chemscore.Internal.Correction>
   9.000000E+99

> <Gold.Chemscore.Hbonds>
donor molecule, donor type, donor heavy atom, donor atom, acceptor molecule, acceptor atom, score
      P1  H  7989  7998       L1    16  0.16
      P1  H  7997  8009       L1    11  0.17

> <Gold.Chemscore.Hbond.Weighted>
-1.3516

> <Gold.Chemscore.Metal.Weighted>
-0.0000

> <Gold.Chemscore.Lipo.Weighted>
-10.3211

> <Gold.Chemscore.Internal_Hbond.Weighted>
0.0000

> <Gold.Chemscore.DEClash.Weighted>
0.4144

> <Gold.Chemscore.DEInternal.Weighted>
1.7743

> <Gold.Chemscore.Rot.Weighted>
3.3882

> <Gold.Chemscore.Internal.Correction.Weighted>
   9.000000E+99

> <Gold.Protein.RotatedTorsions>
[ 6907 6896 6895 6894 ] final  -54.53 input  -60.11 | X-H torsion
[ 7974 7965 7964 7962 ] final -156.32 input  175.53 | X-H torsion
[ 8008 7997 7996 7995 ] final -168.06 input   59.86 | X-H torsion
[ 10167 10162 10161 10158 ] final   83.15 input  -65.29 | X-H torsion
[ 10718 10713 10712 10709 ] final  -12.48 input   66.30 | X-H torsion
[ 10763 10752 10751 10750 ] final  -32.51 input  -60.55 | X-H torsion
[ 11005 11000 10999 10996 ] final  136.72 input  -57.11 | X-H torsion

> <Gold.Protein.ActiveResidues>
 VAL166  LYS551  ARG553  GLY616  TRP617  ASP618  TYR619  PRO620  LYS621  CYS622 
 ASP623  PHE694  ASN695  SER759  ASP760  ASP761  ALA762  ILE779  LEU786  VAL792 
 PHE793  MET794  SER795  GLU796  ALA797  LYS798  CYS799  TRP800  GLU811  SER814 

> <Gold.Protein.RotatedAtoms>
  150.8330  134.7591  159.6868 H   0  0  0  0  0  0  0  0  0  0  0  0  # atno 6907 bound_to 6896
  152.4431  134.5547  159.9886 H   0  0  0  0  0  0  0  0  0  0  0  0  # atno 6908 bound_to 6896
  151.5704  133.3353  159.3024 H   0  0  0  0  0  0  0  0  0  0  0  0  # atno 6909 bound_to 6896
  144.7598  140.4126  143.5985 H   0  0  0  0  0  0  0  0  0  0  0  0  # atno 7974 bound_to 7965
  155.8862  140.1017  157.1451 H   0  0  0  0  0  0  0  0  0  0  0  0  # atno 8008 bound_to 7997
  154.4010  140.1319  156.4322 H   0  0  0  0  0  0  0  0  0  0  0  0  # atno 8009 bound_to 7997
  155.7586  140.3463  155.5189 H   0  0  0  0  0  0  0  0  0  0  0  0  # atno 8010 bound_to 7997
  139.9214  144.6210  150.8437 H   0  0  0  0  0  0  0  0  0  0  0  0  # atno 10167 bound_to 10162
  156.6440  130.4936  149.6085 H   0  0  0  0  0  0  0  0  0  0  0  0  # atno 10718 bound_to 10713
  153.8150  135.6879  153.4835 H   0  0  0  0  0  0  0  0  0  0  0  0  # atno 10763 bound_to 10752
  153.1605  135.4582  154.9763 H   0  0  0  0  0  0  0  0  0  0  0  0  # atno 10764 bound_to 10752
  154.7952  135.3316  154.7627 H   0  0  0  0  0  0  0  0  0  0  0  0  # atno 10765 bound_to 10752
  140.0065  134.9457  157.0186 H   0  0  0  0  0  0  0  0  0  0  0  0  # atno 11005 bound_to 11000
  145.6656  139.1589  143.2784 LP  0  0  0  0  0  0  0  0  0  0  0  0  # atno 17320 bound_to 7965
  146.1650  140.6732  142.9260 LP  0  0  0  0  0  0  0  0  0  0  0  0  # atno 17321 bound_to 7965
  140.7661  143.3294  151.2443 LP  0  0  0  0  0  0  0  0  0  0  0  0  # atno 17342 bound_to 10162
  139.6859  143.9775  152.2833 LP  0  0  0  0  0  0  0  0  0  0  0  0  # atno 17343 bound_to 10162
  156.2136  130.6694  151.1295 LP  0  0  0  0  0  0  0  0  0  0  0  0  # atno 17370 bound_to 10713
  157.7162  131.0708  150.6318 LP  0  0  0  0  0  0  0  0  0  0  0  0  # atno 17371 bound_to 10713
  140.4632  134.1463  155.7194 LP  0  0  0  0  0  0  0  0  0  0  0  0  # atno 17394 bound_to 11000
  141.1680  133.8664  157.1655 LP  0  0  0  0  0  0  0  0  0  0  0  0  # atno 17395 bound_to 11000

$$$$
