#       Name:                AV-unprocessed.smi:86
#       Creating user name   scv26
#       Creation time:       Thu Mar 26 17:22:08 2020


#       File generated by GOLD software.
#

@<TRIPOS>MOLECULE
AV-unprocessed.smi:86
    60    64     1
SMALL
NO_CHARGES


@<TRIPOS>ATOM
      1 ****        -2.7792   6.3847  -2.3796 O.3            1 S1                 0.0000
      2 ****        -3.5979   5.4205  -1.7486 C.3            1 S1                 0.0000
      3 ****        -2.9545   4.0254  -1.7763 C.3            1 S1                 0.0000
      4 ****        -1.6611   4.0860  -0.9287 C.3            1 S1                 0.0000
      5 ****        -0.9942   2.8089  -0.7212 N.pl3          1 S1                 0.0000
      6 ****        -0.0409   2.2337  -1.5294 C.2            1 S1                 0.0000
      7 ****         0.4141   1.0823  -1.1185 N.2            1 S1                 0.0000
      8 ****        -0.2601   0.8478   0.0755 C.ar           1 S1                 0.0000
      9 ****        -0.2504  -0.1991   1.0456 C.ar           1 S1                 0.0000
     10 ****         0.5144  -1.3181   0.9683 N.pl3          1 S1                 0.0000
     11 ****         1.4910  -1.5697  -0.0861 C.3            1 S1                 0.0000
     12 ****         2.0447  -2.9499   0.2641 C.3            1 S1                 0.0000
     13 ****         3.4289  -3.3484  -0.2610 C.3            1 S1                 0.0000
     14 ****         3.7997  -4.7370   0.3042 C.3            1 S1                 0.0000
     15 ****         3.6881  -4.7952   1.8481 C.3            1 S1                 0.0000
     16 ****         3.9133  -6.1178   2.2880 O.3            1 S1                 0.0000
     17 ****         2.3134  -4.3090   2.3619 C.3            1 S1                 0.0000
     18 ****         2.0354  -2.9151   1.7866 C.3            1 S1                 0.0000
     19 ****         0.6953  -2.2427   2.0870 C.3            1 S1                 0.0000
     20 ****        -1.0754  -0.0606   2.1168 N.ar           1 S1                 0.0000
     21 ****        -1.8520   1.0186   2.2423 C.ar           1 S1                 0.0000
     22 ****        -1.9630   2.0651   1.4237 N.ar           1 S1                 0.0000
     23 ****        -1.1434   1.9344   0.3418 C.ar           1 S1                 0.0000
     24 ****        -3.9431   2.8768  -1.5056 C.3            1 S1                 0.0000
     25 ****        -4.0567   2.5695  -2.9106 O.3            1 S1                 0.0000
     26 ****        -2.8848   3.3713  -3.1668 C.3            1 S1                 0.0000
     27 ****        -3.2214   7.2196  -2.3496 H              1 S1                 0.0000
     28 ****        -3.7959   5.7415  -0.7256 H              1 S1                 0.0000
     29 ****        -4.5607   5.4130  -2.2611 H              1 S1                 0.0000
     30 ****        -0.9352   4.7569  -1.3896 H              1 S1                 0.0000
     31 ****        -1.8708   4.5109   0.0536 H              1 S1                 0.0000
     32 ****         0.3068   2.6962  -2.4419 H              1 S1                 0.0000
     33 ****         1.0337  -1.5645  -1.0758 H              1 S1                 0.0000
     34 ****         2.2727  -0.8097  -0.0526 H              1 S1                 0.0000
     35 ****         1.3196  -3.6930  -0.0750 H              1 S1                 0.0000
     36 ****         3.4301  -3.3712  -1.3511 H              1 S1                 0.0000
     37 ****         4.1734  -2.6109   0.0413 H              1 S1                 0.0000
     38 ****         3.1376  -5.4844  -0.1354 H              1 S1                 0.0000
     39 ****         4.8104  -5.0031  -0.0081 H              1 S1                 0.0000
     40 ****         4.4683  -4.1669   2.2798 H              1 S1                 0.0000
     41 ****         3.2425  -6.6739   1.9224 H              1 S1                 0.0000
     42 ****         1.5275  -5.0014   2.0563 H              1 S1                 0.0000
     43 ****         2.3033  -4.2773   3.4519 H              1 S1                 0.0000
     44 ****         2.8242  -2.2400   2.1252 H              1 S1                 0.0000
     45 ****         0.7164  -1.7369   3.0531 H              1 S1                 0.0000
     46 ****        -0.1208  -2.9661   2.0900 H              1 S1                 0.0000
     47 ****        -2.4739   1.0465   3.1248 H              1 S1                 0.0000
     48 ****        -3.5428   2.0307  -0.9490 H              1 S1                 0.0000
     49 ****        -4.8890   3.2020  -1.0712 H              1 S1                 0.0000
     50 ****        -3.0293   4.0685  -3.9927 H              1 S1                 0.0000
     51 ****        -2.0070   2.7506  -3.3419 H              1 S1                 0.0000
     52 ****        -2.6200   6.1213  -3.3311 LP             1 S1                 0.0000
     53 ****        -1.9038   6.4493  -1.9006 LP             1 S1                 0.0000
     54 ****         1.0946   0.4992  -1.5621 LP             1 S1                 0.0000
     55 ****         3.8730  -6.1526   3.2866 LP             1 S1                 0.0000
     56 ****         4.8129  -6.4272   1.9798 LP             1 S1                 0.0000
     57 ****        -1.1012  -0.7735   2.8176 LP             1 S1                 0.0000
     58 ****        -2.5688   2.8447   1.5826 LP             1 S1                 0.0000
     59 ****        -4.8915   2.9144  -3.3397 LP             1 S1                 0.0000
     60 ****        -3.9460   1.5999  -3.1286 LP             1 S1                 0.0000
@<TRIPOS>BOND
    1    1    2 1     
    2    1   27 1     
    3    2    3 1     
    4    2   28 1     
    5    2   29 1     
    6    3   26 1     
    7    3    4 1     
    8    3   24 1     
    9    4    5 1     
   10    4   30 1     
   11    4   31 1     
   12    5   23 1     
   13    5    6 1     
   14    6    7 2     
   15    6   32 1     
   16    7    8 1     
   17    8   23 ar    
   18    8    9 ar    
   19    9   10 1     
   20    9   20 ar    
   21   10   19 1     
   22   10   11 1     
   23   11   12 1     
   24   11   33 1     
   25   11   34 1     
   26   12   18 1     
   27   12   13 1     
   28   12   35 1     
   29   13   14 1     
   30   13   36 1     
   31   13   37 1     
   32   14   15 1     
   33   14   38 1     
   34   14   39 1     
   35   15   16 1     
   36   15   17 1     
   37   15   40 1     
   38   16   41 1     
   39   17   18 1     
   40   17   42 1     
   41   17   43 1     
   42   18   19 1     
   43   18   44 1     
   44   19   45 1     
   45   19   46 1     
   46   20   21 ar    
   47   21   22 ar    
   48   21   47 1     
   49   22   23 ar    
   50   24   25 1     
   51   24   48 1     
   52   24   49 1     
   53   25   26 1     
   54   26   50 1     
   55   26   51 1     
   56    1   52 1     
   57    1   53 1     
   58    7   54 1     
   59   16   55 1     
   60   16   56 1     
   61   20   57 1     
   62   22   58 1     
   63   25   59 1     
   64   25   60 1     
@<TRIPOS>SUBSTRUCTURE
      1 S1             1
@<TRIPOS>SET
LONE_PAIRS      STATIC     ATOMS    <user>   **** ""
9 52 53 54 55 56 57 58 59 60
DONOR_HYDROGENS      STATIC     ATOMS    <user>   **** ""
2 27 41
ATOM$BLUE        STATIC     ATOMS    COLORGROUP SYSTEM
9 52 53 54 55 56 57 58 59 60
ATOM$RED        STATIC     ATOMS    COLORGROUP SYSTEM
2 27 41
