#       Name:                AV-unprocessed.smi:958
#       Creating user name   scv26
#       Creation time:       Fri Mar 27 02:17:48 2020


#       File generated by GOLD software.
#

@<TRIPOS>MOLECULE
AV-unprocessed.smi:958
    33    35     1
SMALL
NO_CHARGES


@<TRIPOS>ATOM
      1 ****        -3.2424   0.3571  -0.3231 C.2            1 S1                 0.0000
      2 ****        -3.3659  -0.9354  -0.6187 N.2            1 S1                 0.0000
      3 ****        -2.0708  -1.4093  -0.6487 N.2            1 S1                 0.0000
      4 ****        -1.2909  -0.3544  -0.3777 C.2            1 S1                 0.0000
      5 ****         0.2096  -0.4279  -0.3257 C.3            1 S1                 0.0000
      6 ****         0.7028  -1.2981   0.8462 C.3            1 S1                 0.0000
      7 ****         2.2380  -1.3535   0.8660 C.3            1 S1                 0.0000
      8 ****         2.7885  -1.8230  -0.4910 C.3            1 S1                 0.0000
      9 ****         2.2904  -0.9610  -1.5851 N.4            1 S1                 1.0000
     10 ****         0.8132  -0.9138  -1.6595 C.3            1 S1                 0.0000
     11 ****        -1.9822   0.7805  -0.1353 N.pl3          1 S1                 0.0000
     12 ****        -1.5145   2.1241   0.1627 C.3            1 S1                 0.0000
     13 ****        -0.8674   2.2725   1.5209 C.3            1 S1                 0.0000
     14 ****        -2.2550   2.8240   1.2803 C.3            1 S1                 0.0000
     15 ****        -4.0965   1.0131  -0.2379 H              1 S1                 0.0000
     16 ****         0.5924   0.5793  -0.1611 H              1 S1                 0.0000
     17 ****         0.3330  -0.9029   1.7929 H              1 S1                 0.0000
     18 ****         0.3040  -2.3094   0.7543 H              1 S1                 0.0000
     19 ****         2.6368  -0.3661   1.1027 H              1 S1                 0.0000
     20 ****         2.5767  -2.0220   1.6583 H              1 S1                 0.0000
     21 ****         3.8785  -1.7975  -0.4862 H              1 S1                 0.0000
     22 ****         2.4941  -2.8557  -0.6834 H              1 S1                 0.0000
     23 ****         2.6338  -0.0230  -1.4358 H              1 S1                 0.0000
     24 ****         0.4403  -1.9071  -1.9135 H              1 S1                 0.0000
     25 ****         0.5237  -0.2470  -2.4723 H              1 S1                 0.0000
     26 ****        -1.1459   2.6700  -0.7035 H              1 S1                 0.0000
     27 ****        -0.7826   1.3890   2.1511 H              1 S1                 0.0000
     28 ****        -0.0529   2.9880   1.6122 H              1 S1                 0.0000
     29 ****        -2.3581   3.9051   1.2121 H              1 S1                 0.0000
     30 ****        -3.0839   2.3089   1.7626 H              1 S1                 0.0000
     31 ****         2.6520  -1.3042  -2.4637 H              1 S1                 0.0000
     32 ****        -4.2089  -1.4478  -0.7823 LP             1 S1                 0.0000
     33 ****        -1.7752  -2.3464  -0.8343 LP             1 S1                 0.0000
@<TRIPOS>BOND
    1    1   11 1     
    2    1    2 2     
    3    1   15 1     
    4    2    3 1     
    5    3    4 2     
    6    4    5 1     
    7    4   11 1     
    8    5   10 1     
    9    5    6 1     
   10    5   16 1     
   11    6    7 1     
   12    6   17 1     
   13    6   18 1     
   14    7    8 1     
   15    7   19 1     
   16    7   20 1     
   17    8    9 1     
   18    8   21 1     
   19    8   22 1     
   20    9   10 1     
   21    9   23 1     
   22    9   31 1     
   23   10   24 1     
   24   10   25 1     
   25   11   12 1     
   26   12   14 1     
   27   12   13 1     
   28   12   26 1     
   29   13   14 1     
   30   13   27 1     
   31   13   28 1     
   32   14   29 1     
   33   14   30 1     
   34    2   32 1     
   35    3   33 1     
@<TRIPOS>SUBSTRUCTURE
      1 S1             1
@<TRIPOS>SET
LONE_PAIRS      STATIC     ATOMS    <user>   **** ""
2 32 33
DONOR_HYDROGENS      STATIC     ATOMS    <user>   **** ""
2 23 31
ATOM$BLUE        STATIC     ATOMS    COLORGROUP SYSTEM
2 32 33
ATOM$RED        STATIC     ATOMS    COLORGROUP SYSTEM
2 23 31
