AV-unprocessed.smi:2708|AV-procd|sdf|10458|dock7
  -GOLD-   2272014493D 1   1.00000     0.00000
 Structure written by MMmdl.
 35 35  0  0  0  0  0  0  0  0  2 V2000
  155.5034  135.8861  160.3853 C   0  0  0  0  0  0  0  0  0  0  0  0
  154.8181  136.3178  159.0779 C   0  0  2  0  0  0  0  0  0  0  0  0
  153.5822  137.0437  159.3546 N   0  0  0  0  0  0  0  0  0  0  0  0
  153.3421  138.3323  159.0651 C   0  0  0  0  0  0  0  0  0  0  0  0
  154.1598  139.0713  158.5168 O   0  0  0  0  0  0  0  0  0  0  0  0
  151.9649  138.8710  159.4554 C   0  0  0  0  0  0  0  0  0  0  0  0
  151.6991  140.1726  158.7561 C   0  0  0  0  0  0  0  0  0  0  0  0
  151.2527  140.3400  157.4692 C   0  0  0  0  0  0  0  0  0  0  0  0
  151.0683  142.0218  157.0605 S   0  0  0  0  0  0  0  0  0  0  0  0
  151.6223  142.4566  158.6817 C   0  0  0  0  0  0  0  0  0  0  0  0
  151.7637  143.8681  159.1992 C   0  0  0  0  0  0  0  0  0  0  0  0
  150.3842  144.5540  159.2322 C   0  0  0  0  0  0  0  0  0  0  0  0
  152.7409  144.6564  158.3056 C   0  0  0  0  0  0  0  0  0  0  0  0
  152.3282  143.8851  160.6364 C   0  0  0  0  0  0  0  0  0  0  0  0
  151.9100  141.3821  159.4253 N   0  0  0  0  0  0  0  0  0  0  0  0
  154.5441  135.1583  158.1154 C   0  0  0  0  0  0  0  0  0  0  0  0
  153.8536  134.2077  158.5458 O   0  0  0  0  0  0  0  0  0  0  0  0
  155.0271  135.2401  156.9648 O   0  5  0  0  0  0  0  0  0  0  0  0
  155.4985  136.9972  158.5603 H   0  0  0  0  0  0  0  0  0  0  0  0
  156.4240  135.3375  160.1827 H   0  0  0  0  0  0  0  0  0  0  0  0
  154.8558  135.2411  160.9799 H   0  0  0  0  0  0  0  0  0  0  0  0
  155.7654  136.7493  160.9977 H   0  0  0  0  0  0  0  0  0  0  0  0
  152.8480  136.5118  159.7995 H   0  0  0  0  0  0  0  0  0  0  0  0
  151.2028  138.1322  159.2033 H   0  0  0  0  0  0  0  0  0  0  0  0
  151.9227  138.9989  160.5379 H   0  0  0  0  0  0  0  0  0  0  0  0
  151.0138  139.5774  156.7428 H   0  0  0  0  0  0  0  0  0  0  0  0
  150.4545  145.5719  159.6172 H   0  0  0  0  0  0  0  0  0  0  0  0
  149.6853  144.0083  159.8672 H   0  0  0  0  0  0  0  0  0  0  0  0
  149.9440  144.6146  158.2363 H   0  0  0  0  0  0  0  0  0  0  0  0
  152.3810  144.7189  157.2780 H   0  0  0  0  0  0  0  0  0  0  0  0
  153.7241  144.1847  158.2808 H   0  0  0  0  0  0  0  0  0  0  0  0
  152.8738  145.6776  158.6649 H   0  0  0  0  0  0  0  0  0  0  0  0
  152.4294  144.9050  161.0093 H   0  0  0  0  0  0  0  0  0  0  0  0
  153.3161  143.4258  160.6865 H   0  0  0  0  0  0  0  0  0  0  0  0
  151.6773  143.3530  161.3312 H   0  0  0  0  0  0  0  0  0  0  0  0
  1  2  1  0  0  0  0
  1 20  1  0  0  0  0
  1 21  1  0  0  0  0
  1 22  1  0  0  0  0
  2 19  1  0  0  0  0
  2  3  1  0  0  0  0
  2 16  1  0  0  0  0
  3  4  1  0  0  0  0
  3 23  1  0  0  0  0
  4  5  2  0  0  0  0
  4  6  1  0  0  0  0
  6  7  1  0  0  0  0
  6 24  1  0  0  0  0
  6 25  1  0  0  0  0
  7 15  1  0  0  0  0
  7  8  2  0  0  0  0
  8  9  1  0  0  0  0
  8 26  1  0  0  0  0
  9 10  1  0  0  0  0
 10 11  1  0  0  0  0
 10 15  2  0  0  0  0
 11 12  1  0  0  0  0
 11 13  1  0  0  0  0
 11 14  1  0  0  0  0
 12 27  1  0  0  0  0
 12 28  1  0  0  0  0
 12 29  1  0  0  0  0
 13 30  1  0  0  0  0
 13 31  1  0  0  0  0
 13 32  1  0  0  0  0
 14 33  1  0  0  0  0
 14 34  1  0  0  0  0
 14 35  1  0  0  0  0
 16 17  2  0  0  0  0
 16 18  1  0  0  0  0
M  CHG  1  18  -1
M  END
> <s_m_source_file>
AV-unprocessed.smi

> <i_m_source_file_index>
2708

> <i_lp_mmshare_version>
43012

> <i_f3d_flags>
0

> <s_epik_input>
Tz1DKFtPSF0pW0NASF0oW0NIM10pW05IXUMoPU8pW0NIMl1jMVtjSF1zYyhuMSlDKFtDSDNdKShbQ0gzXSlbQ0gzXQ==

> <s_epik_cmdline>
J2VwaWtfcHl0aG9uJywgJy1waCcsICc3LjAnLCAnLXRuJywgJzgnLCAnLW1hJywgJzIwMCcsICctbWV0YWxfYmluZGluZycsICctaW1hZScsICc8aW5maWxlLm1hZT4nLCAnLW9tYWUnLCAnPG91dGZpbGUubWFlPic=

> <r_lp_tautomer_probability>
1

> <r_epik_Ionization_Penalty>
0.000214174

> <r_epik_Ionization_Penalty_Charging>
0.000167453

> <r_epik_Ionization_Penalty_Neutral>
4.67216e-05

> <r_epik_State_Penalty>
-0

> <r_epik_Charging_Adjusted_Penalty>
0.000167453

> <i_epik_Tot_Q>
-1

> <i_epik_Tot_abs_Q>
1

> <r_epik_Metal_State_Penalty>
-0

> <b_epik_Metal_Only>
0

> <s_lp_Force_Field>
OPLS_2005

> <r_lp_Energy>
-5.26793

> <b_lp_Chiralities_Consistent>
1

> <s_lp_Variant>
AV-unprocessed.smi:2708-1

> <Gold.Version>
5.8.1

> <Gold.Id.Protein>
6NUR|6NUR_protein|mol2

> <Gold.PLP.Fitness>
44.1064

> <Gold.PLP.PLP>
-30.2440

> <Gold.PLP.part.hbond>
-3.0000

> <Gold.PLP.part.metal>
0.0000

> <Gold.PLP.part.buried>
-5.3883

> <Gold.PLP.part.nonpolar>
-22.1453

> <Gold.PLP.part.repulsive>
0.0784

> <Gold.PLP.ligand.clash>
0.0000

> <Gold.PLP.ligand.torsion>
0.6064

> <Gold.PLP.Chemscore.Hbond>
5.0000

> <Gold.PLP.Chemscore.CHOScore>
0.0000

> <Gold.PLP.Chemscore.Metal>
0.0000

> <Gold.Chemscore.Hbonds>
donor molecule, donor type, donor heavy atom, donor atom, acceptor molecule, acceptor atom, score
      P1  H  6896  6907       L1    17  1.76
      P1  H  7997  8010       L1     5  1.00
      P1  H 10752 10764       L1    18  2.00

> <Gold.PLP.Chemscore.Internal.Correction>
0.0752

> <Gold.Rescore>
     Score         DG    S(hbond)    S(metal)    S(lipo)     H(rot)  DE(clash)    DE(int)     intcor
     19.23     -19.98       2.96        0.00      88.59       2.25       0.03       0.73       ----

> <Gold.Chemscore.Fitness>
19.2250

> <Gold.Chemscore.DG>
-19.9836

> <Gold.Chemscore.ZeroCoef>
-5.4800

> <Gold.Chemscore.Hbond>
2.9618

> <Gold.Chemscore.Metal>
0.0000

> <Gold.Chemscore.Lipo>
88.5943

> <Gold.Chemscore.Internal_Hbond>
0.0000

> <Gold.Chemscore.DEClash>
0.0251

> <Gold.Chemscore.DEInternal>
0.7335

> <Gold.Chemscore.Rot>
2.2478

> <Gold.Chemscore.Internal.Correction>
   9.000000E+99

> <Gold.Chemscore.Hbonds>
donor molecule, donor type, donor heavy atom, donor atom, acceptor molecule, acceptor atom, score
      P1  H  6896  6907       L1    17  0.87
      P1  H  7997  8010       L1     5  1.00
      P1  H 10752 10764       L1    18  1.00

> <Gold.Chemscore.Hbond.Weighted>
-9.8925

> <Gold.Chemscore.Metal.Weighted>
-0.0000

> <Gold.Chemscore.Lipo.Weighted>
-10.3655

> <Gold.Chemscore.Internal_Hbond.Weighted>
0.0000

> <Gold.Chemscore.DEClash.Weighted>
0.0251

> <Gold.Chemscore.DEInternal.Weighted>
0.7335

> <Gold.Chemscore.Rot.Weighted>
5.7544

> <Gold.Chemscore.Internal.Correction.Weighted>
   9.000000E+99

> <Gold.Protein.RotatedTorsions>
[ 6907 6896 6895 6894 ] final   98.28 input  -60.11 | X-H torsion
[ 7974 7965 7964 7962 ] final -154.80 input  175.53 | X-H torsion
[ 8008 7997 7996 7995 ] final    4.86 input   59.86 | X-H torsion
[ 10167 10162 10161 10158 ] final   58.52 input  -65.29 | X-H torsion
[ 10718 10713 10712 10709 ] final  -21.49 input   66.30 | X-H torsion
[ 10763 10752 10751 10750 ] final   38.70 input  -60.55 | X-H torsion
[ 11005 11000 10999 10996 ] final -120.85 input  -57.11 | X-H torsion

> <Gold.Protein.ActiveResidues>
 VAL166  LYS551  ARG553  GLY616  TRP617  ASP618  TYR619  PRO620  LYS621  CYS622 
 ASP623  PHE694  ASN695  SER759  ASP760  ASP761  ALA762  ILE779  LEU786  VAL792 
 PHE793  MET794  SER795  GLU796  ALA797  LYS798  CYS799  TRP800  GLU811  SER814 

> <Gold.Protein.RotatedAtoms>
  152.5411  134.0605  159.8149 H   0  0  0  0  0  0  0  0  0  0  0  0  # atno 6907 bound_to 6896
  151.0733  133.5441  159.2633 H   0  0  0  0  0  0  0  0  0  0  0  0  # atno 6908 bound_to 6896
  151.2296  135.0557  159.9036 H   0  0  0  0  0  0  0  0  0  0  0  0  # atno 6909 bound_to 6896
  144.7671  140.4338  143.5934 H   0  0  0  0  0  0  0  0  0  0  0  0  # atno 7974 bound_to 7965
  154.7211  140.2712  155.6540 H   0  0  0  0  0  0  0  0  0  0  0  0  # atno 8008 bound_to 7997
  156.2824  140.2734  156.1808 H   0  0  0  0  0  0  0  0  0  0  0  0  # atno 8009 bound_to 7997
  155.0506  140.0371  157.2532 H   0  0  0  0  0  0  0  0  0  0  0  0  # atno 8010 bound_to 7997
  140.1863  144.4131  150.6592 H   0  0  0  0  0  0  0  0  0  0  0  0  # atno 10167 bound_to 10162
  156.5175  130.4624  149.6615 H   0  0  0  0  0  0  0  0  0  0  0  0  # atno 10718 bound_to 10713
  152.9992  135.6242  154.2347 H   0  0  0  0  0  0  0  0  0  0  0  0  # atno 10763 bound_to 10752
  154.2088  135.2801  155.2967 H   0  0  0  0  0  0  0  0  0  0  0  0  # atno 10764 bound_to 10752
  154.5623  135.5701  153.7078 H   0  0  0  0  0  0  0  0  0  0  0  0  # atno 10765 bound_to 10752
  141.0114  134.0260  157.3409 H   0  0  0  0  0  0  0  0  0  0  0  0  # atno 11005 bound_to 11000
  145.6436  139.1554  143.2902 LP  0  0  0  0  0  0  0  0  0  0  0  0  # atno 17320 bound_to 7965
  146.1788  140.6530  142.9199 LP  0  0  0  0  0  0  0  0  0  0  0  0  # atno 17321 bound_to 7965
  140.6486  143.2219  151.6129 LP  0  0  0  0  0  0  0  0  0  0  0  0  # atno 17342 bound_to 10162
  139.5275  144.3016  152.1068 LP  0  0  0  0  0  0  0  0  0  0  0  0  # atno 17343 bound_to 10162
  156.3181  130.7266  151.2172 LP  0  0  0  0  0  0  0  0  0  0  0  0  # atno 17370 bound_to 10713
  157.7442  131.0463  150.4886 LP  0  0  0  0  0  0  0  0  0  0  0  0  # atno 17371 bound_to 10713
  139.9092  135.0186  156.7618 LP  0  0  0  0  0  0  0  0  0  0  0  0  # atno 17394 bound_to 11000
  140.6728  133.9544  155.7866 LP  0  0  0  0  0  0  0  0  0  0  0  0  # atno 17395 bound_to 11000

$$$$
