AV-unprocessed.smi:3295|AV-procd|sdf|12636|dock3
  -GOLD-   2272018573D 1   1.00000     0.00000
 Structure written by MMmdl.
 38 39  0  0  0  0  0  0  0  0  2 V2000
  150.1492  138.6171  154.4163 C   0  0  0  0  0  0  0  0  0  0  0  0
  149.1493  139.7519  154.2771 C   0  0  0  0  0  0  0  0  0  0  0  0
  149.4905  141.0390  154.7463 C   0  0  0  0  0  0  0  0  0  0  0  0
  148.6151  142.0591  154.6259 N   0  3  0  0  0  0  0  0  0  0  0  0
  147.3990  141.9135  154.0606 C   0  0  0  0  0  0  0  0  0  0  0  0
  146.9971  140.6545  153.5725 C   0  0  0  0  0  0  0  0  0  0  0  0
  147.8740  139.5454  153.6903 C   0  0  0  0  0  0  0  0  0  0  0  0
  147.5498  138.2454  153.2082 N   0  0  0  0  0  0  0  0  0  0  0  0
  146.3517  137.6373  153.1715 C   0  0  0  0  0  0  0  0  0  0  0  0
  145.2945  138.1250  153.5698 O   0  0  0  0  0  0  0  0  0  0  0  0
  146.4517  136.4058  152.6528 N   0  0  0  0  0  0  0  0  0  0  0  0
  145.3347  135.4893  152.4402 C   0  0  0  0  0  0  0  0  0  0  0  0
  145.3419  134.8421  151.0315 C   0  0  0  0  0  0  0  0  0  0  0  0
  145.3086  135.8757  150.0664 O   0  0  0  0  0  0  0  0  0  0  0  0
  146.5080  133.8739  150.7737 C   0  0  0  0  0  0  0  0  0  0  0  0
  146.0639  132.5505  151.4047 C   0  0  0  0  0  0  0  0  0  0  0  0
  144.5276  132.5605  151.3707 C   0  0  0  0  0  0  0  0  0  0  0  0
  144.1163  133.9386  150.8325 C   0  0  0  0  0  0  0  0  0  0  0  0
  151.0665  138.9549  154.8999 H   0  0  0  0  0  0  0  0  0  0  0  0
  150.4131  138.2183  153.4363 H   0  0  0  0  0  0  0  0  0  0  0  0
  149.7293  137.8100  155.0173 H   0  0  0  0  0  0  0  0  0  0  0  0
  150.4345  141.2841  155.2111 H   0  0  0  0  0  0  0  0  0  0  0  0
  146.7894  142.8037  154.0095 H   0  0  0  0  0  0  0  0  0  0  0  0
  146.0277  140.5687  153.1060 H   0  0  0  0  0  0  0  0  0  0  0  0
  148.3370  137.6836  152.9197 H   0  0  0  0  0  0  0  0  0  0  0  0
  147.3622  136.0839  152.3590 H   0  0  0  0  0  0  0  0  0  0  0  0
  145.4301  134.7134  153.2001 H   0  0  0  0  0  0  0  0  0  0  0  0
  144.3785  135.9774  152.6384 H   0  0  0  0  0  0  0  0  0  0  0  0
  145.6166  135.5287  149.2433 H   0  0  0  0  0  0  0  0  0  0  0  0
  146.6268  133.7227  149.6995 H   0  0  0  0  0  0  0  0  0  0  0  0
  147.4705  134.2190  151.1508 H   0  0  0  0  0  0  0  0  0  0  0  0
  146.4828  131.6916  150.8797 H   0  0  0  0  0  0  0  0  0  0  0  0
  146.4073  132.5002  152.4388 H   0  0  0  0  0  0  0  0  0  0  0  0
  144.1325  131.7624  150.7411 H   0  0  0  0  0  0  0  0  0  0  0  0
  144.1319  132.4077  152.3755 H   0  0  0  0  0  0  0  0  0  0  0  0
  143.2175  134.3263  151.3137 H   0  0  0  0  0  0  0  0  0  0  0  0
  143.8933  133.8408  149.7685 H   0  0  0  0  0  0  0  0  0  0  0  0
  148.8863  142.9799  154.9718 H   0  0  0  0  0  0  0  0  0  0  0  0
  1  2  1  0  0  0  0
  1 19  1  0  0  0  0
  1 20  1  0  0  0  0
  1 21  1  0  0  0  0
  2  7  1  0  0  0  0
  2  3  2  0  0  0  0
  3  4  1  0  0  0  0
  3 22  1  0  0  0  0
  4  5  2  0  0  0  0
  4 38  1  0  0  0  0
  5  6  1  0  0  0  0
  5 23  1  0  0  0  0
  6  7  2  0  0  0  0
  6 24  1  0  0  0  0
  7  8  1  0  0  0  0
  8  9  1  0  0  0  0
  8 25  1  0  0  0  0
  9 10  2  0  0  0  0
  9 11  1  0  0  0  0
 11 12  1  0  0  0  0
 11 26  1  0  0  0  0
 12 13  1  0  0  0  0
 12 27  1  0  0  0  0
 12 28  1  0  0  0  0
 13 18  1  0  0  0  0
 13 14  1  0  0  0  0
 13 15  1  0  0  0  0
 14 29  1  0  0  0  0
 15 16  1  0  0  0  0
 15 30  1  0  0  0  0
 15 31  1  0  0  0  0
 16 17  1  0  0  0  0
 16 32  1  0  0  0  0
 16 33  1  0  0  0  0
 17 18  1  0  0  0  0
 17 34  1  0  0  0  0
 17 35  1  0  0  0  0
 18 36  1  0  0  0  0
 18 37  1  0  0  0  0
M  CHG  1   4   1
M  END
> <s_m_source_file>
AV-unprocessed.smi

> <i_m_source_file_index>
3295

> <i_lp_mmshare_version>
43012

> <i_f3d_flags>
0

> <s_epik_input>
W0NIM11jMVtjSF1uW2NIXVtjSF1jMVtOSF1DKD1PKVtOSF1bQ0gyXUMyKFtPSF0pW0NIMl1bQ0gyXVtDSDJdW0NIMl0y

> <s_epik_cmdline>
J2VwaWtfcHl0aG9uJywgJy1waCcsICc3LjAnLCAnLXRuJywgJzgnLCAnLW1hJywgJzIwMCcsICctbWV0YWxfYmluZGluZycsICctaW1hZScsICc8aW5maWxlLm1hZT4nLCAnLW9tYWUnLCAnPG91dGZpbGUubWFlPic=

> <r_epik_Ionization_Penalty>
0.684362

> <r_epik_Ionization_Penalty_Charging>
0.684339

> <r_epik_Ionization_Penalty_Neutral>
2.25036e-05

> <r_epik_State_Penalty>
0.705654

> <r_epik_Charging_Adjusted_Penalty>
1.38999

> <i_epik_Tot_Q>
1

> <i_epik_Tot_abs_Q>
1

> <r_epik_Metal_State_Penalty>
0.870015

> <b_epik_Metal_Only>
0

> <s_lp_Force_Field>
OPLS_2005

> <r_lp_Energy>
34.1555

> <b_lp_Chiralities_Consistent>
1

> <s_lp_Variant>
AV-unprocessed.smi:3295-2

> <Gold.Version>
5.8.1

> <Gold.Id.Protein>
6NUR|6NUR_protein|mol2

> <Gold.PLP.Fitness>
49.0196

> <Gold.PLP.PLP>
-34.7524

> <Gold.PLP.part.hbond>
-4.8661

> <Gold.PLP.part.metal>
0.0000

> <Gold.PLP.part.buried>
-4.6306

> <Gold.PLP.part.nonpolar>
-25.3806

> <Gold.PLP.part.repulsive>
0.7805

> <Gold.PLP.ligand.clash>
0.0000

> <Gold.PLP.ligand.torsion>
0.3128

> <Gold.PLP.Chemscore.Hbond>
4.9600

> <Gold.PLP.Chemscore.CHOScore>
0.0000

> <Gold.PLP.Chemscore.Metal>
0.0000

> <Gold.Chemscore.Hbonds>
donor molecule, donor type, donor heavy atom, donor atom, acceptor molecule, acceptor atom, score
      L1  H     4    38       P1  8028  2.00
      L1  H     8    25       P1  7948  0.94
      L1  H    11    26       P1  7948  1.00
      L1  H    14    29       P1  7921  1.00

> <Gold.PLP.Chemscore.Internal.Correction>
0.0127

> <Gold.Rescore>
     Score         DG    S(hbond)    S(metal)    S(lipo)     H(rot)  DE(clash)    DE(int)     intcor
     21.99     -23.30       3.87        0.00      79.74       1.74       0.29       1.01       ----

> <Gold.Chemscore.Fitness>
21.9933

> <Gold.Chemscore.DG>
-23.3005

> <Gold.Chemscore.ZeroCoef>
-5.4800

> <Gold.Chemscore.Hbond>
3.8746

> <Gold.Chemscore.Metal>
0.0000

> <Gold.Chemscore.Lipo>
79.7355

> <Gold.Chemscore.Internal_Hbond>
0.0000

> <Gold.Chemscore.DEClash>
0.2928

> <Gold.Chemscore.DEInternal>
1.0144

> <Gold.Chemscore.Rot>
1.7382

> <Gold.Chemscore.Internal.Correction>
   9.000000E+99

> <Gold.Chemscore.Hbonds>
donor molecule, donor type, donor heavy atom, donor atom, acceptor molecule, acceptor atom, score
      L1  H     4    38       P1  8028  1.00
      L1  H     8    25       P1  7948  0.91
      L1  H    11    26       P1  7948  0.99
      L1  H    14    29       P1  7921  1.00

> <Gold.Chemscore.Hbond.Weighted>
-12.9411

> <Gold.Chemscore.Metal.Weighted>
-0.0000

> <Gold.Chemscore.Lipo.Weighted>
-9.3291

> <Gold.Chemscore.Internal_Hbond.Weighted>
0.0000

> <Gold.Chemscore.DEClash.Weighted>
0.2928

> <Gold.Chemscore.DEInternal.Weighted>
1.0144

> <Gold.Chemscore.Rot.Weighted>
4.4497

> <Gold.Chemscore.Internal.Correction.Weighted>
   9.000000E+99

> <Gold.Protein.RotatedTorsions>
[ 6907 6896 6895 6894 ] final  -33.93 input  -60.11 | X-H torsion
[ 7974 7965 7964 7962 ] final   10.25 input  175.53 | X-H torsion
[ 8008 7997 7996 7995 ] final -135.23 input   59.86 | X-H torsion
[ 10167 10162 10161 10158 ] final   31.07 input  -65.29 | X-H torsion
[ 10718 10713 10712 10709 ] final -177.09 input   66.30 | X-H torsion
[ 10763 10752 10751 10750 ] final  -20.12 input  -60.55 | X-H torsion
[ 11005 11000 10999 10996 ] final  -46.13 input  -57.11 | X-H torsion

> <Gold.Protein.ActiveResidues>
 VAL166  LYS551  ARG553  GLY616  TRP617  ASP618  TYR619  PRO620  LYS621  CYS622 
 ASP623  PHE694  ASN695  SER759  ASP760  ASP761  ALA762  ILE779  LEU786  VAL792 
 PHE793  MET794  SER795  GLU796  ALA797  LYS798  CYS799  TRP800  GLU811  SER814 

> <Gold.Protein.RotatedAtoms>
  151.0592  134.9725  159.8251 H   0  0  0  0  0  0  0  0  0  0  0  0  # atno 6907 bound_to 6896
  152.5393  134.2439  159.8883 H   0  0  0  0  0  0  0  0  0  0  0  0  # atno 6908 bound_to 6896
  151.2459  133.4332  159.2643 H   0  0  0  0  0  0  0  0  0  0  0  0  # atno 6909 bound_to 6896
  146.2391  139.9663  142.8452 H   0  0  0  0  0  0  0  0  0  0  0  0  # atno 7974 bound_to 7965
  155.3752  140.0490  157.3045 H   0  0  0  0  0  0  0  0  0  0  0  0  # atno 8008 bound_to 7997
  154.5110  140.2191  155.9119 H   0  0  0  0  0  0  0  0  0  0  0  0  # atno 8009 bound_to 7997
  156.1582  140.3122  155.8768 H   0  0  0  0  0  0  0  0  0  0  0  0  # atno 8010 bound_to 7997
  140.4621  144.0890  150.6215 H   0  0  0  0  0  0  0  0  0  0  0  0  # atno 10167 bound_to 10162
  156.8244  130.9631  151.3110 H   0  0  0  0  0  0  0  0  0  0  0  0  # atno 10718 bound_to 10713
  153.6154  135.6994  153.5331 H   0  0  0  0  0  0  0  0  0  0  0  0  # atno 10763 bound_to 10752
  153.2982  135.4137  155.1228 H   0  0  0  0  0  0  0  0  0  0  0  0  # atno 10764 bound_to 10752
  154.8554  135.3642  154.5694 H   0  0  0  0  0  0  0  0  0  0  0  0  # atno 10765 bound_to 10752
  141.0560  133.6726  156.3112 H   0  0  0  0  0  0  0  0  0  0  0  0  # atno 11005 bound_to 11000
  145.1723  140.9727  143.4314 LP  0  0  0  0  0  0  0  0  0  0  0  0  # atno 17320 bound_to 7965
  145.0017  139.3592  143.6164 LP  0  0  0  0  0  0  0  0  0  0  0  0  # atno 17321 bound_to 7965
  140.4080  143.2671  151.9867 LP  0  0  0  0  0  0  0  0  0  0  0  0  # atno 17342 bound_to 10162
  139.4807  144.5940  151.7722 LP  0  0  0  0  0  0  0  0  0  0  0  0  # atno 17343 bound_to 10162
  157.6440  130.8829  149.9502 LP  0  0  0  0  0  0  0  0  0  0  0  0  # atno 17370 bound_to 10713
  156.0970  130.3658  150.0288 LP  0  0  0  0  0  0  0  0  0  0  0  0  # atno 17371 bound_to 10713
  140.5963  134.5599  157.5509 LP  0  0  0  0  0  0  0  0  0  0  0  0  # atno 17394 bound_to 11000
  139.9390  134.7821  156.0727 LP  0  0  0  0  0  0  0  0  0  0  0  0  # atno 17395 bound_to 11000

$$$$
