#       Name:                AV-unprocessed.smi:463
#       Creating user name   scv26
#       Creation time:       Thu Mar 26 23:04:22 2020


#       File generated by GOLD software.
#

@<TRIPOS>MOLECULE
AV-unprocessed.smi:463
    47    49     1
SMALL
NO_CHARGES


@<TRIPOS>ATOM
      1 ****        -4.2137   3.5836  -0.2139 C.3            1 S1                 0.0000
      2 ****        -3.6573   2.4432   0.6132 C.ar           1 S1                 0.0000
      3 ****        -4.4779   1.7761   1.5441 C.ar           1 S1                 0.0000
      4 ****        -3.9535   0.7215   2.3141 C.ar           1 S1                 0.0000
      5 ****        -2.6095   0.3302   2.1578 C.ar           1 S1                 0.0000
      6 ****        -1.7748   0.9933   1.2234 C.ar           1 S1                 0.0000
      7 ****        -0.4524   0.6765   1.0035 O.3            1 S1                 0.0000
      8 ****         0.1263  -0.3776   1.7612 C.3            1 S1                 0.0000
      9 ****         1.5778  -0.5900   1.3102 C.3            1 S1                 0.0000
     10 ****         1.6620  -0.9207  -0.1054 N.pl3          1 S1                 0.0000
     11 ****         1.9090  -0.1014  -1.1604 C.2            1 S1                 0.0000
     12 ****         2.1603   1.3715  -1.0105 C.3            1 S1                 0.0000
     13 ****         3.6517   1.7417  -1.0410 C.3            1 S1                 0.0000
     14 ****         4.2960   1.3528   0.1539 O.3            1 S1                 0.0000
     15 ****         1.9235  -0.6897  -2.3578 N.2            1 S1                 0.0000
     16 ****         1.6527  -2.0092  -2.0540 C.ar           1 S1                 0.0000
     17 ****         1.5274  -3.1388  -2.8944 C.ar           1 S1                 0.0000
     18 ****         1.2400  -4.4067  -2.3476 C.ar           1 S1                 0.0000
     19 ****         1.0739  -4.5629  -0.9562 C.ar           1 S1                 0.0000
     20 ****         1.1957  -3.4506  -0.1014 C.ar           1 S1                 0.0000
     21 ****         1.4833  -2.1874  -0.6522 C.ar           1 S1                 0.0000
     22 ****        -2.3127   2.0488   0.4588 C.ar           1 S1                 0.0000
     23 ****        -5.2888   3.4732  -0.3587 H              1 S1                 0.0000
     24 ****        -3.7422   3.6155  -1.1965 H              1 S1                 0.0000
     25 ****        -4.0301   4.5346   0.2862 H              1 S1                 0.0000
     26 ****        -5.5092   2.0707   1.6712 H              1 S1                 0.0000
     27 ****        -4.5833   0.2111   3.0277 H              1 S1                 0.0000
     28 ****        -2.2431  -0.4821   2.7665 H              1 S1                 0.0000
     29 ****         0.1054  -0.1323   2.8239 H              1 S1                 0.0000
     30 ****        -0.4364  -1.3014   1.6165 H              1 S1                 0.0000
     31 ****         2.1779   0.2936   1.5221 H              1 S1                 0.0000
     32 ****         2.0280  -1.4026   1.8809 H              1 S1                 0.0000
     33 ****         1.6622   1.8729  -1.8410 H              1 S1                 0.0000
     34 ****         1.6818   1.7607  -0.1126 H              1 S1                 0.0000
     35 ****         4.1514   1.2898  -1.8984 H              1 S1                 0.0000
     36 ****         3.7596   2.8221  -1.1392 H              1 S1                 0.0000
     37 ****         5.2048   1.6071   0.1019 H              1 S1                 0.0000
     38 ****         1.6510  -3.0291  -3.9616 H              1 S1                 0.0000
     39 ****         1.1454  -5.2632  -2.9991 H              1 S1                 0.0000
     40 ****         0.8527  -5.5371  -0.5453 H              1 S1                 0.0000
     41 ****         1.0681  -3.5664   0.9646 H              1 S1                 0.0000
     42 ****        -1.6823   2.5606  -0.2537 H              1 S1                 0.0000
     43 ****         0.0833   1.5007   1.1869 LP             1 S1                 0.0000
     44 ****        -0.3643   0.4295   0.0385 LP             1 S1                 0.0000
     45 ****         4.2292   0.3613   0.2656 LP             1 S1                 0.0000
     46 ****         3.8632   1.8059   0.9332 LP             1 S1                 0.0000
     47 ****         2.0894  -0.2772  -3.2535 LP             1 S1                 0.0000
@<TRIPOS>BOND
    1    1    2 1     
    2    1   23 1     
    3    1   24 1     
    4    1   25 1     
    5    2   22 ar    
    6    2    3 ar    
    7    3    4 ar    
    8    3   26 1     
    9    4    5 ar    
   10    4   27 1     
   11    5    6 ar    
   12    5   28 1     
   13    6    7 1     
   14    6   22 ar    
   15    7    8 1     
   16    8    9 1     
   17    8   29 1     
   18    8   30 1     
   19    9   10 1     
   20    9   31 1     
   21    9   32 1     
   22   10   21 1     
   23   10   11 1     
   24   11   12 1     
   25   11   15 2     
   26   12   13 1     
   27   12   33 1     
   28   12   34 1     
   29   13   14 1     
   30   13   35 1     
   31   13   36 1     
   32   14   37 1     
   33   15   16 1     
   34   16   21 ar    
   35   16   17 ar    
   36   17   18 ar    
   37   17   38 1     
   38   18   19 ar    
   39   18   39 1     
   40   19   20 ar    
   41   19   40 1     
   42   20   21 ar    
   43   20   41 1     
   44   22   42 1     
   45    7   43 1     
   46    7   44 1     
   47   14   45 1     
   48   14   46 1     
   49   15   47 1     
@<TRIPOS>SUBSTRUCTURE
      1 S1             1
@<TRIPOS>SET
LONE_PAIRS      STATIC     ATOMS    <user>   **** ""
5 43 44 45 46 47
DONOR_HYDROGENS      STATIC     ATOMS    <user>   **** ""
1 37
ATOM$BLUE        STATIC     ATOMS    COLORGROUP SYSTEM
5 43 44 45 46 47
ATOM$RED        STATIC     ATOMS    COLORGROUP SYSTEM
1 37
