AV-unprocessed.smi:2666|AV-procd|sdf|10332|dock3
  -GOLD-   2272014353D 1   1.00000     0.00000
 Structure written by MMmdl.
 43 44  0  0  0  0  0  0  0  0  1 V2000
  149.1567  140.7436  157.3993 O   0  0  0  0  0  0  0  0  0  0  0  0
  149.1464  141.8406  156.8418 C   0  0  0  0  0  0  0  0  0  0  0  0
  149.9177  142.8896  157.1748 N   0  0  0  0  0  0  0  0  0  0  0  0
  150.9299  142.9680  158.1693 C   0  0  0  0  0  0  0  0  0  0  0  0
  151.3586  144.2489  158.5741 C   0  0  0  0  0  0  0  0  0  0  0  0
  152.3740  144.3593  159.5429 C   0  0  0  0  0  0  0  0  0  0  0  0
  152.9303  143.1766  160.0668 C   0  0  0  0  0  0  0  0  0  0  0  0
  152.5426  141.9427  159.6813 N   0  0  0  0  0  0  0  0  0  0  0  0
  151.5671  141.8442  158.7523 C   0  0  0  0  0  0  0  0  0  0  0  0
  148.3351  142.1481  155.8186 N   0  0  0  0  0  0  0  0  0  0  0  0
  147.3697  141.2500  155.1804 C   0  0  2  0  0  0  0  0  0  0  0  0
  148.0539  140.5146  153.9987 C   0  0  0  0  0  0  0  0  0  0  0  0
  147.1726  139.4877  153.2597 C   0  0  0  0  0  0  0  0  0  0  0  0
  147.9136  138.7487  152.3102 O   0  0  0  0  0  0  0  0  0  0  0  0
  146.0987  142.0483  154.7652 C   0  0  0  0  0  0  0  0  0  0  0  0
  146.4351  143.2403  153.8313 C   0  0  0  0  0  0  0  0  0  0  0  0
  145.1878  144.0392  153.4225 C   0  0  0  0  0  0  0  0  0  0  0  0
  144.4229  144.5422  154.6522 C   0  0  0  0  0  0  0  0  0  0  0  0
  144.0533  143.3722  155.5717 C   0  0  0  0  0  0  0  0  0  0  0  0
  145.2966  142.5672  155.9847 C   0  0  0  0  0  0  0  0  0  0  0  0
  149.7336  143.7488  156.6777 H   0  0  0  0  0  0  0  0  0  0  0  0
  150.9148  145.1386  158.1513 H   0  0  0  0  0  0  0  0  0  0  0  0
  152.7190  145.3269  159.8760 H   0  0  0  0  0  0  0  0  0  0  0  0
  153.7113  143.2228  160.8114 H   0  0  0  0  0  0  0  0  0  0  0  0
  151.3214  140.8335  158.4675 H   0  0  0  0  0  0  0  0  0  0  0  0
  148.4014  143.0782  155.4321 H   0  0  0  0  0  0  0  0  0  0  0  0
  147.0548  140.4873  155.8947 H   0  0  0  0  0  0  0  0  0  0  0  0
  148.3462  141.2526  153.2536 H   0  0  0  0  0  0  0  0  0  0  0  0
  148.9801  140.0416  154.3281 H   0  0  0  0  0  0  0  0  0  0  0  0
  146.6911  138.8085  153.9642 H   0  0  0  0  0  0  0  0  0  0  0  0
  146.3771  140.0050  152.7227 H   0  0  0  0  0  0  0  0  0  0  0  0
  148.7073  139.2230  152.1144 H   0  0  0  0  0  0  0  0  0  0  0  0
  145.4493  141.3706  154.2085 H   0  0  0  0  0  0  0  0  0  0  0  0
  147.1445  143.9037  154.3279 H   0  0  0  0  0  0  0  0  0  0  0  0
  146.9254  142.8951  152.9214 H   0  0  0  0  0  0  0  0  0  0  0  0
  145.4773  144.8826  152.7951 H   0  0  0  0  0  0  0  0  0  0  0  0
  144.5344  143.4117  152.8151 H   0  0  0  0  0  0  0  0  0  0  0  0
  145.0353  145.2610  155.1981 H   0  0  0  0  0  0  0  0  0  0  0  0
  143.5223  145.0726  154.3413 H   0  0  0  0  0  0  0  0  0  0  0  0
  143.5423  143.7465  156.4593 H   0  0  0  0  0  0  0  0  0  0  0  0
  143.3463  142.7162  155.0625 H   0  0  0  0  0  0  0  0  0  0  0  0
  144.9619  141.7404  156.6092 H   0  0  0  0  0  0  0  0  0  0  0  0
  145.9395  143.1880  156.6106 H   0  0  0  0  0  0  0  0  0  0  0  0
  1  2  2  0  0  0  0
  2  3  1  0  0  0  0
  2 10  1  0  0  0  0
  3  4  1  0  0  0  0
  3 21  1  0  0  0  0
  4  9  1  0  0  0  0
  4  5  2  0  0  0  0
  5  6  1  0  0  0  0
  5 22  1  0  0  0  0
  6  7  2  0  0  0  0
  6 23  1  0  0  0  0
  7  8  1  0  0  0  0
  7 24  1  0  0  0  0
  8  9  2  0  0  0  0
  9 25  1  0  0  0  0
 10 11  1  0  0  0  0
 10 26  1  0  0  0  0
 11 12  1  0  0  0  0
 11 15  1  0  0  0  0
 11 27  1  0  0  0  0
 12 13  1  0  0  0  0
 12 28  1  0  0  0  0
 12 29  1  0  0  0  0
 13 14  1  0  0  0  0
 13 30  1  0  0  0  0
 13 31  1  0  0  0  0
 14 32  1  0  0  0  0
 15 20  1  0  0  0  0
 15 16  1  0  0  0  0
 15 33  1  0  0  0  0
 16 17  1  0  0  0  0
 16 34  1  0  0  0  0
 16 35  1  0  0  0  0
 17 18  1  0  0  0  0
 17 36  1  0  0  0  0
 17 37  1  0  0  0  0
 18 19  1  0  0  0  0
 18 38  1  0  0  0  0
 18 39  1  0  0  0  0
 19 20  1  0  0  0  0
 19 40  1  0  0  0  0
 19 41  1  0  0  0  0
 20 42  1  0  0  0  0
 20 43  1  0  0  0  0
M  END
> <s_m_source_file>
AV-unprocessed.smi

> <i_m_source_file_index>
2666

> <i_lp_mmshare_version>
43012

> <i_f3d_flags>
0

> <s_epik_input>
W2NIXTFuW2NIXVtjSF1bY0hdYzFbTkhdQyg9TylbTkhdW0NASF0oW0NIMl1bQ0gyXVtPSF0pW0NIXTJbQ0gyXVtDSDJdW0NIMl1bQ0gyXVtDSDJdMg==

> <s_epik_cmdline>
J2VwaWtfcHl0aG9uJywgJy1waCcsICc3LjAnLCAnLXRuJywgJzgnLCAnLW1hJywgJzIwMCcsICctbWV0YWxfYmluZGluZycsICctaW1hZScsICc8aW5maWxlLm1hZT4nLCAnLW9tYWUnLCAnPG91dGZpbGUubWFlPic=

> <r_epik_Ionization_Penalty>
0.00500145

> <r_epik_Ionization_Penalty_Charging>
0

> <r_epik_Ionization_Penalty_Neutral>
0.00500145

> <r_epik_State_Penalty>
0.00360517

> <r_epik_Charging_Adjusted_Penalty>
0.00360517

> <i_epik_Tot_Q>
0

> <i_epik_Tot_abs_Q>
0

> <r_epik_Metal_State_Penalty>
-0

> <b_epik_Metal_Only>
0

> <s_lp_Force_Field>
OPLS_2005

> <r_lp_Energy>
19.5826

> <b_lp_Chiralities_Consistent>
1

> <s_lp_Variant>
AV-unprocessed.smi:2666-1

> <Gold.Version>
5.8.1

> <Gold.Id.Protein>
6NUR|6NUR_protein|mol2

> <Gold.PLP.Fitness>
48.9856

> <Gold.PLP.PLP>
-40.9262

> <Gold.PLP.part.hbond>
-3.7167

> <Gold.PLP.part.metal>
0.0000

> <Gold.PLP.part.buried>
-5.1752

> <Gold.PLP.part.nonpolar>
-31.6643

> <Gold.PLP.part.repulsive>
0.1126

> <Gold.PLP.ligand.clash>
0.0000

> <Gold.PLP.ligand.torsion>
0.4887

> <Gold.PLP.Chemscore.Hbond>
2.9920

> <Gold.PLP.Chemscore.CHOScore>
0.0000

> <Gold.PLP.Chemscore.Metal>
0.0000

> <Gold.Chemscore.Hbonds>
donor molecule, donor type, donor heavy atom, donor atom, acceptor molecule, acceptor atom, score
      L1  H     3    21       P1  8028  1.00
      L1  H    10    26       P1  8028  0.98
      L1  H    14    32       P1  7957  0.99

> <Gold.PLP.Chemscore.Internal.Correction>
0.0608

> <Gold.Rescore>
     Score         DG    S(hbond)    S(metal)    S(lipo)     H(rot)  DE(clash)    DE(int)     intcor
     19.92     -21.49       2.88        0.00     103.26       2.23       0.05       1.51       ----

> <Gold.Chemscore.Fitness>
19.9222

> <Gold.Chemscore.DG>
-21.4903

> <Gold.Chemscore.ZeroCoef>
-5.4800

> <Gold.Chemscore.Hbond>
2.8817

> <Gold.Chemscore.Metal>
0.0000

> <Gold.Chemscore.Lipo>
103.2602

> <Gold.Chemscore.Internal_Hbond>
0.0000

> <Gold.Chemscore.DEClash>
0.0537

> <Gold.Chemscore.DEInternal>
1.5144

> <Gold.Chemscore.Rot>
2.2251

> <Gold.Chemscore.Internal.Correction>
   9.000000E+99

> <Gold.Chemscore.Hbonds>
donor molecule, donor type, donor heavy atom, donor atom, acceptor molecule, acceptor atom, score
      L1  H     3    21       P1  8028  0.97
      L1  H    10    26       P1  8028  0.93
      L1  H    14    32       P1  7957  0.88

> <Gold.Chemscore.Hbond.Weighted>
-9.6250

> <Gold.Chemscore.Metal.Weighted>
-0.0000

> <Gold.Chemscore.Lipo.Weighted>
-12.0814

> <Gold.Chemscore.Internal_Hbond.Weighted>
0.0000

> <Gold.Chemscore.DEClash.Weighted>
0.0537

> <Gold.Chemscore.DEInternal.Weighted>
1.5144

> <Gold.Chemscore.Rot.Weighted>
5.6962

> <Gold.Chemscore.Internal.Correction.Weighted>
   9.000000E+99

> <Gold.Protein.RotatedTorsions>
[ 6907 6896 6895 6894 ] final  141.23 input  -60.11 | X-H torsion
[ 7974 7965 7964 7962 ] final   97.99 input  175.53 | X-H torsion
[ 8008 7997 7996 7995 ] final  -47.61 input   59.86 | X-H torsion
[ 10167 10162 10161 10158 ] final  -91.84 input  -65.29 | X-H torsion
[ 10718 10713 10712 10709 ] final  152.02 input   66.30 | X-H torsion
[ 10763 10752 10751 10750 ] final   -8.73 input  -60.55 | X-H torsion
[ 11005 11000 10999 10996 ] final   94.03 input  -57.11 | X-H torsion

> <Gold.Protein.ActiveResidues>
 VAL166  LYS551  ARG553  GLY616  TRP617  ASP618  TYR619  PRO620  LYS621  CYS622 
 ASP623  PHE694  ASN695  SER759  ASP760  ASP761  ALA762  ILE779  LEU786  VAL792 
 PHE793  MET794  SER795  GLU796  ALA797  LYS798  CYS799  TRP800  GLU811  SER814 

> <Gold.Protein.RotatedAtoms>
  152.2335  133.5077  159.5228 H   0  0  0  0  0  0  0  0  0  0  0  0  # atno 6907 bound_to 6896
  150.7044  134.1185  159.4035 H   0  0  0  0  0  0  0  0  0  0  0  0  # atno 6908 bound_to 6896
  151.9106  135.0340  160.0565 H   0  0  0  0  0  0  0  0  0  0  0  0  # atno 6909 bound_to 6896
  145.4182  139.2325  143.3211 H   0  0  0  0  0  0  0  0  0  0  0  0  # atno 7974 bound_to 7965
  154.4019  140.1342  156.4203 H   0  0  0  0  0  0  0  0  0  0  0  0  # atno 8008 bound_to 7997
  155.7649  140.3485  155.5196 H   0  0  0  0  0  0  0  0  0  0  0  0  # atno 8009 bound_to 7997
  155.8823  140.0989  157.1467 H   0  0  0  0  0  0  0  0  0  0  0  0  # atno 8010 bound_to 7997
  140.3409  143.2943  151.9836 H   0  0  0  0  0  0  0  0  0  0  0  0  # atno 10167 bound_to 10162
  157.2632  131.0802  151.1651 H   0  0  0  0  0  0  0  0  0  0  0  0  # atno 10718 bound_to 10713
  153.4447  135.7014  153.6146 H   0  0  0  0  0  0  0  0  0  0  0  0  # atno 10763 bound_to 10752
  153.4506  135.3759  155.2282 H   0  0  0  0  0  0  0  0  0  0  0  0  # atno 10764 bound_to 10752
  154.8728  135.3996  154.3851 H   0  0  0  0  0  0  0  0  0  0  0  0  # atno 10765 bound_to 10752
  139.8803  134.8823  156.3804 H   0  0  0  0  0  0  0  0  0  0  0  0  # atno 11005 bound_to 11000
  146.2670  140.4903  142.8830 LP  0  0  0  0  0  0  0  0  0  0  0  0  # atno 17320 bound_to 7965
  144.8263  140.6634  143.6320 LP  0  0  0  0  0  0  0  0  0  0  0  0  # atno 17321 bound_to 7965
  139.4841  144.6158  151.7350 LP  0  0  0  0  0  0  0  0  0  0  0  0  # atno 17342 bound_to 10162
  140.5310  144.0730  150.6053 LP  0  0  0  0  0  0  0  0  0  0  0  0  # atno 17343 bound_to 10162
  157.3153  130.6910  149.6238 LP  0  0  0  0  0  0  0  0  0  0  0  0  # atno 17370 bound_to 10713
  155.9664  130.4351  150.5079 LP  0  0  0  0  0  0  0  0  0  0  0  0  # atno 17371 bound_to 10713
  140.9403  133.7519  156.0137 LP  0  0  0  0  0  0  0  0  0  0  0  0  # atno 17394 bound_to 11000
  140.8228  134.3270  157.5376 LP  0  0  0  0  0  0  0  0  0  0  0  0  # atno 17395 bound_to 11000

$$$$
