#       Name:                AV-unprocessed.smi:1290
#       Creating user name   scv26
#       Creation time:       Fri Mar 27 04:54:09 2020


#       File generated by GOLD software.
#

@<TRIPOS>MOLECULE
AV-unprocessed.smi:1290
    45    47     1
SMALL
NO_CHARGES


@<TRIPOS>ATOM
      1 ****        -2.1417   3.7377   0.4987 C.3            1 S1                 0.0000
      2 ****        -2.3475   2.2781   0.5537 N.am           1 S1                 0.0000
      3 ****        -1.2425   1.4678   0.5574 C.2            1 S1                 0.0000
      4 ****        -0.0762   1.8625   0.5192 O.2            1 S1                 0.0000
      5 ****        -1.5576   0.0378   0.6096 C.2            1 S1                 0.0000
      6 ****        -2.8248  -0.4384   0.6529 C.2            1 S1                 0.0000
      7 ****        -2.8426  -1.8281   0.6959 N.2            1 S1                 0.0000
      8 ****        -1.5418  -2.1230   0.6737 C.2            1 S1                 0.0000
      9 ****        -0.7066  -1.0651   0.6205 N.pl3          1 S1                 0.0000
     10 ****         0.7471  -1.1107   0.5852 C.3            1 S1                 0.0000
     11 ****         1.3159  -0.9057  -0.8332 C.3            1 S1                 0.0000
     12 ****         0.7977  -1.8901  -1.7077 O.3            1 S1                 0.0000
     13 ****         2.8365  -0.8897  -0.8186 C.ar           1 S1                 0.0000
     14 ****         3.5272   0.3407  -0.8497 C.ar           1 S1                 0.0000
     15 ****         4.9354   0.3654  -0.8270 C.ar           1 S1                 0.0000
     16 ****         5.6611  -0.8404  -0.7702 C.ar           1 S1                 0.0000
     17 ****         7.3861  -0.8101  -0.7421 Cl             1 S1                 0.0000
     18 ****         4.9774  -2.0710  -0.7346 C.ar           1 S1                 0.0000
     19 ****         3.5694  -2.0959  -0.7574 C.ar           1 S1                 0.0000
     20 ****        -3.8982   0.4864   0.6464 N.am           1 S1                 0.0000
     21 ****        -5.2556  -0.0649   0.6940 C.3            1 S1                 0.0000
     22 ****        -3.6608   1.8390   0.5940 C.2            1 S1                 0.0000
     23 ****        -4.5971   2.6428   0.5825 O.2            1 S1                 0.0000
     24 ****        -1.0983   4.0547   0.4953 H              1 S1                 0.0000
     25 ****        -2.6072   4.2217   1.3589 H              1 S1                 0.0000
     26 ****        -2.5955   4.1502  -0.4039 H              1 S1                 0.0000
     27 ****        -1.1839  -3.1420   0.6929 H              1 S1                 0.0000
     28 ****         1.1332  -0.3522   1.2667 H              1 S1                 0.0000
     29 ****         1.0723  -2.0720   0.9860 H              1 S1                 0.0000
     30 ****         0.9722   0.0550  -1.2176 H              1 S1                 0.0000
     31 ****         1.0756  -1.6845  -2.5873 H              1 S1                 0.0000
     32 ****         2.9792   1.2710  -0.8894 H              1 S1                 0.0000
     33 ****         5.4574   1.3108  -0.8522 H              1 S1                 0.0000
     34 ****         5.5310  -2.9974  -0.6887 H              1 S1                 0.0000
     35 ****         3.0542  -3.0449  -0.7252 H              1 S1                 0.0000
     36 ****        -6.0478   0.6841   0.6824 H              1 S1                 0.0000
     37 ****        -5.3840  -0.6577   1.6003 H              1 S1                 0.0000
     38 ****        -5.4194  -0.7222  -0.1605 H              1 S1                 0.0000
     39 ****         0.1190   2.8426   0.4820 LP             1 S1                 0.0000
     40 ****         0.6754   1.2029   0.5253 LP             1 S1                 0.0000
     41 ****        -3.6275  -2.4465   0.7337 LP             1 S1                 0.0000
     42 ****        -0.2012  -1.8912  -1.6608 LP             1 S1                 0.0000
     43 ****         1.1447  -2.7907  -1.4459 LP             1 S1                 0.0000
     44 ****        -4.4125   3.6249   0.5437 LP             1 S1                 0.0000
     45 ****        -5.5404   2.3121   0.6120 LP             1 S1                 0.0000
@<TRIPOS>BOND
    1    1    2 1     
    2    1   24 1     
    3    1   25 1     
    4    1   26 1     
    5    2   22 am    
    6    2    3 am    
    7    3    4 2     
    8    3    5 1     
    9    5    9 1     
   10    5    6 2     
   11    6    7 1     
   12    6   20 1     
   13    7    8 2     
   14    8    9 1     
   15    8   27 1     
   16    9   10 1     
   17   10   11 1     
   18   10   28 1     
   19   10   29 1     
   20   11   12 1     
   21   11   13 1     
   22   11   30 1     
   23   12   31 1     
   24   13   19 ar    
   25   13   14 ar    
   26   14   15 ar    
   27   14   32 1     
   28   15   16 ar    
   29   15   33 1     
   30   16   17 1     
   31   16   18 ar    
   32   18   19 ar    
   33   18   34 1     
   34   19   35 1     
   35   20   21 1     
   36   20   22 am    
   37   21   36 1     
   38   21   37 1     
   39   21   38 1     
   40   22   23 2     
   41    4   39 1     
   42    4   40 1     
   43    7   41 1     
   44   12   42 1     
   45   12   43 1     
   46   23   44 1     
   47   23   45 1     
@<TRIPOS>SUBSTRUCTURE
      1 S1             1
@<TRIPOS>SET
LONE_PAIRS      STATIC     ATOMS    <user>   **** ""
7 39 40 41 42 43 44 45
DONOR_HYDROGENS      STATIC     ATOMS    <user>   **** ""
1 31
ATOM$BLUE        STATIC     ATOMS    COLORGROUP SYSTEM
7 39 40 41 42 43 44 45
ATOM$RED        STATIC     ATOMS    COLORGROUP SYSTEM
1 31
