AV-unprocessed.smi:639|AV-procd|sdf|3145|dock7
  -GOLD-   22720 0 73D 1   1.00000     0.00000
 Structure written by MMmdl.
 24 25  0  0  0  0  0  0  0  0  1 V2000
  152.1825  145.0065  158.5962 C   0  0  0  0  0  0  0  0  0  0  0  0
  152.1637  143.5595  158.6110 N   0  0  0  0  0  0  0  0  0  0  0  0
  151.3415  142.7043  157.9112 C   0  0  0  0  0  0  0  0  0  0  0  0
  151.6897  141.4237  158.2447 C   0  0  0  0  0  0  0  0  0  0  0  0
  151.0926  140.1220  157.7466 C   0  0  2  0  0  0  0  0  0  0  0  0
  149.8800  140.3498  156.8251 C   0  0  0  0  0  0  0  0  0  0  0  0
  150.7546  139.2097  158.8293 N   0  0  0  0  0  0  0  0  0  0  0  0
  151.5052  138.0995  158.8280 C   0  0  0  0  0  0  0  0  0  0  0  0
  151.4390  137.1815  159.6418 O   0  0  0  0  0  0  0  0  0  0  0  0
  152.3328  138.1649  157.7805 N   0  0  0  0  0  0  0  0  0  0  0  0
  152.1696  139.2812  157.0724 C   0  0  0  0  0  0  0  0  0  0  0  0
  152.7741  139.5982  156.0488 O   0  0  0  0  0  0  0  0  0  0  0  0
  152.7549  141.6145  159.1746 C   0  0  0  0  0  0  0  0  0  0  0  0
  153.0334  142.8890  159.3923 N   0  0  0  0  0  0  0  0  0  0  0  0
  151.7061  145.3758  157.6875 H   0  0  0  0  0  0  0  0  0  0  0  0
  153.2108  145.3688  158.6266 H   0  0  0  0  0  0  0  0  0  0  0  0
  151.6418  145.3888  159.4623 H   0  0  0  0  0  0  0  0  0  0  0  0
  150.5830  143.0723  157.2359 H   0  0  0  0  0  0  0  0  0  0  0  0
  150.1437  140.9588  155.9597 H   0  0  0  0  0  0  0  0  0  0  0  0
  149.0777  140.8630  157.3561 H   0  0  0  0  0  0  0  0  0  0  0  0
  149.4761  139.4079  156.4514 H   0  0  0  0  0  0  0  0  0  0  0  0
  150.0413  139.4138  159.5142 H   0  0  0  0  0  0  0  0  0  0  0  0
  152.9990  137.4435  157.5457 H   0  0  0  0  0  0  0  0  0  0  0  0
  153.3328  140.8657  159.6962 H   0  0  0  0  0  0  0  0  0  0  0  0
  1  2  1  0  0  0  0
  1 15  1  0  0  0  0
  1 16  1  0  0  0  0
  1 17  1  0  0  0  0
  2 14  1  0  0  0  0
  2  3  1  0  0  0  0
  3  4  2  0  0  0  0
  3 18  1  0  0  0  0
  4  5  1  0  0  0  0
  4 13  1  0  0  0  0
  5 11  1  0  0  0  0
  5  6  1  0  0  0  0
  5  7  1  0  0  0  0
  6 19  1  0  0  0  0
  6 20  1  0  0  0  0
  6 21  1  0  0  0  0
  7  8  1  0  0  0  0
  7 22  1  0  0  0  0
  8  9  2  0  0  0  0
  8 10  1  0  0  0  0
 10 11  1  0  0  0  0
 10 23  1  0  0  0  0
 11 12  2  0  0  0  0
 13 14  2  0  0  0  0
 13 24  1  0  0  0  0
M  END
> <s_m_source_file>
AV-unprocessed.smi

> <i_m_source_file_index>
639

> <i_lp_mmshare_version>
43012

> <i_f3d_flags>
0

> <s_epik_input>
W0NIM11uMVtjSF1jKFtjSF1uMSlbQ0BAXTIoW0NIM10pW05IXUMoPU8pW05IXUMyPU8=

> <s_epik_cmdline>
J2VwaWtfcHl0aG9uJywgJy1waCcsICc3LjAnLCAnLXRuJywgJzgnLCAnLW1hJywgJzIwMCcsICctbWV0YWxfYmluZGluZycsICctaW1hZScsICc8aW5maWxlLm1hZT4nLCAnLW9tYWUnLCAnPG91dGZpbGUubWFlPic=

> <r_lp_tautomer_probability>
1

> <r_epik_Ionization_Penalty>
0.0282779

> <r_epik_Ionization_Penalty_Charging>
0

> <r_epik_Ionization_Penalty_Neutral>
0.0282779

> <r_epik_State_Penalty>
0.022996

> <r_epik_Charging_Adjusted_Penalty>
0.022996

> <i_epik_Tot_Q>
0

> <i_epik_Tot_abs_Q>
0

> <r_epik_Metal_State_Penalty>
0.428533

> <b_epik_Metal_Only>
0

> <s_lp_Force_Field>
OPLS_2005

> <r_lp_Energy>
13.4697

> <b_lp_Chiralities_Consistent>
1

> <s_lp_Variant>
AV-unprocessed.smi:639-2

> <Gold.Version>
5.8.1

> <Gold.Id.Protein>
6NUR|6NUR_protein|mol2

> <Gold.PLP.Fitness>
31.3324

> <Gold.PLP.PLP>
-24.7395

> <Gold.PLP.part.hbond>
-1.9810

> <Gold.PLP.part.metal>
0.0000

> <Gold.PLP.part.buried>
-4.8797

> <Gold.PLP.part.nonpolar>
-18.5936

> <Gold.PLP.part.repulsive>
0.2687

> <Gold.PLP.ligand.clash>
0.0000

> <Gold.PLP.ligand.torsion>
0.1204

> <Gold.PLP.Chemscore.Hbond>
1.9913

> <Gold.PLP.Chemscore.CHOScore>
0.2444

> <Gold.PLP.Chemscore.Metal>
0.0000

> <Gold.Chemscore.Hbonds>
donor molecule, donor type, donor heavy atom, donor atom, acceptor molecule, acceptor atom, score
      P1  H  6896  6908       L1     9  0.99
      P1  H  7997  8008       L1    12  1.00
      L1  C     3    18       P1  8028  0.24

> <Gold.PLP.Chemscore.Internal.Correction>
0.1268

> <Gold.Rescore>
     Score         DG    S(hbond)    S(metal)    S(lipo)     H(rot)  DE(clash)    DE(int)     intcor
     15.19     -15.26       1.95        0.00      49.74       1.00       0.00       0.07       ----

> <Gold.Chemscore.Fitness>
15.1864

> <Gold.Chemscore.DG>
-15.2569

> <Gold.Chemscore.ZeroCoef>
-5.4800

> <Gold.Chemscore.Hbond>
1.9514

> <Gold.Chemscore.Metal>
0.0000

> <Gold.Chemscore.Lipo>
49.7376

> <Gold.Chemscore.Internal_Hbond>
0.0000

> <Gold.Chemscore.DEClash>
0.0000

> <Gold.Chemscore.DEInternal>
0.0705

> <Gold.Chemscore.Rot>
1.0000

> <Gold.Chemscore.Internal.Correction>
   9.000000E+99

> <Gold.Chemscore.Hbonds>
donor molecule, donor type, donor heavy atom, donor atom, acceptor molecule, acceptor atom, score
      P1  H  6896  6908       L1     9  0.92
      P1  H  7997  8008       L1    12  0.97

> <Gold.Chemscore.Hbond.Weighted>
-6.5176

> <Gold.Chemscore.Metal.Weighted>
-0.0000

> <Gold.Chemscore.Lipo.Weighted>
-5.8193

> <Gold.Chemscore.Internal_Hbond.Weighted>
0.0000

> <Gold.Chemscore.DEClash.Weighted>
0.0000

> <Gold.Chemscore.DEInternal.Weighted>
0.0705

> <Gold.Chemscore.Rot.Weighted>
2.5600

> <Gold.Chemscore.Internal.Correction.Weighted>
   9.000000E+99

> <Gold.Protein.RotatedTorsions>
[ 6907 6896 6895 6894 ] final -126.17 input  -60.11 | X-H torsion
[ 7974 7965 7964 7962 ] final -176.91 input  175.53 | X-H torsion
[ 8008 7997 7996 7995 ] final  -33.20 input   59.86 | X-H torsion
[ 10167 10162 10161 10158 ] final   51.81 input  -65.29 | X-H torsion
[ 10718 10713 10712 10709 ] final  121.17 input   66.30 | X-H torsion
[ 10763 10752 10751 10750 ] final  -74.77 input  -60.55 | X-H torsion
[ 11005 11000 10999 10996 ] final -134.48 input  -57.11 | X-H torsion

> <Gold.Protein.ActiveResidues>
 VAL166  LYS551  ARG553  GLY616  TRP617  ASP618  TYR619  PRO620  LYS621  CYS622 
 ASP623  PHE694  ASN695  SER759  ASP760  ASP761  ALA762  ILE779  LEU786  VAL792 
 PHE793  MET794  SER795  GLU796  ALA797  LYS798  CYS799  TRP800  GLU811  SER814 

> <Gold.Protein.RotatedAtoms>
  150.8941  133.7204  159.2896 H   0  0  0  0  0  0  0  0  0  0  0  0  # atno 6907 bound_to 6896
  151.4744  135.1046  159.9770 H   0  0  0  0  0  0  0  0  0  0  0  0  # atno 6908 bound_to 6896
  152.4838  133.8273  159.7140 H   0  0  0  0  0  0  0  0  0  0  0  0  # atno 6909 bound_to 6896
  144.7127  140.1099  143.6411 H   0  0  0  0  0  0  0  0  0  0  0  0  # atno 7974 bound_to 7965
  154.4156  140.1717  156.1850 H   0  0  0  0  0  0  0  0  0  0  0  0  # atno 8008 bound_to 7997
  155.9651  140.3390  155.6501 H   0  0  0  0  0  0  0  0  0  0  0  0  # atno 8009 bound_to 7997
  155.6699  140.0710  157.2514 H   0  0  0  0  0  0  0  0  0  0  0  0  # atno 8010 bound_to 7997
  140.2580  144.3405  150.6327 H   0  0  0  0  0  0  0  0  0  0  0  0  # atno 10167 bound_to 10162
  157.5837  131.1072  150.8137 H   0  0  0  0  0  0  0  0  0  0  0  0  # atno 10718 bound_to 10713
  154.4776  135.5853  153.6366 H   0  0  0  0  0  0  0  0  0  0  0  0  # atno 10763 bound_to 10752
  152.9843  135.6082  154.3288 H   0  0  0  0  0  0  0  0  0  0  0  0  # atno 10764 bound_to 10752
  154.3176  135.2844  155.2515 H   0  0  0  0  0  0  0  0  0  0  0  0  # atno 10765 bound_to 10752
  140.8986  134.1720  157.4477 H   0  0  0  0  0  0  0  0  0  0  0  0  # atno 11005 bound_to 11000
  145.9464  139.2703  143.1238 LP  0  0  0  0  0  0  0  0  0  0  0  0  # atno 17320 bound_to 7965
  145.9370  140.9007  143.0327 LP  0  0  0  0  0  0  0  0  0  0  0  0  # atno 17321 bound_to 7965
  140.5988  143.2167  151.7112 LP  0  0  0  0  0  0  0  0  0  0  0  0  # atno 17342 bound_to 10162
  139.5025  144.3825  152.0362 LP  0  0  0  0  0  0  0  0  0  0  0  0  # atno 17343 bound_to 10162
  156.8577  130.5102  149.5306 LP  0  0  0  0  0  0  0  0  0  0  0  0  # atno 17370 bound_to 10713
  156.0884  130.5877  150.9690 LP  0  0  0  0  0  0  0  0  0  0  0  0  # atno 17371 bound_to 10713
  139.8739  134.9888  156.5430 LP  0  0  0  0  0  0  0  0  0  0  0  0  # atno 17394 bound_to 11000
  140.8258  133.8317  155.8938 LP  0  0  0  0  0  0  0  0  0  0  0  0  # atno 17395 bound_to 11000

$$$$
