AV-unprocessed.smi:1019|AV-procd|sdf|4449|dock7
  -GOLD-   22720 2413D 1   1.00000     0.00000
 Structure written by MMmdl.
 45 47  0  0  0  0  0  0  0  0  3 V2000
  148.8633  141.6844  157.9775 C   0  0  0  0  0  0  0  0  0  0  0  0
  149.3957  141.8852  156.6100 N   0  3  1  0  0  0  0  0  0  0  0  0
  150.8794  141.9173  156.5948 C   0  0  0  0  0  0  0  0  0  0  0  0
  151.4408  142.6313  157.8124 C   0  0  0  0  0  0  0  0  0  0  0  0
  151.6665  144.0234  157.7700 C   0  0  0  0  0  0  0  0  0  0  0  0
  152.1975  144.6887  158.8920 C   0  0  0  0  0  0  0  0  0  0  0  0
  152.5016  143.9659  160.0615 C   0  0  0  0  0  0  0  0  0  0  0  0
  152.2734  142.5772  160.1097 C   0  0  0  0  0  0  0  0  0  0  0  0
  151.7427  141.9109  158.9881 C   0  0  0  0  0  0  0  0  0  0  0  0
  148.8118  140.9384  155.6226 C   0  0  0  0  0  0  0  0  0  0  0  0
  148.5187  141.6140  154.2688 C   0  0  1  0  0  0  0  0  0  0  0  0
  149.4325  141.1262  153.3036 O   0  0  0  0  0  0  0  0  0  0  0  0
  147.0834  141.3212  153.7881 C   0  0  0  0  0  0  0  0  0  0  0  0
  146.0583  141.9667  154.6192 N   0  0  0  0  0  0  0  0  0  0  0  0
  145.4927  141.5549  155.7868 C   0  0  0  0  0  0  0  0  0  0  0  0
  144.5889  142.5019  156.1622 N   0  3  0  0  0  0  0  0  0  0  0  0
  144.5775  143.5347  155.2223 C   0  0  0  0  0  0  0  0  0  0  0  0
  143.8326  144.7086  155.1661 C   0  0  0  0  0  0  0  0  0  0  0  0
  144.0647  145.5531  154.0607 C   0  0  0  0  0  0  0  0  0  0  0  0
  145.0074  145.2195  153.0661 C   0  0  0  0  0  0  0  0  0  0  0  0
  145.7574  144.0265  153.1329 C   0  0  0  0  0  0  0  0  0  0  0  0
  145.5207  143.1972  154.2285 C   0  0  0  0  0  0  0  0  0  0  0  0
  149.1665  140.7155  158.3765 H   0  0  0  0  0  0  0  0  0  0  0  0
  147.7747  141.7325  157.9909 H   0  0  0  0  0  0  0  0  0  0  0  0
  149.2306  142.4594  158.6513 H   0  0  0  0  0  0  0  0  0  0  0  0
  151.2731  140.8996  156.6032 H   0  0  0  0  0  0  0  0  0  0  0  0
  151.2354  142.3815  155.6736 H   0  0  0  0  0  0  0  0  0  0  0  0
  151.4370  144.5847  156.8760 H   0  0  0  0  0  0  0  0  0  0  0  0
  152.3715  145.7541  158.8561 H   0  0  0  0  0  0  0  0  0  0  0  0
  152.9086  144.4769  160.9216 H   0  0  0  0  0  0  0  0  0  0  0  0
  152.5061  142.0228  161.0071 H   0  0  0  0  0  0  0  0  0  0  0  0
  151.5727  140.8450  159.0332 H   0  0  0  0  0  0  0  0  0  0  0  0
  149.4807  140.0959  155.4461 H   0  0  0  0  0  0  0  0  0  0  0  0
  147.9010  140.5060  156.0399 H   0  0  0  0  0  0  0  0  0  0  0  0
  148.6499  142.6932  154.3474 H   0  0  0  0  0  0  0  0  0  0  0  0
  148.9613  140.6229  152.6575 H   0  0  0  0  0  0  0  0  0  0  0  0
  146.9460  141.6785  152.7663 H   0  0  0  0  0  0  0  0  0  0  0  0
  146.8871  140.2484  153.7688 H   0  0  0  0  0  0  0  0  0  0  0  0
  145.7165  140.6403  156.3172 H   0  0  0  0  0  0  0  0  0  0  0  0
  143.1106  144.9673  155.9267 H   0  0  0  0  0  0  0  0  0  0  0  0
  143.5089  146.4756  153.9743 H   0  0  0  0  0  0  0  0  0  0  0  0
  145.1582  145.8933  152.2350 H   0  0  0  0  0  0  0  0  0  0  0  0
  146.4770  143.7804  152.3666 H   0  0  0  0  0  0  0  0  0  0  0  0
  149.1069  142.8094  156.3238 H   0  0  0  0  0  0  0  0  0  0  0  0
  144.0223  142.4444  156.9989 H   0  0  0  0  0  0  0  0  0  0  0  0
  1  2  1  0  0  0  0
  1 23  1  0  0  0  0
  1 24  1  0  0  0  0
  1 25  1  0  0  0  0
  2  3  1  0  0  0  0
  2 10  1  0  0  0  0
  2 44  1  0  0  0  0
  3  4  1  0  0  0  0
  3 26  1  0  0  0  0
  3 27  1  0  0  0  0
  4  9  1  0  0  0  0
  4  5  2  0  0  0  0
  5  6  1  0  0  0  0
  5 28  1  0  0  0  0
  6  7  2  0  0  0  0
  6 29  1  0  0  0  0
  7  8  1  0  0  0  0
  7 30  1  0  0  0  0
  8  9  2  0  0  0  0
  8 31  1  0  0  0  0
  9 32  1  0  0  0  0
 10 11  1  0  0  0  0
 10 33  1  0  0  0  0
 10 34  1  0  0  0  0
 11 12  1  0  0  0  0
 11 13  1  0  0  0  0
 11 35  1  0  0  0  0
 12 36  1  0  0  0  0
 13 14  1  0  0  0  0
 13 37  1  0  0  0  0
 13 38  1  0  0  0  0
 14 22  1  0  0  0  0
 14 15  1  0  0  0  0
 15 16  2  0  0  0  0
 15 39  1  0  0  0  0
 16 17  1  0  0  0  0
 16 45  1  0  0  0  0
 17 22  2  0  0  0  0
 17 18  1  0  0  0  0
 18 19  2  0  0  0  0
 18 40  1  0  0  0  0
 19 20  1  0  0  0  0
 19 41  1  0  0  0  0
 20 21  2  0  0  0  0
 20 42  1  0  0  0  0
 21 22  1  0  0  0  0
 21 43  1  0  0  0  0
M  CHG  1   2   1
M  CHG  1  16   1
M  END
> <s_m_source_file>
AV-unprocessed.smi

> <i_m_source_file_index>
1019

> <i_lp_mmshare_version>
43012

> <i_f3d_flags>
0

> <s_epik_input>
W2NIXTFbY0hdW2NIXVtjSF1bY0hdYzFbQ0gyXU4oW0NIM10pW0NIMl1bQ0BIXShbT0hdKVtDSDJdbihbY0hdbjIpYyhjMjMpW2NIXVtjSF1bY0hdW2NIXTM=

> <s_epik_cmdline>
J2VwaWtfcHl0aG9uJywgJy1waCcsICc3LjAnLCAnLXRuJywgJzgnLCAnLW1hJywgJzIwMCcsICctbWV0YWxfYmluZGluZycsICctaW1hZScsICc8aW5maWxlLm1hZT4nLCAnLW9tYWUnLCAnPG91dGZpbGUubWFlPic=

> <r_epik_Ionization_Penalty>
1.5198

> <r_epik_Ionization_Penalty_Charging>
1.5198

> <r_epik_Ionization_Penalty_Neutral>
3.13312e-06

> <r_epik_State_Penalty>
1.624

> <r_epik_Charging_Adjusted_Penalty>
3.1438

> <i_epik_Tot_Q>
2

> <i_epik_Tot_abs_Q>
2

> <r_epik_Metal_State_Penalty>
5.67392

> <b_epik_Metal_Only>
0

> <s_lp_Force_Field>
OPLS_2005

> <r_lp_Energy>
24.7474

> <b_lp_Chiralities_Consistent>
1

> <s_lp_Variant>
AV-unprocessed.smi:1019-7

> <Gold.Version>
5.8.1

> <Gold.Id.Protein>
6NUR|6NUR_protein|mol2

> <Gold.PLP.Fitness>
63.3907

> <Gold.PLP.PLP>
-56.5545

> <Gold.PLP.part.hbond>
-3.5932

> <Gold.PLP.part.metal>
0.0000

> <Gold.PLP.part.buried>
-6.4966

> <Gold.PLP.part.nonpolar>
-46.1764

> <Gold.PLP.part.repulsive>
0.0323

> <Gold.PLP.ligand.clash>
0.0000

> <Gold.PLP.ligand.torsion>
2.0836

> <Gold.PLP.Chemscore.Hbond>
3.6026

> <Gold.PLP.Chemscore.CHOScore>
0.0000

> <Gold.PLP.Chemscore.Metal>
0.0000

> <Gold.Chemscore.Hbonds>
donor molecule, donor type, donor heavy atom, donor atom, acceptor molecule, acceptor atom, score
      L1  H     2    44       P1  8028  1.98
      L1  H    12    36       P1  7957  0.51
      P1  H  7989  7998       L1    12  0.09
      P1  H  8011  8017       L1    12  0.85

> <Gold.PLP.Chemscore.Internal.Correction>
0.1955

> <Gold.Rescore>
     Score         DG    S(hbond)    S(metal)    S(lipo)     H(rot)  DE(clash)    DE(int)     intcor
     20.44     -22.83       1.91        0.00     147.40       2.46       0.56       1.84       ----

> <Gold.Chemscore.Fitness>
20.4375

> <Gold.Chemscore.DG>
-22.8342

> <Gold.Chemscore.ZeroCoef>
-5.4800

> <Gold.Chemscore.Hbond>
1.9144

> <Gold.Chemscore.Metal>
0.0000

> <Gold.Chemscore.Lipo>
147.3986

> <Gold.Chemscore.Internal_Hbond>
0.0000

> <Gold.Chemscore.DEClash>
0.5553

> <Gold.Chemscore.DEInternal>
1.8414

> <Gold.Chemscore.Rot>
2.4552

> <Gold.Chemscore.Internal.Correction>
   9.000000E+99

> <Gold.Chemscore.Hbonds>
donor molecule, donor type, donor heavy atom, donor atom, acceptor molecule, acceptor atom, score
      L1  H     2    44       P1  8028  0.92
      L1  H    12    36       P1  7957  0.52
      P1  H  7989  7998       L1    12  0.09
      P1  H  8011  8017       L1    12  0.08

> <Gold.Chemscore.Hbond.Weighted>
-6.3940

> <Gold.Chemscore.Metal.Weighted>
-0.0000

> <Gold.Chemscore.Lipo.Weighted>
-17.2456

> <Gold.Chemscore.Internal_Hbond.Weighted>
0.0000

> <Gold.Chemscore.DEClash.Weighted>
0.5553

> <Gold.Chemscore.DEInternal.Weighted>
1.8414

> <Gold.Chemscore.Rot.Weighted>
6.2854

> <Gold.Chemscore.Internal.Correction.Weighted>
   9.000000E+99

> <Gold.Protein.RotatedTorsions>
[ 6907 6896 6895 6894 ] final  179.48 input  -60.11 | X-H torsion
[ 7974 7965 7964 7962 ] final -172.62 input  175.53 | X-H torsion
[ 8008 7997 7996 7995 ] final  139.96 input   59.86 | X-H torsion
[ 10167 10162 10161 10158 ] final  144.89 input  -65.29 | X-H torsion
[ 10718 10713 10712 10709 ] final -144.18 input   66.30 | X-H torsion
[ 10763 10752 10751 10750 ] final  -98.68 input  -60.55 | X-H torsion
[ 11005 11000 10999 10996 ] final  -36.36 input  -57.11 | X-H torsion

> <Gold.Protein.ActiveResidues>
 VAL166  LYS551  ARG553  GLY616  TRP617  ASP618  TYR619  PRO620  LYS621  CYS622 
 ASP623  PHE694  ASN695  SER759  ASP760  ASP761  ALA762  ILE779  LEU786  VAL792 
 PHE793  MET794  SER795  GLU796  ALA797  LYS798  CYS799  TRP800  GLU811  SER814 

> <Gold.Protein.RotatedAtoms>
  151.6710  133.3314  159.3196 H   0  0  0  0  0  0  0  0  0  0  0  0  # atno 6907 bound_to 6896
  150.7867  134.6862  159.6481 H   0  0  0  0  0  0  0  0  0  0  0  0  # atno 6908 bound_to 6896
  152.3939  134.6401  160.0149 H   0  0  0  0  0  0  0  0  0  0  0  0  # atno 6909 bound_to 6896
  144.7145  140.1745  143.6364 H   0  0  0  0  0  0  0  0  0  0  0  0  # atno 7974 bound_to 7965
  156.2984  140.2354  156.4323 H   0  0  0  0  0  0  0  0  0  0  0  0  # atno 8008 bound_to 7997
  154.8259  140.0435  157.1464 H   0  0  0  0  0  0  0  0  0  0  0  0  # atno 8009 bound_to 7997
  154.9262  140.3010  155.5194 H   0  0  0  0  0  0  0  0  0  0  0  0  # atno 8010 bound_to 7997
  139.4937  144.5940  151.6621 H   0  0  0  0  0  0  0  0  0  0  0  0  # atno 10167 bound_to 10162
  156.3670  130.7768  151.1944 H   0  0  0  0  0  0  0  0  0  0  0  0  # atno 10718 bound_to 10713
  154.7435  135.5000  153.9163 H   0  0  0  0  0  0  0  0  0  0  0  0  # atno 10763 bound_to 10752
  153.1067  135.6699  153.9581 H   0  0  0  0  0  0  0  0  0  0  0  0  # atno 10764 bound_to 10752
  153.9352  135.3073  155.3423 H   0  0  0  0  0  0  0  0  0  0  0  0  # atno 10765 bound_to 10752
  140.9869  133.7026  156.1780 H   0  0  0  0  0  0  0  0  0  0  0  0  # atno 11005 bound_to 11000
  145.8913  139.2377  143.1548 LP  0  0  0  0  0  0  0  0  0  0  0  0  # atno 17320 bound_to 7965
  145.9900  140.8610  143.0071 LP  0  0  0  0  0  0  0  0  0  0  0  0  # atno 17321 bound_to 7965
  140.5574  144.0325  150.6154 LP  0  0  0  0  0  0  0  0  0  0  0  0  # atno 17342 bound_to 10162
  140.3400  143.3025  152.0598 LP  0  0  0  0  0  0  0  0  0  0  0  0  # atno 17343 bound_to 10162
  157.7480  131.0383  150.4498 LP  0  0  0  0  0  0  0  0  0  0  0  0  # atno 17370 bound_to 10713
  156.4718  130.4054  149.6513 LP  0  0  0  0  0  0  0  0  0  0  0  0  # atno 17371 bound_to 10713
  140.7101  134.4471  157.5582 LP  0  0  0  0  0  0  0  0  0  0  0  0  # atno 17394 bound_to 11000
  139.8974  134.8636  156.2044 LP  0  0  0  0  0  0  0  0  0  0  0  0  # atno 17395 bound_to 11000

$$$$
