AV-unprocessed.smi:2597|AV-procd|sdf|10175|dock1
  -GOLD-   2272014193D 1   1.00000     0.00000
 Structure written by MMmdl.
 30 31  0  0  0  0  0  0  0  0  1 V2000
  151.3150  144.3678  157.3730 N   0  0  0  0  0  0  0  0  0  0  0  0
  151.3556  143.3929  158.4492 C   0  0  2  0  0  0  0  0  0  0  0  0
  152.1305  144.0053  159.6319 C   0  0  0  0  0  0  0  0  0  0  0  0
  152.2920  142.9976  160.7799 C   0  0  0  0  0  0  0  0  0  0  0  0
  152.9720  141.7098  160.2923 C   0  0  0  0  0  0  0  0  0  0  0  0
  152.1927  141.0824  159.1266 C   0  0  0  0  0  0  0  0  0  0  0  0
  152.0148  142.0774  157.9600 C   0  0  1  0  0  0  0  0  0  0  0  0
  151.2751  141.4608  156.8649 N   0  0  0  0  0  0  0  0  0  0  0  0
  150.0279  141.8002  156.3823 C   0  0  0  0  0  0  0  0  0  0  0  0
  149.8232  140.9088  155.3674 C   0  0  0  0  0  0  0  0  0  0  0  0
  148.6414  140.7594  154.4591 C   0  0  0  0  0  0  0  0  0  0  0  0
  149.0656  141.1559  153.1728 O   0  0  0  0  0  0  0  0  0  0  0  0
  150.9410  140.0816  155.2678 N   0  0  0  0  0  0  0  0  0  0  0  0
  151.8065  140.4245  156.1690 N   0  0  0  0  0  0  0  0  0  0  0  0
  150.3312  143.1936  158.7664 H   0  0  0  0  0  0  0  0  0  0  0  0
  153.0091  142.3175  157.5788 H   0  0  0  0  0  0  0  0  0  0  0  0
  152.1286  144.2557  156.7844 H   0  0  0  0  0  0  0  0  0  0  0  0
  150.5097  144.1970  156.7877 H   0  0  0  0  0  0  0  0  0  0  0  0
  153.1179  144.3318  159.3016 H   0  0  0  0  0  0  0  0  0  0  0  0
  151.6168  144.8956  159.9971 H   0  0  0  0  0  0  0  0  0  0  0  0
  152.8747  143.4434  161.5862 H   0  0  0  0  0  0  0  0  0  0  0  0
  151.3135  142.7599  161.1991 H   0  0  0  0  0  0  0  0  0  0  0  0
  153.9920  141.9305  159.9752 H   0  0  0  0  0  0  0  0  0  0  0  0
  153.0501  140.9965  161.1135 H   0  0  0  0  0  0  0  0  0  0  0  0
  152.7120  140.1890  158.7781 H   0  0  0  0  0  0  0  0  0  0  0  0
  151.2183  140.7507  159.4879 H   0  0  0  0  0  0  0  0  0  0  0  0
  149.4239  142.5991  156.7860 H   0  0  0  0  0  0  0  0  0  0  0  0
  148.2940  139.7263  154.4284 H   0  0  0  0  0  0  0  0  0  0  0  0
  147.8056  141.3838  154.7770 H   0  0  0  0  0  0  0  0  0  0  0  0
  149.2292  140.3803  152.6586 H   0  0  0  0  0  0  0  0  0  0  0  0
  1  2  1  0  0  0  0
  1 17  1  0  0  0  0
  1 18  1  0  0  0  0
  2 15  1  0  0  0  0
  2  7  1  0  0  0  0
  2  3  1  0  0  0  0
  3  4  1  0  0  0  0
  3 19  1  0  0  0  0
  3 20  1  0  0  0  0
  4  5  1  0  0  0  0
  4 21  1  0  0  0  0
  4 22  1  0  0  0  0
  5  6  1  0  0  0  0
  5 23  1  0  0  0  0
  5 24  1  0  0  0  0
  6  7  1  0  0  0  0
  6 25  1  0  0  0  0
  6 26  1  0  0  0  0
  7 16  1  0  0  0  0
  7  8  1  0  0  0  0
  8 14  1  0  0  0  0
  8  9  1  0  0  0  0
  9 10  2  0  0  0  0
  9 27  1  0  0  0  0
 10 11  1  0  0  0  0
 10 13  1  0  0  0  0
 11 12  1  0  0  0  0
 11 28  1  0  0  0  0
 11 29  1  0  0  0  0
 12 30  1  0  0  0  0
 13 14  2  0  0  0  0
M  END
> <s_m_source_file>
AV-unprocessed.smi

> <i_m_source_file_index>
2597

> <i_lp_mmshare_version>
43012

> <i_f3d_flags>
0

> <s_epik_input>
W05IMl1bQ0BIXTFbQ0gyXVtDSDJdW0NIMl1bQ0gyXVtDQEhdMW4yW2NIXWMobm4yKVtDSDJdW09IXQ==

> <s_epik_cmdline>
J2VwaWtfcHl0aG9uJywgJy1waCcsICc3LjAnLCAnLXRuJywgJzgnLCAnLW1hJywgJzIwMCcsICctbWV0YWxfYmluZGluZycsICctaW1hZScsICc8aW5maWxlLm1hZT4nLCAnLW9tYWUnLCAnPG91dGZpbGUubWFlPic=

> <r_lp_tautomer_probability>
1

> <r_epik_Ionization_Penalty>
2.21303

> <r_epik_Ionization_Penalty_Charging>
0

> <r_epik_Ionization_Penalty_Neutral>
2.21303

> <r_epik_State_Penalty>
2.3573

> <r_epik_Charging_Adjusted_Penalty>
2.3573

> <i_epik_Tot_Q>
0

> <i_epik_Tot_abs_Q>
0

> <r_epik_Metal_State_Penalty>
2.35724

> <b_epik_Metal_Only>
0

> <s_lp_Force_Field>
OPLS_2005

> <r_lp_Energy>
13.4358

> <b_lp_Chiralities_Consistent>
1

> <s_lp_Variant>
AV-unprocessed.smi:2597-6

> <Gold.Version>
5.8.1

> <Gold.Id.Protein>
6NUR|6NUR_protein|mol2

> <Gold.PLP.Fitness>
45.0140

> <Gold.PLP.PLP>
-31.3364

> <Gold.PLP.part.hbond>
-4.6033

> <Gold.PLP.part.metal>
0.0000

> <Gold.PLP.part.buried>
-3.5438

> <Gold.PLP.part.nonpolar>
-22.6010

> <Gold.PLP.part.repulsive>
0.0360

> <Gold.PLP.ligand.clash>
0.0000

> <Gold.PLP.ligand.torsion>
0.2032

> <Gold.PLP.Chemscore.Hbond>
3.8320

> <Gold.PLP.Chemscore.CHOScore>
0.8552

> <Gold.PLP.Chemscore.Metal>
0.0000

> <Gold.Chemscore.Hbonds>
donor molecule, donor type, donor heavy atom, donor atom, acceptor molecule, acceptor atom, score
      L1  H     1    18       P1  8028  1.00
      L1  H    12    30       P1  7957  0.74
      P1  H  7989  7998       L1    13  0.75
      P1  H  8011  8017       L1    12  1.00
      L1  C     9    27       P1  8028  0.93

> <Gold.PLP.Chemscore.Internal.Correction>
0.0224

> <Gold.Rescore>
     Score         DG    S(hbond)    S(metal)    S(lipo)     H(rot)  DE(clash)    DE(int)     intcor
     17.34     -18.55       2.45        0.00      81.71       1.82       0.19       1.03       ----

> <Gold.Chemscore.Fitness>
17.3371

> <Gold.Chemscore.DG>
-18.5545

> <Gold.Chemscore.ZeroCoef>
-5.4800

> <Gold.Chemscore.Hbond>
2.4488

> <Gold.Chemscore.Metal>
0.0000

> <Gold.Chemscore.Lipo>
81.7127

> <Gold.Chemscore.Internal_Hbond>
0.0000

> <Gold.Chemscore.DEClash>
0.1893

> <Gold.Chemscore.DEInternal>
1.0281

> <Gold.Chemscore.Rot>
1.8222

> <Gold.Chemscore.Internal.Correction>
   9.000000E+99

> <Gold.Chemscore.Hbonds>
donor molecule, donor type, donor heavy atom, donor atom, acceptor molecule, acceptor atom, score
      L1  H     1    18       P1  8028  0.91
      L1  H    12    30       P1  7957  0.72
      P1  H  7989  7998       L1    13  0.05
      P1  H  8011  8017       L1    12  0.49

> <Gold.Chemscore.Hbond.Weighted>
-8.1790

> <Gold.Chemscore.Metal.Weighted>
-0.0000

> <Gold.Chemscore.Lipo.Weighted>
-9.5604

> <Gold.Chemscore.Internal_Hbond.Weighted>
0.0000

> <Gold.Chemscore.DEClash.Weighted>
0.1893

> <Gold.Chemscore.DEInternal.Weighted>
1.0281

> <Gold.Chemscore.Rot.Weighted>
4.6649

> <Gold.Chemscore.Internal.Correction.Weighted>
   9.000000E+99

> <Gold.Protein.RotatedTorsions>
[ 6907 6896 6895 6894 ] final -162.87 input  -60.11 | X-H torsion
[ 7974 7965 7964 7962 ] final  163.36 input  175.53 | X-H torsion
[ 8008 7997 7996 7995 ] final -151.94 input   59.86 | X-H torsion
[ 10167 10162 10161 10158 ] final    4.57 input  -65.29 | X-H torsion
[ 10718 10713 10712 10709 ] final  -56.80 input   66.30 | X-H torsion
[ 10763 10752 10751 10750 ] final  133.83 input  -60.55 | X-H torsion
[ 11005 11000 10999 10996 ] final  149.36 input  -57.11 | X-H torsion

> <Gold.Protein.ActiveResidues>
 VAL166  LYS551  ARG553  GLY616  TRP617  ASP618  TYR619  PRO620  LYS621  CYS622 
 ASP623  PHE694  ASN695  SER759  ASP760  ASP761  ALA762  ILE779  LEU786  VAL792 
 PHE793  MET794  SER795  GLU796  ALA797  LYS798  CYS799  TRP800  GLU811  SER814 

> <Gold.Protein.RotatedAtoms>
  151.3871  133.3801  159.2716 H   0  0  0  0  0  0  0  0  0  0  0  0  # atno 6907 bound_to 6896
  150.9533  134.8932  159.7696 H   0  0  0  0  0  0  0  0  0  0  0  0  # atno 6908 bound_to 6896
  152.5120  134.3827  159.9409 H   0  0  0  0  0  0  0  0  0  0  0  0  # atno 6909 bound_to 6896
  144.7593  139.8172  143.6338 H   0  0  0  0  0  0  0  0  0  0  0  0  # atno 7974 bound_to 7965
  155.6473  140.0708  157.2598 H   0  0  0  0  0  0  0  0  0  0  0  0  # atno 8008 bound_to 7997
  154.4170  140.1739  156.1687 H   0  0  0  0  0  0  0  0  0  0  0  0  # atno 8009 bound_to 7997
  155.9806  140.3354  155.6662 H   0  0  0  0  0  0  0  0  0  0  0  0  # atno 8010 bound_to 7997
  140.6528  143.7503  150.7603 H   0  0  0  0  0  0  0  0  0  0  0  0  # atno 10167 bound_to 10162
  156.1260  130.4162  150.0354 H   0  0  0  0  0  0  0  0  0  0  0  0  # atno 10718 bound_to 10713
  153.8135  135.3126  155.3403 H   0  0  0  0  0  0  0  0  0  0  0  0  # atno 10763 bound_to 10752
  154.8042  135.4708  154.0353 H   0  0  0  0  0  0  0  0  0  0  0  0  # atno 10764 bound_to 10752
  153.1739  135.6882  153.8659 H   0  0  0  0  0  0  0  0  0  0  0  0  # atno 10765 bound_to 10752
  140.1038  134.8966  157.1836 H   0  0  0  0  0  0  0  0  0  0  0  0  # atno 11005 bound_to 11000
  146.1639  139.4763  142.9971 LP  0  0  0  0  0  0  0  0  0  0  0  0  # atno 17320 bound_to 7965
  145.6672  141.0226  143.1677 LP  0  0  0  0  0  0  0  0  0  0  0  0  # atno 17321 bound_to 7965
  140.1157  143.4658  152.2343 LP  0  0  0  0  0  0  0  0  0  0  0  0  # atno 17342 bound_to 10162
  139.5745  144.7480  151.3801 LP  0  0  0  0  0  0  0  0  0  0  0  0  # atno 17343 bound_to 10162
  156.8279  130.9382  151.3638 LP  0  0  0  0  0  0  0  0  0  0  0  0  # atno 17370 bound_to 10713
  157.6442  130.8830  149.9506 LP  0  0  0  0  0  0  0  0  0  0  0  0  # atno 17371 bound_to 10713
  140.3183  134.2945  155.7251 LP  0  0  0  0  0  0  0  0  0  0  0  0  # atno 17394 bound_to 11000
  141.2113  133.7694  156.9875 LP  0  0  0  0  0  0  0  0  0  0  0  0  # atno 17395 bound_to 11000

$$$$
