AV-unprocessed.smi:2847|AV-procd|sdf|10954|dock2
  -GOLD-   2272015403D 1   1.00000     0.00000
 Structure written by MMmdl.
 45 46  0  0  0  0  0  0  0  0  1 V2000
  144.8957  131.5555  151.7855 C   0  0  0  0  0  0  0  0  0  0  0  0
  144.9372  132.6425  150.6853 C   0  0  0  0  0  0  0  0  0  0  0  0
  146.1960  132.4496  149.8200 C   0  0  0  0  0  0  0  0  0  0  0  0
  143.6745  132.4222  149.8193 C   0  0  0  0  0  0  0  0  0  0  0  0
  144.9476  134.0534  151.2993 C   0  0  0  0  0  0  0  0  0  0  0  0
  146.0528  134.4236  151.9596 N   0  0  0  0  0  0  0  0  0  0  0  0
  146.1243  135.6984  152.3959 C   0  0  0  0  0  0  0  0  0  0  0  0
  145.0957  136.6298  152.1517 C   0  0  0  0  0  0  0  0  0  0  0  0
  145.2436  137.9603  152.6263 N   0  0  0  0  0  0  0  0  0  0  0  0
  146.2149  138.4641  153.4059 C   0  0  0  0  0  0  0  0  0  0  0  0
  147.1814  137.8306  153.8280 O   0  0  0  0  0  0  0  0  0  0  0  0
  146.0002  139.7666  153.6530 N   0  0  0  0  0  0  0  0  0  0  0  0
  146.8077  140.6972  154.4538 C   0  0  2  0  0  0  0  0  0  0  0  0
  146.8576  140.2221  155.9257 C   0  0  0  0  0  0  0  0  0  0  0  0
  146.0715  142.0652  154.3850 C   0  0  0  0  0  0  0  0  0  0  0  0
  144.7315  141.9793  154.8325 O   0  0  0  0  0  0  0  0  0  0  0  0
  148.2535  140.7916  153.9335 C   0  0  0  0  0  0  0  0  0  0  0  0
  149.3882  139.9149  154.4127 C   0  0  0  0  0  0  0  0  0  0  0  0
  149.3982  141.4026  154.7085 C   0  0  0  0  0  0  0  0  0  0  0  0
  143.9980  136.1500  151.3984 C   0  0  0  0  0  0  0  0  0  0  0  0
  143.9402  134.8716  150.9671 N   0  0  0  0  0  0  0  0  0  0  0  0
  144.8380  130.5557  151.3536 H   0  0  0  0  0  0  0  0  0  0  0  0
  144.0291  131.6814  152.4358 H   0  0  0  0  0  0  0  0  0  0  0  0
  145.7870  131.5748  152.4135 H   0  0  0  0  0  0  0  0  0  0  0  0
  147.1048  132.5660  150.4114 H   0  0  0  0  0  0  0  0  0  0  0  0
  146.2356  133.1791  149.0101 H   0  0  0  0  0  0  0  0  0  0  0  0
  146.2208  131.4566  149.3700 H   0  0  0  0  0  0  0  0  0  0  0  0
  143.6396  131.4079  149.4201 H   0  0  0  0  0  0  0  0  0  0  0  0
  143.6419  133.0974  148.9635 H   0  0  0  0  0  0  0  0  0  0  0  0
  142.7632  132.5777  150.3982 H   0  0  0  0  0  0  0  0  0  0  0  0
  147.0138  135.9764  152.9423 H   0  0  0  0  0  0  0  0  0  0  0  0
  144.5523  138.6181  152.2966 H   0  0  0  0  0  0  0  0  0  0  0  0
  145.1663  140.1681  153.2499 H   0  0  0  0  0  0  0  0  0  0  0  0
  147.3273  140.9722  156.5628 H   0  0  0  0  0  0  0  0  0  0  0  0
  147.4347  139.3042  156.0391 H   0  0  0  0  0  0  0  0  0  0  0  0
  145.8622  140.0277  156.3265 H   0  0  0  0  0  0  0  0  0  0  0  0
  146.5629  142.8127  155.0060 H   0  0  0  0  0  0  0  0  0  0  0  0
  146.0524  142.4544  153.3673 H   0  0  0  0  0  0  0  0  0  0  0  0
  144.2278  141.5112  154.1839 H   0  0  0  0  0  0  0  0  0  0  0  0
  148.2900  140.9810  152.8628 H   0  0  0  0  0  0  0  0  0  0  0  0
  149.2236  139.2392  155.2477 H   0  0  0  0  0  0  0  0  0  0  0  0
  150.0862  139.5510  153.6615 H   0  0  0  0  0  0  0  0  0  0  0  0
  150.1004  142.0198  154.1518 H   0  0  0  0  0  0  0  0  0  0  0  0
  149.2421  141.7052  155.7406 H   0  0  0  0  0  0  0  0  0  0  0  0
  143.1698  136.7771  151.1071 H   0  0  0  0  0  0  0  0  0  0  0  0
  1  2  1  0  0  0  0
  1 22  1  0  0  0  0
  1 23  1  0  0  0  0
  1 24  1  0  0  0  0
  2  3  1  0  0  0  0
  2  4  1  0  0  0  0
  2  5  1  0  0  0  0
  3 25  1  0  0  0  0
  3 26  1  0  0  0  0
  3 27  1  0  0  0  0
  4 28  1  0  0  0  0
  4 29  1  0  0  0  0
  4 30  1  0  0  0  0
  5 21  1  0  0  0  0
  5  6  2  0  0  0  0
  6  7  1  0  0  0  0
  7  8  2  0  0  0  0
  7 31  1  0  0  0  0
  8  9  1  0  0  0  0
  8 20  1  0  0  0  0
  9 10  1  0  0  0  0
  9 32  1  0  0  0  0
 10 11  2  0  0  0  0
 10 12  1  0  0  0  0
 12 13  1  0  0  0  0
 12 33  1  0  0  0  0
 13 14  1  0  0  0  0
 13 15  1  0  0  0  0
 13 17  1  0  0  0  0
 14 34  1  0  0  0  0
 14 35  1  0  0  0  0
 14 36  1  0  0  0  0
 15 16  1  0  0  0  0
 15 37  1  0  0  0  0
 15 38  1  0  0  0  0
 16 39  1  0  0  0  0
 17 19  1  0  0  0  0
 17 18  1  0  0  0  0
 17 40  1  0  0  0  0
 18 19  1  0  0  0  0
 18 41  1  0  0  0  0
 18 42  1  0  0  0  0
 19 43  1  0  0  0  0
 19 44  1  0  0  0  0
 20 21  2  0  0  0  0
 20 45  1  0  0  0  0
M  END
> <s_m_source_file>
AV-unprocessed.smi

> <i_m_source_file_index>
2847

> <i_lp_mmshare_version>
43012

> <i_f3d_flags>
0

> <s_epik_input>
W0NIM11DKFtDSDNdKShbQ0gzXSljMW5bY0hdYyhbY0hdbjEpW05IXUMoPU8pW05IXVtDQEBdKFtDSDNdKShbQ0gyXVtPSF0pW0NIXTJbQ0gyXVtDSDJdMg==

> <s_epik_cmdline>
J2VwaWtfcHl0aG9uJywgJy1waCcsICc3LjAnLCAnLXRuJywgJzgnLCAnLW1hJywgJzIwMCcsICctbWV0YWxfYmluZGluZycsICctaW1hZScsICc8aW5maWxlLm1hZT4nLCAnLW9tYWUnLCAnPG91dGZpbGUubWFlPic=

> <r_lp_tautomer_probability>
1

> <r_epik_Ionization_Penalty>
2.57177e-05

> <r_epik_Ionization_Penalty_Charging>
0

> <r_epik_Ionization_Penalty_Neutral>
2.57177e-05

> <r_epik_State_Penalty>
-0

> <r_epik_Charging_Adjusted_Penalty>
0

> <i_epik_Tot_Q>
0

> <i_epik_Tot_abs_Q>
0

> <r_epik_Metal_State_Penalty>
-0

> <b_epik_Metal_Only>
0

> <s_lp_Force_Field>
OPLS_2005

> <r_lp_Energy>
20.8954

> <b_lp_Chiralities_Consistent>
1

> <s_lp_Variant>
AV-unprocessed.smi:2847-2

> <Gold.Version>
5.8.1

> <Gold.Id.Protein>
6NUR|6NUR_protein|mol2

> <Gold.PLP.Fitness>
44.4960

> <Gold.PLP.PLP>
-31.3776

> <Gold.PLP.part.hbond>
-3.4491

> <Gold.PLP.part.metal>
0.0000

> <Gold.PLP.part.buried>
0.1084

> <Gold.PLP.part.nonpolar>
-29.6500

> <Gold.PLP.part.repulsive>
0.6637

> <Gold.PLP.ligand.clash>
0.0000

> <Gold.PLP.ligand.torsion>
0.8438

> <Gold.PLP.Chemscore.Hbond>
2.9833

> <Gold.PLP.Chemscore.CHOScore>
1.4356

> <Gold.PLP.Chemscore.Metal>
0.0000

> <Gold.Chemscore.Hbonds>
donor molecule, donor type, donor heavy atom, donor atom, acceptor molecule, acceptor atom, score
      L1  H     9    32       P1 10175  0.98
      L1  H    12    33       P1 10175  1.00
      L1  H    16    39       P1 10175  0.99
      L1  C     7    31       P1  7948  0.78
      L1  C    20    45       P1 10171  0.66

> <Gold.PLP.Chemscore.Internal.Correction>
1.5492

> <Gold.Rescore>
     Score         DG    S(hbond)    S(metal)    S(lipo)     H(rot)  DE(clash)    DE(int)     intcor
     14.55     -17.79       2.32        0.00      86.35       2.17       0.98       2.26       ----

> <Gold.Chemscore.Fitness>
14.5533

> <Gold.Chemscore.DG>
-17.7872

> <Gold.Chemscore.ZeroCoef>
-5.4800

> <Gold.Chemscore.Hbond>
2.3215

> <Gold.Chemscore.Metal>
0.0000

> <Gold.Chemscore.Lipo>
86.3525

> <Gold.Chemscore.Internal_Hbond>
0.0000

> <Gold.Chemscore.DEClash>
0.9789

> <Gold.Chemscore.DEInternal>
2.2550

> <Gold.Chemscore.Rot>
2.1679

> <Gold.Chemscore.Internal.Correction>
   9.000000E+99

> <Gold.Chemscore.Hbonds>
donor molecule, donor type, donor heavy atom, donor atom, acceptor molecule, acceptor atom, score
      L1  H     9    32       P1 10175  0.87
      L1  H    12    33       P1 10175  1.00
      L1  H    16    39       P1 10175  0.24

> <Gold.Chemscore.Hbond.Weighted>
-7.7538

> <Gold.Chemscore.Metal.Weighted>
-0.0000

> <Gold.Chemscore.Lipo.Weighted>
-10.1032

> <Gold.Chemscore.Internal_Hbond.Weighted>
0.0000

> <Gold.Chemscore.DEClash.Weighted>
0.9789

> <Gold.Chemscore.DEInternal.Weighted>
2.2550

> <Gold.Chemscore.Rot.Weighted>
5.5499

> <Gold.Chemscore.Internal.Correction.Weighted>
   9.000000E+99

> <Gold.Protein.RotatedTorsions>
[ 6907 6896 6895 6894 ] final   94.55 input  -60.11 | X-H torsion
[ 7974 7965 7964 7962 ] final   21.22 input  175.53 | X-H torsion
[ 8008 7997 7996 7995 ] final  -76.96 input   59.86 | X-H torsion
[ 10167 10162 10161 10158 ] final -138.46 input  -65.29 | X-H torsion
[ 10718 10713 10712 10709 ] final   62.86 input   66.30 | X-H torsion
[ 10763 10752 10751 10750 ] final  159.99 input  -60.55 | X-H torsion
[ 11005 11000 10999 10996 ] final -131.98 input  -57.11 | X-H torsion

> <Gold.Protein.ActiveResidues>
 VAL166  LYS551  ARG553  GLY616  TRP617  ASP618  TYR619  PRO620  LYS621  CYS622 
 ASP623  PHE694  ASN695  SER759  ASP760  ASP761  ALA762  ILE779  LEU786  VAL792 
 PHE793  MET794  SER795  GLU796  ALA797  LYS798  CYS799  TRP800  GLU811  SER814 

> <Gold.Protein.RotatedAtoms>
  152.5449  134.1176  159.8384 H   0  0  0  0  0  0  0  0  0  0  0  0  # atno 6907 bound_to 6896
  151.1235  133.5080  159.2608 H   0  0  0  0  0  0  0  0  0  0  0  0  # atno 6908 bound_to 6896
  151.1753  135.0346  159.8823 H   0  0  0  0  0  0  0  0  0  0  0  0  # atno 6909 bound_to 6896
  146.2080  139.8058  142.8711 H   0  0  0  0  0  0  0  0  0  0  0  0  # atno 7974 bound_to 7965
  154.5552  140.0718  156.8732 H   0  0  0  0  0  0  0  0  0  0  0  0  # atno 8008 bound_to 7997
  155.2915  140.3378  155.4234 H   0  0  0  0  0  0  0  0  0  0  0  0  # atno 8009 bound_to 7997
  156.1996  140.1716  156.7913 H   0  0  0  0  0  0  0  0  0  0  0  0  # atno 8010 bound_to 7997
  139.8476  143.7241  152.2660 H   0  0  0  0  0  0  0  0  0  0  0  0  # atno 10167 bound_to 10162
  157.5931  130.9073  149.9642 H   0  0  0  0  0  0  0  0  0  0  0  0  # atno 10718 bound_to 10713
  154.2404  135.2775  155.2856 H   0  0  0  0  0  0  0  0  0  0  0  0  # atno 10763 bound_to 10752
  154.5550  135.5664  153.6959 H   0  0  0  0  0  0  0  0  0  0  0  0  # atno 10764 bound_to 10752
  153.0001  135.6284  154.2547 H   0  0  0  0  0  0  0  0  0  0  0  0  # atno 10765 bound_to 10752
  140.9210  134.1444  157.4314 H   0  0  0  0  0  0  0  0  0  0  0  0  # atno 11005 bound_to 11000
  145.3248  141.0252  143.3479 LP  0  0  0  0  0  0  0  0  0  0  0  0  # atno 17320 bound_to 7965
  144.8840  139.4864  143.6709 LP  0  0  0  0  0  0  0  0  0  0  0  0  # atno 17321 bound_to 7965
  139.7497  144.7537  151.0525 LP  0  0  0  0  0  0  0  0  0  0  0  0  # atno 17342 bound_to 10162
  140.7791  143.4874  150.9938 LP  0  0  0  0  0  0  0  0  0  0  0  0  # atno 17343 bound_to 10162
  156.0989  130.3657  150.0255 LP  0  0  0  0  0  0  0  0  0  0  0  0  # atno 17370 bound_to 10713
  156.8374  130.9414  151.3634 LP  0  0  0  0  0  0  0  0  0  0  0  0  # atno 17371 bound_to 10713
  139.8775  134.9971  156.5831 LP  0  0  0  0  0  0  0  0  0  0  0  0  # atno 17394 bound_to 11000
  140.7987  133.8523  155.8708 LP  0  0  0  0  0  0  0  0  0  0  0  0  # atno 17395 bound_to 11000

$$$$
