AV-unprocessed.smi:287|AV-procd|sdf|2185|dock4
  -GOLD-   2262021563D 1   1.00000     0.00000
 Structure written by MMmdl.
 55 58  0  0  0  0  0  0  0  0  1 V2000
  147.4107  142.3195  153.9479 C   0  0  0  0  0  0  0  0  0  0  0  0
  146.2413  141.7360  154.6642 C   0  0  0  0  0  0  0  0  0  0  0  0
  145.9515  140.4921  155.1447 C   0  0  0  0  0  0  0  0  0  0  0  0
  144.6525  140.5541  155.7333 C   0  0  0  0  0  0  0  0  0  0  0  0
  143.9073  139.4094  156.4073 C   0  0  1  0  0  0  0  0  0  0  0  0
  144.8315  138.1863  156.5212 C   0  0  0  0  0  0  0  0  0  0  0  0
  143.5232  139.7180  157.7334 O   0  0  0  0  0  0  0  0  0  0  0  0
  142.6028  139.0208  155.6729 C   0  0  0  0  0  0  0  0  0  0  0  0
  142.8086  138.7354  154.2568 N   0  0  0  0  0  0  0  0  0  0  0  0
  142.7824  137.4625  153.8101 C   0  0  0  0  0  0  0  0  0  0  0  0
  141.7379  136.6413  154.0943 N   0  0  0  0  0  0  0  0  0  0  0  0
  141.7315  135.3868  153.6335 C   0  0  0  0  0  0  0  0  0  0  0  0
  142.6496  134.7672  152.8885 N   0  0  0  0  0  0  0  0  0  0  0  0
  143.7029  135.5870  152.6046 C   0  0  0  0  0  0  0  0  0  0  0  0
  143.8420  136.9386  153.0261 C   0  0  0  0  0  0  0  0  0  0  0  0
  145.0381  137.4600  152.5511 N   0  0  0  0  0  0  0  0  0  0  0  0
  145.5705  136.4709  151.8846 C   0  0  0  0  0  0  0  0  0  0  0  0
  144.8350  135.3064  151.8672 N   0  0  0  0  0  0  0  0  0  0  0  0
  145.1802  134.0212  151.1901 C   0  0  2  0  0  0  0  0  0  0  0  0
  144.7060  134.0810  149.8826 O   0  0  0  0  0  0  0  0  0  0  0  0
  144.3057  132.7779  149.4892 C   0  0  2  0  0  0  0  0  0  0  0  0
  143.4226  132.8251  148.2295 C   0  0  0  0  0  0  0  0  0  0  0  0
  143.3837  134.1362  147.7075 O   0  0  0  0  0  0  0  0  0  0  0  0
  143.6810  132.1908  150.7645 C   0  0  2  0  0  0  0  0  0  0  0  0
  142.3177  132.5480  150.8911 O   0  0  0  0  0  0  0  0  0  0  0  0
  144.5051  132.8236  151.8854 C   0  0  1  0  0  0  0  0  0  0  0  0
  145.4685  131.8953  152.3420 O   0  0  0  0  0  0  0  0  0  0  0  0
  144.2611  141.8621  155.5783 C   0  0  0  0  0  0  0  0  0  0  0  0
  143.0453  142.6326  155.9750 C   0  0  0  0  0  0  0  0  0  0  0  0
  145.2143  142.5830  154.9245 O   0  0  0  0  0  0  0  0  0  0  0  0
  146.2706  133.9775  151.1985 H   0  0  0  0  0  0  0  0  0  0  0  0
  145.2191  132.2245  149.2622 H   0  0  0  0  0  0  0  0  0  0  0  0
  143.7347  131.1011  150.7661 H   0  0  0  0  0  0  0  0  0  0  0  0
  143.8892  133.1449  152.7273 H   0  0  0  0  0  0  0  0  0  0  0  0
  148.1806  141.5661  153.7801 H   0  0  0  0  0  0  0  0  0  0  0  0
  147.8522  143.1314  154.5259 H   0  0  0  0  0  0  0  0  0  0  0  0
  147.1109  142.7177  152.9784 H   0  0  0  0  0  0  0  0  0  0  0  0
  146.5974  139.6294  155.0761 H   0  0  0  0  0  0  0  0  0  0  0  0
  145.1597  137.8477  155.5377 H   0  0  0  0  0  0  0  0  0  0  0  0
  144.3288  137.3477  157.0048 H   0  0  0  0  0  0  0  0  0  0  0  0
  145.7248  138.4165  157.1033 H   0  0  0  0  0  0  0  0  0  0  0  0
  144.1905  139.3979  158.3207 H   0  0  0  0  0  0  0  0  0  0  0  0
  142.2023  138.1121  156.1248 H   0  0  0  0  0  0  0  0  0  0  0  0
  141.8428  139.7933  155.8018 H   0  0  0  0  0  0  0  0  0  0  0  0
  143.0156  139.5307  153.6692 H   0  0  0  0  0  0  0  0  0  0  0  0
  140.8665  134.7961  153.8969 H   0  0  0  0  0  0  0  0  0  0  0  0
  146.5230  136.5655  151.3840 H   0  0  0  0  0  0  0  0  0  0  0  0
  143.7715  132.1309  147.4648 H   0  0  0  0  0  0  0  0  0  0  0  0
  142.4039  132.5293  148.4814 H   0  0  0  0  0  0  0  0  0  0  0  0
  144.2583  134.4937  147.7280 H   0  0  0  0  0  0  0  0  0  0  0  0
  141.7924  131.8596  150.5102 H   0  0  0  0  0  0  0  0  0  0  0  0
  145.5166  131.9523  153.2840 H   0  0  0  0  0  0  0  0  0  0  0  0
  142.8112  142.4702  157.0271 H   0  0  0  0  0  0  0  0  0  0  0  0
  142.1828  142.3248  155.3840 H   0  0  0  0  0  0  0  0  0  0  0  0
  143.1906  143.7029  155.8264 H   0  0  0  0  0  0  0  0  0  0  0  0
  1  2  1  0  0  0  0
  1 35  1  0  0  0  0
  1 36  1  0  0  0  0
  1 37  1  0  0  0  0
  2 30  1  0  0  0  0
  2  3  2  0  0  0  0
  3  4  1  0  0  0  0
  3 38  1  0  0  0  0
  4  5  1  0  0  0  0
  4 28  2  0  0  0  0
  5  6  1  0  0  0  0
  5  7  1  0  0  0  0
  5  8  1  0  0  0  0
  6 39  1  0  0  0  0
  6 40  1  0  0  0  0
  6 41  1  0  0  0  0
  7 42  1  0  0  0  0
  8  9  1  0  0  0  0
  8 43  1  0  0  0  0
  8 44  1  0  0  0  0
  9 10  1  0  0  0  0
  9 45  1  0  0  0  0
 10 15  1  0  0  0  0
 10 11  2  0  0  0  0
 11 12  1  0  0  0  0
 12 13  2  0  0  0  0
 12 46  1  0  0  0  0
 13 14  1  0  0  0  0
 14 18  1  0  0  0  0
 14 15  2  0  0  0  0
 15 16  1  0  0  0  0
 16 17  2  0  0  0  0
 17 18  1  0  0  0  0
 17 47  1  0  0  0  0
 18 19  1  0  0  0  0
 19 31  1  0  0  0  0
 19 26  1  0  0  0  0
 19 20  1  0  0  0  0
 20 21  1  0  0  0  0
 21 32  1  0  0  0  0
 21 22  1  0  0  0  0
 21 24  1  0  0  0  0
 22 23  1  0  0  0  0
 22 48  1  0  0  0  0
 22 49  1  0  0  0  0
 23 50  1  0  0  0  0
 24 33  1  0  0  0  0
 24 25  1  0  0  0  0
 24 26  1  0  0  0  0
 25 51  1  0  0  0  0
 26 34  1  0  0  0  0
 26 27  1  0  0  0  0
 27 52  1  0  0  0  0
 28 29  1  0  0  0  0
 28 30  1  0  0  0  0
 29 53  1  0  0  0  0
 29 54  1  0  0  0  0
 29 55  1  0  0  0  0
M  END
> <s_m_source_file>
AV-unprocessed.smi

> <i_m_source_file_index>
287

> <i_lp_mmshare_version>
43012

> <i_f3d_flags>
0

> <s_epik_input>
W0NIM11jMVtjSF1jKGMobzEpW0NIM10pW0NAQF0oW0NIM10pKFtPSF0pW0NIMl1bTkhdYyhuW2NIXW4yKWMoYzIzKW5bY0hdbjNbQ0BASF00T1tDQEhdKFtDSDJdW09IXSlbQ0BASF0oW09IXSlbQ0BIXTRbT0hd

> <s_epik_cmdline>
J2VwaWtfcHl0aG9uJywgJy1waCcsICc3LjAnLCAnLXRuJywgJzgnLCAnLW1hJywgJzIwMCcsICctbWV0YWxfYmluZGluZycsICctaW1hZScsICc8aW5maWxlLm1hZT4nLCAnLW9tYWUnLCAnPG91dGZpbGUubWFlPic=

> <r_lp_tautomer_probability>
1

> <r_epik_Ionization_Penalty>
0.000992612

> <r_epik_Ionization_Penalty_Charging>
0

> <r_epik_Ionization_Penalty_Neutral>
0.000992612

> <r_epik_State_Penalty>
-0

> <r_epik_Charging_Adjusted_Penalty>
0

> <i_epik_Tot_Q>
0

> <i_epik_Tot_abs_Q>
0

> <r_epik_Metal_State_Penalty>
-0

> <b_epik_Metal_Only>
0

> <s_epik_Chemistry_Notes>
This compound contains an acetal/aminal-like group ( X-CH(R)-Y where X, Y are N, S, or O) that may be acid/base labile, releasing an aldehyde.

> <s_lp_Force_Field>
OPLS_2005

> <r_lp_Energy>
37.4731

> <b_lp_Chiralities_Consistent>
1

> <s_lp_Variant>
AV-unprocessed.smi:287-9

> <Gold.Version>
5.8.1

> <Gold.Id.Protein>
6NUR|6NUR_protein|mol2

> <Gold.PLP.Fitness>
53.5499

> <Gold.PLP.PLP>
-42.7023

> <Gold.PLP.part.hbond>
-6.6441

> <Gold.PLP.part.metal>
0.0000

> <Gold.PLP.part.buried>
-8.6976

> <Gold.PLP.part.nonpolar>
-30.9559

> <Gold.PLP.part.repulsive>
3.4655

> <Gold.PLP.ligand.clash>
0.0000

> <Gold.PLP.ligand.torsion>
2.1551

> <Gold.PLP.Chemscore.Hbond>
4.0000

> <Gold.PLP.Chemscore.CHOScore>
1.0000

> <Gold.PLP.Chemscore.Metal>
0.0000

> <Gold.Chemscore.Hbonds>
donor molecule, donor type, donor heavy atom, donor atom, acceptor molecule, acceptor atom, score
      L1  H     9    45       P1 10175  1.00
      L1  H    23    50       P1  7921  1.00
      L1  H    25    51       P1 10952  1.00
      P1  H 10192 10197       L1    23  1.00
      L1  C    12    46       P1 11000  0.11
      L1  C    17    47       P1  7948  1.00

> <Gold.PLP.Chemscore.Internal.Correction>
0.1578

> <Gold.Rescore>
     Score         DG    S(hbond)    S(metal)    S(lipo)     H(rot)  DE(clash)    DE(int)     intcor
      7.17     -12.39       3.77        0.00      66.82       5.27       1.81       3.40       ----

> <Gold.Chemscore.Fitness>
7.1733

> <Gold.Chemscore.DG>
-12.3920

> <Gold.Chemscore.ZeroCoef>
-5.4800

> <Gold.Chemscore.Hbond>
3.7657

> <Gold.Chemscore.Metal>
0.0000

> <Gold.Chemscore.Lipo>
66.8236

> <Gold.Chemscore.Internal_Hbond>
0.0000

> <Gold.Chemscore.DEClash>
1.8139

> <Gold.Chemscore.DEInternal>
3.4048

> <Gold.Chemscore.Rot>
5.2672

> <Gold.Chemscore.Internal.Correction>
   9.000000E+99

> <Gold.Chemscore.Hbonds>
donor molecule, donor type, donor heavy atom, donor atom, acceptor molecule, acceptor atom, score
      L1  H     9    45       P1 10175  0.99
      L1  H    23    50       P1  7921  1.00
      L1  H    25    51       P1 10952  0.24
      P1  H 10192 10197       L1    23  0.98

> <Gold.Chemscore.Hbond.Weighted>
-12.5775

> <Gold.Chemscore.Metal.Weighted>
-0.0000

> <Gold.Chemscore.Lipo.Weighted>
-7.8184

> <Gold.Chemscore.Internal_Hbond.Weighted>
0.0000

> <Gold.Chemscore.DEClash.Weighted>
1.8139

> <Gold.Chemscore.DEInternal.Weighted>
3.4048

> <Gold.Chemscore.Rot.Weighted>
13.4839

> <Gold.Chemscore.Internal.Correction.Weighted>
   9.000000E+99

> <Gold.Protein.RotatedTorsions>
[ 6907 6896 6895 6894 ] final   48.14 input  -60.11 | X-H torsion
[ 7974 7965 7964 7962 ] final   -6.86 input  175.53 | X-H torsion
[ 8008 7997 7996 7995 ] final   12.36 input   59.86 | X-H torsion
[ 10167 10162 10161 10158 ] final   85.06 input  -65.29 | X-H torsion
[ 10718 10713 10712 10709 ] final  105.41 input   66.30 | X-H torsion
[ 10763 10752 10751 10750 ] final  -53.11 input  -60.55 | X-H torsion
[ 11005 11000 10999 10996 ] final  158.72 input  -57.11 | X-H torsion

> <Gold.Protein.ActiveResidues>
 VAL166  LYS551  ARG553  GLY616  TRP617  ASP618  TYR619  PRO620  LYS621  CYS622 
 ASP623  PHE694  ASN695  SER759  ASP760  ASP761  ALA762  ILE779  LEU786  VAL792 
 PHE793  MET794  SER795  GLU796  ALA797  LYS798  CYS799  TRP800  GLU811  SER814 

> <Gold.Protein.RotatedAtoms>
  152.2761  134.7880  160.0405 H   0  0  0  0  0  0  0  0  0  0  0  0  # atno 6907 bound_to 6896
  151.8476  133.3429  159.3671 H   0  0  0  0  0  0  0  0  0  0  0  0  # atno 6908 bound_to 6896
  150.7171  134.5259  159.5720 H   0  0  0  0  0  0  0  0  0  0  0  0  # atno 6909 bound_to 6896
  146.2321  140.2233  142.8338 H   0  0  0  0  0  0  0  0  0  0  0  0  # atno 7974 bound_to 7965
  154.8196  140.2881  155.5796 H   0  0  0  0  0  0  0  0  0  0  0  0  # atno 8008 bound_to 7997
  156.2996  140.2553  156.3030 H   0  0  0  0  0  0  0  0  0  0  0  0  # atno 8009 bound_to 7997
  154.9354  140.0382  157.2059 H   0  0  0  0  0  0  0  0  0  0  0  0  # atno 8010 bound_to 7997
  139.9016  144.6326  150.8631 H   0  0  0  0  0  0  0  0  0  0  0  0  # atno 10167 bound_to 10162
  157.6706  131.0827  150.5852 H   0  0  0  0  0  0  0  0  0  0  0  0  # atno 10718 bound_to 10713
  154.1536  135.6486  153.4969 H   0  0  0  0  0  0  0  0  0  0  0  0  # atno 10763 bound_to 10752
  153.0130  135.5344  154.6783 H   0  0  0  0  0  0  0  0  0  0  0  0  # atno 10764 bound_to 10752
  154.6077  135.2950  155.0438 H   0  0  0  0  0  0  0  0  0  0  0  0  # atno 10765 bound_to 10752
  140.1893  134.8419  157.2893 H   0  0  0  0  0  0  0  0  0  0  0  0  # atno 11005 bound_to 11000
  144.9615  140.8279  143.5511 LP  0  0  0  0  0  0  0  0  0  0  0  0  # atno 17320 bound_to 7965
  145.2204  139.2161  143.5096 LP  0  0  0  0  0  0  0  0  0  0  0  0  # atno 17321 bound_to 7965
  140.7705  143.3432  151.2164 LP  0  0  0  0  0  0  0  0  0  0  0  0  # atno 17342 bound_to 10162
  139.7020  143.9517  152.2910 LP  0  0  0  0  0  0  0  0  0  0  0  0  # atno 17343 bound_to 10162
  156.6153  130.4391  149.5843 LP  0  0  0  0  0  0  0  0  0  0  0  0  # atno 17370 bound_to 10713
  156.2398  130.6844  151.1545 LP  0  0  0  0  0  0  0  0  0  0  0  0  # atno 17371 bound_to 10713
  140.2178  134.4060  155.7580 LP  0  0  0  0  0  0  0  0  0  0  0  0  # atno 17394 bound_to 11000
  141.2226  133.7150  156.8442 LP  0  0  0  0  0  0  0  0  0  0  0  0  # atno 17395 bound_to 11000

$$$$
