#       Name:                AV-unprocessed.smi:54
#       Creating user name   scv26
#       Creation time:       Thu Mar 26 16:41:29 2020


#       File generated by GOLD software.
#

@<TRIPOS>MOLECULE
AV-unprocessed.smi:54
    58    60     1
SMALL
NO_CHARGES


@<TRIPOS>ATOM
      1 ****        -0.5352   5.5092  -0.9626 C.3            1 S1                 0.0000
      2 ****        -1.1329   4.8627   0.2977 C.3            1 S1                 0.0000
      3 ****        -0.5615   5.4986   1.5755 C.3            1 S1                 0.0000
      4 ****        -0.8941   3.3483   0.2919 C.2            1 S1                 0.0000
      5 ****         0.2396   2.8668   0.2929 O.2            1 S1                 0.0000
      6 ****        -2.0935   2.5290   0.2778 N.am           1 S1                 0.0000
      7 ****        -2.1685   1.1776   0.2582 C.2            1 S1                 0.0000
      8 ****        -1.1048   0.3893   0.3278 N.2            1 S1                 0.0000
      9 ****        -1.3849  -0.9481   0.2888 C.2            1 S1                 0.0000
     10 ****        -2.6329  -1.5256   0.1907 C.2            1 S1                 0.0000
     11 ****        -2.5187  -2.9112   0.1760 N.2            1 S1                 0.0000
     12 ****        -1.2347  -3.1247   0.2606 C.2            1 S1                 0.0000
     13 ****        -0.4730  -1.9805   0.3253 N.pl3          1 S1                 0.0000
     14 ****         1.0146  -1.8231   0.4343 C.3            1 S1                 0.0000
     15 ****         1.5643  -3.0521   0.8028 O.3            1 S1                 0.0000
     16 ****         2.1196  -3.6908  -0.3410 C.3            1 S1                 0.0000
     17 ****         3.1206  -4.7873   0.0609 C.3            1 S1                 0.0000
     18 ****         2.4328  -5.9837   0.3572 O.3            1 S1                 0.0000
     19 ****         2.7097  -2.5082  -1.1186 C.3            1 S1                 0.0000
     20 ****         3.9609  -2.1218  -0.5793 O.3            1 S1                 0.0000
     21 ****         1.6726  -1.4112  -0.9069 C.3            1 S1                 0.0000
     22 ****         0.7792  -1.3810  -2.0070 O.3            1 S1                 0.0000
     23 ****        -3.7945  -0.6868   0.1219 C.2            1 S1                 0.0000
     24 ****        -4.9734  -1.0233   0.0356 O.2            1 S1                 0.0000
     25 ****        -3.4663   0.6749   0.1616 N.am           1 S1                 0.0000
     26 ****         1.1546  -1.0944   1.2338 H              1 S1                 0.0000
     27 ****         1.3140  -4.1214  -0.9389 H              1 S1                 0.0000
     28 ****         2.8583  -2.7501  -2.1722 H              1 S1                 0.0000
     29 ****         2.1274  -0.4248  -0.8052 H              1 S1                 0.0000
     30 ****        -0.9306   5.0500  -1.8695 H              1 S1                 0.0000
     31 ****         0.5511   5.4131  -0.9866 H              1 S1                 0.0000
     32 ****        -0.7732   6.5724  -1.0050 H              1 S1                 0.0000
     33 ****        -2.2097   5.0376   0.2862 H              1 S1                 0.0000
     34 ****        -0.9867   5.0426   2.4703 H              1 S1                 0.0000
     35 ****        -0.7870   6.5648   1.6142 H              1 S1                 0.0000
     36 ****         0.5227   5.3897   1.6284 H              1 S1                 0.0000
     37 ****        -2.9695   3.0304   0.2692 H              1 S1                 0.0000
     38 ****        -0.8173  -4.1209   0.2792 H              1 S1                 0.0000
     39 ****         3.8001  -4.9964  -0.7659 H              1 S1                 0.0000
     40 ****         3.7279  -4.4804   0.9130 H              1 S1                 0.0000
     41 ****         3.0666  -6.6438   0.5929 H              1 S1                 0.0000
     42 ****         3.8458  -1.9322   0.3393 H              1 S1                 0.0000
     43 ****         0.0955  -0.7567  -1.8171 H              1 S1                 0.0000
     44 ****        -4.2370   1.3250   0.1125 H              1 S1                 0.0000
     45 ****         1.0384   3.4684   0.2976 LP             1 S1                 0.0000
     46 ****         0.3613   1.8742   0.2890 LP             1 S1                 0.0000
     47 ****        -0.1729   0.7443   0.4027 LP             1 S1                 0.0000
     48 ****        -3.2521  -3.5883   0.1147 LP             1 S1                 0.0000
     49 ****         0.8496  -3.6323   1.1934 LP             1 S1                 0.0000
     50 ****         2.2826  -2.9046   1.4827 LP             1 S1                 0.0000
     51 ****         1.9163  -6.2833  -0.4450 LP             1 S1                 0.0000
     52 ****         1.8048  -5.8315   1.1203 LP             1 S1                 0.0000
     53 ****         4.2951  -1.3068  -1.0527 LP             1 S1                 0.0000
     54 ****         4.6202  -2.8655  -0.6902 LP             1 S1                 0.0000
     55 ****         0.3806  -2.2879  -2.1438 LP             1 S1                 0.0000
     56 ****         1.2697  -1.1044  -2.8334 LP             1 S1                 0.0000
     57 ****        -5.2156  -1.9931   0.0054 LP             1 S1                 0.0000
     58 ****        -5.6903  -0.3274  -0.0044 LP             1 S1                 0.0000
@<TRIPOS>BOND
    1    1    2 1     
    2    1   30 1     
    3    1   31 1     
    4    1   32 1     
    5    2    3 1     
    6    2    4 1     
    7    2   33 1     
    8    3   34 1     
    9    3   35 1     
   10    3   36 1     
   11    4    5 2     
   12    4    6 am    
   13    6   37 1     
   14    6    7 1     
   15    7   25 1     
   16    7    8 2     
   17    8    9 1     
   18    9   13 1     
   19    9   10 2     
   20   10   11 1     
   21   10   23 1     
   22   11   12 2     
   23   12   13 1     
   24   12   38 1     
   25   13   14 1     
   26   14   26 1     
   27   14   21 1     
   28   14   15 1     
   29   15   16 1     
   30   16   27 1     
   31   16   17 1     
   32   16   19 1     
   33   17   18 1     
   34   17   39 1     
   35   17   40 1     
   36   18   41 1     
   37   19   28 1     
   38   19   20 1     
   39   19   21 1     
   40   20   42 1     
   41   21   29 1     
   42   21   22 1     
   43   22   43 1     
   44   23   24 2     
   45   23   25 am    
   46   25   44 1     
   47    5   45 1     
   48    5   46 1     
   49    8   47 1     
   50   11   48 1     
   51   15   49 1     
   52   15   50 1     
   53   18   51 1     
   54   18   52 1     
   55   20   53 1     
   56   20   54 1     
   57   22   55 1     
   58   22   56 1     
   59   24   57 1     
   60   24   58 1     
@<TRIPOS>SUBSTRUCTURE
      1 S1             1
@<TRIPOS>SET
LONE_PAIRS      STATIC     ATOMS    <user>   **** ""
14 45 46 47 48 49 50 51 52 53 54 55 56 57 58
DONOR_HYDROGENS      STATIC     ATOMS    <user>   **** ""
5 37 41 42 43 44
ATOM$BLUE        STATIC     ATOMS    COLORGROUP SYSTEM
14 45 46 47 48 49 50 51 52 53 54 55 56 57 58
ATOM$RED        STATIC     ATOMS    COLORGROUP SYSTEM
5 37 41 42 43 44
