AV-unprocessed.smi:1098|AV-procd|sdf|4754|dock3
  -GOLD-   22720 3293D 1   1.00000     0.00000
 Structure written by MMmdl.
 43 44  0  0  0  0  0  0  0  0  2 V2000
  152.3305  143.4472  158.7153 C   0  0  0  0  0  0  0  0  0  0  0  0
  151.7586  142.1185  158.2136 C   0  0  0  0  0  0  0  0  0  0  0  0
  151.1596  142.2547  156.5045 S   0  0  0  0  0  0  0  0  0  0  0  0
  150.6435  140.6424  155.9947 C   0  0  0  0  0  0  0  0  0  0  0  0
  150.5464  139.5975  156.9332 C   0  0  0  0  0  0  0  0  0  0  0  0
  150.1310  138.3301  156.4815 C   0  0  0  0  0  0  0  0  0  0  0  0
  149.8231  138.1597  155.1092 C   0  0  0  0  0  0  0  0  0  0  0  0
  149.4124  136.9305  154.5256 N   0  0  0  0  0  0  0  0  0  0  0  0
  148.9431  135.8282  155.1350 C   0  0  0  0  0  0  0  0  0  0  0  0
  148.7617  135.7046  156.3457 O   0  0  0  0  0  0  0  0  0  0  0  0
  148.6689  134.8625  154.2460 N   0  0  0  0  0  0  0  0  0  0  0  0
  148.1500  133.5348  154.5743 C   0  0  2  0  0  0  0  0  0  0  0  0
  148.1393  132.6352  153.3251 C   0  0  0  0  0  0  0  0  0  0  0  0
  147.0445  133.0470  152.3235 C   0  0  0  0  0  0  0  0  0  0  0  0
  145.7096  133.0759  152.9709 N   0  3  2  0  0  0  0  0  0  0  0  0
  144.6218  133.3467  152.0066 C   0  0  0  0  0  0  0  0  0  0  0  0
  145.6756  133.9965  154.1340 C   0  0  0  0  0  0  0  0  0  0  0  0
  146.7331  133.6039  155.1806 C   0  0  0  0  0  0  0  0  0  0  0  0
  149.9711  139.2759  154.2581 C   0  0  0  0  0  0  0  0  0  0  0  0
  150.3666  140.4950  154.6816 N   0  0  0  0  0  0  0  0  0  0  0  0
  152.6957  143.3510  159.7382 H   0  0  0  0  0  0  0  0  0  0  0  0
  151.5720  144.2308  158.7046 H   0  0  0  0  0  0  0  0  0  0  0  0
  153.1637  143.7764  158.0936 H   0  0  0  0  0  0  0  0  0  0  0  0
  152.5242  141.3433  158.2601 H   0  0  0  0  0  0  0  0  0  0  0  0
  150.9362  141.8019  158.8558 H   0  0  0  0  0  0  0  0  0  0  0  0
  150.7877  139.7601  157.9734 H   0  0  0  0  0  0  0  0  0  0  0  0
  150.0721  137.5194  157.1906 H   0  0  0  0  0  0  0  0  0  0  0  0
  149.4335  136.9057  153.5166 H   0  0  0  0  0  0  0  0  0  0  0  0
  148.8495  135.0538  153.2713 H   0  0  0  0  0  0  0  0  0  0  0  0
  148.8233  133.0853  155.3068 H   0  0  0  0  0  0  0  0  0  0  0  0
  149.1161  132.6476  152.8396 H   0  0  0  0  0  0  0  0  0  0  0  0
  147.9681  131.6022  153.6316 H   0  0  0  0  0  0  0  0  0  0  0  0
  147.2666  134.0278  151.8997 H   0  0  0  0  0  0  0  0  0  0  0  0
  147.0312  132.3408  151.4923 H   0  0  0  0  0  0  0  0  0  0  0  0
  144.7262  134.3395  151.5669 H   0  0  0  0  0  0  0  0  0  0  0  0
  143.6496  133.2902  152.4974 H   0  0  0  0  0  0  0  0  0  0  0  0
  144.6297  132.6125  151.2003 H   0  0  0  0  0  0  0  0  0  0  0  0
  145.8381  135.0214  153.7967 H   0  0  0  0  0  0  0  0  0  0  0  0
  144.6863  133.9684  154.5922 H   0  0  0  0  0  0  0  0  0  0  0  0
  146.4763  132.6276  155.5940 H   0  0  0  0  0  0  0  0  0  0  0  0
  146.7051  134.2998  156.0197 H   0  0  0  0  0  0  0  0  0  0  0  0
  149.7612  139.1907  153.2018 H   0  0  0  0  0  0  0  0  0  0  0  0
  145.5448  132.1475  153.3335 H   0  0  0  0  0  0  0  0  0  0  0  0
  1  2  1  0  0  0  0
  1 21  1  0  0  0  0
  1 22  1  0  0  0  0
  1 23  1  0  0  0  0
  2  3  1  0  0  0  0
  2 24  1  0  0  0  0
  2 25  1  0  0  0  0
  3  4  1  0  0  0  0
  4 20  1  0  0  0  0
  4  5  2  0  0  0  0
  5  6  1  0  0  0  0
  5 26  1  0  0  0  0
  6  7  2  0  0  0  0
  6 27  1  0  0  0  0
  7  8  1  0  0  0  0
  7 19  1  0  0  0  0
  8  9  1  0  0  0  0
  8 28  1  0  0  0  0
  9 10  2  0  0  0  0
  9 11  1  0  0  0  0
 11 12  1  0  0  0  0
 11 29  1  0  0  0  0
 12 18  1  0  0  0  0
 12 13  1  0  0  0  0
 12 30  1  0  0  0  0
 13 14  1  0  0  0  0
 13 31  1  0  0  0  0
 13 32  1  0  0  0  0
 14 15  1  0  0  0  0
 14 33  1  0  0  0  0
 14 34  1  0  0  0  0
 15 16  1  0  0  0  0
 15 17  1  0  0  0  0
 15 43  1  0  0  0  0
 16 35  1  0  0  0  0
 16 36  1  0  0  0  0
 16 37  1  0  0  0  0
 17 18  1  0  0  0  0
 17 38  1  0  0  0  0
 17 39  1  0  0  0  0
 18 40  1  0  0  0  0
 18 41  1  0  0  0  0
 19 20  2  0  0  0  0
 19 42  1  0  0  0  0
M  CHG  1  15   1
M  END
> <s_m_source_file>
AV-unprocessed.smi

> <i_m_source_file_index>
1098

> <i_lp_mmshare_version>
43012

> <i_f3d_flags>
0

> <s_epik_input>
W0NIM11bQ0gyXVNjMVtjSF1bY0hdYyhbY0hdbjEpW05IXUMoPU8pW05IXVtDSF0yW0NIMl1bQ0gyXU4oW0NIM10pW0NIMl1bQ0gyXTI=

> <s_epik_cmdline>
J2VwaWtfcHl0aG9uJywgJy1waCcsICc3LjAnLCAnLXRuJywgJzgnLCAnLW1hJywgJzIwMCcsICctbWV0YWxfYmluZGluZycsICctaW1hZScsICc8aW5maWxlLm1hZT4nLCAnLW9tYWUnLCAnPG91dGZpbGUubWFlPic=

> <r_lp_tautomer_probability>
1

> <r_epik_Ionization_Penalty>
0.00403107

> <r_epik_Ionization_Penalty_Charging>
0.00366825

> <r_epik_Ionization_Penalty_Neutral>
0.000362818

> <r_epik_State_Penalty>
-0

> <r_epik_Charging_Adjusted_Penalty>
0.00366825

> <i_epik_Tot_Q>
1

> <i_epik_Tot_abs_Q>
1

> <r_epik_Metal_State_Penalty>
-0

> <b_epik_Metal_Only>
0

> <s_lp_Force_Field>
OPLS_2005

> <r_lp_Energy>
17.2639

> <b_lp_Chiralities_Consistent>
1

> <s_lp_Variant>
AV-unprocessed.smi:1098-2

> <Gold.Version>
5.8.1

> <Gold.Id.Protein>
6NUR|6NUR_protein|mol2

> <Gold.PLP.Fitness>
40.7744

> <Gold.PLP.PLP>
-29.2583

> <Gold.PLP.part.hbond>
-3.0000

> <Gold.PLP.part.metal>
0.0000

> <Gold.PLP.part.buried>
-3.6293

> <Gold.PLP.part.nonpolar>
-22.8452

> <Gold.PLP.part.repulsive>
0.1389

> <Gold.PLP.ligand.clash>
0.0000

> <Gold.PLP.ligand.torsion>
0.1986

> <Gold.PLP.Chemscore.Hbond>
2.9680

> <Gold.PLP.Chemscore.CHOScore>
1.0000

> <Gold.PLP.Chemscore.Metal>
0.0000

> <Gold.Chemscore.Hbonds>
donor molecule, donor type, donor heavy atom, donor atom, acceptor molecule, acceptor atom, score
      L1  H     8    28       P1  7948  1.00
      L1  H    11    29       P1  7948  1.00
      P1  H  7989  7998       L1    20  0.99
      L1  C    19    42       P1  7957  1.00

> <Gold.PLP.Chemscore.Internal.Correction>
0.0094

> <Gold.Rescore>
     Score         DG    S(hbond)    S(metal)    S(lipo)     H(rot)  DE(clash)    DE(int)     intcor
     17.89     -19.77       2.68        0.00      74.23       1.30       0.33       1.55       ----

> <Gold.Chemscore.Fitness>
17.8874

> <Gold.Chemscore.DG>
-19.7742

> <Gold.Chemscore.ZeroCoef>
-5.4800

> <Gold.Chemscore.Hbond>
2.6788

> <Gold.Chemscore.Metal>
0.0000

> <Gold.Chemscore.Lipo>
74.2300

> <Gold.Chemscore.Internal_Hbond>
0.0000

> <Gold.Chemscore.DEClash>
0.3350

> <Gold.Chemscore.DEInternal>
1.5519

> <Gold.Chemscore.Rot>
1.3038

> <Gold.Chemscore.Internal.Correction>
   9.000000E+99

> <Gold.Chemscore.Hbonds>
donor molecule, donor type, donor heavy atom, donor atom, acceptor molecule, acceptor atom, score
      L1  H     8    28       P1  7948  0.89
      L1  H    11    29       P1  7948  0.43
      P1  H  7989  7998       L1    20  0.27

> <Gold.Chemscore.Hbond.Weighted>
-8.9471

> <Gold.Chemscore.Metal.Weighted>
-0.0000

> <Gold.Chemscore.Lipo.Weighted>
-8.6849

> <Gold.Chemscore.Internal_Hbond.Weighted>
0.0000

> <Gold.Chemscore.DEClash.Weighted>
0.3350

> <Gold.Chemscore.DEInternal.Weighted>
1.5519

> <Gold.Chemscore.Rot.Weighted>
3.3378

> <Gold.Chemscore.Internal.Correction.Weighted>
   9.000000E+99

> <Gold.Protein.RotatedTorsions>
[ 6907 6896 6895 6894 ] final   90.01 input  -60.11 | X-H torsion
[ 7974 7965 7964 7962 ] final  -96.45 input  175.53 | X-H torsion
[ 8008 7997 7996 7995 ] final   48.28 input   59.86 | X-H torsion
[ 10167 10162 10161 10158 ] final -125.50 input  -65.29 | X-H torsion
[ 10718 10713 10712 10709 ] final   63.18 input   66.30 | X-H torsion
[ 10763 10752 10751 10750 ] final  -95.03 input  -60.55 | X-H torsion
[ 11005 11000 10999 10996 ] final  118.43 input  -57.11 | X-H torsion

> <Gold.Protein.ActiveResidues>
 VAL166  LYS551  ARG553  GLY616  TRP617  ASP618  TYR619  PRO620  LYS621  CYS622 
 ASP623  PHE694  ASN695  SER759  ASP760  ASP761  ALA762  ILE779  LEU786  VAL792 
 PHE793  MET794  SER795  GLU796  ALA797  LYS798  CYS799  TRP800  GLU811  SER814 

> <Gold.Protein.RotatedAtoms>
  152.5441  134.1878  159.8661 H   0  0  0  0  0  0  0  0  0  0  0  0  # atno 6907 bound_to 6896
  151.1876  133.4680  159.2602 H   0  0  0  0  0  0  0  0  0  0  0  0  # atno 6908 bound_to 6896
  151.1116  135.0041  159.8552 H   0  0  0  0  0  0  0  0  0  0  0  0  # atno 6909 bound_to 6896
  145.3467  140.9469  143.2577 H   0  0  0  0  0  0  0  0  0  0  0  0  # atno 7974 bound_to 7965
  155.3830  140.3429  155.4247 H   0  0  0  0  0  0  0  0  0  0  0  0  # atno 8008 bound_to 7997
  156.1600  140.1598  156.8662 H   0  0  0  0  0  0  0  0  0  0  0  0  # atno 8009 bound_to 7997
  154.5130  140.0785  156.8009 H   0  0  0  0  0  0  0  0  0  0  0  0  # atno 8010 bound_to 7997
  139.9814  143.5738  152.2377 H   0  0  0  0  0  0  0  0  0  0  0  0  # atno 10167 bound_to 10162
  157.5953  130.9091  149.9683 H   0  0  0  0  0  0  0  0  0  0  0  0  # atno 10718 bound_to 10713
  154.7111  135.5135  153.8667 H   0  0  0  0  0  0  0  0  0  0  0  0  # atno 10763 bound_to 10752
  153.0781  135.6623  154.0111 H   0  0  0  0  0  0  0  0  0  0  0  0  # atno 10764 bound_to 10752
  153.9953  135.3016  155.3387 H   0  0  0  0  0  0  0  0  0  0  0  0  # atno 10765 bound_to 10752
  139.9109  134.9620  156.7501 H   0  0  0  0  0  0  0  0  0  0  0  0  # atno 11005 bound_to 11000
  144.8749  139.4986  143.6750 LP  0  0  0  0  0  0  0  0  0  0  0  0  # atno 17320 bound_to 7965
  146.2985  139.7352  142.9109 LP  0  0  0  0  0  0  0  0  0  0  0  0  # atno 17321 bound_to 7965
  139.6407  144.7654  151.2345 LP  0  0  0  0  0  0  0  0  0  0  0  0  # atno 17342 bound_to 10162
  140.7488  143.6322  150.8412 LP  0  0  0  0  0  0  0  0  0  0  0  0  # atno 17343 bound_to 10162
  156.1015  130.3655  150.0210 LP  0  0  0  0  0  0  0  0  0  0  0  0  # atno 17370 bound_to 10713
  156.8325  130.9397  151.3636 LP  0  0  0  0  0  0  0  0  0  0  0  0  # atno 17371 bound_to 10713
  140.6780  133.9500  155.7894 LP  0  0  0  0  0  0  0  0  0  0  0  0  # atno 17394 bound_to 11000
  141.0530  134.0457  157.3758 LP  0  0  0  0  0  0  0  0  0  0  0  0  # atno 17395 bound_to 11000

$$$$
