AV-unprocessed.smi:905|AV-procd|sdf|4099|dock1
  -GOLD-   22720 1593D 1   1.00000     0.00000
 Structure written by MMmdl.
 37 38  0  0  0  0  0  0  0  0  1 V2000
  144.4773  144.7623  153.7099 N   0  0  0  0  0  0  0  0  0  0  0  0
  145.0592  143.5980  154.2371 C   0  0  0  0  0  0  0  0  0  0  0  0
  144.8169  143.1700  155.4686 N   0  0  0  0  0  0  0  0  0  0  0  0
  145.5861  142.0010  155.5606 O   0  0  0  0  0  0  0  0  0  0  0  0
  146.2163  141.8790  154.3674 C   0  0  0  0  0  0  0  0  0  0  0  0
  147.0880  140.6915  154.1318 C   0  0  0  0  0  0  0  0  0  0  0  0
  148.5451  141.0835  153.8363 C   0  0  0  0  0  0  0  0  0  0  0  0
  149.0879  141.9617  154.8667 N   0  0  0  0  0  0  0  0  0  0  0  0
  150.1830  141.6999  155.5939 C   0  0  0  0  0  0  0  0  0  0  0  0
  150.8590  140.6777  155.4758 O   0  0  0  0  0  0  0  0  0  0  0  0
  150.4503  142.6811  156.4672 N   0  0  0  0  0  0  0  0  0  0  0  0
  151.5702  142.6878  157.4041 C   0  0  0  0  0  0  0  0  0  0  0  0
  151.3950  141.5860  158.4702 C   0  0  0  0  0  0  0  0  0  0  0  0
  152.5284  141.6233  159.5081 C   0  0  0  0  0  0  0  0  0  0  0  0
  152.6441  143.0099  160.1603 C   0  0  0  0  0  0  0  0  0  0  0  0
  152.8224  144.1087  159.1005 C   0  0  0  0  0  0  0  0  0  0  0  0
  151.6860  144.0742  158.0658 C   0  0  0  0  0  0  0  0  0  0  0  0
  145.9101  142.8379  153.4967 N   0  0  0  0  0  0  0  0  0  0  0  0
  144.6848  145.0533  152.7655 H   0  0  0  0  0  0  0  0  0  0  0  0
  143.8372  145.3102  154.2662 H   0  0  0  0  0  0  0  0  0  0  0  0
  147.0429  140.0461  155.0102 H   0  0  0  0  0  0  0  0  0  0  0  0
  146.6699  140.1196  153.3026 H   0  0  0  0  0  0  0  0  0  0  0  0
  149.1690  140.1928  153.7422 H   0  0  0  0  0  0  0  0  0  0  0  0
  148.6023  141.6053  152.8803 H   0  0  0  0  0  0  0  0  0  0  0  0
  148.5983  142.8287  155.0337 H   0  0  0  0  0  0  0  0  0  0  0  0
  149.8352  143.4814  156.4884 H   0  0  0  0  0  0  0  0  0  0  0  0
  152.4937  142.4998  156.8529 H   0  0  0  0  0  0  0  0  0  0  0  0
  150.4370  141.7107  158.9768 H   0  0  0  0  0  0  0  0  0  0  0  0
  151.3680  140.6036  157.9972 H   0  0  0  0  0  0  0  0  0  0  0  0
  152.3561  140.8657  160.2733 H   0  0  0  0  0  0  0  0  0  0  0  0
  153.4724  141.3664  159.0259 H   0  0  0  0  0  0  0  0  0  0  0  0
  151.7490  143.2125  160.7498 H   0  0  0  0  0  0  0  0  0  0  0  0
  153.4829  143.0247  160.8568 H   0  0  0  0  0  0  0  0  0  0  0  0
  152.8580  145.0868  159.5811 H   0  0  0  0  0  0  0  0  0  0  0  0
  153.7801  143.9774  158.5950 H   0  0  0  0  0  0  0  0  0  0  0  0
  151.8592  144.8381  157.3067 H   0  0  0  0  0  0  0  0  0  0  0  0
  150.7454  144.3323  158.5549 H   0  0  0  0  0  0  0  0  0  0  0  0
  1  2  1  0  0  0  0
  1 19  1  0  0  0  0
  1 20  1  0  0  0  0
  2 18  1  0  0  0  0
  2  3  2  0  0  0  0
  3  4  1  0  0  0  0
  4  5  1  0  0  0  0
  5  6  1  0  0  0  0
  5 18  2  0  0  0  0
  6  7  1  0  0  0  0
  6 21  1  0  0  0  0
  6 22  1  0  0  0  0
  7  8  1  0  0  0  0
  7 23  1  0  0  0  0
  7 24  1  0  0  0  0
  8  9  1  0  0  0  0
  8 25  1  0  0  0  0
  9 10  2  0  0  0  0
  9 11  1  0  0  0  0
 11 12  1  0  0  0  0
 11 26  1  0  0  0  0
 12 17  1  0  0  0  0
 12 13  1  0  0  0  0
 12 27  1  0  0  0  0
 13 14  1  0  0  0  0
 13 28  1  0  0  0  0
 13 29  1  0  0  0  0
 14 15  1  0  0  0  0
 14 30  1  0  0  0  0
 14 31  1  0  0  0  0
 15 16  1  0  0  0  0
 15 32  1  0  0  0  0
 15 33  1  0  0  0  0
 16 17  1  0  0  0  0
 16 34  1  0  0  0  0
 16 35  1  0  0  0  0
 17 36  1  0  0  0  0
 17 37  1  0  0  0  0
M  END
> <s_m_source_file>
AV-unprocessed.smi

> <i_m_source_file_index>
905

> <i_lp_mmshare_version>
43012

> <i_f3d_flags>
0

> <s_epik_input>
W05IMl1jMW5vYyhuMSlbQ0gyXVtDSDJdW05IXUMoPU8pW05IXVtDSF0yW0NIMl1bQ0gyXVtDSDJdW0NIMl1bQ0gyXTI=

> <s_epik_cmdline>
J2VwaWtfcHl0aG9uJywgJy1waCcsICc3LjAnLCAnLXRuJywgJzgnLCAnLW1hJywgJzIwMCcsICctbWV0YWxfYmluZGluZycsICctaW1hZScsICc8aW5maWxlLm1hZT4nLCAnLW9tYWUnLCAnPG91dGZpbGUubWFlPic=

> <r_lp_tautomer_probability>
1

> <r_epik_Ionization_Penalty>
0.000203748

> <r_epik_Ionization_Penalty_Charging>
0

> <r_epik_Ionization_Penalty_Neutral>
0.000203748

> <r_epik_State_Penalty>
-0

> <r_epik_Charging_Adjusted_Penalty>
0

> <i_epik_Tot_Q>
0

> <i_epik_Tot_abs_Q>
0

> <r_epik_Metal_State_Penalty>
-0

> <b_epik_Metal_Only>
0

> <s_lp_Force_Field>
OPLS_2005

> <r_lp_Energy>
0.830847

> <b_lp_Chiralities_Consistent>
1

> <s_lp_Variant>
AV-unprocessed.smi:905-1

> <Gold.Version>
5.8.1

> <Gold.Id.Protein>
6NUR|6NUR_protein|mol2

> <Gold.PLP.Fitness>
43.4765

> <Gold.PLP.PLP>
-35.8636

> <Gold.PLP.part.hbond>
-3.0000

> <Gold.PLP.part.metal>
0.0000

> <Gold.PLP.part.buried>
-4.4644

> <Gold.PLP.part.nonpolar>
-28.3276

> <Gold.PLP.part.repulsive>
0.9597

> <Gold.PLP.ligand.clash>
0.0000

> <Gold.PLP.ligand.torsion>
0.0928

> <Gold.PLP.Chemscore.Hbond>
2.5941

> <Gold.PLP.Chemscore.CHOScore>
0.0000

> <Gold.PLP.Chemscore.Metal>
0.0000

> <Gold.Chemscore.Hbonds>
donor molecule, donor type, donor heavy atom, donor atom, acceptor molecule, acceptor atom, score
      L1  H     8    25       P1  8028  0.86
      L1  H    11    26       P1  8028  1.00
      P1  H  7989  7998       L1    10  0.66

> <Gold.PLP.Chemscore.Internal.Correction>
0.0163

> <Gold.Rescore>
     Score         DG    S(hbond)    S(metal)    S(lipo)     H(rot)  DE(clash)    DE(int)     intcor
     15.03     -15.28       1.91        0.00      81.57       2.39       0.11       0.13       ----

> <Gold.Chemscore.Fitness>
15.0330

> <Gold.Chemscore.DG>
-15.2788

> <Gold.Chemscore.ZeroCoef>
-5.4800

> <Gold.Chemscore.Hbond>
1.9055

> <Gold.Chemscore.Metal>
0.0000

> <Gold.Chemscore.Lipo>
81.5694

> <Gold.Chemscore.Internal_Hbond>
0.0000

> <Gold.Chemscore.DEClash>
0.1134

> <Gold.Chemscore.DEInternal>
0.1324

> <Gold.Chemscore.Rot>
2.3865

> <Gold.Chemscore.Internal.Correction>
   9.000000E+99

> <Gold.Chemscore.Hbonds>
donor molecule, donor type, donor heavy atom, donor atom, acceptor molecule, acceptor atom, score
      L1  H     8    25       P1  8028  0.82
      L1  H    11    26       P1  8028  0.95
      P1  H  7989  7998       L1    10  0.22

> <Gold.Chemscore.Hbond.Weighted>
-6.3645

> <Gold.Chemscore.Metal.Weighted>
-0.0000

> <Gold.Chemscore.Lipo.Weighted>
-9.5436

> <Gold.Chemscore.Internal_Hbond.Weighted>
0.0000

> <Gold.Chemscore.DEClash.Weighted>
0.1134

> <Gold.Chemscore.DEInternal.Weighted>
0.1324

> <Gold.Chemscore.Rot.Weighted>
6.1093

> <Gold.Chemscore.Internal.Correction.Weighted>
   9.000000E+99

> <Gold.Protein.RotatedTorsions>
[ 6907 6896 6895 6894 ] final   55.36 input  -60.11 | X-H torsion
[ 7974 7965 7964 7962 ] final   35.52 input  175.53 | X-H torsion
[ 8008 7997 7996 7995 ] final  -50.91 input   59.86 | X-H torsion
[ 10167 10162 10161 10158 ] final    8.65 input  -65.29 | X-H torsion
[ 10718 10713 10712 10709 ] final   -0.26 input   66.30 | X-H torsion
[ 10763 10752 10751 10750 ] final -141.75 input  -60.55 | X-H torsion
[ 11005 11000 10999 10996 ] final  117.61 input  -57.11 | X-H torsion

> <Gold.Protein.ActiveResidues>
 VAL166  LYS551  ARG553  GLY616  TRP617  ASP618  TYR619  PRO620  LYS621  CYS622 
 ASP623  PHE694  ASN695  SER759  ASP760  ASP761  ALA762  ILE779  LEU786  VAL792 
 PHE793  MET794  SER795  GLU796  ALA797  LYS798  CYS799  TRP800  GLU811  SER814 

> <Gold.Protein.RotatedAtoms>
  152.3531  134.6978  160.0230 H   0  0  0  0  0  0  0  0  0  0  0  0  # atno 6907 bound_to 6896
  151.7325  133.3313  159.3352 H   0  0  0  0  0  0  0  0  0  0  0  0  # atno 6908 bound_to 6896
  150.7553  134.6284  159.6218 H   0  0  0  0  0  0  0  0  0  0  0  0  # atno 6909 bound_to 6896
  146.1277  139.6132  142.9247 H   0  0  0  0  0  0  0  0  0  0  0  0  # atno 7974 bound_to 7965
  154.4071  140.1261  156.4743 H   0  0  0  0  0  0  0  0  0  0  0  0  # atno 8008 bound_to 7997
  155.7149  140.3493  155.4970 H   0  0  0  0  0  0  0  0  0  0  0  0  # atno 8009 bound_to 7997
  155.9267  140.1062  157.1154 H   0  0  0  0  0  0  0  0  0  0  0  0  # atno 8010 bound_to 7997
  140.6302  143.8012  150.7285 H   0  0  0  0  0  0  0  0  0  0  0  0  # atno 10167 bound_to 10162
  156.8230  130.5463  149.5695 H   0  0  0  0  0  0  0  0  0  0  0  0  # atno 10718 bound_to 10713
  154.8534  135.3515  154.5917 H   0  0  0  0  0  0  0  0  0  0  0  0  # atno 10763 bound_to 10752
  153.6527  135.6993  153.5208 H   0  0  0  0  0  0  0  0  0  0  0  0  # atno 10764 bound_to 10752
  153.2881  135.4243  155.1099 H   0  0  0  0  0  0  0  0  0  0  0  0  # atno 10765 bound_to 10752
  139.9080  134.9612  156.7377 H   0  0  0  0  0  0  0  0  0  0  0  0  # atno 11005 bound_to 11000
  145.5329  141.0426  143.2373 LP  0  0  0  0  0  0  0  0  0  0  0  0  # atno 17320 bound_to 7965
  144.7659  139.6847  143.7215 LP  0  0  0  0  0  0  0  0  0  0  0  0  # atno 17321 bound_to 7965
  140.1621  143.4266  152.2060 LP  0  0  0  0  0  0  0  0  0  0  0  0  # atno 17342 bound_to 10162
  139.5517  144.7342  151.4416 LP  0  0  0  0  0  0  0  0  0  0  0  0  # atno 17343 bound_to 10162
  156.0978  130.5945  150.9842 LP  0  0  0  0  0  0  0  0  0  0  0  0  # atno 17370 bound_to 10713
  157.6447  131.0905  150.8179 LP  0  0  0  0  0  0  0  0  0  0  0  0  # atno 17371 bound_to 10713
  140.6874  133.9420  155.7946 LP  0  0  0  0  0  0  0  0  0  0  0  0  # atno 17394 bound_to 11000
  141.0466  134.0545  157.3836 LP  0  0  0  0  0  0  0  0  0  0  0  0  # atno 17395 bound_to 11000

$$$$
