AV-unprocessed.smi:817|AV-procd|sdf|3831|dock9
  -GOLD-   22720 1273D 1   1.00000     0.00000
 Structure written by MMmdl.
 48 49  0  0  0  0  0  0  0  0  2 V2000
  144.1757  141.1244  156.8261 C   0  0  0  0  0  0  0  0  0  0  0  0
  144.9736  141.2988  155.5262 C   0  0  1  0  0  0  0  0  0  0  0  0
  145.0751  142.7827  155.1282 C   0  0  0  0  0  0  0  0  0  0  0  0
  145.9248  142.9757  153.8637 C   0  0  0  0  0  0  0  0  0  0  0  0
  147.3088  142.3205  154.0218 C   0  0  0  0  0  0  0  0  0  0  0  0
  147.2219  140.7955  154.3343 C   0  0  2  0  0  0  0  0  0  0  0  0
  148.6530  140.2216  154.5697 C   0  0  0  0  0  0  0  0  0  0  0  0
  149.5942  141.2150  155.0907 N   0  0  0  0  0  0  0  0  0  0  0  0
  149.8697  141.4901  156.3771 C   0  0  0  0  0  0  0  0  0  0  0  0
  149.2972  140.8969  157.2879 O   0  0  0  0  0  0  0  0  0  0  0  0
  150.7870  142.4629  156.5469 N   0  0  0  0  0  0  0  0  0  0  0  0
  151.3064  142.9956  157.7579 C   0  0  0  0  0  0  0  0  0  0  0  0
  151.9556  144.2495  157.8675 C   0  0  0  0  0  0  0  0  0  0  0  0
  152.4122  144.6698  159.1316 C   0  0  0  0  0  0  0  0  0  0  0  0
  152.1962  143.8282  160.2399 C   0  0  0  0  0  0  0  0  0  0  0  0
  151.5667  142.6375  160.1526 N   0  0  0  0  0  0  0  0  0  0  0  0
  151.1325  142.2409  158.9375 C   0  0  0  0  0  0  0  0  0  0  0  0
  146.5410  140.0629  153.2011 N   0  3  0  0  0  0  0  0  0  0  0  0
  147.1298  140.2620  151.8501 C   0  0  0  0  0  0  0  0  0  0  0  0
  146.2635  138.6204  153.4335 C   0  0  0  0  0  0  0  0  0  0  0  0
  146.3837  140.6784  155.6454 C   0  0  0  0  0  0  0  0  0  0  0  0
  144.6670  141.6219  157.6629 H   0  0  0  0  0  0  0  0  0  0  0  0
  144.0679  140.0701  157.0824 H   0  0  0  0  0  0  0  0  0  0  0  0
  143.1735  141.5437  156.7319 H   0  0  0  0  0  0  0  0  0  0  0  0
  144.4260  140.7753  154.7421 H   0  0  0  0  0  0  0  0  0  0  0  0
  144.0791  143.1973  154.9683 H   0  0  0  0  0  0  0  0  0  0  0  0
  145.5167  143.3528  155.9470 H   0  0  0  0  0  0  0  0  0  0  0  0
  145.4050  142.5602  152.9999 H   0  0  0  0  0  0  0  0  0  0  0  0
  146.0422  144.0408  153.6623 H   0  0  0  0  0  0  0  0  0  0  0  0
  147.9259  142.5210  153.1472 H   0  0  0  0  0  0  0  0  0  0  0  0
  147.8189  142.8358  154.8365 H   0  0  0  0  0  0  0  0  0  0  0  0
  148.6194  139.3922  155.2761 H   0  0  0  0  0  0  0  0  0  0  0  0
  149.0666  139.8332  153.6389 H   0  0  0  0  0  0  0  0  0  0  0  0
  150.0855  141.7638  154.3995 H   0  0  0  0  0  0  0  0  0  0  0  0
  151.1131  142.9132  155.7046 H   0  0  0  0  0  0  0  0  0  0  0  0
  152.1009  144.8996  157.0190 H   0  0  0  0  0  0  0  0  0  0  0  0
  152.9130  145.6193  159.2495 H   0  0  0  0  0  0  0  0  0  0  0  0
  152.5333  144.1218  161.2231 H   0  0  0  0  0  0  0  0  0  0  0  0
  150.6317  141.2842  158.9065 H   0  0  0  0  0  0  0  0  0  0  0  0
  148.1307  139.8380  151.7748 H   0  0  0  0  0  0  0  0  0  0  0  0
  147.1710  141.3097  151.5593 H   0  0  0  0  0  0  0  0  0  0  0  0
  146.5141  139.7694  151.0967 H   0  0  0  0  0  0  0  0  0  0  0  0
  147.1792  138.0421  153.5519 H   0  0  0  0  0  0  0  0  0  0  0  0
  145.7231  138.1990  152.5853 H   0  0  0  0  0  0  0  0  0  0  0  0
  145.6286  138.4518  154.3012 H   0  0  0  0  0  0  0  0  0  0  0  0
  146.8987  141.1946  156.4566 H   0  0  0  0  0  0  0  0  0  0  0  0
  146.3197  139.6448  155.9836 H   0  0  0  0  0  0  0  0  0  0  0  0
  145.6270  140.4896  153.1437 H   0  0  0  0  0  0  0  0  0  0  0  0
  1  2  1  0  0  0  0
  1 22  1  0  0  0  0
  1 23  1  0  0  0  0
  1 24  1  0  0  0  0
  2 21  1  0  0  0  0
  2  3  1  0  0  0  0
  2 25  1  0  0  0  0
  3  4  1  0  0  0  0
  3 26  1  0  0  0  0
  3 27  1  0  0  0  0
  4  5  1  0  0  0  0
  4 28  1  0  0  0  0
  4 29  1  0  0  0  0
  5  6  1  0  0  0  0
  5 30  1  0  0  0  0
  5 31  1  0  0  0  0
  6  7  1  0  0  0  0
  6 18  1  0  0  0  0
  6 21  1  0  0  0  0
  7  8  1  0  0  0  0
  7 32  1  0  0  0  0
  7 33  1  0  0  0  0
  8  9  1  0  0  0  0
  8 34  1  0  0  0  0
  9 10  2  0  0  0  0
  9 11  1  0  0  0  0
 11 12  1  0  0  0  0
 11 35  1  0  0  0  0
 12 17  1  0  0  0  0
 12 13  2  0  0  0  0
 13 14  1  0  0  0  0
 13 36  1  0  0  0  0
 14 15  2  0  0  0  0
 14 37  1  0  0  0  0
 15 16  1  0  0  0  0
 15 38  1  0  0  0  0
 16 17  2  0  0  0  0
 17 39  1  0  0  0  0
 18 19  1  0  0  0  0
 18 20  1  0  0  0  0
 18 48  1  0  0  0  0
 19 40  1  0  0  0  0
 19 41  1  0  0  0  0
 19 42  1  0  0  0  0
 20 43  1  0  0  0  0
 20 44  1  0  0  0  0
 20 45  1  0  0  0  0
 21 46  1  0  0  0  0
 21 47  1  0  0  0  0
M  CHG  1  18   1
M  END
> <s_m_source_file>
AV-unprocessed.smi

> <i_m_source_file_index>
817

> <i_lp_mmshare_version>
43012

> <i_f3d_flags>
0

> <s_epik_input>
W0NIM11bQ0BASF0oW0NIMl0xKVtDSDJdW0NIMl1bQ0gyXVtDQF0xKE4oW0NIM10pW0NIM10pW0NIMl1bTkhdQyg9TylbTkhdYzJbY0hdW2NIXVtjSF1uW2NIXTI=

> <s_epik_cmdline>
J2VwaWtfcHl0aG9uJywgJy1waCcsICc3LjAnLCAnLXRuJywgJzgnLCAnLW1hJywgJzIwMCcsICctbWV0YWxfYmluZGluZycsICctaW1hZScsICc8aW5maWxlLm1hZT4nLCAnLW9tYWUnLCAnPG91dGZpbGUubWFlPic=

> <r_lp_tautomer_probability>
1

> <r_epik_Ionization_Penalty>
0.00584939

> <r_epik_Ionization_Penalty_Charging>
0.00160539

> <r_epik_Ionization_Penalty_Neutral>
0.004244

> <r_epik_State_Penalty>
-0

> <r_epik_Charging_Adjusted_Penalty>
0.00160539

> <i_epik_Tot_Q>
1

> <i_epik_Tot_abs_Q>
1

> <r_epik_Metal_State_Penalty>
-0

> <b_epik_Metal_Only>
0

> <s_lp_Force_Field>
OPLS_2005

> <r_lp_Energy>
44.0482

> <b_lp_Chiralities_Consistent>
1

> <s_lp_Variant>
AV-unprocessed.smi:817-4

> <Gold.Version>
5.8.1

> <Gold.Id.Protein>
6NUR|6NUR_protein|mol2

> <Gold.PLP.Fitness>
43.7679

> <Gold.PLP.PLP>
-39.3968

> <Gold.PLP.part.hbond>
-2.3165

> <Gold.PLP.part.metal>
0.0000

> <Gold.PLP.part.buried>
-4.2965

> <Gold.PLP.part.nonpolar>
-33.8041

> <Gold.PLP.part.repulsive>
0.3065

> <Gold.PLP.ligand.clash>
0.0000

> <Gold.PLP.ligand.torsion>
0.8748

> <Gold.PLP.Chemscore.Hbond>
2.0000

> <Gold.PLP.Chemscore.CHOScore>
0.0000

> <Gold.PLP.Chemscore.Metal>
0.0000

> <Gold.Chemscore.Hbonds>
donor molecule, donor type, donor heavy atom, donor atom, acceptor molecule, acceptor atom, score
      L1  H    18    48       P1 10175  1.89

> <Gold.PLP.Chemscore.Internal.Correction>
0.1207

> <Gold.Rescore>
     Score         DG    S(hbond)    S(metal)    S(lipo)     H(rot)  DE(clash)    DE(int)     intcor
     14.14     -17.58       0.95        0.00     107.68       1.44       1.17       2.26       ----

> <Gold.Chemscore.Fitness>
14.1437

> <Gold.Chemscore.DG>
-17.5756

> <Gold.Chemscore.ZeroCoef>
-5.4800

> <Gold.Chemscore.Hbond>
0.9534

> <Gold.Chemscore.Metal>
0.0000

> <Gold.Chemscore.Lipo>
107.6850

> <Gold.Chemscore.Internal_Hbond>
0.0000

> <Gold.Chemscore.DEClash>
1.1695

> <Gold.Chemscore.DEInternal>
2.2624

> <Gold.Chemscore.Rot>
1.4405

> <Gold.Chemscore.Internal.Correction>
   9.000000E+99

> <Gold.Chemscore.Hbonds>
donor molecule, donor type, donor heavy atom, donor atom, acceptor molecule, acceptor atom, score
      L1  H    18    48       P1 10175  0.78

> <Gold.Chemscore.Hbond.Weighted>
-3.1843

> <Gold.Chemscore.Metal.Weighted>
-0.0000

> <Gold.Chemscore.Lipo.Weighted>
-12.5991

> <Gold.Chemscore.Internal_Hbond.Weighted>
0.0000

> <Gold.Chemscore.DEClash.Weighted>
1.1695

> <Gold.Chemscore.DEInternal.Weighted>
2.2624

> <Gold.Chemscore.Rot.Weighted>
3.6878

> <Gold.Chemscore.Internal.Correction.Weighted>
   9.000000E+99

> <Gold.Protein.RotatedTorsions>
[ 6907 6896 6895 6894 ] final   17.59 input  -60.11 | X-H torsion
[ 7974 7965 7964 7962 ] final  -81.98 input  175.53 | X-H torsion
[ 8008 7997 7996 7995 ] final  142.96 input   59.86 | X-H torsion
[ 10167 10162 10161 10158 ] final   48.94 input  -65.29 | X-H torsion
[ 10718 10713 10712 10709 ] final  -37.96 input   66.30 | X-H torsion
[ 10763 10752 10751 10750 ] final   89.24 input  -60.55 | X-H torsion
[ 11005 11000 10999 10996 ] final  100.65 input  -57.11 | X-H torsion

> <Gold.Protein.ActiveResidues>
 VAL166  LYS551  ARG553  GLY616  TRP617  ASP618  TYR619  PRO620  LYS621  CYS622 
 ASP623  PHE694  ASN695  SER759  ASP760  ASP761  ALA762  ILE779  LEU786  VAL792 
 PHE793  MET794  SER795  GLU796  ALA797  LYS798  CYS799  TRP800  GLU811  SER814 

> <Gold.Protein.RotatedAtoms>
  151.8520  135.0554  160.0459 H   0  0  0  0  0  0  0  0  0  0  0  0  # atno 6907 bound_to 6896
  152.2729  133.5395  159.5459 H   0  0  0  0  0  0  0  0  0  0  0  0  # atno 6908 bound_to 6896
  150.7159  134.0588  159.3866 H   0  0  0  0  0  0  0  0  0  0  0  0  # atno 6909 bound_to 6896
  145.5394  140.9511  143.1559 H   0  0  0  0  0  0  0  0  0  0  0  0  # atno 7974 bound_to 7965
  156.2939  140.2275  156.4813 H   0  0  0  0  0  0  0  0  0  0  0  0  # atno 8008 bound_to 7997
  154.7850  140.0458  157.1178 H   0  0  0  0  0  0  0  0  0  0  0  0  # atno 8009 bound_to 7997
  154.9713  140.3067  155.4990 H   0  0  0  0  0  0  0  0  0  0  0  0  # atno 8010 bound_to 7997
  140.2881  144.3078  150.6247 H   0  0  0  0  0  0  0  0  0  0  0  0  # atno 10167 bound_to 10162
  156.3093  130.4250  149.8066 H   0  0  0  0  0  0  0  0  0  0  0  0  # atno 10718 bound_to 10713
  153.1851  135.4477  155.0078 H   0  0  0  0  0  0  0  0  0  0  0  0  # atno 10763 bound_to 10752
  154.8055  135.3272  154.7445 H   0  0  0  0  0  0  0  0  0  0  0  0  # atno 10764 bound_to 10752
  153.7905  135.6970  153.4927 H   0  0  0  0  0  0  0  0  0  0  0  0  # atno 10765 bound_to 10752
  139.8771  134.9149  156.4788 H   0  0  0  0  0  0  0  0  0  0  0  0  # atno 11005 bound_to 11000
  144.7584  139.7016  143.7244 LP  0  0  0  0  0  0  0  0  0  0  0  0  # atno 17320 bound_to 7965
  146.1991  139.5275  142.9755 LP  0  0  0  0  0  0  0  0  0  0  0  0  # atno 17321 bound_to 7965
  140.5756  143.2177  151.7522 LP  0  0  0  0  0  0  0  0  0  0  0  0  # atno 17342 bound_to 10162
  139.4945  144.4155  152.0035 LP  0  0  0  0  0  0  0  0  0  0  0  0  # atno 17343 bound_to 10162
  156.5416  130.8302  151.3271 LP  0  0  0  0  0  0  0  0  0  0  0  0  # atno 17370 bound_to 10713
  157.7387  130.9818  150.2268 LP  0  0  0  0  0  0  0  0  0  0  0  0  # atno 17371 bound_to 10713
  140.8743  133.7965  155.9397 LP  0  0  0  0  0  0  0  0  0  0  0  0  # atno 17394 bound_to 11000
  140.8921  134.2483  157.5089 LP  0  0  0  0  0  0  0  0  0  0  0  0  # atno 17395 bound_to 11000

$$$$
