#       Name:                AV-unprocessed.smi:567
#       Creating user name   scv26
#       Creation time:       Thu Mar 26 23:45:58 2020


#       File generated by GOLD software.
#

@<TRIPOS>MOLECULE
AV-unprocessed.smi:567
    60    61     1
SMALL
NO_CHARGES


@<TRIPOS>ATOM
      1 ****        -2.9360  -1.0452   3.1242 C.3            1 S1                 0.0000
      2 ****        -2.8510  -0.6068   1.7802 O.3            1 S1                 0.0000
      3 ****        -4.1158  -0.2547   1.2405 C.3            1 S1                 0.0000
      4 ****        -3.9380   0.2307  -0.2069 C.3            1 S1                 0.0000
      5 ****        -3.2864   1.5442  -0.2621 N.am           1 S1                 0.0000
      6 ****        -1.9063   1.4809  -0.2058 N.2            1 S1                 0.0000
      7 ****        -1.2007   2.5640  -0.2456 C.2            1 S1                 0.0000
      8 ****         0.2840   2.5235  -0.1666 C.2            1 S1                 0.0000
      9 ****         0.9801   3.5173  -0.3780 O.2            1 S1                 0.0000
     10 ****         0.7949   1.3181   0.1382 N.am           1 S1                 0.0000
     11 ****         2.2067   0.9609   0.1966 C.3            1 S1                 0.0000
     12 ****         2.7888   0.6302  -1.1886 C.3            1 S1                 0.0000
     13 ****         2.3673  -0.7461  -1.7663 C.3            1 S1                 0.0000
     14 ****         0.9496  -0.7224  -2.3817 C.3            1 S1                 0.0000
     15 ****         3.3354  -1.0928  -2.9143 C.3            1 S1                 0.0000
     16 ****         2.5047  -1.8257  -0.7474 N.4            1 S1                 1.0000
     17 ****         2.0328  -1.6003   0.6489 C.3            1 S1                 0.0000
     18 ****         0.5124  -1.8476   0.7841 C.3            1 S1                 0.0000
     19 ****         2.7267  -2.6604   1.5262 C.3            1 S1                 0.0000
     20 ****         2.4576  -0.2020   1.1693 C.3            1 S1                 0.0000
     21 ****        -1.8371   3.8632  -0.3703 C.2            1 S1                 0.0000
     22 ****        -3.1875   3.9119  -0.4023 C.2            1 S1                 0.0000
     23 ****        -4.0103   2.7024  -0.3261 C.2            1 S1                 0.0000
     24 ****        -5.2406   2.7255  -0.3180 O.2            1 S1                 0.0000
     25 ****        -1.9422  -1.3079   3.4867 H              1 S1                 0.0000
     26 ****        -3.5712  -1.9276   3.2125 H              1 S1                 0.0000
     27 ****        -3.3336  -0.2607   3.7692 H              1 S1                 0.0000
     28 ****        -4.7675  -1.1295   1.2526 H              1 S1                 0.0000
     29 ****        -4.5948   0.5161   1.8464 H              1 S1                 0.0000
     30 ****        -3.3546  -0.4982  -0.7723 H              1 S1                 0.0000
     31 ****        -4.9099   0.2616  -0.7018 H              1 S1                 0.0000
     32 ****         0.1356   0.5728   0.3118 H              1 S1                 0.0000
     33 ****         2.7414   1.8279   0.5889 H              1 S1                 0.0000
     34 ****         2.5562   1.4265  -1.8976 H              1 S1                 0.0000
     35 ****         3.8752   0.6462  -1.0867 H              1 S1                 0.0000
     36 ****         0.9043  -0.0291  -3.2224 H              1 S1                 0.0000
     37 ****         0.1733  -0.4080  -1.6926 H              1 S1                 0.0000
     38 ****         0.6666  -1.7055  -2.7593 H              1 S1                 0.0000
     39 ****         3.3112  -0.3348  -3.6985 H              1 S1                 0.0000
     40 ****         3.0837  -2.0486  -3.3759 H              1 S1                 0.0000
     41 ****         4.3657  -1.1642  -2.5632 H              1 S1                 0.0000
     42 ****         2.0842  -2.6717  -1.1046 H              1 S1                 0.0000
     43 ****         0.2084  -1.8304   1.8314 H              1 S1                 0.0000
     44 ****         0.2349  -2.8241   0.3858 H              1 S1                 0.0000
     45 ****        -0.1041  -1.1097   0.2821 H              1 S1                 0.0000
     46 ****         2.4529  -2.5505   2.5765 H              1 S1                 0.0000
     47 ****         3.8132  -2.5850   1.4637 H              1 S1                 0.0000
     48 ****         2.4548  -3.6721   1.2219 H              1 S1                 0.0000
     49 ****         3.5298  -0.2178   1.3727 H              1 S1                 0.0000
     50 ****         1.9865   0.0044   2.1316 H              1 S1                 0.0000
     51 ****        -1.2529   4.7701  -0.4283 H              1 S1                 0.0000
     52 ****        -3.6771   4.8708  -0.4902 H              1 S1                 0.0000
     53 ****         3.4982  -1.9897  -0.6681 H              1 S1                 0.0000
     54 ****        -2.4603  -1.3427   1.2272 LP             1 S1                 0.0000
     55 ****        -2.2522   0.1931   1.7414 LP             1 S1                 0.0000
     56 ****        -1.4515   0.5932  -0.1340 LP             1 S1                 0.0000
     57 ****         0.5493   4.3889  -0.6119 LP             1 S1                 0.0000
     58 ****         1.9761   3.4526  -0.3158 LP             1 S1                 0.0000
     59 ****        -5.7564   1.8706  -0.2627 LP             1 S1                 0.0000
     60 ****        -5.7246   3.5992  -0.3668 LP             1 S1                 0.0000
@<TRIPOS>BOND
    1    1    2 1     
    2    1   25 1     
    3    1   26 1     
    4    1   27 1     
    5    2    3 1     
    6    3    4 1     
    7    3   28 1     
    8    3   29 1     
    9    4    5 1     
   10    4   30 1     
   11    4   31 1     
   12    5   23 am    
   13    5    6 1     
   14    6    7 2     
   15    7    8 1     
   16    7   21 1     
   17    8    9 2     
   18    8   10 am    
   19   10   11 1     
   20   10   32 1     
   21   11   20 1     
   22   11   12 1     
   23   11   33 1     
   24   12   13 1     
   25   12   34 1     
   26   12   35 1     
   27   13   14 1     
   28   13   15 1     
   29   13   16 1     
   30   14   36 1     
   31   14   37 1     
   32   14   38 1     
   33   15   39 1     
   34   15   40 1     
   35   15   41 1     
   36   16   17 1     
   37   16   42 1     
   38   16   53 1     
   39   17   18 1     
   40   17   19 1     
   41   17   20 1     
   42   18   43 1     
   43   18   44 1     
   44   18   45 1     
   45   19   46 1     
   46   19   47 1     
   47   19   48 1     
   48   20   49 1     
   49   20   50 1     
   50   21   22 2     
   51   21   51 1     
   52   22   23 1     
   53   22   52 1     
   54   23   24 2     
   55    2   54 1     
   56    2   55 1     
   57    6   56 1     
   58    9   57 1     
   59    9   58 1     
   60   24   59 1     
   61   24   60 1     
@<TRIPOS>SUBSTRUCTURE
      1 S1             1
@<TRIPOS>SET
LONE_PAIRS      STATIC     ATOMS    <user>   **** ""
7 54 55 56 57 58 59 60
DONOR_HYDROGENS      STATIC     ATOMS    <user>   **** ""
3 32 42 53
ATOM$BLUE        STATIC     ATOMS    COLORGROUP SYSTEM
7 54 55 56 57 58 59 60
ATOM$RED        STATIC     ATOMS    COLORGROUP SYSTEM
3 32 42 53
