AV-unprocessed.smi:34|AV-procd|sdf|233|dock3
  -GOLD-   2262015563D 1   1.00000     0.00000
 Structure written by MMmdl.
 54 58  0  0  0  0  0  0  0  0  2 V2000
  153.0032  140.0066  157.8002 O   0  0  0  0  0  0  0  0  0  0  0  0
  152.1189  140.8426  157.6032 C   0  0  0  0  0  0  0  0  0  0  0  0
  151.1270  140.8042  156.6776 N   0  5  0  0  0  0  0  0  0  0  0  0
  150.9898  139.7305  155.8848 C   0  0  0  0  0  0  0  0  0  0  0  0
  150.7707  139.8846  154.5542 N   0  0  0  0  0  0  0  0  0  0  0  0
  150.6195  138.8141  153.7663 C   0  0  0  0  0  0  0  0  0  0  0  0
  150.6422  137.5199  154.0970 N   0  0  0  0  0  0  0  0  0  0  0  0
  150.8569  137.3480  155.4329 C   0  0  0  0  0  0  0  0  0  0  0  0
  151.0357  138.3982  156.3807 C   0  0  0  0  0  0  0  0  0  0  0  0
  151.2283  137.8848  157.6543 N   0  0  0  0  0  0  0  0  0  0  0  0
  151.1626  136.5751  157.4280 C   0  0  0  0  0  0  0  0  0  0  0  0
  150.9438  136.1707  156.1612 N   0  0  0  0  0  0  0  0  0  0  0  0
  150.8185  134.7578  155.6877 C   0  0  2  0  0  0  0  0  0  0  0  0
  149.5642  134.5858  155.0952 O   0  0  0  0  0  0  0  0  0  0  0  0
  148.9657  133.3551  155.5178 C   0  0  2  0  0  0  0  0  0  0  0  0
  147.7415  133.6432  156.3980 C   0  0  0  0  0  0  0  0  0  0  0  0
  148.1668  134.0004  157.7031 O   0  0  0  0  0  0  0  0  0  0  0  0
  147.7073  133.3175  158.7703 C   0  0  0  0  0  0  0  0  0  0  0  0
  147.2701  132.1665  158.7076 O   0  0  0  0  0  0  0  0  0  0  0  0
  147.7837  134.0991  160.0377 C   0  0  0  0  0  0  0  0  0  0  0  0
  147.4172  133.4800  161.2555 C   0  0  0  0  0  0  0  0  0  0  0  0
  147.4802  134.1913  162.4695 C   0  0  0  0  0  0  0  0  0  0  0  0
  147.9111  135.5306  162.4804 C   0  0  0  0  0  0  0  0  0  0  0  0
  148.2794  136.1576  161.2758 C   0  0  0  0  0  0  0  0  0  0  0  0
  148.2175  135.4478  160.0606 C   0  0  0  0  0  0  0  0  0  0  0  0
  150.0686  132.6294  156.2920 C   0  0  1  0  0  0  0  0  0  0  0  0
  150.7837  131.9202  155.4138 F   0  0  0  0  0  0  0  0  0  0  0  0
  150.8861  133.7797  156.8565 C   0  0  1  0  0  0  0  0  0  0  0  0
  152.1964  133.3523  157.1699 O   0  0  0  0  0  0  0  0  0  0  0  0
  152.1246  142.1101  158.4157 C   0  0  0  0  0  0  0  0  0  0  0  0
  151.6298  143.3072  157.8495 C   0  0  0  0  0  0  0  0  0  0  0  0
  151.6500  144.5092  158.5839 C   0  0  0  0  0  0  0  0  0  0  0  0
  152.1734  144.5288  159.8902 C   0  0  0  0  0  0  0  0  0  0  0  0
  152.6811  143.3463  160.4599 C   0  0  0  0  0  0  0  0  0  0  0  0
  152.6621  142.1442  159.7259 C   0  0  0  0  0  0  0  0  0  0  0  0
  150.4536  139.0240  152.7201 H   0  0  0  0  0  0  0  0  0  0  0  0
  151.2739  135.8653  158.2345 H   0  0  0  0  0  0  0  0  0  0  0  0
  151.6069  134.6182  154.9460 H   0  0  0  0  0  0  0  0  0  0  0  0
  148.6559  132.7735  154.6484 H   0  0  0  0  0  0  0  0  0  0  0  0
  147.1689  134.4713  155.9789 H   0  0  0  0  0  0  0  0  0  0  0  0
  147.0788  132.7785  156.4248 H   0  0  0  0  0  0  0  0  0  0  0  0
  147.0841  132.4522  161.2724 H   0  0  0  0  0  0  0  0  0  0  0  0
  147.1986  133.7073  163.3932 H   0  0  0  0  0  0  0  0  0  0  0  0
  147.9603  136.0754  163.4116 H   0  0  0  0  0  0  0  0  0  0  0  0
  148.6111  137.1855  161.2830 H   0  0  0  0  0  0  0  0  0  0  0  0
  148.5097  135.9580  159.1544 H   0  0  0  0  0  0  0  0  0  0  0  0
  149.6980  131.9392  157.0506 H   0  0  0  0  0  0  0  0  0  0  0  0
  150.3946  134.2083  157.7315 H   0  0  0  0  0  0  0  0  0  0  0  0
  152.7059  133.3405  156.3738 H   0  0  0  0  0  0  0  0  0  0  0  0
  151.2260  143.3097  156.8474 H   0  0  0  0  0  0  0  0  0  0  0  0
  151.2645  145.4165  158.1431 H   0  0  0  0  0  0  0  0  0  0  0  0
  152.1895  145.4503  160.4528 H   0  0  0  0  0  0  0  0  0  0  0  0
  153.0890  143.3605  161.4597 H   0  0  0  0  0  0  0  0  0  0  0  0
  153.0674  141.2503  160.1778 H   0  0  0  0  0  0  0  0  0  0  0  0
  1  2  2  0  0  0  0
  2  3  1  0  0  0  0
  2 30  1  0  0  0  0
  3  4  1  0  0  0  0
  4  9  1  0  0  0  0
  4  5  2  0  0  0  0
  5  6  1  0  0  0  0
  6  7  2  0  0  0  0
  6 36  1  0  0  0  0
  7  8  1  0  0  0  0
  8 12  1  0  0  0  0
  8  9  2  0  0  0  0
  9 10  1  0  0  0  0
 10 11  2  0  0  0  0
 11 12  1  0  0  0  0
 11 37  1  0  0  0  0
 12 13  1  0  0  0  0
 13 28  1  0  0  0  0
 13 14  1  0  0  0  0
 13 38  1  0  0  0  0
 14 15  1  0  0  0  0
 15 16  1  0  0  0  0
 15 26  1  0  0  0  0
 15 39  1  0  0  0  0
 16 17  1  0  0  0  0
 16 40  1  0  0  0  0
 16 41  1  0  0  0  0
 17 18  1  0  0  0  0
 18 19  2  0  0  0  0
 18 20  1  0  0  0  0
 20 25  1  0  0  0  0
 20 21  2  0  0  0  0
 21 22  1  0  0  0  0
 21 42  1  0  0  0  0
 22 23  2  0  0  0  0
 22 43  1  0  0  0  0
 23 24  1  0  0  0  0
 23 44  1  0  0  0  0
 24 25  2  0  0  0  0
 24 45  1  0  0  0  0
 25 46  1  0  0  0  0
 26 27  1  0  0  0  0
 26 28  1  0  0  0  0
 26 47  1  0  0  0  0
 28 29  1  0  0  0  0
 28 48  1  0  0  0  0
 29 49  1  0  0  0  0
 30 35  1  0  0  0  0
 30 31  2  0  0  0  0
 31 32  1  0  0  0  0
 31 50  1  0  0  0  0
 32 33  2  0  0  0  0
 32 51  1  0  0  0  0
 33 34  1  0  0  0  0
 33 52  1  0  0  0  0
 34 35  2  0  0  0  0
 34 53  1  0  0  0  0
 35 54  1  0  0  0  0
M  CHG  1   3  -1
M  END
> <s_m_source_file>
AV-unprocessed.smi

> <i_m_source_file_index>
34

> <i_lp_mmshare_version>
43012

> <i_f3d_flags>
0

> <s_epik_input>
W2NIXTFbY0hdW2NIXVtjSF1bY0hdYzFDKD1PKVtOSF1jKG5bY0hdbjIpYyhjMjMpbltjSF1uM1tDQEBIXTRPW0NASF0oW0NAQEhdKEYpW0NASF00W09IXSlbQ0gyXU9DKD1PKWM1W2NIXVtjSF1bY0hdW2NIXVtjSF01

> <s_epik_cmdline>
J2VwaWtfcHl0aG9uJywgJy1waCcsICc3LjAnLCAnLXRuJywgJzgnLCAnLW1hJywgJzIwMCcsICctbWV0YWxfYmluZGluZycsICctaW1hZScsICc8aW5maWxlLm1hZT4nLCAnLW9tYWUnLCAnPG91dGZpbGUubWFlPic=

> <r_lp_tautomer_probability>
1

> <r_epik_Ionization_Penalty>
4.33227

> <r_epik_Ionization_Penalty_Charging>
3.41027

> <r_epik_Ionization_Penalty_Neutral>
0.922001

> <r_epik_State_Penalty>
3.41358

> <r_epik_Charging_Adjusted_Penalty>
6.82385

> <i_epik_Tot_Q>
-1

> <i_epik_Tot_abs_Q>
1

> <r_epik_Metal_State_Penalty>
0.496292

> <b_epik_Metal_Only>
1

> <s_epik_Chemistry_Notes>
This compound has an ester and may undergo hydrolysis at high or low pH. This compound contains an acetal/aminal-like group ( X-CH(R)-Y where X, Y are N, S, or O) that may be acid/base labile, releasing an aldehyde.

> <s_lp_Force_Field>
OPLS_2005

> <r_lp_Energy>
46.7296

> <b_lp_Chiralities_Consistent>
1

> <s_lp_Variant>
AV-unprocessed.smi:34-19

> <Gold.Version>
5.8.1

> <Gold.Id.Protein>
6NUR|6NUR_protein|mol2

> <Gold.PLP.Fitness>
62.6996

> <Gold.PLP.PLP>
-54.9862

> <Gold.PLP.part.hbond>
-3.0000

> <Gold.PLP.part.metal>
0.0000

> <Gold.PLP.part.buried>
-5.6403

> <Gold.PLP.part.nonpolar>
-47.4344

> <Gold.PLP.part.repulsive>
1.1511

> <Gold.PLP.ligand.clash>
0.0000

> <Gold.PLP.ligand.torsion>
1.6377

> <Gold.PLP.Chemscore.Hbond>
2.5776

> <Gold.PLP.Chemscore.CHOScore>
1.0000

> <Gold.PLP.Chemscore.Metal>
0.0000

> <Gold.Chemscore.Hbonds>
donor molecule, donor type, donor heavy atom, donor atom, acceptor molecule, acceptor atom, score
      P1  H  6896  6907       L1    29  0.24
      P1  H  7989  7998       L1     5  0.95
      P1  H  7997  8008       L1     1  1.00
      L1  C     6    36       P1  7957  0.98

> <Gold.PLP.Chemscore.Internal.Correction>
0.2562

> <Gold.Rescore>
     Score         DG    S(hbond)    S(metal)    S(lipo)     H(rot)  DE(clash)    DE(int)     intcor
     13.31     -20.07       1.89        0.00     129.67       2.69       1.21       5.55       ----

> <Gold.Chemscore.Fitness>
13.3072

> <Gold.Chemscore.DG>
-20.0686

> <Gold.Chemscore.ZeroCoef>
-5.4800

> <Gold.Chemscore.Hbond>
1.8907

> <Gold.Chemscore.Metal>
0.0000

> <Gold.Chemscore.Lipo>
129.6696

> <Gold.Chemscore.Internal_Hbond>
0.0000

> <Gold.Chemscore.DEClash>
1.2079

> <Gold.Chemscore.DEInternal>
5.5534

> <Gold.Chemscore.Rot>
2.6944

> <Gold.Chemscore.Internal.Correction>
   9.000000E+99

> <Gold.Chemscore.Hbonds>
donor molecule, donor type, donor heavy atom, donor atom, acceptor molecule, acceptor atom, score
      P1  H  6896  6907       L1    29  0.01
      P1  H  7989  7998       L1     5  0.22
      P1  H  7997  8008       L1     1  0.93

> <Gold.Chemscore.Hbond.Weighted>
-6.3148

> <Gold.Chemscore.Metal.Weighted>
-0.0000

> <Gold.Chemscore.Lipo.Weighted>
-15.1713

> <Gold.Chemscore.Internal_Hbond.Weighted>
0.0000

> <Gold.Chemscore.DEClash.Weighted>
1.2079

> <Gold.Chemscore.DEInternal.Weighted>
5.5534

> <Gold.Chemscore.Rot.Weighted>
6.8975

> <Gold.Chemscore.Internal.Correction.Weighted>
   9.000000E+99

> <Gold.Protein.RotatedTorsions>
[ 6907 6896 6895 6894 ] final  175.89 input  -60.11 | X-H torsion
[ 7974 7965 7964 7962 ] final   34.72 input  175.53 | X-H torsion
[ 8008 7997 7996 7995 ] final  -69.38 input   59.86 | X-H torsion
[ 10167 10162 10161 10158 ] final -145.32 input  -65.29 | X-H torsion
[ 10718 10713 10712 10709 ] final  123.29 input   66.30 | X-H torsion
[ 10763 10752 10751 10750 ] final -163.13 input  -60.55 | X-H torsion
[ 11005 11000 10999 10996 ] final  -46.69 input  -57.11 | X-H torsion

> <Gold.Protein.ActiveResidues>
 VAL166  LYS551  ARG553  GLY616  TRP617  ASP618  TYR619  PRO620  LYS621  CYS622 
 ASP623  PHE694  ASN695  SER759  ASP760  ASP761  ALA762  ILE779  LEU786  VAL792 
 PHE793  MET794  SER795  GLU796  ALA797  LYS798  CYS799  TRP800  GLU811  SER814 

> <Gold.Protein.RotatedAtoms>
  151.7290  133.3317  159.3334 H   0  0  0  0  0  0  0  0  0  0  0  0  # atno 6907 bound_to 6896
  150.7621  134.6380  159.6231 H   0  0  0  0  0  0  0  0  0  0  0  0  # atno 6908 bound_to 6896
  152.3604  134.6883  160.0260 H   0  0  0  0  0  0  0  0  0  0  0  0  # atno 6909 bound_to 6896
  146.1333  139.6234  142.9212 H   0  0  0  0  0  0  0  0  0  0  0  0  # atno 7974 bound_to 7965
  154.4934  140.0854  156.7644 H   0  0  0  0  0  0  0  0  0  0  0  0  # atno 8008 bound_to 7997
  155.4175  140.3444  155.4250 H   0  0  0  0  0  0  0  0  0  0  0  0  # atno 8009 bound_to 7997
  156.1361  140.1515  156.8980 H   0  0  0  0  0  0  0  0  0  0  0  0  # atno 8010 bound_to 7997
  139.7816  143.8093  152.2639 H   0  0  0  0  0  0  0  0  0  0  0  0  # atno 10167 bound_to 10162
  157.5676  131.1085  150.8426 H   0  0  0  0  0  0  0  0  0  0  0  0  # atno 10718 bound_to 10713
  154.7151  135.3014  154.9136 H   0  0  0  0  0  0  0  0  0  0  0  0  # atno 10763 bound_to 10752
  154.0026  135.6705  153.4764 H   0  0  0  0  0  0  0  0  0  0  0  0  # atno 10764 bound_to 10752
  153.0787  135.5021  154.8372 H   0  0  0  0  0  0  0  0  0  0  0  0  # atno 10765 bound_to 10752
  141.0594  133.6714  156.3190 H   0  0  0  0  0  0  0  0  0  0  0  0  # atno 11005 bound_to 11000
  145.5211  141.0432  143.2435 LP  0  0  0  0  0  0  0  0  0  0  0  0  # atno 17320 bound_to 7965
  144.7713  139.6728  143.7193 LP  0  0  0  0  0  0  0  0  0  0  0  0  # atno 17321 bound_to 7965
  139.8157  144.7317  150.9638 LP  0  0  0  0  0  0  0  0  0  0  0  0  # atno 17342 bound_to 10162
  140.7818  143.4207  151.0846 LP  0  0  0  0  0  0  0  0  0  0  0  0  # atno 17343 bound_to 10162
  156.8906  130.5211  149.5286 LP  0  0  0  0  0  0  0  0  0  0  0  0  # atno 17370 bound_to 10713
  156.0723  130.5753  150.9407 LP  0  0  0  0  0  0  0  0  0  0  0  0  # atno 17371 bound_to 10713
  140.5898  134.5662  157.5497 LP  0  0  0  0  0  0  0  0  0  0  0  0  # atno 17394 bound_to 11000
  139.9419  134.7771  156.0657 LP  0  0  0  0  0  0  0  0  0  0  0  0  # atno 17395 bound_to 11000

$$$$
