#       Name:                AV-unprocessed.smi:2930
#       Creating user name   scv26
#       Creation time:       Fri Mar 27 16:13:38 2020


#       File generated by GOLD software.
#

@<TRIPOS>MOLECULE
AV-unprocessed.smi:2930
    44    45     1
SMALL
NO_CHARGES


@<TRIPOS>ATOM
      1 ****        -4.3089   0.4087   1.7135 C.3            1 S1                 0.0000
      2 ****        -3.2974   0.7754   0.6188 C.3            1 S1                 0.0000
      3 ****        -2.1244  -0.0869   0.7408 N.am           1 S1                 0.0000
      4 ****        -0.8516   0.2901   0.5514 C.2            1 S1                 0.0000
      5 ****        -0.5169   1.4349   0.2488 O.2            1 S1                 0.0000
      6 ****        -0.0113  -0.7458   0.7135 N.am           1 S1                 0.0000
      7 ****         1.4054  -0.7552   0.6099 C.ar           1 S1                 0.0000
      8 ****         2.2375   0.3862   0.6995 C.ar           1 S1                 0.0000
      9 ****         3.5815   0.2918   0.6094 N.ar           1 S1                 0.0000
     10 ****         4.1120  -0.9256   0.4340 C.ar           1 S1                 0.0000
     11 ****         5.5038  -1.0135   0.3367 N.pl3          1 S1                 0.0000
     12 ****         6.1684  -2.2983   0.1378 C.3            1 S1                 0.0000
     13 ****         6.3447   0.1764   0.4314 C.3            1 S1                 0.0000
     14 ****         3.4143  -2.0661   0.3478 N.ar           1 S1                 0.0000
     15 ****         2.0702  -1.9856   0.4389 C.ar           1 S1                 0.0000
     16 ****        -3.8965   0.6485  -0.7833 C.3            1 S1                 0.0000
     17 ****        -3.1386   1.1978  -2.0026 C.3            1 S1                 0.0000
     18 ****        -4.4909   1.5608  -2.6217 C.3            1 S1                 0.0000
     19 ****        -5.0677   1.5502  -1.2034 C.3            1 S1                 0.0000
     20 ****        -5.1825   1.0598   1.6756 H              1 S1                 0.0000
     21 ****        -3.8681   0.5107   2.7057 H              1 S1                 0.0000
     22 ****        -4.6561  -0.6196   1.6064 H              1 S1                 0.0000
     23 ****        -3.0022   1.8122   0.7902 H              1 S1                 0.0000
     24 ****        -2.2990  -1.0516   0.9810 H              1 S1                 0.0000
     25 ****        -0.4396  -1.6438   0.8852 H              1 S1                 0.0000
     26 ****         1.8518   1.3802   0.8632 H              1 S1                 0.0000
     27 ****         5.8320  -2.7602  -0.7911 H              1 S1                 0.0000
     28 ****         5.9410  -2.9758   0.9613 H              1 S1                 0.0000
     29 ****         7.2520  -2.1932   0.0836 H              1 S1                 0.0000
     30 ****         6.2053   0.6641   1.3968 H              1 S1                 0.0000
     31 ****         6.0873   0.8877  -0.3540 H              1 S1                 0.0000
     32 ****         7.4032  -0.0625   0.3291 H              1 S1                 0.0000
     33 ****         1.5224  -2.9140   0.3709 H              1 S1                 0.0000
     34 ****        -4.1744  -0.3878  -0.9892 H              1 S1                 0.0000
     35 ****        -2.5351   2.0762  -1.7674 H              1 S1                 0.0000
     36 ****        -2.5650   0.4533  -2.5553 H              1 S1                 0.0000
     37 ****        -4.5207   2.5301  -3.1203 H              1 S1                 0.0000
     38 ****        -4.8966   0.7666  -3.2504 H              1 S1                 0.0000
     39 ****        -6.0526   1.0910  -1.1132 H              1 S1                 0.0000
     40 ****        -5.0371   2.5332  -0.7303 H              1 S1                 0.0000
     41 ****        -1.2117   2.1443   0.1310 LP             1 S1                 0.0000
     42 ****         0.4500   1.6558   0.1208 LP             1 S1                 0.0000
     43 ****         4.1616   1.1039   0.6716 LP             1 S1                 0.0000
     44 ****         3.8730  -2.9455   0.2205 LP             1 S1                 0.0000
@<TRIPOS>BOND
    1    1    2 1     
    2    1   20 1     
    3    1   21 1     
    4    1   22 1     
    5    2    3 1     
    6    2   16 1     
    7    2   23 1     
    8    3    4 am    
    9    3   24 1     
   10    4    5 2     
   11    4    6 am    
   12    6    7 1     
   13    6   25 1     
   14    7   15 ar    
   15    7    8 ar    
   16    8    9 ar    
   17    8   26 1     
   18    9   10 ar    
   19   10   11 1     
   20   10   14 ar    
   21   11   12 1     
   22   11   13 1     
   23   12   27 1     
   24   12   28 1     
   25   12   29 1     
   26   13   30 1     
   27   13   31 1     
   28   13   32 1     
   29   14   15 ar    
   30   15   33 1     
   31   16   19 1     
   32   16   17 1     
   33   16   34 1     
   34   17   18 1     
   35   17   35 1     
   36   17   36 1     
   37   18   19 1     
   38   18   37 1     
   39   18   38 1     
   40   19   39 1     
   41   19   40 1     
   42    5   41 1     
   43    5   42 1     
   44    9   43 1     
   45   14   44 1     
@<TRIPOS>SUBSTRUCTURE
      1 S1             1
@<TRIPOS>SET
LONE_PAIRS      STATIC     ATOMS    <user>   **** ""
4 41 42 43 44
DONOR_HYDROGENS      STATIC     ATOMS    <user>   **** ""
2 24 25
ATOM$BLUE        STATIC     ATOMS    COLORGROUP SYSTEM
4 41 42 43 44
ATOM$RED        STATIC     ATOMS    COLORGROUP SYSTEM
2 24 25
