AV-unprocessed.smi:334|AV-procd|sdf|2365|dock1
  -GOLD-   2262022283D 1   1.00000     0.00000
 Structure written by MMmdl.
 44 46  0  0  0  0  0  0  0  0  3 V2000
  151.7268  139.8186  158.1650 C   0  0  0  0  0  0  0  0  0  0  0  0
  151.6044  141.2907  157.7365 C   0  0  1  0  0  0  0  0  0  0  0  0
  150.5850  141.4295  156.7030 N   0  0  0  0  0  0  0  0  0  0  0  0
  150.6848  141.0161  155.4284 C   0  0  0  0  0  0  0  0  0  0  0  0
  151.6347  140.3539  155.0127 O   0  0  0  0  0  0  0  0  0  0  0  0
  149.5748  141.4349  154.4486 C   0  0  0  0  0  0  0  0  0  0  0  0
  148.2091  141.1469  154.9244 N   0  0  0  0  0  0  0  0  0  0  0  0
  147.3165  142.2364  154.9684 C   0  0  0  0  0  0  0  0  0  0  0  0
  146.0586  142.1142  155.4340 C   0  0  0  0  0  0  0  0  0  0  0  0
  145.1739  143.2549  155.5152 N   0  3  0  0  0  0  0  0  0  0  0  0
  145.4585  144.2661  154.8819 O   0  0  0  0  0  0  0  0  0  0  0  0
  144.1640  143.1761  156.2084 O   0  5  0  0  0  0  0  0  0  0  0  0
  145.6296  140.8027  155.8788 C   0  0  0  0  0  0  0  0  0  0  0  0
  146.4797  139.7574  155.8436 C   0  0  0  0  0  0  0  0  0  0  0  0
  147.8573  139.8989  155.3608 C   0  0  0  0  0  0  0  0  0  0  0  0
  148.6474  138.9555  155.3591 O   0  0  0  0  0  0  0  0  0  0  0  0
  151.2514  142.2142  158.9269 C   0  0  1  0  0  0  0  0  0  0  0  0
  152.4311  142.5234  159.8753 C   0  0  0  0  0  0  0  0  0  0  0  0
  152.3871  144.0589  159.9926 C   0  0  1  0  0  0  0  0  0  0  0  0
  152.8944  144.6812  158.6779 C   0  0  0  0  0  0  0  0  0  0  0  0
  151.7330  144.4103  157.7044 C   0  0  0  0  0  0  0  0  0  0  0  0
  150.7299  143.6333  158.5805 C   0  0  2  0  0  0  0  0  0  0  0  0
  150.8917  144.3454  159.9191 C   0  0  0  0  0  0  0  0  0  0  0  0
  152.4921  139.6925  158.9311 H   0  0  0  0  0  0  0  0  0  0  0  0
  152.0027  139.1833  157.3230 H   0  0  0  0  0  0  0  0  0  0  0  0
  150.7866  139.4431  158.5702 H   0  0  0  0  0  0  0  0  0  0  0  0
  152.5642  141.6052  157.3234 H   0  0  0  0  0  0  0  0  0  0  0  0
  149.7624  141.9563  156.9575 H   0  0  0  0  0  0  0  0  0  0  0  0
  149.6703  142.5060  154.2646 H   0  0  0  0  0  0  0  0  0  0  0  0
  149.7712  140.9657  153.4835 H   0  0  0  0  0  0  0  0  0  0  0  0
  147.7383  143.1712  154.6269 H   0  0  0  0  0  0  0  0  0  0  0  0
  144.6243  140.6493  156.2427 H   0  0  0  0  0  0  0  0  0  0  0  0
  146.1395  138.7892  156.1806 H   0  0  0  0  0  0  0  0  0  0  0  0
  150.4690  141.7215  159.5076 H   0  0  0  0  0  0  0  0  0  0  0  0
  152.2735  142.0517  160.8461 H   0  0  0  0  0  0  0  0  0  0  0  0
  153.3915  142.1760  159.4922 H   0  0  0  0  0  0  0  0  0  0  0  0
  152.8890  144.4441  160.8805 H   0  0  0  0  0  0  0  0  0  0  0  0
  153.0572  145.7539  158.7903 H   0  0  0  0  0  0  0  0  0  0  0  0
  153.8308  144.2334  158.3427 H   0  0  0  0  0  0  0  0  0  0  0  0
  151.2938  145.3504  157.3683 H   0  0  0  0  0  0  0  0  0  0  0  0
  152.0452  143.8640  156.8150 H   0  0  0  0  0  0  0  0  0  0  0  0
  149.7123  143.6429  158.1895 H   0  0  0  0  0  0  0  0  0  0  0  0
  150.3216  143.8862  160.7288 H   0  0  0  0  0  0  0  0  0  0  0  0
  150.6566  145.4105  159.8754 H   0  0  0  0  0  0  0  0  0  0  0  0
  1  2  1  0  0  0  0
  1 24  1  0  0  0  0
  1 25  1  0  0  0  0
  1 26  1  0  0  0  0
  2  3  1  0  0  0  0
  2 17  1  0  0  0  0
  2 27  1  0  0  0  0
  3  4  1  0  0  0  0
  3 28  1  0  0  0  0
  4  5  2  0  0  0  0
  4  6  1  0  0  0  0
  6  7  1  0  0  0  0
  6 29  1  0  0  0  0
  6 30  1  0  0  0  0
  7 15  1  0  0  0  0
  7  8  1  0  0  0  0
  8  9  2  0  0  0  0
  8 31  1  0  0  0  0
  9 10  1  0  0  0  0
  9 13  1  0  0  0  0
 10 11  2  0  0  0  0
 10 12  1  0  0  0  0
 13 14  2  0  0  0  0
 13 32  1  0  0  0  0
 14 15  1  0  0  0  0
 14 33  1  0  0  0  0
 15 16  2  0  0  0  0
 17 22  1  0  0  0  0
 17 18  1  0  0  0  0
 17 34  1  0  0  0  0
 18 19  1  0  0  0  0
 18 35  1  0  0  0  0
 18 36  1  0  0  0  0
 19 23  1  0  0  0  0
 19 20  1  0  0  0  0
 19 37  1  0  0  0  0
 20 21  1  0  0  0  0
 20 38  1  0  0  0  0
 20 39  1  0  0  0  0
 21 22  1  0  0  0  0
 21 40  1  0  0  0  0
 21 41  1  0  0  0  0
 22 23  1  0  0  0  0
 22 42  1  0  0  0  0
 23 43  1  0  0  0  0
 23 44  1  0  0  0  0
M  CHG  1  10   1
M  CHG  1  12  -1
M  END
> <s_m_source_file>
AV-unprocessed.smi

> <i_m_source_file_index>
334

> <i_lp_mmshare_version>
43012

> <i_f3d_flags>
0

> <s_epik_input>
W0NIMl0xW0NIMl1bQ0BIXShbQ0gyXTIpW0NAQEhdKFtDSDJdW0NAQEhdMTIpW0NASF0oW0NIM10pW05IXUMoPU8pW0NIMl1uM1tjSF1jKFtOK10oPU8pW08tXSlbY0hdW2NIXWMzPU8=

> <s_epik_cmdline>
J2VwaWtfcHl0aG9uJywgJy1waCcsICc3LjAnLCAnLXRuJywgJzgnLCAnLW1hJywgJzIwMCcsICctbWV0YWxfYmluZGluZycsICctaW1hZScsICc8aW5maWxlLm1hZT4nLCAnLW9tYWUnLCAnPG91dGZpbGUubWFlPic=

> <r_lp_tautomer_probability>
1

> <r_epik_Ionization_Penalty>
2.17081e-08

> <r_epik_Ionization_Penalty_Charging>
8.1195e-11

> <r_epik_Ionization_Penalty_Neutral>
2.16269e-08

> <r_epik_State_Penalty>
-0

> <r_epik_Charging_Adjusted_Penalty>
8.1195e-11

> <i_epik_Tot_Q>
0

> <i_epik_Tot_abs_Q>
2

> <r_epik_Metal_State_Penalty>
-0

> <b_epik_Metal_Only>
0

> <s_lp_Force_Field>
OPLS_2005

> <r_lp_Energy>
61.6475

> <b_lp_Chiralities_Consistent>
1

> <s_lp_Variant>
AV-unprocessed.smi:334-4

> <Gold.Version>
5.8.1

> <Gold.Id.Protein>
6NUR|6NUR_protein|mol2

> <Gold.PLP.Fitness>
45.4030

> <Gold.PLP.PLP>
-40.7073

> <Gold.PLP.part.hbond>
-1.0000

> <Gold.PLP.part.metal>
0.0000

> <Gold.PLP.part.buried>
-5.0613

> <Gold.PLP.part.nonpolar>
-34.5772

> <Gold.PLP.part.repulsive>
0.3193

> <Gold.PLP.ligand.clash>
0.0000

> <Gold.PLP.ligand.torsion>
0.6830

> <Gold.PLP.Chemscore.Hbond>
1.0000

> <Gold.PLP.Chemscore.CHOScore>
1.0000

> <Gold.PLP.Chemscore.Metal>
0.0000

> <Gold.Chemscore.Hbonds>
donor molecule, donor type, donor heavy atom, donor atom, acceptor molecule, acceptor atom, score
      P1  H  7989  7998       L1     5  0.87
      L1  C     8    31       P1  8028  1.00

> <Gold.PLP.Chemscore.Internal.Correction>
0.0617

> <Gold.Rescore>
     Score         DG    S(hbond)    S(metal)    S(lipo)     H(rot)  DE(clash)    DE(int)     intcor
     14.58     -16.62       0.83        0.00     109.74       1.75       0.34       1.70       ----

> <Gold.Chemscore.Fitness>
14.5805

> <Gold.Chemscore.DG>
-16.6184

> <Gold.Chemscore.ZeroCoef>
-5.4800

> <Gold.Chemscore.Hbond>
0.8301

> <Gold.Chemscore.Metal>
0.0000

> <Gold.Chemscore.Lipo>
109.7382

> <Gold.Chemscore.Internal_Hbond>
0.0000

> <Gold.Chemscore.DEClash>
0.3368

> <Gold.Chemscore.DEInternal>
1.7011

> <Gold.Chemscore.Rot>
1.7474

> <Gold.Chemscore.Internal.Correction>
   9.000000E+99

> <Gold.Chemscore.Hbonds>
donor molecule, donor type, donor heavy atom, donor atom, acceptor molecule, acceptor atom, score
      P1  H  7989  7998       L1     5  0.19

> <Gold.Chemscore.Hbond.Weighted>
-2.7724

> <Gold.Chemscore.Metal.Weighted>
-0.0000

> <Gold.Chemscore.Lipo.Weighted>
-12.8394

> <Gold.Chemscore.Internal_Hbond.Weighted>
0.0000

> <Gold.Chemscore.DEClash.Weighted>
0.3368

> <Gold.Chemscore.DEInternal.Weighted>
1.7011

> <Gold.Chemscore.Rot.Weighted>
4.4733

> <Gold.Chemscore.Internal.Correction.Weighted>
   9.000000E+99

> <Gold.Protein.RotatedTorsions>
[ 6907 6896 6895 6894 ] final  -86.91 input  -60.11 | X-H torsion
[ 7974 7965 7964 7962 ] final    0.26 input  175.53 | X-H torsion
[ 8008 7997 7996 7995 ] final  -94.31 input   59.86 | X-H torsion
[ 10167 10162 10161 10158 ] final  114.86 input  -65.29 | X-H torsion
[ 10718 10713 10712 10709 ] final  -36.49 input   66.30 | X-H torsion
[ 10763 10752 10751 10750 ] final  -90.96 input  -60.55 | X-H torsion
[ 11005 11000 10999 10996 ] final   75.71 input  -57.11 | X-H torsion

> <Gold.Protein.ActiveResidues>
 VAL166  LYS551  ARG553  GLY616  TRP617  ASP618  TYR619  PRO620  LYS621  CYS622 
 ASP623  PHE694  ASN695  SER759  ASP760  ASP761  ALA762  ILE779  LEU786  VAL792 
 PHE793  MET794  SER795  GLU796  ALA797  LYS798  CYS799  TRP800  GLU811  SER814 

> <Gold.Protein.RotatedAtoms>
  150.6866  134.2977  159.4692 H   0  0  0  0  0  0  0  0  0  0  0  0  # atno 6907 bound_to 6896
  152.0876  134.9426  160.0581 H   0  0  0  0  0  0  0  0  0  0  0  0  # atno 6908 bound_to 6896
  152.0755  133.4092  159.4515 H   0  0  0  0  0  0  0  0  0  0  0  0  # atno 6909 bound_to 6896
  146.2433  140.1164  142.8342 H   0  0  0  0  0  0  0  0  0  0  0  0  # atno 7974 bound_to 7965
  154.7468  140.0490  157.0859 H   0  0  0  0  0  0  0  0  0  0  0  0  # atno 8008 bound_to 7997
  155.0108  140.3135  155.4811 H   0  0  0  0  0  0  0  0  0  0  0  0  # atno 8009 bound_to 7997
  156.2876  140.2184  156.5222 H   0  0  0  0  0  0  0  0  0  0  0  0  # atno 8010 bound_to 7997
  139.6358  144.7119  151.2337 H   0  0  0  0  0  0  0  0  0  0  0  0  # atno 10167 bound_to 10162
  156.3263  130.4273  149.7914 H   0  0  0  0  0  0  0  0  0  0  0  0  # atno 10718 bound_to 10713
  154.6712  135.5285  153.8141 H   0  0  0  0  0  0  0  0  0  0  0  0  # atno 10763 bound_to 10752
  153.0503  135.6529  154.0722 H   0  0  0  0  0  0  0  0  0  0  0  0  # atno 10764 bound_to 10752
  154.0620  135.2961  155.3303 H   0  0  0  0  0  0  0  0  0  0  0  0  # atno 10765 bound_to 10752
  139.9331  134.7540  156.1304 H   0  0  0  0  0  0  0  0  0  0  0  0  # atno 11005 bound_to 11000
  145.0443  140.8970  143.5033 LP  0  0  0  0  0  0  0  0  0  0  0  0  # atno 17320 bound_to 7965
  145.1250  139.2669  143.5569 LP  0  0  0  0  0  0  0  0  0  0  0  0  # atno 17321 bound_to 7965
  140.7464  143.6398  150.8345 LP  0  0  0  0  0  0  0  0  0  0  0  0  # atno 17342 bound_to 10162
  140.0029  143.5725  152.2868 LP  0  0  0  0  0  0  0  0  0  0  0  0  # atno 17343 bound_to 10162
  156.5203  130.8212  151.3201 LP  0  0  0  0  0  0  0  0  0  0  0  0  # atno 17370 bound_to 10713
  157.7422  130.9885  150.2497 LP  0  0  0  0  0  0  0  0  0  0  0  0  # atno 17371 bound_to 10713
  141.0931  133.6706  156.2584 LP  0  0  0  0  0  0  0  0  0  0  0  0  # atno 17394 bound_to 11000
  140.6147  134.5422  157.5539 LP  0  0  0  0  0  0  0  0  0  0  0  0  # atno 17395 bound_to 11000

$$$$
