AV-unprocessed.smi:224|AV-procd|sdf|1718|dock2
  -GOLD-   2262020193D 1   1.00000     0.00000
 Structure written by MMmdl.
 56 59  0  0  0  0  0  0  0  0  2 V2000
  145.1966  132.2700  149.7118 C   0  0  0  0  0  0  0  0  0  0  0  0
  144.0722  133.2367  150.1124 C   0  0  1  0  0  0  0  0  0  0  0  0
  143.1542  133.3123  149.0424 O   0  0  0  0  0  0  0  0  0  0  0  0
  143.3095  132.7849  151.3754 C   0  0  0  0  0  0  0  0  0  0  0  0
  143.8063  133.4397  152.6201 N   0  3  1  0  0  0  0  0  0  0  0  0
  145.2967  133.4907  152.6442 C   0  0  0  0  0  0  0  0  0  0  0  0
  145.8392  134.1344  153.9303 C   0  0  0  0  0  0  0  0  0  0  0  0
  145.2305  135.4389  154.1605 N   0  0  0  0  0  0  0  0  0  0  0  0
  145.8015  136.5518  153.6261 C   0  0  0  0  0  0  0  0  0  0  0  0
  145.5132  136.9121  152.3470 N   0  0  0  0  0  0  0  0  0  0  0  0
  146.0620  138.0050  151.8094 C   0  0  0  0  0  0  0  0  0  0  0  0
  146.9183  138.8649  152.3620 N   0  0  0  0  0  0  0  0  0  0  0  0
  147.2257  138.5044  153.6404 C   0  0  0  0  0  0  0  0  0  0  0  0
  146.7147  137.3767  154.3441 C   0  0  0  0  0  0  0  0  0  0  0  0
  147.2628  137.3318  155.6209 N   0  0  0  0  0  0  0  0  0  0  0  0
  148.0462  138.3745  155.6706 C   0  0  0  0  0  0  0  0  0  0  0  0
  148.0912  139.1295  154.5208 N   0  0  0  0  0  0  0  0  0  0  0  0
  148.8872  140.3271  154.2987 C   0  0  0  0  0  0  0  0  0  0  0  0
  148.0782  141.6360  154.4547 C   0  0  1  0  0  0  0  0  0  0  0  0
  148.9303  142.7364  154.1851 O   0  0  0  0  0  0  0  0  0  0  0  0
  146.8600  141.7322  153.5414 C   0  0  0  0  0  0  0  0  0  0  0  0
  145.8930  142.5779  154.3577 C   0  0  0  0  0  0  0  0  0  0  0  0
  146.0876  142.0885  155.6738 O   0  0  0  0  0  0  0  0  0  0  0  0
  147.4742  141.8206  155.8613 C   0  0  0  0  0  0  0  0  0  0  0  0
  143.7743  135.3987  154.1922 C   0  0  0  0  0  0  0  0  0  0  0  0
  143.1858  134.7749  152.9057 C   0  0  2  0  0  0  0  0  0  0  0  0
  141.6531  134.7057  153.0683 C   0  0  0  0  0  0  0  0  0  0  0  0
  145.9588  132.2064  150.4888 H   0  0  0  0  0  0  0  0  0  0  0  0
  145.6912  132.6007  148.7978 H   0  0  0  0  0  0  0  0  0  0  0  0
  144.8146  131.2633  149.5379 H   0  0  0  0  0  0  0  0  0  0  0  0
  144.4832  134.2371  150.2399 H   0  0  0  0  0  0  0  0  0  0  0  0
  142.2826  133.4146  149.3936 H   0  0  0  0  0  0  0  0  0  0  0  0
  142.2417  132.9851  151.2696 H   0  0  0  0  0  0  0  0  0  0  0  0
  143.3991  131.7030  151.4286 H   0  0  0  0  0  0  0  0  0  0  0  0
  145.7176  132.4902  152.5618 H   0  0  0  0  0  0  0  0  0  0  0  0
  145.6486  134.0460  151.7739 H   0  0  0  0  0  0  0  0  0  0  0  0
  145.6072  133.4969  154.7842 H   0  0  0  0  0  0  0  0  0  0  0  0
  146.9271  134.2099  153.8976 H   0  0  0  0  0  0  0  0  0  0  0  0
  145.7749  138.2214  150.7909 H   0  0  0  0  0  0  0  0  0  0  0  0
  148.6255  138.6180  156.5497 H   0  0  0  0  0  0  0  0  0  0  0  0
  149.7239  140.3164  154.9982 H   0  0  0  0  0  0  0  0  0  0  0  0
  149.3237  140.2694  153.3006 H   0  0  0  0  0  0  0  0  0  0  0  0
  149.6338  142.4401  153.6281 H   0  0  0  0  0  0  0  0  0  0  0  0
  147.0764  142.1492  152.5568 H   0  0  0  0  0  0  0  0  0  0  0  0
  146.4190  140.7458  153.3947 H   0  0  0  0  0  0  0  0  0  0  0  0
  146.1597  143.6349  154.3130 H   0  0  0  0  0  0  0  0  0  0  0  0
  144.8576  142.4672  154.0352 H   0  0  0  0  0  0  0  0  0  0  0  0
  147.5785  140.9265  156.4768 H   0  0  0  0  0  0  0  0  0  0  0  0
  147.9390  142.6452  156.4047 H   0  0  0  0  0  0  0  0  0  0  0  0
  143.4745  134.8094  155.0598 H   0  0  0  0  0  0  0  0  0  0  0  0
  143.3502  136.3902  154.3438 H   0  0  0  0  0  0  0  0  0  0  0  0
  143.4160  135.4380  152.0698 H   0  0  0  0  0  0  0  0  0  0  0  0
  141.2616  135.6503  153.4479 H   0  0  0  0  0  0  0  0  0  0  0  0
  141.3629  133.9259  153.7734 H   0  0  0  0  0  0  0  0  0  0  0  0
  141.1340  134.5263  152.1282 H   0  0  0  0  0  0  0  0  0  0  0  0
  143.5269  132.8436  153.3859 H   0  0  0  0  0  0  0  0  0  0  0  0
  1  2  1  0  0  0  0
  1 28  1  0  0  0  0
  1 29  1  0  0  0  0
  1 30  1  0  0  0  0
  2  3  1  0  0  0  0
  2  4  1  0  0  0  0
  2 31  1  0  0  0  0
  3 32  1  0  0  0  0
  4  5  1  0  0  0  0
  4 33  1  0  0  0  0
  4 34  1  0  0  0  0
  5 26  1  0  0  0  0
  5  6  1  0  0  0  0
  5 56  1  0  0  0  0
  6  7  1  0  0  0  0
  6 35  1  0  0  0  0
  6 36  1  0  0  0  0
  7  8  1  0  0  0  0
  7 37  1  0  0  0  0
  7 38  1  0  0  0  0
  8  9  1  0  0  0  0
  8 25  1  0  0  0  0
  9 14  1  0  0  0  0
  9 10  2  0  0  0  0
 10 11  1  0  0  0  0
 11 12  2  0  0  0  0
 11 39  1  0  0  0  0
 12 13  1  0  0  0  0
 13 17  1  0  0  0  0
 13 14  2  0  0  0  0
 14 15  1  0  0  0  0
 15 16  2  0  0  0  0
 16 17  1  0  0  0  0
 16 40  1  0  0  0  0
 17 18  1  0  0  0  0
 18 19  1  0  0  0  0
 18 41  1  0  0  0  0
 18 42  1  0  0  0  0
 19 24  1  0  0  0  0
 19 20  1  0  0  0  0
 19 21  1  0  0  0  0
 20 43  1  0  0  0  0
 21 22  1  0  0  0  0
 21 44  1  0  0  0  0
 21 45  1  0  0  0  0
 22 23  1  0  0  0  0
 22 46  1  0  0  0  0
 22 47  1  0  0  0  0
 23 24  1  0  0  0  0
 24 48  1  0  0  0  0
 24 49  1  0  0  0  0
 25 26  1  0  0  0  0
 25 50  1  0  0  0  0
 25 51  1  0  0  0  0
 26 27  1  0  0  0  0
 26 52  1  0  0  0  0
 27 53  1  0  0  0  0
 27 54  1  0  0  0  0
 27 55  1  0  0  0  0
M  CHG  1   5   1
M  END
> <s_m_source_file>
AV-unprocessed.smi

> <i_m_source_file_index>
224

> <i_lp_mmshare_version>
43012

> <i_f3d_flags>
0

> <s_epik_input>
W0NIM11bQ0BIXShbT0hdKVtDSDJdTjFbQ0gyXVtDSDJdTihbQ0gyXVtDQEhdMVtDSDNdKWMobltjSF1uMiljKGMyMyluW2NIXW4zW0NIMl1bQ0BAXTQoW09IXSlbQ0gyXVtDSDJdT1tDSDJdNA==

> <s_epik_cmdline>
J2VwaWtfcHl0aG9uJywgJy1waCcsICc3LjAnLCAnLXRuJywgJzgnLCAnLW1hJywgJzIwMCcsICctbWV0YWxfYmluZGluZycsICctaW1hZScsICc8aW5maWxlLm1hZT4nLCAnLW9tYWUnLCAnPG91dGZpbGUubWFlPic=

> <r_lp_tautomer_probability>
1

> <r_epik_Ionization_Penalty>
0.00516958

> <r_epik_Ionization_Penalty_Charging>
0.00509693

> <r_epik_Ionization_Penalty_Neutral>
7.26542e-05

> <r_epik_State_Penalty>
-0

> <r_epik_Charging_Adjusted_Penalty>
0.00509693

> <i_epik_Tot_Q>
1

> <i_epik_Tot_abs_Q>
1

> <r_epik_Metal_State_Penalty>
-0

> <b_epik_Metal_Only>
0

> <s_lp_Force_Field>
OPLS_2005

> <r_lp_Energy>
49.0033

> <b_lp_Chiralities_Consistent>
1

> <s_lp_Variant>
AV-unprocessed.smi:224-12

> <Gold.Version>
5.8.1

> <Gold.Id.Protein>
6NUR|6NUR_protein|mol2

> <Gold.PLP.Fitness>
51.5593

> <Gold.PLP.PLP>
-38.8275

> <Gold.PLP.part.hbond>
-4.1791

> <Gold.PLP.part.metal>
0.0000

> <Gold.PLP.part.buried>
-6.5560

> <Gold.PLP.part.nonpolar>
-29.4274

> <Gold.PLP.part.repulsive>
1.0611

> <Gold.PLP.ligand.clash>
0.0000

> <Gold.PLP.ligand.torsion>
1.3606

> <Gold.PLP.Chemscore.Hbond>
3.9088

> <Gold.PLP.Chemscore.CHOScore>
1.0000

> <Gold.PLP.Chemscore.Metal>
0.0000

> <Gold.Chemscore.Hbonds>
donor molecule, donor type, donor heavy atom, donor atom, acceptor molecule, acceptor atom, score
      L1  H     3    32       P1 10186  0.91
      L1  H     5    56       P1 10957  2.00
      P1  H  8022  8030       L1    20  0.76
      L1  C    11    39       P1 10171  1.00

> <Gold.PLP.Chemscore.Internal.Correction>
0.7268

> <Gold.Rescore>
     Score         DG    S(hbond)    S(metal)    S(lipo)     H(rot)  DE(clash)    DE(int)     intcor
     11.51     -13.70       2.33        0.00      77.37       3.36       0.61       1.57       ----

> <Gold.Chemscore.Fitness>
11.5112

> <Gold.Chemscore.DG>
-13.6966

> <Gold.Chemscore.ZeroCoef>
-5.4800

> <Gold.Chemscore.Hbond>
2.3258

> <Gold.Chemscore.Metal>
0.0000

> <Gold.Chemscore.Lipo>
77.3739

> <Gold.Chemscore.Internal_Hbond>
0.0000

> <Gold.Chemscore.DEClash>
0.6139

> <Gold.Chemscore.DEInternal>
1.5715

> <Gold.Chemscore.Rot>
3.3611

> <Gold.Chemscore.Internal.Correction>
   9.000000E+99

> <Gold.Chemscore.Hbonds>
donor molecule, donor type, donor heavy atom, donor atom, acceptor molecule, acceptor atom, score
      L1  H     3    32       P1 10186  0.88
      L1  H     5    56       P1 10957  0.64
      P1  H  8022  8030       L1    20  0.37

> <Gold.Chemscore.Hbond.Weighted>
-7.7683

> <Gold.Chemscore.Metal.Weighted>
-0.0000

> <Gold.Chemscore.Lipo.Weighted>
-9.0527

> <Gold.Chemscore.Internal_Hbond.Weighted>
0.0000

> <Gold.Chemscore.DEClash.Weighted>
0.6139

> <Gold.Chemscore.DEInternal.Weighted>
1.5715

> <Gold.Chemscore.Rot.Weighted>
8.6045

> <Gold.Chemscore.Internal.Correction.Weighted>
   9.000000E+99

> <Gold.Protein.RotatedTorsions>
[ 6907 6896 6895 6894 ] final -124.79 input  -60.11 | X-H torsion
[ 7974 7965 7964 7962 ] final  107.26 input  175.53 | X-H torsion
[ 8008 7997 7996 7995 ] final -149.74 input   59.86 | X-H torsion
[ 10167 10162 10161 10158 ] final  -31.06 input  -65.29 | X-H torsion
[ 10718 10713 10712 10709 ] final -105.24 input   66.30 | X-H torsion
[ 10763 10752 10751 10750 ] final   14.90 input  -60.55 | X-H torsion
[ 11005 11000 10999 10996 ] final  157.99 input  -57.11 | X-H torsion

> <Gold.Protein.ActiveResidues>
 VAL166  LYS551  ARG553  GLY616  TRP617  ASP618  TYR619  PRO620  LYS621  CYS622 
 ASP623  PHE694  ASN695  SER759  ASP760  ASP761  ALA762  ILE779  LEU786  VAL792 
 PHE793  MET794  SER795  GLU796  ALA797  LYS798  CYS799  TRP800  GLU811  SER814 

> <Gold.Protein.RotatedAtoms>
  150.8803  133.7381  159.2933 H   0  0  0  0  0  0  0  0  0  0  0  0  # atno 6907 bound_to 6896
  151.4964  135.1058  159.9827 H   0  0  0  0  0  0  0  0  0  0  0  0  # atno 6908 bound_to 6896
  152.4755  133.8083  159.7045 H   0  0  0  0  0  0  0  0  0  0  0  0  # atno 6909 bound_to 6896
  145.2959  139.2585  143.3840 H   0  0  0  0  0  0  0  0  0  0  0  0  # atno 7974 bound_to 7965
  155.6125  140.0673  157.2702 H   0  0  0  0  0  0  0  0  0  0  0  0  # atno 8008 bound_to 7997
  154.4250  140.1799  156.1335 H   0  0  0  0  0  0  0  0  0  0  0  0  # atno 8009 bound_to 7997
  156.0073  140.3330  155.6909 H   0  0  0  0  0  0  0  0  0  0  0  0  # atno 8010 bound_to 7997
  140.7241  143.3800  151.1618 H   0  0  0  0  0  0  0  0  0  0  0  0  # atno 10167 bound_to 10162
  156.0337  130.5554  150.7510 H   0  0  0  0  0  0  0  0  0  0  0  0  # atno 10718 bound_to 10713
  153.1577  135.6790  153.8789 H   0  0  0  0  0  0  0  0  0  0  0  0  # atno 10763 bound_to 10752
  153.8194  135.3132  155.3410 H   0  0  0  0  0  0  0  0  0  0  0  0  # atno 10764 bound_to 10752
  154.7909  135.4835  154.0139 H   0  0  0  0  0  0  0  0  0  0  0  0  # atno 10765 bound_to 10752
  140.1822  134.8467  157.2816 H   0  0  0  0  0  0  0  0  0  0  0  0  # atno 11005 bound_to 11000
  146.3169  140.3462  142.8652 LP  0  0  0  0  0  0  0  0  0  0  0  0  # atno 17320 bound_to 7965
  144.9134  140.7783  143.5793 LP  0  0  0  0  0  0  0  0  0  0  0  0  # atno 17321 bound_to 7965
  139.7387  143.8958  152.3043 LP  0  0  0  0  0  0  0  0  0  0  0  0  # atno 17342 bound_to 10162
  139.8772  144.7037  150.8920 LP  0  0  0  0  0  0  0  0  0  0  0  0  # atno 17343 bound_to 10162
  157.5055  131.0922  151.0263 LP  0  0  0  0  0  0  0  0  0  0  0  0  # atno 17370 bound_to 10713
  157.0632  130.5834  149.5389 LP  0  0  0  0  0  0  0  0  0  0  0  0  # atno 17371 bound_to 10713
  140.2254  134.3973  155.7546 LP  0  0  0  0  0  0  0  0  0  0  0  0  # atno 17394 bound_to 11000
  141.2223  133.7187  156.8556 LP  0  0  0  0  0  0  0  0  0  0  0  0  # atno 17395 bound_to 11000

$$$$
