AV-unprocessed.smi:1345|AV-procd|sdf|5510|dock3
  -GOLD-   22720 5 93D 1   1.00000     0.00000
 Structure written by MMmdl.
 40 41  0  0  0  0  0  0  0  0  1 V2000
  153.2005  142.2564  162.3337 C   0  0  0  0  0  0  0  0  0  0  0  0
  152.8146  142.1854  160.8450 C   0  0  0  0  0  0  0  0  0  0  0  0
  153.7721  141.2240  160.1139 C   0  0  0  0  0  0  0  0  0  0  0  0
  152.7652  143.5859  160.1773 C   0  0  2  0  0  0  0  0  0  0  0  0
  151.8275  144.5725  160.8996 C   0  0  0  0  0  0  0  0  0  0  0  0
  152.3377  143.4648  158.7836 N   0  0  0  0  0  0  0  0  0  0  0  0
  151.2450  142.8148  158.3514 C   0  0  0  0  0  0  0  0  0  0  0  0
  150.4651  142.2320  159.1067 O   0  0  0  0  0  0  0  0  0  0  0  0
  151.0126  142.8409  156.8351 C   0  0  0  0  0  0  0  0  0  0  0  0
  150.5455  141.5123  156.3076 C   0  0  0  0  0  0  0  0  0  0  0  0
  151.1877  140.3033  156.4261 C   0  0  0  0  0  0  0  0  0  0  0  0
  150.2984  139.0130  155.6642 S   0  0  0  0  0  0  0  0  0  0  0  0
  149.0686  140.1839  155.1925 C   0  0  0  0  0  0  0  0  0  0  0  0
  147.9011  139.8384  154.4485 N   0  0  0  0  0  0  0  0  0  0  0  0
  147.6158  138.4539  154.0911 C   0  0  0  0  0  0  0  0  0  0  0  0
  146.3084  138.5391  153.3092 C   0  0  0  0  0  0  0  0  0  0  0  0
  146.0284  139.9554  153.3377 N   0  0  0  0  0  0  0  0  0  0  0  0
  146.9462  140.6740  153.9886 C   0  0  0  0  0  0  0  0  0  0  0  0
  146.8946  141.8955  154.1249 O   0  0  0  0  0  0  0  0  0  0  0  0
  149.3429  141.4295  155.5981 N   0  0  0  0  0  0  0  0  0  0  0  0
  154.1609  142.7542  162.4712 H   0  0  0  0  0  0  0  0  0  0  0  0
  153.2799  141.2587  162.7666 H   0  0  0  0  0  0  0  0  0  0  0  0
  152.4559  142.7936  162.9205 H   0  0  0  0  0  0  0  0  0  0  0  0
  151.8161  141.7491  160.7894 H   0  0  0  0  0  0  0  0  0  0  0  0
  154.7889  141.6180  160.0967 H   0  0  0  0  0  0  0  0  0  0  0  0
  153.4652  141.0474  159.0829 H   0  0  0  0  0  0  0  0  0  0  0  0
  153.8033  140.2511  160.6054 H   0  0  0  0  0  0  0  0  0  0  0  0
  153.7754  143.9995  160.1987 H   0  0  0  0  0  0  0  0  0  0  0  0
  152.1771  144.7990  161.9063 H   0  0  0  0  0  0  0  0  0  0  0  0
  150.8151  144.1742  160.9764 H   0  0  0  0  0  0  0  0  0  0  0  0
  151.7696  145.5228  160.3681 H   0  0  0  0  0  0  0  0  0  0  0  0
  152.9187  143.9180  158.0932 H   0  0  0  0  0  0  0  0  0  0  0  0
  150.2845  143.6222  156.6129 H   0  0  0  0  0  0  0  0  0  0  0  0
  151.9386  143.1330  156.3379 H   0  0  0  0  0  0  0  0  0  0  0  0
  152.1253  140.0939  156.9192 H   0  0  0  0  0  0  0  0  0  0  0  0
  148.4185  138.0389  153.4798 H   0  0  0  0  0  0  0  0  0  0  0  0
  147.5045  137.8404  154.9865 H   0  0  0  0  0  0  0  0  0  0  0  0
  146.4217  138.1914  152.2818 H   0  0  0  0  0  0  0  0  0  0  0  0
  145.5054  137.9784  153.7888 H   0  0  0  0  0  0  0  0  0  0  0  0
  145.2092  140.3541  152.9023 H   0  0  0  0  0  0  0  0  0  0  0  0
  1  2  1  0  0  0  0
  1 21  1  0  0  0  0
  1 22  1  0  0  0  0
  1 23  1  0  0  0  0
  2  3  1  0  0  0  0
  2  4  1  0  0  0  0
  2 24  1  0  0  0  0
  3 25  1  0  0  0  0
  3 26  1  0  0  0  0
  3 27  1  0  0  0  0
  4  5  1  0  0  0  0
  4  6  1  0  0  0  0
  4 28  1  0  0  0  0
  5 29  1  0  0  0  0
  5 30  1  0  0  0  0
  5 31  1  0  0  0  0
  6  7  1  0  0  0  0
  6 32  1  0  0  0  0
  7  8  2  0  0  0  0
  7  9  1  0  0  0  0
  9 10  1  0  0  0  0
  9 33  1  0  0  0  0
  9 34  1  0  0  0  0
 10 20  1  0  0  0  0
 10 11  2  0  0  0  0
 11 12  1  0  0  0  0
 11 35  1  0  0  0  0
 12 13  1  0  0  0  0
 13 14  1  0  0  0  0
 13 20  2  0  0  0  0
 14 18  1  0  0  0  0
 14 15  1  0  0  0  0
 15 16  1  0  0  0  0
 15 36  1  0  0  0  0
 15 37  1  0  0  0  0
 16 17  1  0  0  0  0
 16 38  1  0  0  0  0
 16 39  1  0  0  0  0
 17 18  1  0  0  0  0
 17 40  1  0  0  0  0
 18 19  2  0  0  0  0
M  END
> <s_m_source_file>
AV-unprocessed.smi

> <i_m_source_file_index>
1345

> <i_lp_mmshare_version>
43012

> <i_f3d_flags>
0

> <s_epik_input>
W0NIM11bQ0hdKFtDSDNdKVtDQEhdKFtDSDNdKVtOSF1DKD1PKVtDSDJdYzFbY0hdc2MobjEpTjJbQ0gyXVtDSDJdW05IXUMyPU8=

> <s_epik_cmdline>
J2VwaWtfcHl0aG9uJywgJy1waCcsICc3LjAnLCAnLXRuJywgJzgnLCAnLW1hJywgJzIwMCcsICctbWV0YWxfYmluZGluZycsICctaW1hZScsICc8aW5maWxlLm1hZT4nLCAnLW9tYWUnLCAnPG91dGZpbGUubWFlPic=

> <r_lp_tautomer_probability>
1

> <r_epik_Ionization_Penalty>
0.000122034

> <r_epik_Ionization_Penalty_Charging>
0

> <r_epik_Ionization_Penalty_Neutral>
0.000122034

> <r_epik_State_Penalty>
-0

> <r_epik_Charging_Adjusted_Penalty>
0

> <i_epik_Tot_Q>
0

> <i_epik_Tot_abs_Q>
0

> <r_epik_Metal_State_Penalty>
-0

> <b_epik_Metal_Only>
0

> <s_lp_Force_Field>
OPLS_2005

> <r_lp_Energy>
36.09

> <b_lp_Chiralities_Consistent>
1

> <s_lp_Variant>
AV-unprocessed.smi:1345-1

> <Gold.Version>
5.8.1

> <Gold.Id.Protein>
6NUR|6NUR_protein|mol2

> <Gold.PLP.Fitness>
45.2940

> <Gold.PLP.PLP>
-43.0337

> <Gold.PLP.part.hbond>
-1.3858

> <Gold.PLP.part.metal>
0.0000

> <Gold.PLP.part.buried>
-3.5575

> <Gold.PLP.part.nonpolar>
-39.1947

> <Gold.PLP.part.repulsive>
0.3352

> <Gold.PLP.ligand.clash>
0.0000

> <Gold.PLP.ligand.torsion>
0.3931

> <Gold.PLP.Chemscore.Hbond>
1.0000

> <Gold.PLP.Chemscore.CHOScore>
0.0000

> <Gold.PLP.Chemscore.Metal>
0.0000

> <Gold.Chemscore.Hbonds>
donor molecule, donor type, donor heavy atom, donor atom, acceptor molecule, acceptor atom, score
      L1  H    17    40       P1 10175  1.00

> <Gold.PLP.Chemscore.Internal.Correction>
0.0465

> <Gold.Rescore>
     Score         DG    S(hbond)    S(metal)    S(lipo)     H(rot)  DE(clash)    DE(int)     intcor
     12.00     -15.69       1.00        0.00      96.76       1.74       0.47       3.22       ----

> <Gold.Chemscore.Fitness>
11.9992

> <Gold.Chemscore.DG>
-15.6885

> <Gold.Chemscore.ZeroCoef>
-5.4800

> <Gold.Chemscore.Hbond>
0.9969

> <Gold.Chemscore.Metal>
0.0000

> <Gold.Chemscore.Lipo>
96.7605

> <Gold.Chemscore.Internal_Hbond>
0.0000

> <Gold.Chemscore.DEClash>
0.4669

> <Gold.Chemscore.DEInternal>
3.2224

> <Gold.Chemscore.Rot>
1.7353

> <Gold.Chemscore.Internal.Correction>
   9.000000E+99

> <Gold.Chemscore.Hbonds>
donor molecule, donor type, donor heavy atom, donor atom, acceptor molecule, acceptor atom, score
      L1  H    17    40       P1 10175  0.92

> <Gold.Chemscore.Hbond.Weighted>
-3.3298

> <Gold.Chemscore.Metal.Weighted>
-0.0000

> <Gold.Chemscore.Lipo.Weighted>
-11.3210

> <Gold.Chemscore.Internal_Hbond.Weighted>
0.0000

> <Gold.Chemscore.DEClash.Weighted>
0.4669

> <Gold.Chemscore.DEInternal.Weighted>
3.2224

> <Gold.Chemscore.Rot.Weighted>
4.4423

> <Gold.Chemscore.Internal.Correction.Weighted>
   9.000000E+99

> <Gold.Protein.RotatedTorsions>
[ 6907 6896 6895 6894 ] final  -46.83 input  -60.11 | X-H torsion
[ 7974 7965 7964 7962 ] final  -87.86 input  175.53 | X-H torsion
[ 8008 7997 7996 7995 ] final  -71.14 input   59.86 | X-H torsion
[ 10167 10162 10161 10158 ] final -151.59 input  -65.29 | X-H torsion
[ 10718 10713 10712 10709 ] final  155.47 input   66.30 | X-H torsion
[ 10763 10752 10751 10750 ] final  -91.82 input  -60.55 | X-H torsion
[ 11005 11000 10999 10996 ] final  126.92 input  -57.11 | X-H torsion

> <Gold.Protein.ActiveResidues>
 VAL166  LYS551  ARG553  GLY616  TRP617  ASP618  TYR619  PRO620  LYS621  CYS622 
 ASP623  PHE694  ASN695  SER759  ASP760  ASP761  ALA762  ILE779  LEU786  VAL792 
 PHE793  MET794  SER795  GLU796  ALA797  LYS798  CYS799  TRP800  GLU811  SER814 

> <Gold.Protein.RotatedAtoms>
  150.9071  134.8487  159.7399 H   0  0  0  0  0  0  0  0  0  0  0  0  # atno 6907 bound_to 6896
  152.4924  134.4414  159.9555 H   0  0  0  0  0  0  0  0  0  0  0  0  # atno 6908 bound_to 6896
  151.4460  133.3591  159.2824 H   0  0  0  0  0  0  0  0  0  0  0  0  # atno 6909 bound_to 6896
  145.4608  140.9561  143.1970 H   0  0  0  0  0  0  0  0  0  0  0  0  # atno 7974 bound_to 7965
  154.5065  140.0821  156.7904 H   0  0  0  0  0  0  0  0  0  0  0  0  # atno 8008 bound_to 7997
  155.3882  140.3431  155.4232 H   0  0  0  0  0  0  0  0  0  0  0  0  # atno 8009 bound_to 7997
  156.1521  140.1562  156.8739 H   0  0  0  0  0  0  0  0  0  0  0  0  # atno 8010 bound_to 7997
  139.7254  143.8891  152.2517 H   0  0  0  0  0  0  0  0  0  0  0  0  # atno 10167 bound_to 10162
  157.2179  131.0712  151.1930 H   0  0  0  0  0  0  0  0  0  0  0  0  # atno 10718 bound_to 10713
  154.6799  135.5254  153.8249 H   0  0  0  0  0  0  0  0  0  0  0  0  # atno 10763 bound_to 10752
  153.0558  135.6550  154.0592 H   0  0  0  0  0  0  0  0  0  0  0  0  # atno 10764 bound_to 10752
  154.0480  135.2971  155.3324 H   0  0  0  0  0  0  0  0  0  0  0  0  # atno 10765 bound_to 10752
  139.9481  134.9626  156.8778 H   0  0  0  0  0  0  0  0  0  0  0  0  # atno 11005 bound_to 11000
  144.8004  139.6152  143.7074 LP  0  0  0  0  0  0  0  0  0  0  0  0  # atno 17320 bound_to 7965
  146.2452  139.6083  142.9464 LP  0  0  0  0  0  0  0  0  0  0  0  0  # atno 17321 bound_to 7965
  139.8799  144.7023  150.8890 LP  0  0  0  0  0  0  0  0  0  0  0  0  # atno 17342 bound_to 10162
  140.7762  143.3670  151.1721 LP  0  0  0  0  0  0  0  0  0  0  0  0  # atno 17343 bound_to 10162
  157.3606  130.7129  149.6499 LP  0  0  0  0  0  0  0  0  0  0  0  0  # atno 17370 bound_to 10713
  155.9685  130.4226  150.4526 LP  0  0  0  0  0  0  0  0  0  0  0  0  # atno 17371 bound_to 10713
  140.5786  134.0374  155.7456 LP  0  0  0  0  0  0  0  0  0  0  0  0  # atno 17394 bound_to 11000
  141.1136  133.9576  157.2864 LP  0  0  0  0  0  0  0  0  0  0  0  0  # atno 17395 bound_to 11000

$$$$
