#       Name:                AV-unprocessed.smi:2781
#       Creating user name   scv26
#       Creation time:       Fri Mar 27 15:15:49 2020


#       File generated by GOLD software.
#

@<TRIPOS>MOLECULE
AV-unprocessed.smi:2781
    38    41     1
SMALL
NO_CHARGES


@<TRIPOS>ATOM
      1 ****         1.7047   0.9363   0.6057 O.2            1 S1                 0.0000
      2 ****         1.3225  -0.1590   0.1924 C.2            1 S1                 0.0000
      3 ****         2.1080  -1.2333  -0.0017 N.am           1 S1                 0.0000
      4 ****         3.5064  -1.3512   0.2178 C.ar           1 S1                 0.0000
      5 ****         4.0542  -2.6192  -0.0831 C.ar           1 S1                 0.0000
      6 ****         5.4334  -2.8398   0.0997 C.ar           1 S1                 0.0000
      7 ****         6.2284  -1.7844   0.5805 C.ar           1 S1                 0.0000
      8 ****         7.5586  -1.9493   0.7729 F              1 S1                 0.0000
      9 ****         5.6057  -0.5533   0.8568 C.ar           1 S1                 0.0000
     10 ****         4.2841  -0.3406   0.6812 N.ar           1 S1                 0.0000
     11 ****         0.0485  -0.4290  -0.1248 N.am           1 S1                 0.0000
     12 ****        -1.0411   0.4888  -0.0379 C.3            1 S1                 0.0000
     13 ****        -2.3903  -0.0801   0.3507 C.3            1 S1                 0.0000
     14 ****        -3.6438   0.7040   0.7319 C.3            1 S1                 0.0000
     15 ****        -3.3367   2.2070   0.8961 C.3            1 S1                 0.0000
     16 ****        -3.0744   2.6542  -0.5592 C.3            1 S1                 0.0000
     17 ****        -3.2680   1.3440  -1.3502 C.3            1 S1                 0.0000
     18 ****        -4.4231   0.7124  -0.5795 C.3            1 S1                 0.0000
     19 ****        -2.1324   0.3595  -1.0807 C.3            1 S1                 0.0000
     20 ****         1.6520  -2.0644  -0.3475 H              1 S1                 0.0000
     21 ****         3.4275  -3.4184  -0.4515 H              1 S1                 0.0000
     22 ****         5.8717  -3.8011  -0.1245 H              1 S1                 0.0000
     23 ****         6.1811   0.2819   1.2278 H              1 S1                 0.0000
     24 ****        -0.1701  -1.3573  -0.4560 H              1 S1                 0.0000
     25 ****        -0.7965   1.4883   0.3130 H              1 S1                 0.0000
     26 ****        -2.4601  -1.1552   0.5082 H              1 S1                 0.0000
     27 ****        -4.1689   0.2587   1.5772 H              1 S1                 0.0000
     28 ****        -4.1992   2.7343   1.3059 H              1 S1                 0.0000
     29 ****        -2.4928   2.3930   1.5609 H              1 S1                 0.0000
     30 ****        -3.8083   3.4008  -0.8654 H              1 S1                 0.0000
     31 ****        -2.0849   3.0891  -0.7031 H              1 S1                 0.0000
     32 ****        -3.4478   1.4862  -2.4161 H              1 S1                 0.0000
     33 ****        -4.6824  -0.2870  -0.9336 H              1 S1                 0.0000
     34 ****        -5.3237   1.3290  -0.5530 H              1 S1                 0.0000
     35 ****        -2.0435  -0.4439  -1.8101 H              1 S1                 0.0000
     36 ****         2.6697   1.0786   0.8260 LP             1 S1                 0.0000
     37 ****         1.0501   1.6834   0.7209 LP             1 S1                 0.0000
     38 ****         3.8831   0.5513   0.8902 LP             1 S1                 0.0000
@<TRIPOS>BOND
    1    1    2 2     
    2    2    3 am    
    3    2   11 am    
    4    3    4 1     
    5    3   20 1     
    6    4   10 ar    
    7    4    5 ar    
    8    5    6 ar    
    9    5   21 1     
   10    6    7 ar    
   11    6   22 1     
   12    7    8 1     
   13    7    9 ar    
   14    9   10 ar    
   15    9   23 1     
   16   11   12 1     
   17   11   24 1     
   18   12   19 1     
   19   12   13 1     
   20   12   25 1     
   21   13   19 1     
   22   13   14 1     
   23   13   26 1     
   24   14   18 1     
   25   14   15 1     
   26   14   27 1     
   27   15   16 1     
   28   15   28 1     
   29   15   29 1     
   30   16   17 1     
   31   16   30 1     
   32   16   31 1     
   33   17   18 1     
   34   17   19 1     
   35   17   32 1     
   36   18   33 1     
   37   18   34 1     
   38   19   35 1     
   39    1   36 1     
   40    1   37 1     
   41   10   38 1     
@<TRIPOS>SUBSTRUCTURE
      1 S1             1
@<TRIPOS>SET
LONE_PAIRS      STATIC     ATOMS    <user>   **** ""
3 36 37 38
DONOR_HYDROGENS      STATIC     ATOMS    <user>   **** ""
2 20 24
ATOM$BLUE        STATIC     ATOMS    COLORGROUP SYSTEM
3 36 37 38
ATOM$RED        STATIC     ATOMS    COLORGROUP SYSTEM
2 20 24
