AV-unprocessed.smi:3267|AV-procd|sdf|12506|dock2
  -GOLD-   2272018413D 1   1.00000     0.00000
 Structure written by MMmdl.
 38 39  0  0  0  0  0  0  0  0  1 V2000
  148.2255  131.5630  153.6981 C   0  0  0  0  0  0  0  0  0  0  0  0
  147.4462  132.7958  153.2191 C   0  0  2  0  0  0  0  0  0  0  0  0
  146.9549  132.6370  151.7586 C   0  0  0  0  0  0  0  0  0  0  0  0
  145.9263  133.6038  151.4241 N   0  0  0  0  0  0  0  0  0  0  0  0
  145.9958  134.9799  151.4712 C   0  0  0  0  0  0  0  0  0  0  0  0
  144.7798  135.4610  151.0783 C   0  0  0  0  0  0  0  0  0  0  0  0
  144.0232  134.2864  150.8082 C   0  0  0  0  0  0  0  0  0  0  0  0
  144.7122  133.1757  151.0155 N   0  0  0  0  0  0  0  0  0  0  0  0
  148.2864  133.9816  153.3675 N   0  0  0  0  0  0  0  0  0  0  0  0
  148.8643  134.3781  154.5105 C   0  0  0  0  0  0  0  0  0  0  0  0
  148.7433  133.7907  155.5858 O   0  0  0  0  0  0  0  0  0  0  0  0
  149.5821  135.4969  154.3438 N   0  0  0  0  0  0  0  0  0  0  0  0
  150.2922  136.1965  155.4080 C   0  0  0  0  0  0  0  0  0  0  0  0
  150.7809  137.5779  154.9425 C   0  0  1  0  0  0  0  0  0  0  0  0
  151.2315  138.4877  156.0846 C   0  0  0  0  0  0  0  0  0  0  0  0
  152.2060  139.4033  155.3801 C   0  0  0  0  0  0  0  0  0  0  0  0
  152.8969  138.4373  154.4233 C   0  0  0  0  0  0  0  0  0  0  0  0
  151.9241  137.4474  154.0989 O   0  0  0  0  0  0  0  0  0  0  0  0
  147.6081  130.6659  153.6416 H   0  0  0  0  0  0  0  0  0  0  0  0
  148.5447  131.6767  154.7345 H   0  0  0  0  0  0  0  0  0  0  0  0
  149.1154  131.3941  153.0907 H   0  0  0  0  0  0  0  0  0  0  0  0
  146.5894  132.9119  153.8866 H   0  0  0  0  0  0  0  0  0  0  0  0
  147.7728  132.7537  151.0460 H   0  0  0  0  0  0  0  0  0  0  0  0
  146.5540  131.6372  151.5848 H   0  0  0  0  0  0  0  0  0  0  0  0
  146.8930  135.4955  151.7811 H   0  0  0  0  0  0  0  0  0  0  0  0
  144.4765  136.4942  150.9989 H   0  0  0  0  0  0  0  0  0  0  0  0
  143.0002  134.2083  150.4710 H   0  0  0  0  0  0  0  0  0  0  0  0
  148.4433  134.5355  152.5383 H   0  0  0  0  0  0  0  0  0  0  0  0
  149.6205  135.9090  153.4231 H   0  0  0  0  0  0  0  0  0  0  0  0
  149.6458  136.2987  156.2812 H   0  0  0  0  0  0  0  0  0  0  0  0
  151.1381  135.5834  155.7198 H   0  0  0  0  0  0  0  0  0  0  0  0
  150.0017  138.0883  154.3739 H   0  0  0  0  0  0  0  0  0  0  0  0
  150.4043  139.0213  156.5537 H   0  0  0  0  0  0  0  0  0  0  0  0
  151.7502  137.9145  156.8545 H   0  0  0  0  0  0  0  0  0  0  0  0
  151.6655  140.1674  154.8197 H   0  0  0  0  0  0  0  0  0  0  0  0
  152.8988  139.9005  156.0594 H   0  0  0  0  0  0  0  0  0  0  0  0
  153.2752  138.9346  153.5299 H   0  0  0  0  0  0  0  0  0  0  0  0
  153.7358  137.9473  154.9190 H   0  0  0  0  0  0  0  0  0  0  0  0
  1  2  1  0  0  0  0
  1 19  1  0  0  0  0
  1 20  1  0  0  0  0
  1 21  1  0  0  0  0
  2  3  1  0  0  0  0
  2  9  1  0  0  0  0
  2 22  1  0  0  0  0
  3  4  1  0  0  0  0
  3 23  1  0  0  0  0
  3 24  1  0  0  0  0
  4  8  1  0  0  0  0
  4  5  1  0  0  0  0
  5  6  2  0  0  0  0
  5 25  1  0  0  0  0
  6  7  1  0  0  0  0
  6 26  1  0  0  0  0
  7  8  2  0  0  0  0
  7 27  1  0  0  0  0
  9 10  1  0  0  0  0
  9 28  1  0  0  0  0
 10 11  2  0  0  0  0
 10 12  1  0  0  0  0
 12 13  1  0  0  0  0
 12 29  1  0  0  0  0
 13 14  1  0  0  0  0
 13 30  1  0  0  0  0
 13 31  1  0  0  0  0
 14 18  1  0  0  0  0
 14 15  1  0  0  0  0
 14 32  1  0  0  0  0
 15 16  1  0  0  0  0
 15 33  1  0  0  0  0
 15 34  1  0  0  0  0
 16 17  1  0  0  0  0
 16 35  1  0  0  0  0
 16 36  1  0  0  0  0
 17 18  1  0  0  0  0
 17 37  1  0  0  0  0
 17 38  1  0  0  0  0
M  END
> <s_m_source_file>
AV-unprocessed.smi

> <i_m_source_file_index>
3267

> <i_lp_mmshare_version>
43012

> <i_f3d_flags>
0

> <s_epik_input>
bjFbY0hdW2NIXVtjSF1uMVtDSDJdW0NAQEhdKFtDSDNdKVtOSF1DKD1PKVtOSF1bQ0gyXVtDQEBIXTJbQ0gyXVtDSDJdW0NIMl1PMg==

> <s_epik_cmdline>
J2VwaWtfcHl0aG9uJywgJy1waCcsICc3LjAnLCAnLXRuJywgJzgnLCAnLW1hJywgJzIwMCcsICctbWV0YWxfYmluZGluZycsICctaW1hZScsICc8aW5maWxlLm1hZT4nLCAnLW9tYWUnLCAnPG91dGZpbGUubWFlPic=

> <r_lp_tautomer_probability>
1

> <r_epik_Ionization_Penalty>
6.24796e-05

> <r_epik_Ionization_Penalty_Charging>
0

> <r_epik_Ionization_Penalty_Neutral>
6.24796e-05

> <r_epik_State_Penalty>
-0

> <r_epik_Charging_Adjusted_Penalty>
0

> <i_epik_Tot_Q>
0

> <i_epik_Tot_abs_Q>
0

> <r_epik_Metal_State_Penalty>
-0

> <b_epik_Metal_Only>
0

> <s_lp_Force_Field>
OPLS_2005

> <r_lp_Energy>
17.3536

> <b_lp_Chiralities_Consistent>
1

> <s_lp_Variant>
AV-unprocessed.smi:3267-3

> <Gold.Version>
5.8.1

> <Gold.Id.Protein>
6NUR|6NUR_protein|mol2

> <Gold.PLP.Fitness>
44.0726

> <Gold.PLP.PLP>
-29.7185

> <Gold.PLP.part.hbond>
-3.0260

> <Gold.PLP.part.metal>
0.0000

> <Gold.PLP.part.buried>
-3.0216

> <Gold.PLP.part.nonpolar>
-24.2790

> <Gold.PLP.part.repulsive>
0.6286

> <Gold.PLP.ligand.clash>
0.0000

> <Gold.PLP.ligand.torsion>
0.2840

> <Gold.PLP.Chemscore.Hbond>
2.9680

> <Gold.PLP.Chemscore.CHOScore>
2.0000

> <Gold.PLP.Chemscore.Metal>
0.0000

> <Gold.Chemscore.Hbonds>
donor molecule, donor type, donor heavy atom, donor atom, acceptor molecule, acceptor atom, score
      L1  H     9    28       P1  7948  0.76
      L1  H    12    29       P1  7948  0.90
      P1  H 10752 10765       L1    18  0.97
      L1  C     5    25       P1  7948  1.00
      L1  C     7    27       P1 10186  1.00

> <Gold.PLP.Chemscore.Internal.Correction>
0.0182

> <Gold.Rescore>
     Score         DG    S(hbond)    S(metal)    S(lipo)     H(rot)  DE(clash)    DE(int)     intcor
     12.02     -13.59       1.76        0.00      60.04       1.87       0.02       1.55       ----

> <Gold.Chemscore.Fitness>
12.0179

> <Gold.Chemscore.DG>
-13.5887

> <Gold.Chemscore.ZeroCoef>
-5.4800

> <Gold.Chemscore.Hbond>
1.7597

> <Gold.Chemscore.Metal>
0.0000

> <Gold.Chemscore.Lipo>
60.0389

> <Gold.Chemscore.Internal_Hbond>
0.0000

> <Gold.Chemscore.DEClash>
0.0215

> <Gold.Chemscore.DEInternal>
1.5493

> <Gold.Chemscore.Rot>
1.8724

> <Gold.Chemscore.Internal.Correction>
   9.000000E+99

> <Gold.Chemscore.Hbonds>
donor molecule, donor type, donor heavy atom, donor atom, acceptor molecule, acceptor atom, score
      L1  H     9    28       P1  7948  0.11
      L1  H    12    29       P1  7948  0.17
      P1  H 10752 10765       L1    18  0.33

> <Gold.Chemscore.Hbond.Weighted>
-5.8774

> <Gold.Chemscore.Metal.Weighted>
-0.0000

> <Gold.Chemscore.Lipo.Weighted>
-7.0246

> <Gold.Chemscore.Internal_Hbond.Weighted>
0.0000

> <Gold.Chemscore.DEClash.Weighted>
0.0215

> <Gold.Chemscore.DEInternal.Weighted>
1.5493

> <Gold.Chemscore.Rot.Weighted>
4.7933

> <Gold.Chemscore.Internal.Correction.Weighted>
   9.000000E+99

> <Gold.Protein.RotatedTorsions>
[ 6907 6896 6895 6894 ] final -144.18 input  -60.11 | X-H torsion
[ 7974 7965 7964 7962 ] final -175.15 input  175.53 | X-H torsion
[ 8008 7997 7996 7995 ] final   43.44 input   59.86 | X-H torsion
[ 10167 10162 10161 10158 ] final   14.27 input  -65.29 | X-H torsion
[ 10718 10713 10712 10709 ] final   30.08 input   66.30 | X-H torsion
[ 10763 10752 10751 10750 ] final  153.33 input  -60.55 | X-H torsion
[ 11005 11000 10999 10996 ] final  123.97 input  -57.11 | X-H torsion

> <Gold.Protein.ActiveResidues>
 VAL166  LYS551  ARG553  GLY616  TRP617  ASP618  TYR619  PRO620  LYS621  CYS622 
 ASP623  PHE694  ASN695  SER759  ASP760  ASP761  ALA762  ILE779  LEU786  VAL792 
 PHE793  MET794  SER795  GLU796  ALA797  LYS798  CYS799  TRP800  GLU811  SER814 

> <Gold.Protein.RotatedAtoms>
  151.1105  133.5176  159.2605 H   0  0  0  0  0  0  0  0  0  0  0  0  # atno 6907 bound_to 6896
  151.1972  135.0427  159.8867 H   0  0  0  0  0  0  0  0  0  0  0  0  # atno 6908 bound_to 6896
  152.5450  134.0938  159.8342 H   0  0  0  0  0  0  0  0  0  0  0  0  # atno 6909 bound_to 6896
  144.7129  140.1364  143.6395 H   0  0  0  0  0  0  0  0  0  0  0  0  # atno 7974 bound_to 7965
  155.3028  140.3386  155.4247 H   0  0  0  0  0  0  0  0  0  0  0  0  # atno 8008 bound_to 7997
  156.1993  140.1727  156.7972 H   0  0  0  0  0  0  0  0  0  0  0  0  # atno 8009 bound_to 7997
  154.5538  140.0700  156.8695 H   0  0  0  0  0  0  0  0  0  0  0  0  # atno 8010 bound_to 7997
  140.5947  143.8725  150.6906 H   0  0  0  0  0  0  0  0  0  0  0  0  # atno 10167 bound_to 10162
  157.2549  130.7133  149.6424 H   0  0  0  0  0  0  0  0  0  0  0  0  # atno 10718 bound_to 10713
  154.1345  135.2824  155.3177 H   0  0  0  0  0  0  0  0  0  0  0  0  # atno 10763 bound_to 10752
  154.6331  135.5428  153.7707 H   0  0  0  0  0  0  0  0  0  0  0  0  # atno 10764 bound_to 10752
  153.0270  135.6467  154.1494 H   0  0  0  0  0  0  0  0  0  0  0  0  # atno 10765 bound_to 10752
  139.9337  134.9640  156.8340 H   0  0  0  0  0  0  0  0  0  0  0  0  # atno 11005 bound_to 11000
  145.9241  139.2564  143.1364 LP  0  0  0  0  0  0  0  0  0  0  0  0  # atno 17320 bound_to 7965
  145.9590  140.8850  143.0220 LP  0  0  0  0  0  0  0  0  0  0  0  0  # atno 17321 bound_to 7965
  140.2257  143.3774  152.1607 LP  0  0  0  0  0  0  0  0  0  0  0  0  # atno 17342 bound_to 10162
  139.5250  144.7091  151.5263 LP  0  0  0  0  0  0  0  0  0  0  0  0  # atno 17343 bound_to 10162
  155.9665  130.4416  150.5346 LP  0  0  0  0  0  0  0  0  0  0  0  0  # atno 17370 bound_to 10713
  157.3238  131.0687  151.1912 LP  0  0  0  0  0  0  0  0  0  0  0  0  # atno 17371 bound_to 10713
  140.6133  134.0062  155.7586 LP  0  0  0  0  0  0  0  0  0  0  0  0  # atno 17394 bound_to 11000
  141.0940  133.9873  157.3191 LP  0  0  0  0  0  0  0  0  0  0  0  0  # atno 17395 bound_to 11000

$$$$
