AV-unprocessed.smi:21|AV-procd|sdf|142|dock8
  -GOLD-   2262015353D 1   1.00000     0.00000
 Structure written by MMmdl.
 62 65  0  0  0  0  0  0  0  0  2 V2000
  144.8962  133.5150  151.3609 C   0  0  0  0  0  0  0  0  0  0  0  0
  146.3026  133.5576  151.5448 O   0  0  0  0  0  0  0  0  0  0  0  0
  146.7699  132.7236  152.5974 C   0  0  2  0  0  0  0  0  0  0  0  0
  146.3079  133.3048  153.9269 C   0  0  0  0  0  0  0  0  0  0  0  0
  147.3264  134.4135  154.2185 C   0  0  1  0  0  0  0  0  0  0  0  0
  147.4147  134.8171  155.7110 C   0  0  0  0  0  0  0  0  0  0  0  0
  147.4901  136.2678  155.8957 N   0  0  0  0  0  0  0  0  0  0  0  0
  146.3527  136.9464  156.5037 C   0  0  0  0  0  0  0  0  0  0  0  0
  148.6987  136.8936  155.8387 C   0  0  0  0  0  0  0  0  0  0  0  0
  149.5950  136.4684  154.9091 N   0  0  0  0  0  0  0  0  0  0  0  0
  150.7954  137.0435  154.8033 C   0  0  0  0  0  0  0  0  0  0  0  0
  151.3045  138.0447  155.5203 N   0  0  0  0  0  0  0  0  0  0  0  0
  150.4195  138.4778  156.4620 C   0  0  0  0  0  0  0  0  0  0  0  0
  149.1083  137.9662  156.6894 C   0  0  0  0  0  0  0  0  0  0  0  0
  148.5219  138.6551  157.7469 N   0  0  0  0  0  0  0  0  0  0  0  0
  149.4234  139.5236  158.1126 C   0  0  0  0  0  0  0  0  0  0  0  0
  150.5912  139.4918  157.3881 N   0  0  0  0  0  0  0  0  0  0  0  0
  151.7512  140.3449  157.5832 C   0  0  0  0  0  0  0  0  0  0  0  0
  152.1348  140.5207  159.0730 C   0  0  1  0  0  0  0  0  0  0  0  0
  153.1509  139.4363  159.5015 C   0  0  0  0  0  0  0  0  0  0  0  0
  154.4320  139.7236  158.9804 O   0  0  0  0  0  0  0  0  0  0  0  0
  152.5940  141.9691  159.4027 C   0  0  2  0  0  0  0  0  0  0  0  0
  152.7107  142.3157  160.8820 C   0  0  0  0  0  0  0  0  0  0  0  0
  152.5277  143.8261  160.8685 C   0  0  0  0  0  0  0  0  0  0  0  0
  151.4954  144.0065  159.9129 O   0  0  0  0  0  0  0  0  0  0  0  0
  151.7066  143.0939  158.8402 C   0  0  0  0  0  0  0  0  0  0  0  0
  148.6007  133.9594  153.5897 N   0  3  1  0  0  0  0  0  0  0  0  0
  149.7610  133.7277  154.4828 C   0  0  0  0  0  0  0  0  0  0  0  0
  148.2959  132.7942  152.7244 C   0  0  0  0  0  0  0  0  0  0  0  0
  146.4066  131.7022  152.4713 H   0  0  0  0  0  0  0  0  0  0  0  0
  147.0288  135.2929  153.6454 H   0  0  0  0  0  0  0  0  0  0  0  0
  144.6163  134.1820  150.5458 H   0  0  0  0  0  0  0  0  0  0  0  0
  144.3717  133.8471  152.2578 H   0  0  0  0  0  0  0  0  0  0  0  0
  144.5496  132.5138  151.1055 H   0  0  0  0  0  0  0  0  0  0  0  0
  145.2796  133.6668  153.8961 H   0  0  0  0  0  0  0  0  0  0  0  0
  146.3660  132.5346  154.6974 H   0  0  0  0  0  0  0  0  0  0  0  0
  146.5881  134.3859  156.2752 H   0  0  0  0  0  0  0  0  0  0  0  0
  148.3197  134.3957  156.1489 H   0  0  0  0  0  0  0  0  0  0  0  0
  146.2840  137.9790  156.1596 H   0  0  0  0  0  0  0  0  0  0  0  0
  146.4362  136.9410  157.5908 H   0  0  0  0  0  0  0  0  0  0  0  0
  145.4203  136.4488  156.2366 H   0  0  0  0  0  0  0  0  0  0  0  0
  151.4398  136.6451  154.0336 H   0  0  0  0  0  0  0  0  0  0  0  0
  149.2602  140.2183  158.9240 H   0  0  0  0  0  0  0  0  0  0  0  0
  152.5784  139.9048  157.0253 H   0  0  0  0  0  0  0  0  0  0  0  0
  151.5571  141.3157  157.1263 H   0  0  0  0  0  0  0  0  0  0  0  0
  151.2291  140.3566  159.6596 H   0  0  0  0  0  0  0  0  0  0  0  0
  153.2222  139.3700  160.5872 H   0  0  0  0  0  0  0  0  0  0  0  0
  152.8632  138.4495  159.1414 H   0  0  0  0  0  0  0  0  0  0  0  0
  154.8973  140.2598  159.6043 H   0  0  0  0  0  0  0  0  0  0  0  0
  153.5777  142.1317  158.9612 H   0  0  0  0  0  0  0  0  0  0  0  0
  151.9098  141.8647  161.4664 H   0  0  0  0  0  0  0  0  0  0  0  0
  153.6613  142.0103  161.3191 H   0  0  0  0  0  0  0  0  0  0  0  0
  152.2507  144.2281  161.8432 H   0  0  0  0  0  0  0  0  0  0  0  0
  153.4356  144.3281  160.5297 H   0  0  0  0  0  0  0  0  0  0  0  0
  152.2139  143.6061  158.0216 H   0  0  0  0  0  0  0  0  0  0  0  0
  150.7477  142.7450  158.4584 H   0  0  0  0  0  0  0  0  0  0  0  0
  149.5449  132.9584  155.2252 H   0  0  0  0  0  0  0  0  0  0  0  0
  150.0537  134.6425  154.9977 H   0  0  0  0  0  0  0  0  0  0  0  0
  150.6216  133.3985  153.8993 H   0  0  0  0  0  0  0  0  0  0  0  0
  148.6442  131.8806  153.2091 H   0  0  0  0  0  0  0  0  0  0  0  0
  148.8112  132.8680  151.7673 H   0  0  0  0  0  0  0  0  0  0  0  0
  148.8729  134.7089  152.9697 H   0  0  0  0  0  0  0  0  0  0  0  0
  1  2  1  0  0  0  0
  1 32  1  0  0  0  0
  1 33  1  0  0  0  0
  1 34  1  0  0  0  0
  2  3  1  0  0  0  0
  3 30  1  0  0  0  0
  3 29  1  0  0  0  0
  3  4  1  0  0  0  0
  4  5  1  0  0  0  0
  4 35  1  0  0  0  0
  4 36  1  0  0  0  0
  5 31  1  0  0  0  0
  5  6  1  0  0  0  0
  5 27  1  0  0  0  0
  6  7  1  0  0  0  0
  6 37  1  0  0  0  0
  6 38  1  0  0  0  0
  7  8  1  0  0  0  0
  7  9  1  0  0  0  0
  8 39  1  0  0  0  0
  8 40  1  0  0  0  0
  8 41  1  0  0  0  0
  9 14  1  0  0  0  0
  9 10  2  0  0  0  0
 10 11  1  0  0  0  0
 11 12  2  0  0  0  0
 11 42  1  0  0  0  0
 12 13  1  0  0  0  0
 13 17  1  0  0  0  0
 13 14  2  0  0  0  0
 14 15  1  0  0  0  0
 15 16  2  0  0  0  0
 16 17  1  0  0  0  0
 16 43  1  0  0  0  0
 17 18  1  0  0  0  0
 18 19  1  0  0  0  0
 18 44  1  0  0  0  0
 18 45  1  0  0  0  0
 19 20  1  0  0  0  0
 19 22  1  0  0  0  0
 19 46  1  0  0  0  0
 20 21  1  0  0  0  0
 20 47  1  0  0  0  0
 20 48  1  0  0  0  0
 21 49  1  0  0  0  0
 22 26  1  0  0  0  0
 22 23  1  0  0  0  0
 22 50  1  0  0  0  0
 23 24  1  0  0  0  0
 23 51  1  0  0  0  0
 23 52  1  0  0  0  0
 24 25  1  0  0  0  0
 24 53  1  0  0  0  0
 24 54  1  0  0  0  0
 25 26  1  0  0  0  0
 26 55  1  0  0  0  0
 26 56  1  0  0  0  0
 27 28  1  0  0  0  0
 27 29  1  0  0  0  0
 27 62  1  0  0  0  0
 28 57  1  0  0  0  0
 28 58  1  0  0  0  0
 28 59  1  0  0  0  0
 29 60  1  0  0  0  0
 29 61  1  0  0  0  0
M  CHG  1  27   1
M  END
> <s_m_source_file>
AV-unprocessed.smi

> <i_m_source_file_index>
21

> <i_lp_mmshare_version>
43012

> <i_f3d_flags>
0

> <s_epik_input>
W0NIM11PW0NASF0xW0NIMl1bQ0BIXShOKFtDSDNdKVtDSDJdMSlbQ0gyXU4oW0NIM10pYyhuW2NIXW4yKWMoYzIzKW5bY0hdbjNbQ0gyXVtDQEhdKFtDSDJdW09IXSlbQ0BASF00W0NIMl1bQ0gyXU9bQ0gyXTQ=

> <s_epik_cmdline>
J2VwaWtfcHl0aG9uJywgJy1waCcsICc3LjAnLCAnLXRuJywgJzgnLCAnLW1hJywgJzIwMCcsICctbWV0YWxfYmluZGluZycsICctaW1hZScsICc8aW5maWxlLm1hZT4nLCAnLW9tYWUnLCAnPG91dGZpbGUubWFlPic=

> <r_lp_tautomer_probability>
1

> <r_epik_Ionization_Penalty>
0.0157465

> <r_epik_Ionization_Penalty_Charging>
0.015354

> <r_epik_Ionization_Penalty_Neutral>
0.000392529

> <r_epik_State_Penalty>
0.0120612

> <r_epik_Charging_Adjusted_Penalty>
0.0274152

> <i_epik_Tot_Q>
1

> <i_epik_Tot_abs_Q>
1

> <r_epik_Metal_State_Penalty>
0.0121253

> <b_epik_Metal_Only>
0

> <s_lp_Force_Field>
OPLS_2005

> <r_lp_Energy>
62.7223

> <b_lp_Chiralities_Consistent>
1

> <s_lp_Variant>
AV-unprocessed.smi:21-22

> <Gold.Version>
5.8.1

> <Gold.Id.Protein>
6NUR|6NUR_protein|mol2

> <Gold.PLP.Fitness>
44.2238

> <Gold.PLP.PLP>
-36.0077

> <Gold.PLP.part.hbond>
-2.0000

> <Gold.PLP.part.metal>
0.0000

> <Gold.PLP.part.buried>
-5.9540

> <Gold.PLP.part.nonpolar>
-29.1413

> <Gold.PLP.part.repulsive>
1.4148

> <Gold.PLP.ligand.clash>
0.0000

> <Gold.PLP.ligand.torsion>
2.0708

> <Gold.PLP.Chemscore.Hbond>
3.0000

> <Gold.PLP.Chemscore.CHOScore>
0.9549

> <Gold.PLP.Chemscore.Metal>
0.0000

> <Gold.Chemscore.Hbonds>
donor molecule, donor type, donor heavy atom, donor atom, acceptor molecule, acceptor atom, score
      L1  H    27    62       P1  7948  1.40
      P1  H  7997  8010       L1    21  1.00
      L1  C    11    42       P1  7949  0.73

> <Gold.PLP.Chemscore.Internal.Correction>
0.4930

> <Gold.Rescore>
     Score         DG    S(hbond)    S(metal)    S(lipo)     H(rot)  DE(clash)    DE(int)     intcor
      9.47     -14.31       1.91        0.00      88.22       3.08       0.02       4.83       ----

> <Gold.Chemscore.Fitness>
9.4669

> <Gold.Chemscore.DG>
-14.3134

> <Gold.Chemscore.ZeroCoef>
-5.4800

> <Gold.Chemscore.Hbond>
1.9119

> <Gold.Chemscore.Metal>
0.0000

> <Gold.Chemscore.Lipo>
88.2202

> <Gold.Chemscore.Internal_Hbond>
0.0000

> <Gold.Chemscore.DEClash>
0.0164

> <Gold.Chemscore.DEInternal>
4.8301

> <Gold.Chemscore.Rot>
3.0758

> <Gold.Chemscore.Internal.Correction>
   9.000000E+99

> <Gold.Chemscore.Hbonds>
donor molecule, donor type, donor heavy atom, donor atom, acceptor molecule, acceptor atom, score
      L1  H    27    62       P1  7948  0.07
      P1  H  7997  8010       L1    21  0.54

> <Gold.Chemscore.Hbond.Weighted>
-6.3858

> <Gold.Chemscore.Metal.Weighted>
-0.0000

> <Gold.Chemscore.Lipo.Weighted>
-10.3218

> <Gold.Chemscore.Internal_Hbond.Weighted>
0.0000

> <Gold.Chemscore.DEClash.Weighted>
0.0164

> <Gold.Chemscore.DEInternal.Weighted>
4.8301

> <Gold.Chemscore.Rot.Weighted>
7.8741

> <Gold.Chemscore.Internal.Correction.Weighted>
   9.000000E+99

> <Gold.Protein.RotatedTorsions>
[ 6907 6896 6895 6894 ] final -106.87 input  -60.11 | X-H torsion
[ 7974 7965 7964 7962 ] final   47.01 input  175.53 | X-H torsion
[ 8008 7997 7996 7995 ] final   -6.66 input   59.86 | X-H torsion
[ 10167 10162 10161 10158 ] final  -94.02 input  -65.29 | X-H torsion
[ 10718 10713 10712 10709 ] final   56.17 input   66.30 | X-H torsion
[ 10763 10752 10751 10750 ] final   79.38 input  -60.55 | X-H torsion
[ 11005 11000 10999 10996 ] final  -46.20 input  -57.11 | X-H torsion

> <Gold.Protein.ActiveResidues>
 VAL166  LYS551  ARG553  GLY616  TRP617  ASP618  TYR619  PRO620  LYS621  CYS622 
 ASP623  PHE694  ASN695  SER759  ASP760  ASP761  ALA762  ILE779  LEU786  VAL792 
 PHE793  MET794  SER795  GLU796  ALA797  LYS798  CYS799  TRP800  GLU811  SER814 

> <Gold.Protein.RotatedAtoms>
  150.7412  133.9912  159.3607 H   0  0  0  0  0  0  0  0  0  0  0  0  # atno 6907 bound_to 6896
  151.7859  135.0747  160.0390 H   0  0  0  0  0  0  0  0  0  0  0  0  # atno 6908 bound_to 6896
  152.3241  133.5849  159.5801 H   0  0  0  0  0  0  0  0  0  0  0  0  # atno 6909 bound_to 6896
  146.0337  139.4795  142.9821 H   0  0  0  0  0  0  0  0  0  0  0  0  # atno 7974 bound_to 7965
  154.5916  140.2427  155.7913 H   0  0  0  0  0  0  0  0  0  0  0  0  # atno 8008 bound_to 7997
  156.2251  140.2985  156.0000 H   0  0  0  0  0  0  0  0  0  0  0  0  # atno 8009 bound_to 7997
  155.2365  140.0405  157.2959 H   0  0  0  0  0  0  0  0  0  0  0  0  # atno 8010 bound_to 7997
  140.3187  143.3062  152.0070 H   0  0  0  0  0  0  0  0  0  0  0  0  # atno 10167 bound_to 10162
  157.5408  130.8696  149.8820 H   0  0  0  0  0  0  0  0  0  0  0  0  # atno 10718 bound_to 10713
  153.0948  135.4842  154.8757 H   0  0  0  0  0  0  0  0  0  0  0  0  # atno 10763 bound_to 10752
  154.7311  135.3060  154.8891 H   0  0  0  0  0  0  0  0  0  0  0  0  # atno 10764 bound_to 10752
  153.9527  135.6821  153.4797 H   0  0  0  0  0  0  0  0  0  0  0  0  # atno 10765 bound_to 10752
  141.0564  133.6724  156.3122 H   0  0  0  0  0  0  0  0  0  0  0  0  # atno 11005 bound_to 11000
  145.6998  141.0139  143.1510 LP  0  0  0  0  0  0  0  0  0  0  0  0  # atno 17320 bound_to 7965
  144.7042  139.8631  143.7435 LP  0  0  0  0  0  0  0  0  0  0  0  0  # atno 17321 bound_to 7965
  139.4878  144.6328  151.7036 LP  0  0  0  0  0  0  0  0  0  0  0  0  # atno 17342 bound_to 10162
  140.5503  144.0436  150.6124 LP  0  0  0  0  0  0  0  0  0  0  0  0  # atno 17343 bound_to 10162
  156.0495  130.3720  150.1235 LP  0  0  0  0  0  0  0  0  0  0  0  0  # atno 17370 bound_to 10713
  156.9415  130.9746  151.3515 LP  0  0  0  0  0  0  0  0  0  0  0  0  # atno 17371 bound_to 10713
  140.5955  134.5607  157.5508 LP  0  0  0  0  0  0  0  0  0  0  0  0  # atno 17394 bound_to 11000
  139.9394  134.7815  156.0718 LP  0  0  0  0  0  0  0  0  0  0  0  0  # atno 17395 bound_to 11000

$$$$
