AV-unprocessed.smi:2076|AV-procd|sdf|8459|dock10
  -GOLD-   2272011153D 1   1.00000     0.00000
 Structure written by MMmdl.
 45 46  0  0  0  0  0  0  0  0  2 V2000
  151.9211  144.5875  157.7061 C   0  0  0  0  0  0  0  0  0  0  0  0
  152.3080  143.5027  158.6672 C   0  0  0  0  0  0  0  0  0  0  0  0
  152.7956  143.6363  159.9973 C   0  0  0  0  0  0  0  0  0  0  0  0
  152.9816  142.3503  160.4195 C   0  0  0  0  0  0  0  0  0  0  0  0
  153.4687  141.8288  161.7315 C   0  0  0  0  0  0  0  0  0  0  0  0
  152.6171  141.5262  159.3696 N   0  0  0  0  0  0  0  0  0  0  0  0
  152.6068  140.0724  159.3044 C   0  0  0  0  0  0  0  0  0  0  0  0
  153.9078  139.4913  159.8601 C   0  0  0  0  0  0  0  0  0  0  0  0
  154.9651  139.6415  159.2488 O   0  0  0  0  0  0  0  0  0  0  0  0
  153.8159  138.8408  161.0284 N   0  0  0  0  0  0  0  0  0  0  0  0
  154.9465  138.2972  161.7685 C   0  0  0  0  0  0  0  0  0  0  0  0
  154.4973  137.5938  163.0765 C   0  0  2  0  0  0  0  0  0  0  0  0
  155.1566  138.2662  164.3040 C   0  0  0  0  0  0  0  0  0  0  0  0
  154.7689  136.1185  163.0888 N   0  3  0  0  0  0  0  0  0  0  0  0
  154.1027  135.4236  164.2240 C   0  0  0  0  0  0  0  0  0  0  0  0
  154.4838  133.9351  164.2630 C   0  0  0  0  0  0  0  0  0  0  0  0
  154.1248  133.3234  163.0331 O   0  0  0  0  0  0  0  0  0  0  0  0
  154.8245  133.9011  161.9413 C   0  0  0  0  0  0  0  0  0  0  0  0
  154.4721  135.3941  161.8216 C   0  0  0  0  0  0  0  0  0  0  0  0
  152.2031  142.2369  158.2970 N   0  0  0  0  0  0  0  0  0  0  0  0
  152.1395  145.5735  158.1168 H   0  0  0  0  0  0  0  0  0  0  0  0
  150.8547  144.5504  157.4821 H   0  0  0  0  0  0  0  0  0  0  0  0
  152.4643  144.4930  156.7655 H   0  0  0  0  0  0  0  0  0  0  0  0
  152.9780  144.5408  160.5586 H   0  0  0  0  0  0  0  0  0  0  0  0
  153.6976  142.6469  162.4145 H   0  0  0  0  0  0  0  0  0  0  0  0
  154.3751  141.2369  161.6031 H   0  0  0  0  0  0  0  0  0  0  0  0
  152.7148  141.1991  162.2040 H   0  0  0  0  0  0  0  0  0  0  0  0
  151.7567  139.6883  159.8706 H   0  0  0  0  0  0  0  0  0  0  0  0
  152.4648  139.7606  158.2693 H   0  0  0  0  0  0  0  0  0  0  0  0
  152.9041  138.7649  161.4567 H   0  0  0  0  0  0  0  0  0  0  0  0
  155.4502  137.5985  161.0996 H   0  0  0  0  0  0  0  0  0  0  0  0
  155.6494  139.1002  161.9979 H   0  0  0  0  0  0  0  0  0  0  0  0
  153.4171  137.7304  163.1520 H   0  0  0  0  0  0  0  0  0  0  0  0
  154.9376  139.3330  164.3532 H   0  0  0  0  0  0  0  0  0  0  0  0
  156.2411  138.1571  164.2745 H   0  0  0  0  0  0  0  0  0  0  0  0
  154.8094  137.8504  165.2480 H   0  0  0  0  0  0  0  0  0  0  0  0
  154.3752  135.8732  165.1768 H   0  0  0  0  0  0  0  0  0  0  0  0
  153.0204  135.5227  164.1268 H   0  0  0  0  0  0  0  0  0  0  0  0
  155.5509  133.8083  164.4538 H   0  0  0  0  0  0  0  0  0  0  0  0
  153.9539  133.4336  165.0732 H   0  0  0  0  0  0  0  0  0  0  0  0
  155.8996  133.7645  162.0699 H   0  0  0  0  0  0  0  0  0  0  0  0
  154.5455  133.3763  161.0274 H   0  0  0  0  0  0  0  0  0  0  0  0
  153.4171  135.5117  161.5685 H   0  0  0  0  0  0  0  0  0  0  0  0
  155.0559  135.7985  160.9951 H   0  0  0  0  0  0  0  0  0  0  0  0
  155.7645  136.0206  163.2295 H   0  0  0  0  0  0  0  0  0  0  0  0
  1  2  1  0  0  0  0
  1 21  1  0  0  0  0
  1 22  1  0  0  0  0
  1 23  1  0  0  0  0
  2 20  2  0  0  0  0
  2  3  1  0  0  0  0
  3  4  2  0  0  0  0
  3 24  1  0  0  0  0
  4  5  1  0  0  0  0
  4  6  1  0  0  0  0
  5 25  1  0  0  0  0
  5 26  1  0  0  0  0
  5 27  1  0  0  0  0
  6  7  1  0  0  0  0
  6 20  1  0  0  0  0
  7  8  1  0  0  0  0
  7 28  1  0  0  0  0
  7 29  1  0  0  0  0
  8  9  2  0  0  0  0
  8 10  1  0  0  0  0
 10 11  1  0  0  0  0
 10 30  1  0  0  0  0
 11 12  1  0  0  0  0
 11 31  1  0  0  0  0
 11 32  1  0  0  0  0
 12 13  1  0  0  0  0
 12 14  1  0  0  0  0
 12 33  1  0  0  0  0
 13 34  1  0  0  0  0
 13 35  1  0  0  0  0
 13 36  1  0  0  0  0
 14 19  1  0  0  0  0
 14 15  1  0  0  0  0
 14 45  1  0  0  0  0
 15 16  1  0  0  0  0
 15 37  1  0  0  0  0
 15 38  1  0  0  0  0
 16 17  1  0  0  0  0
 16 39  1  0  0  0  0
 16 40  1  0  0  0  0
 17 18  1  0  0  0  0
 18 19  1  0  0  0  0
 18 41  1  0  0  0  0
 18 42  1  0  0  0  0
 19 43  1  0  0  0  0
 19 44  1  0  0  0  0
M  CHG  1  14   1
M  END
> <s_m_source_file>
AV-unprocessed.smi

> <i_m_source_file_index>
2076

> <i_lp_mmshare_version>
43012

> <i_f3d_flags>
0

> <s_epik_input>
W0NIM11jMVtjSF1jKFtDSDNdKW4objEpW0NIMl1DKD1PKVtOSF1bQ0gyXVtDQEhdKFtDSDNdKU4yW0NIMl1bQ0gyXU9bQ0gyXVtDSDJdMg==

> <s_epik_cmdline>
J2VwaWtfcHl0aG9uJywgJy1waCcsICc3LjAnLCAnLXRuJywgJzgnLCAnLW1hJywgJzIwMCcsICctbWV0YWxfYmluZGluZycsICctaW1hZScsICc8aW5maWxlLm1hZT4nLCAnLW9tYWUnLCAnPG91dGZpbGUubWFlPic=

> <r_lp_tautomer_probability>
1

> <r_epik_Ionization_Penalty>
0.748594

> <r_epik_Ionization_Penalty_Charging>
0.748396

> <r_epik_Ionization_Penalty_Neutral>
0.000197403

> <r_epik_State_Penalty>
0.775162

> <r_epik_Charging_Adjusted_Penalty>
1.52356

> <i_epik_Tot_Q>
1

> <i_epik_Tot_abs_Q>
1

> <r_epik_Metal_State_Penalty>
0.77529

> <b_epik_Metal_Only>
0

> <s_lp_Force_Field>
OPLS_2005

> <r_lp_Energy>
18.1598

> <b_lp_Chiralities_Consistent>
1

> <s_lp_Variant>
AV-unprocessed.smi:2076-3

> <Gold.Version>
5.8.1

> <Gold.Id.Protein>
6NUR|6NUR_protein|mol2

> <Gold.PLP.Fitness>
42.2088

> <Gold.PLP.PLP>
-41.4910

> <Gold.PLP.part.hbond>
-1.0000

> <Gold.PLP.part.metal>
0.0000

> <Gold.PLP.part.buried>
-4.4005

> <Gold.PLP.part.nonpolar>
-35.6807

> <Gold.PLP.part.repulsive>
0.0260

> <Gold.PLP.ligand.clash>
0.0000

> <Gold.PLP.ligand.torsion>
1.1638

> <Gold.PLP.Chemscore.Hbond>
1.0000

> <Gold.PLP.Chemscore.CHOScore>
0.0000

> <Gold.PLP.Chemscore.Metal>
0.0000

> <Gold.Chemscore.Hbonds>
donor molecule, donor type, donor heavy atom, donor atom, acceptor molecule, acceptor atom, score
      P1  H  7997  8010       L1     9  1.00

> <Gold.PLP.Chemscore.Internal.Correction>
0.0454

> <Gold.Rescore>
     Score         DG    S(hbond)    S(metal)    S(lipo)     H(rot)  DE(clash)    DE(int)     intcor
     16.35     -17.31       0.99        0.00     111.68       1.78       0.03       0.93       ----

> <Gold.Chemscore.Fitness>
16.3510

> <Gold.Chemscore.DG>
-17.3129

> <Gold.Chemscore.ZeroCoef>
-5.4800

> <Gold.Chemscore.Hbond>
0.9919

> <Gold.Chemscore.Metal>
0.0000

> <Gold.Chemscore.Lipo>
111.6783

> <Gold.Chemscore.Internal_Hbond>
0.0000

> <Gold.Chemscore.DEClash>
0.0270

> <Gold.Chemscore.DEInternal>
0.9349

> <Gold.Chemscore.Rot>
1.7760

> <Gold.Chemscore.Internal.Correction>
   9.000000E+99

> <Gold.Chemscore.Hbonds>
donor molecule, donor type, donor heavy atom, donor atom, acceptor molecule, acceptor atom, score
      P1  H  7997  8010       L1     9  0.99

> <Gold.Chemscore.Hbond.Weighted>
-3.3130

> <Gold.Chemscore.Metal.Weighted>
-0.0000

> <Gold.Chemscore.Lipo.Weighted>
-13.0664

> <Gold.Chemscore.Internal_Hbond.Weighted>
0.0000

> <Gold.Chemscore.DEClash.Weighted>
0.0270

> <Gold.Chemscore.DEInternal.Weighted>
0.9349

> <Gold.Chemscore.Rot.Weighted>
4.5464

> <Gold.Chemscore.Internal.Correction.Weighted>
   9.000000E+99

> <Gold.Protein.RotatedTorsions>
[ 6907 6896 6895 6894 ] final  106.03 input  -60.11 | X-H torsion
[ 7974 7965 7964 7962 ] final -163.57 input  175.53 | X-H torsion
[ 8008 7997 7996 7995 ] final   -7.66 input   59.86 | X-H torsion
[ 10167 10162 10161 10158 ] final   59.83 input  -65.29 | X-H torsion
[ 10718 10713 10712 10709 ] final  -11.73 input   66.30 | X-H torsion
[ 10763 10752 10751 10750 ] final  -50.61 input  -60.55 | X-H torsion
[ 11005 11000 10999 10996 ] final -138.74 input  -57.11 | X-H torsion

> <Gold.Protein.ActiveResidues>
 VAL166  LYS551  ARG553  GLY616  TRP617  ASP618  TYR619  PRO620  LYS621  CYS622 
 ASP623  PHE694  ASN695  SER759  ASP760  ASP761  ALA762  ILE779  LEU786  VAL792 
 PHE793  MET794  SER795  GLU796  ALA797  LYS798  CYS799  TRP800  GLU811  SER814 

> <Gold.Protein.RotatedAtoms>
  152.5209  133.9442  159.7640 H   0  0  0  0  0  0  0  0  0  0  0  0  # atno 6907 bound_to 6896
  150.9765  133.6281  159.2736 H   0  0  0  0  0  0  0  0  0  0  0  0  # atno 6908 bound_to 6896
  151.3473  135.0882  159.9444 H   0  0  0  0  0  0  0  0  0  0  0  0  # atno 6909 bound_to 6896
  144.7322  140.3087  143.6192 H   0  0  0  0  0  0  0  0  0  0  0  0  # atno 7974 bound_to 7965
  154.5817  140.2401  155.8045 H   0  0  0  0  0  0  0  0  0  0  0  0  # atno 8008 bound_to 7997
  156.2184  140.3005  155.9849 H   0  0  0  0  0  0  0  0  0  0  0  0  # atno 8009 bound_to 7997
  155.2530  140.0411  157.2979 H   0  0  0  0  0  0  0  0  0  0  0  0  # atno 8010 bound_to 7997
  140.1721  144.4266  150.6656 H   0  0  0  0  0  0  0  0  0  0  0  0  # atno 10167 bound_to 10162
  156.6548  130.4965  149.6050 H   0  0  0  0  0  0  0  0  0  0  0  0  # atno 10718 bound_to 10713
  154.1132  135.6546  153.4889 H   0  0  0  0  0  0  0  0  0  0  0  0  # atno 10763 bound_to 10752
  153.0249  135.5252  154.7171 H   0  0  0  0  0  0  0  0  0  0  0  0  # atno 10764 bound_to 10752
  154.6357  135.2982  155.0133 H   0  0  0  0  0  0  0  0  0  0  0  0  # atno 10765 bound_to 10752
  140.8587  134.2196  157.4720 H   0  0  0  0  0  0  0  0  0  0  0  0  # atno 11005 bound_to 11000
  145.7686  139.1849  143.2225 LP  0  0  0  0  0  0  0  0  0  0  0  0  # atno 17320 bound_to 7965
  146.0929  140.7635  142.9586 LP  0  0  0  0  0  0  0  0  0  0  0  0  # atno 17321 bound_to 7965
  140.6575  143.2242  151.5934 LP  0  0  0  0  0  0  0  0  0  0  0  0  # atno 17342 bound_to 10162
  139.5333  144.2853  152.1196 LP  0  0  0  0  0  0  0  0  0  0  0  0  # atno 17343 bound_to 10162
  156.2057  130.6647  151.1215 LP  0  0  0  0  0  0  0  0  0  0  0  0  # atno 17370 bound_to 10713
  157.7129  131.0725  150.6434 LP  0  0  0  0  0  0  0  0  0  0  0  0  # atno 17371 bound_to 10713
  139.8706  134.9719  156.4753 LP  0  0  0  0  0  0  0  0  0  0  0  0  # atno 17394 bound_to 11000
  140.8707  133.7990  155.9362 LP  0  0  0  0  0  0  0  0  0  0  0  0  # atno 17395 bound_to 11000

$$$$
