AV-unprocessed.smi:1284|AV-procd|sdf|5364|dock2
  -GOLD-   22720 4503D 1   1.00000     0.00000
 Structure written by MMmdl.
 39 41  0  0  0  0  0  0  0  0  1 V2000
  148.4650  135.2805  159.5235 N   0  0  0  0  0  0  0  0  0  0  0  0
  148.7174  136.5922  159.5294 C   0  0  0  0  0  0  0  0  0  0  0  0
  148.2977  137.3344  160.4146 O   0  0  0  0  0  0  0  0  0  0  0  0
  149.5657  137.1480  158.3797 C   0  0  0  0  0  0  0  0  0  0  0  0
  150.8240  137.7520  158.9467 C   0  0  0  0  0  0  0  0  0  0  0  0
  151.7436  137.0030  159.5614 N   0  0  0  0  0  0  0  0  0  0  0  0
  152.7103  137.9240  159.9105 C   0  0  0  0  0  0  0  0  0  0  0  0
  153.9460  137.7502  160.5739 C   0  0  0  0  0  0  0  0  0  0  0  0
  154.7840  138.8566  160.8233 C   0  0  0  0  0  0  0  0  0  0  0  0
  154.3978  140.1496  160.4157 C   0  0  0  0  0  0  0  0  0  0  0  0
  153.1688  140.3445  159.7570 C   0  0  0  0  0  0  0  0  0  0  0  0
  152.3364  139.2362  159.5076 C   0  0  0  0  0  0  0  0  0  0  0  0
  151.0965  139.0833  158.8920 N   0  0  0  0  0  0  0  0  0  0  0  0
  150.2949  140.1586  158.3192 C   0  0  0  0  0  0  0  0  0  0  0  0
  151.1395  141.1712  157.5204 C   0  0  1  0  0  0  0  0  0  0  0  0
  150.5697  141.3031  156.2344 O   0  0  0  0  0  0  0  0  0  0  0  0
  151.2669  142.5090  158.2366 C   0  0  0  0  0  0  0  0  0  0  0  0
  150.1068  143.2427  158.5664 C   0  0  0  0  0  0  0  0  0  0  0  0
  150.2148  144.4954  159.2001 C   0  0  0  0  0  0  0  0  0  0  0  0
  151.4835  145.0218  159.5091 C   0  0  0  0  0  0  0  0  0  0  0  0
  152.6445  144.2948  159.1833 C   0  0  0  0  0  0  0  0  0  0  0  0
  152.5372  143.0424  158.5484 C   0  0  0  0  0  0  0  0  0  0  0  0
  147.9011  134.8759  160.2568 H   0  0  0  0  0  0  0  0  0  0  0  0
  148.8285  134.6993  158.7823 H   0  0  0  0  0  0  0  0  0  0  0  0
  149.7802  136.3472  157.6746 H   0  0  0  0  0  0  0  0  0  0  0  0
  149.0166  137.9152  157.8319 H   0  0  0  0  0  0  0  0  0  0  0  0
  154.2504  136.7636  160.8896 H   0  0  0  0  0  0  0  0  0  0  0  0
  155.7273  138.7125  161.3292 H   0  0  0  0  0  0  0  0  0  0  0  0
  155.0453  140.9922  160.6091 H   0  0  0  0  0  0  0  0  0  0  0  0
  152.8738  141.3342  159.4418 H   0  0  0  0  0  0  0  0  0  0  0  0
  149.5179  139.7207  157.6929 H   0  0  0  0  0  0  0  0  0  0  0  0
  149.7650  140.6669  159.1257 H   0  0  0  0  0  0  0  0  0  0  0  0
  152.1378  140.7643  157.3667 H   0  0  0  0  0  0  0  0  0  0  0  0
  150.0564  142.0965  156.2163 H   0  0  0  0  0  0  0  0  0  0  0  0
  149.1293  142.8525  158.3239 H   0  0  0  0  0  0  0  0  0  0  0  0
  149.3237  145.0541  159.4458 H   0  0  0  0  0  0  0  0  0  0  0  0
  151.5659  145.9834  159.9938 H   0  0  0  0  0  0  0  0  0  0  0  0
  153.6182  144.6995  159.4168 H   0  0  0  0  0  0  0  0  0  0  0  0
  153.4338  142.4973  158.2925 H   0  0  0  0  0  0  0  0  0  0  0  0
  1  2  1  0  0  0  0
  1 23  1  0  0  0  0
  1 24  1  0  0  0  0
  2  3  2  0  0  0  0
  2  4  1  0  0  0  0
  4  5  1  0  0  0  0
  4 25  1  0  0  0  0
  4 26  1  0  0  0  0
  5 13  1  0  0  0  0
  5  6  2  0  0  0  0
  6  7  1  0  0  0  0
  7 12  2  0  0  0  0
  7  8  1  0  0  0  0
  8  9  2  0  0  0  0
  8 27  1  0  0  0  0
  9 10  1  0  0  0  0
  9 28  1  0  0  0  0
 10 11  2  0  0  0  0
 10 29  1  0  0  0  0
 11 12  1  0  0  0  0
 11 30  1  0  0  0  0
 12 13  1  0  0  0  0
 13 14  1  0  0  0  0
 14 15  1  0  0  0  0
 14 31  1  0  0  0  0
 14 32  1  0  0  0  0
 15 16  1  0  0  0  0
 15 17  1  0  0  0  0
 15 33  1  0  0  0  0
 16 34  1  0  0  0  0
 17 22  1  0  0  0  0
 17 18  2  0  0  0  0
 18 19  1  0  0  0  0
 18 35  1  0  0  0  0
 19 20  2  0  0  0  0
 19 36  1  0  0  0  0
 20 21  1  0  0  0  0
 20 37  1  0  0  0  0
 21 22  2  0  0  0  0
 21 38  1  0  0  0  0
 22 39  1  0  0  0  0
M  END
> <s_m_source_file>
AV-unprocessed.smi

> <i_m_source_file_index>
1284

> <i_lp_mmshare_version>
43012

> <i_f3d_flags>
0

> <s_epik_input>
W2NIXTFbY0hdW2NIXVtjSF1jKGMxMiluKGMobjIpW0NIMl1DKD1PKVtOSDJdKVtDSDJdW0NASF0oW09IXSljM1tjSF1bY0hdW2NIXVtjSF1bY0hdMw==

> <s_epik_cmdline>
J2VwaWtfcHl0aG9uJywgJy1waCcsICc3LjAnLCAnLXRuJywgJzgnLCAnLW1hJywgJzIwMCcsICctbWV0YWxfYmluZGluZycsICctaW1hZScsICc8aW5maWxlLm1hZT4nLCAnLW9tYWUnLCAnPG91dGZpbGUubWFlPic=

> <r_epik_Ionization_Penalty>
0.0366899

> <r_epik_Ionization_Penalty_Charging>
0

> <r_epik_Ionization_Penalty_Neutral>
0.0366899

> <r_epik_State_Penalty>
0.0306642

> <r_epik_Charging_Adjusted_Penalty>
0.0306642

> <i_epik_Tot_Q>
0

> <i_epik_Tot_abs_Q>
0

> <r_epik_Metal_State_Penalty>
0.028853

> <b_epik_Metal_Only>
0

> <s_lp_Force_Field>
OPLS_2005

> <r_lp_Energy>
12.7879

> <b_lp_Chiralities_Consistent>
1

> <s_lp_Variant>
AV-unprocessed.smi:1284-2

> <Gold.Version>
5.8.1

> <Gold.Id.Protein>
6NUR|6NUR_protein|mol2

> <Gold.PLP.Fitness>
44.8355

> <Gold.PLP.PLP>
-40.7392

> <Gold.PLP.part.hbond>
-3.0000

> <Gold.PLP.part.metal>
0.0000

> <Gold.PLP.part.buried>
-7.1568

> <Gold.PLP.part.nonpolar>
-31.5106

> <Gold.PLP.part.repulsive>
0.1056

> <Gold.PLP.ligand.clash>
0.0000

> <Gold.PLP.ligand.torsion>
1.0063

> <Gold.PLP.Chemscore.Hbond>
2.0183

> <Gold.PLP.Chemscore.CHOScore>
0.0000

> <Gold.PLP.Chemscore.Metal>
0.0000

> <Gold.Chemscore.Hbonds>
donor molecule, donor type, donor heavy atom, donor atom, acceptor molecule, acceptor atom, score
      P1  H  6896  6908       L1     6  1.00
      P1  H  6931  6943       L1     3  0.66
      P1  H  6934  6947       L1     3  0.51

> <Gold.PLP.Chemscore.Internal.Correction>
0.0538

> <Gold.Rescore>
     Score         DG    S(hbond)    S(metal)    S(lipo)     H(rot)  DE(clash)    DE(int)     intcor
     18.32     -19.35       2.48        0.00     110.28       2.86       0.00       1.03       ----

> <Gold.Chemscore.Fitness>
18.3201

> <Gold.Chemscore.DG>
-19.3479

> <Gold.Chemscore.ZeroCoef>
-5.4800

> <Gold.Chemscore.Hbond>
2.4815

> <Gold.Chemscore.Metal>
0.0000

> <Gold.Chemscore.Lipo>
110.2813

> <Gold.Chemscore.Internal_Hbond>
0.0000

> <Gold.Chemscore.DEClash>
0.0021

> <Gold.Chemscore.DEInternal>
1.0257

> <Gold.Chemscore.Rot>
2.8606

> <Gold.Chemscore.Internal.Correction>
   9.000000E+99

> <Gold.Chemscore.Hbonds>
donor molecule, donor type, donor heavy atom, donor atom, acceptor molecule, acceptor atom, score
      P1  H  6896  6908       L1     6  0.92
      P1  H  6931  6943       L1     3  0.66
      P1  H  6934  6947       L1     3  0.50

> <Gold.Chemscore.Hbond.Weighted>
-8.2881

> <Gold.Chemscore.Metal.Weighted>
-0.0000

> <Gold.Chemscore.Lipo.Weighted>
-12.9029

> <Gold.Chemscore.Internal_Hbond.Weighted>
0.0000

> <Gold.Chemscore.DEClash.Weighted>
0.0021

> <Gold.Chemscore.DEInternal.Weighted>
1.0257

> <Gold.Chemscore.Rot.Weighted>
7.3231

> <Gold.Chemscore.Internal.Correction.Weighted>
   9.000000E+99

> <Gold.Protein.RotatedTorsions>
[ 6907 6896 6895 6894 ] final -136.43 input  -60.11 | X-H torsion
[ 7974 7965 7964 7962 ] final  -93.64 input  175.53 | X-H torsion
[ 8008 7997 7996 7995 ] final -172.35 input   59.86 | X-H torsion
[ 10167 10162 10161 10158 ] final   41.74 input  -65.29 | X-H torsion
[ 10718 10713 10712 10709 ] final -146.01 input   66.30 | X-H torsion
[ 10763 10752 10751 10750 ] final -177.00 input  -60.55 | X-H torsion
[ 11005 11000 10999 10996 ] final   83.67 input  -57.11 | X-H torsion

> <Gold.Protein.ActiveResidues>
 VAL166  LYS551  ARG553  GLY616  TRP617  ASP618  TYR619  PRO620  LYS621  CYS622 
 ASP623  PHE694  ASN695  SER759  ASP760  ASP761  ALA762  ILE779  LEU786  VAL792 
 PHE793  MET794  SER795  GLU796  ALA797  LYS798  CYS799  TRP800  GLU811  SER814 

> <Gold.Protein.RotatedAtoms>
  151.0099  133.5975  159.2683 H   0  0  0  0  0  0  0  0  0  0  0  0  # atno 6907 bound_to 6896
  151.3130  135.0798  159.9289 H   0  0  0  0  0  0  0  0  0  0  0  0  # atno 6908 bound_to 6896
  152.5297  133.9761  159.7839 H   0  0  0  0  0  0  0  0  0  0  0  0  # atno 6909 bound_to 6896
  145.3839  140.9521  143.2378 H   0  0  0  0  0  0  0  0  0  0  0  0  # atno 7974 bound_to 7965
  155.9435  140.1113  157.1036 H   0  0  0  0  0  0  0  0  0  0  0  0  # atno 8008 bound_to 7997
  154.4094  140.1214  156.5024 H   0  0  0  0  0  0  0  0  0  0  0  0  # atno 8009 bound_to 7997
  155.6932  140.3472  155.4904 H   0  0  0  0  0  0  0  0  0  0  0  0  # atno 8010 bound_to 7997
  140.3613  144.2224  150.6138 H   0  0  0  0  0  0  0  0  0  0  0  0  # atno 10167 bound_to 10162
  156.3896  130.7879  151.2079 H   0  0  0  0  0  0  0  0  0  0  0  0  # atno 10718 bound_to 10713
  154.5655  135.2823  155.0878 H   0  0  0  0  0  0  0  0  0  0  0  0  # atno 10763 bound_to 10752
  154.2271  135.6381  153.5167 H   0  0  0  0  0  0  0  0  0  0  0  0  # atno 10764 bound_to 10752
  153.0041  135.5528  154.6262 H   0  0  0  0  0  0  0  0  0  0  0  0  # atno 10765 bound_to 10752
  139.9024  134.8161  156.2341 H   0  0  0  0  0  0  0  0  0  0  0  0  # atno 11005 bound_to 11000
  144.8488  139.5355  143.6866 LP  0  0  0  0  0  0  0  0  0  0  0  0  # atno 17320 bound_to 7965
  146.2829  139.6926  142.9216 LP  0  0  0  0  0  0  0  0  0  0  0  0  # atno 17321 bound_to 7965
  140.5124  143.2287  151.8515 LP  0  0  0  0  0  0  0  0  0  0  0  0  # atno 17342 bound_to 10162
  139.4814  144.4934  151.9155 LP  0  0  0  0  0  0  0  0  0  0  0  0  # atno 17343 bound_to 10162
  157.7498  131.0319  150.4205 LP  0  0  0  0  0  0  0  0  0  0  0  0  # atno 17370 bound_to 10713
  156.4464  130.4002  149.6664 LP  0  0  0  0  0  0  0  0  0  0  0  0  # atno 17371 bound_to 10713
  141.0327  133.6980  156.1457 LP  0  0  0  0  0  0  0  0  0  0  0  0  # atno 17394 bound_to 11000
  140.7073  134.4499  157.5583 LP  0  0  0  0  0  0  0  0  0  0  0  0  # atno 17395 bound_to 11000

$$$$
