AV-unprocessed.smi:925|AV-procd|sdf|4181|dock5
  -GOLD-   22720 2 83D 1   1.00000     0.00000
 Structure written by MMmdl.
 29 30  0  0  0  0  0  0  0  0  1 V2000
  151.5826  141.2841  157.1919 O   0  0  0  0  0  0  0  0  0  0  0  0
  150.7856  142.1461  156.8204 C   0  0  0  0  0  0  0  0  0  0  0  0
  149.8367  141.9761  155.8827 N   0  0  0  0  0  0  0  0  0  0  0  0
  149.5415  140.8083  155.1305 C   0  0  0  0  0  0  0  0  0  0  0  0
  148.3926  140.6239  154.4611 N   0  0  0  0  0  0  0  0  0  0  0  0
  148.3614  139.3972  153.8103 N   0  0  0  0  0  0  0  0  0  0  0  0
  149.4864  138.7058  154.0138 C   0  0  0  0  0  0  0  0  0  0  0  0
  150.6942  139.4856  155.0206 S   0  0  0  0  0  0  0  0  0  0  0  0
  150.7607  143.3928  157.3146 N   0  0  0  0  0  0  0  0  0  0  0  0
  151.6590  143.9095  158.3432 C   0  0  0  0  0  0  0  0  0  0  0  0
  151.9118  142.8455  159.4318 C   0  0  0  0  0  0  0  0  0  0  0  0
  152.7951  143.3971  160.5626 C   0  0  0  0  0  0  0  0  0  0  0  0
  152.1944  144.6752  161.1687 C   0  0  0  0  0  0  0  0  0  0  0  0
  151.9460  145.7383  160.0874 C   0  0  0  0  0  0  0  0  0  0  0  0
  151.0592  145.1881  158.9585 C   0  0  0  0  0  0  0  0  0  0  0  0
  149.2567  142.7775  155.6824 H   0  0  0  0  0  0  0  0  0  0  0  0
  149.6059  137.7297  153.5676 H   0  0  0  0  0  0  0  0  0  0  0  0
  150.0716  144.0347  156.9516 H   0  0  0  0  0  0  0  0  0  0  0  0
  152.6122  144.1737  157.8809 H   0  0  0  0  0  0  0  0  0  0  0  0
  150.9611  142.5088  159.8480 H   0  0  0  0  0  0  0  0  0  0  0  0
  152.3867  141.9653  158.9965 H   0  0  0  0  0  0  0  0  0  0  0  0
  152.9205  142.6412  161.3384 H   0  0  0  0  0  0  0  0  0  0  0  0
  153.7920  143.6107  160.1748 H   0  0  0  0  0  0  0  0  0  0  0  0
  151.2552  144.4360  161.6692 H   0  0  0  0  0  0  0  0  0  0  0  0
  152.8610  145.0725  161.9348 H   0  0  0  0  0  0  0  0  0  0  0  0
  151.4795  146.6181  160.5314 H   0  0  0  0  0  0  0  0  0  0  0  0
  152.8997  146.0693  159.6744 H   0  0  0  0  0  0  0  0  0  0  0  0
  150.9318  145.9501  158.1886 H   0  0  0  0  0  0  0  0  0  0  0  0
  150.0637  144.9776  159.3528 H   0  0  0  0  0  0  0  0  0  0  0  0
  1  2  2  0  0  0  0
  2  3  1  0  0  0  0
  2  9  1  0  0  0  0
  3  4  1  0  0  0  0
  3 16  1  0  0  0  0
  4  8  1  0  0  0  0
  4  5  2  0  0  0  0
  5  6  1  0  0  0  0
  6  7  2  0  0  0  0
  7  8  1  0  0  0  0
  7 17  1  0  0  0  0
  9 10  1  0  0  0  0
  9 18  1  0  0  0  0
 10 15  1  0  0  0  0
 10 11  1  0  0  0  0
 10 19  1  0  0  0  0
 11 12  1  0  0  0  0
 11 20  1  0  0  0  0
 11 21  1  0  0  0  0
 12 13  1  0  0  0  0
 12 22  1  0  0  0  0
 12 23  1  0  0  0  0
 13 14  1  0  0  0  0
 13 24  1  0  0  0  0
 13 25  1  0  0  0  0
 14 15  1  0  0  0  0
 14 26  1  0  0  0  0
 14 27  1  0  0  0  0
 15 28  1  0  0  0  0
 15 29  1  0  0  0  0
M  END
> <s_m_source_file>
AV-unprocessed.smi

> <i_m_source_file_index>
925

> <i_lp_mmshare_version>
43012

> <i_f3d_flags>
0

> <s_epik_input>
czFbY0hdbm5jMVtOSF1DKD1PKVtOSF1bQ0hdMltDSDJdW0NIMl1bQ0gyXVtDSDJdW0NIMl0y

> <s_epik_cmdline>
J2VwaWtfcHl0aG9uJywgJy1waCcsICc3LjAnLCAnLXRuJywgJzgnLCAnLW1hJywgJzIwMCcsICctbWV0YWxfYmluZGluZycsICctaW1hZScsICc8aW5maWxlLm1hZT4nLCAnLW9tYWUnLCAnPG91dGZpbGUubWFlPic=

> <r_lp_tautomer_probability>
1

> <r_epik_Ionization_Penalty>
0.000322846

> <r_epik_Ionization_Penalty_Charging>
0

> <r_epik_Ionization_Penalty_Neutral>
0.000322846

> <r_epik_State_Penalty>
-0

> <r_epik_Charging_Adjusted_Penalty>
0

> <i_epik_Tot_Q>
0

> <i_epik_Tot_abs_Q>
0

> <r_epik_Metal_State_Penalty>
0.17121

> <b_epik_Metal_Only>
0

> <s_lp_Force_Field>
OPLS_2005

> <r_lp_Energy>
7.89547

> <b_lp_Chiralities_Consistent>
1

> <s_lp_Variant>
AV-unprocessed.smi:925-1

> <Gold.Version>
5.8.1

> <Gold.Id.Protein>
6NUR|6NUR_protein|mol2

> <Gold.PLP.Fitness>
42.0591

> <Gold.PLP.PLP>
-33.7129

> <Gold.PLP.part.hbond>
-2.0000

> <Gold.PLP.part.metal>
0.0000

> <Gold.PLP.part.buried>
-3.6816

> <Gold.PLP.part.nonpolar>
-28.5527

> <Gold.PLP.part.repulsive>
1.3205

> <Gold.PLP.ligand.clash>
0.0000

> <Gold.PLP.ligand.torsion>
0.3285

> <Gold.PLP.Chemscore.Hbond>
2.0000

> <Gold.PLP.Chemscore.CHOScore>
1.0000

> <Gold.PLP.Chemscore.Metal>
0.0000

> <Gold.Chemscore.Hbonds>
donor molecule, donor type, donor heavy atom, donor atom, acceptor molecule, acceptor atom, score
      L1  H     3    16       P1  8028  1.00
      L1  H     9    18       P1  8028  1.00
      L1  C     7    17       P1  7948  1.00

> <Gold.PLP.Chemscore.Internal.Correction>
0.0032

> <Gold.Rescore>
     Score         DG    S(hbond)    S(metal)    S(lipo)     H(rot)  DE(clash)    DE(int)     intcor
     16.43     -19.43       1.95        0.00      85.46       1.00       0.13       2.87       ----

> <Gold.Chemscore.Fitness>
16.4292

> <Gold.Chemscore.DG>
-19.4289

> <Gold.Chemscore.ZeroCoef>
-5.4800

> <Gold.Chemscore.Hbond>
1.9491

> <Gold.Chemscore.Metal>
0.0000

> <Gold.Chemscore.Lipo>
85.4596

> <Gold.Chemscore.Internal_Hbond>
0.0000

> <Gold.Chemscore.DEClash>
0.1269

> <Gold.Chemscore.DEInternal>
2.8728

> <Gold.Chemscore.Rot>
1.0000

> <Gold.Chemscore.Internal.Correction>
   9.000000E+99

> <Gold.Chemscore.Hbonds>
donor molecule, donor type, donor heavy atom, donor atom, acceptor molecule, acceptor atom, score
      L1  H     3    16       P1  8028  0.95
      L1  H     9    18       P1  8028  0.95

> <Gold.Chemscore.Hbond.Weighted>
-6.5101

> <Gold.Chemscore.Metal.Weighted>
-0.0000

> <Gold.Chemscore.Lipo.Weighted>
-9.9988

> <Gold.Chemscore.Internal_Hbond.Weighted>
0.0000

> <Gold.Chemscore.DEClash.Weighted>
0.1269

> <Gold.Chemscore.DEInternal.Weighted>
2.8728

> <Gold.Chemscore.Rot.Weighted>
2.5600

> <Gold.Chemscore.Internal.Correction.Weighted>
   9.000000E+99

> <Gold.Protein.RotatedTorsions>
[ 6907 6896 6895 6894 ] final  175.95 input  -60.11 | X-H torsion
[ 7974 7965 7964 7962 ] final   23.09 input  175.53 | X-H torsion
[ 8008 7997 7996 7995 ] final  -98.86 input   59.86 | X-H torsion
[ 10167 10162 10161 10158 ] final  -10.01 input  -65.29 | X-H torsion
[ 10718 10713 10712 10709 ] final    2.75 input   66.30 | X-H torsion
[ 10763 10752 10751 10750 ] final   20.86 input  -60.55 | X-H torsion
[ 11005 11000 10999 10996 ] final -172.82 input  -57.11 | X-H torsion

> <Gold.Protein.ActiveResidues>
 VAL166  LYS551  ARG553  GLY616  TRP617  ASP618  TYR619  PRO620  LYS621  CYS622 
 ASP623  PHE694  ASN695  SER759  ASP760  ASP761  ALA762  ILE779  LEU786  VAL792 
 PHE793  MET794  SER795  GLU796  ALA797  LYS798  CYS799  TRP800  GLU811  SER814 

> <Gold.Protein.RotatedAtoms>
  151.7280  133.3316  159.3332 H   0  0  0  0  0  0  0  0  0  0  0  0  # atno 6907 bound_to 6896
  150.7624  134.6389  159.6235 H   0  0  0  0  0  0  0  0  0  0  0  0  # atno 6908 bound_to 6896
  152.3610  134.6875  160.0259 H   0  0  0  0  0  0  0  0  0  0  0  0  # atno 6909 bound_to 6896
  146.2000  139.7793  142.8769 H   0  0  0  0  0  0  0  0  0  0  0  0  # atno 7974 bound_to 7965
  154.8069  140.0452  157.1314 H   0  0  0  0  0  0  0  0  0  0  0  0  # atno 8008 bound_to 7997
  154.9413  140.3053  155.5099 H   0  0  0  0  0  0  0  0  0  0  0  0  # atno 8009 bound_to 7997
  156.2968  140.2305  156.4482 H   0  0  0  0  0  0  0  0  0  0  0  0  # atno 8010 bound_to 7997
  140.7103  143.5794  150.9007 H   0  0  0  0  0  0  0  0  0  0  0  0  # atno 10167 bound_to 10162
  156.8676  130.5609  149.5659 H   0  0  0  0  0  0  0  0  0  0  0  0  # atno 10718 bound_to 10713
  153.1042  135.6680  153.9616 H   0  0  0  0  0  0  0  0  0  0  0  0  # atno 10763 bound_to 10752
  153.9178  135.3018  155.3449 H   0  0  0  0  0  0  0  0  0  0  0  0  # atno 10764 bound_to 10752
  154.7464  135.5056  153.9287 H   0  0  0  0  0  0  0  0  0  0  0  0  # atno 10765 bound_to 10752
  140.4927  134.5969  157.4960 H   0  0  0  0  0  0  0  0  0  0  0  0  # atno 11005 bound_to 11000
  145.3517  141.0308  143.3335 LP  0  0  0  0  0  0  0  0  0  0  0  0  # atno 17320 bound_to 7965
  144.8662  139.5104  143.6789 LP  0  0  0  0  0  0  0  0  0  0  0  0  # atno 17321 bound_to 7965
  139.9520  143.6261  152.3026 LP  0  0  0  0  0  0  0  0  0  0  0  0  # atno 17342 bound_to 10162
  139.6783  144.7657  151.1655 LP  0  0  0  0  0  0  0  0  0  0  0  0  # atno 17343 bound_to 10162
  156.0743  130.5769  150.9444 LP  0  0  0  0  0  0  0  0  0  0  0  0  # atno 17370 bound_to 10713
  157.6214  131.0929  150.8615 LP  0  0  0  0  0  0  0  0  0  0  0  0  # atno 17371 bound_to 10713
  139.9759  134.7215  155.9950 LP  0  0  0  0  0  0  0  0  0  0  0  0  # atno 17394 bound_to 11000
  141.1476  133.6553  156.3914 LP  0  0  0  0  0  0  0  0  0  0  0  0  # atno 17395 bound_to 11000

$$$$
