AV-unprocessed.smi:112|AV-procd|sdf|1085|dock1
  -GOLD-   2262018183D 1   1.00000     0.00000
 Structure written by MMmdl.
 54 57  0  0  0  0  0  0  0  0  3 V2000
  146.8372  138.7025  156.4865 C   0  0  0  0  0  0  0  0  0  0  0  0
  148.2888  138.4210  156.1314 C   0  0  0  0  0  0  0  0  0  0  0  0
  148.6933  137.2187  155.6606 C   0  0  0  0  0  0  0  0  0  0  0  0
  150.0048  136.9319  155.3261 N   0  0  0  0  0  0  0  0  0  0  0  0
  150.4168  135.5858  154.7716 C   0  0  2  0  0  0  0  0  0  0  0  0
  149.1931  134.6657  154.6391 C   0  0  0  0  0  0  0  0  0  0  0  0
  149.7300  133.3377  155.1348 C   0  0  2  0  0  0  0  0  0  0  0  0
  148.6944  132.5417  155.6735 O   0  0  0  0  0  0  0  0  0  0  0  0
  150.7258  133.8018  156.1997 C   0  0  1  0  0  0  0  0  0  0  0  0
  151.8032  132.7956  156.6396 C   0  0  0  0  0  0  0  0  0  0  0  0
  151.3644  131.9878  157.7115 O   0  0  0  0  0  0  0  0  0  0  0  0
  151.3202  134.9702  155.6455 O   0  0  0  0  0  0  0  0  0  0  0  0
  150.9912  137.9292  155.4554 C   0  0  0  0  0  0  0  0  0  0  0  0
  152.1596  137.7047  155.1307 O   0  0  0  0  0  0  0  0  0  0  0  0
  150.6036  139.1932  155.9533 N   0  0  0  0  0  0  0  0  0  0  0  0
  151.6349  140.2484  156.0756 C   0  0  0  0  0  0  0  0  0  0  0  0
  152.3845  140.2313  157.4266 C   0  0  0  0  0  0  0  0  0  0  0  0
  153.1772  139.3167  157.6545 O   0  0  0  0  0  0  0  0  0  0  0  0
  152.1375  141.2371  158.3023 N   0  0  0  0  0  0  0  0  0  0  0  0
  151.2004  142.3408  158.0296 C   0  0  0  0  0  0  0  0  0  0  0  0
  151.2531  143.2700  159.2617 C   0  0  0  0  0  0  0  0  0  0  0  0
  152.2220  142.5732  160.1702 C   0  0  0  0  0  0  0  0  0  0  0  0
  152.6210  142.9924  161.4504 C   0  0  0  0  0  0  0  0  0  0  0  0
  153.5541  142.2047  162.1690 C   0  0  0  0  0  0  0  0  0  0  0  0
  153.9972  142.6148  163.5163 N   0  3  0  0  0  0  0  0  0  0  0  0
  153.4194  143.5509  164.0594 O   0  0  0  0  0  0  0  0  0  0  0  0
  154.9246  142.0009  164.0343 O   0  5  0  0  0  0  0  0  0  0  0  0
  154.0565  141.0165  161.5748 C   0  0  0  0  0  0  0  0  0  0  0  0
  153.6437  140.6094  160.2871 C   0  0  0  0  0  0  0  0  0  0  0  0
  152.7137  141.4103  159.5890 C   0  0  0  0  0  0  0  0  0  0  0  0
  149.2653  139.4998  156.3020 C   0  0  0  0  0  0  0  0  0  0  0  0
  148.9647  140.6221  156.7130 O   0  0  0  0  0  0  0  0  0  0  0  0
  146.2048  137.8269  156.3373 H   0  0  0  0  0  0  0  0  0  0  0  0
  146.4433  139.5078  155.8655 H   0  0  0  0  0  0  0  0  0  0  0  0
  146.7496  139.0006  157.5319 H   0  0  0  0  0  0  0  0  0  0  0  0
  147.9407  136.4547  155.5396 H   0  0  0  0  0  0  0  0  0  0  0  0
  150.9300  135.7808  153.8285 H   0  0  0  0  0  0  0  0  0  0  0  0
  148.3940  135.0272  155.2896 H   0  0  0  0  0  0  0  0  0  0  0  0
  148.8277  134.6377  153.6121 H   0  0  0  0  0  0  0  0  0  0  0  0
  150.2261  132.8139  154.3171 H   0  0  0  0  0  0  0  0  0  0  0  0
  148.0226  132.4384  155.0168 H   0  0  0  0  0  0  0  0  0  0  0  0
  150.1734  134.1238  157.0845 H   0  0  0  0  0  0  0  0  0  0  0  0
  152.1031  132.1641  155.8030 H   0  0  0  0  0  0  0  0  0  0  0  0
  152.6932  133.3319  156.9695 H   0  0  0  0  0  0  0  0  0  0  0  0
  151.9952  131.2962  157.8423 H   0  0  0  0  0  0  0  0  0  0  0  0
  152.3675  140.1716  155.2711 H   0  0  0  0  0  0  0  0  0  0  0  0
  151.1774  141.2271  155.9268 H   0  0  0  0  0  0  0  0  0  0  0  0
  151.4858  142.8841  157.1278 H   0  0  0  0  0  0  0  0  0  0  0  0
  150.1880  141.9577  157.8941 H   0  0  0  0  0  0  0  0  0  0  0  0
  151.6216  144.2637  159.0047 H   0  0  0  0  0  0  0  0  0  0  0  0
  150.2786  143.3673  159.7413 H   0  0  0  0  0  0  0  0  0  0  0  0
  152.2142  143.9026  161.8662 H   0  0  0  0  0  0  0  0  0  0  0  0
  154.7682  140.4004  162.1045 H   0  0  0  0  0  0  0  0  0  0  0  0
  154.0484  139.6993  159.8733 H   0  0  0  0  0  0  0  0  0  0  0  0
  1  2  1  0  0  0  0
  1 33  1  0  0  0  0
  1 34  1  0  0  0  0
  1 35  1  0  0  0  0
  2 31  1  0  0  0  0
  2  3  2  0  0  0  0
  3  4  1  0  0  0  0
  3 36  1  0  0  0  0
  4  5  1  0  0  0  0
  4 13  1  0  0  0  0
  5 12  1  0  0  0  0
  5  6  1  0  0  0  0
  5 37  1  0  0  0  0
  6  7  1  0  0  0  0
  6 38  1  0  0  0  0
  6 39  1  0  0  0  0
  7  8  1  0  0  0  0
  7  9  1  0  0  0  0
  7 40  1  0  0  0  0
  8 41  1  0  0  0  0
  9 10  1  0  0  0  0
  9 12  1  0  0  0  0
  9 42  1  0  0  0  0
 10 11  1  0  0  0  0
 10 43  1  0  0  0  0
 10 44  1  0  0  0  0
 11 45  1  0  0  0  0
 13 14  2  0  0  0  0
 13 15  1  0  0  0  0
 15 16  1  0  0  0  0
 15 31  1  0  0  0  0
 16 17  1  0  0  0  0
 16 46  1  0  0  0  0
 16 47  1  0  0  0  0
 17 18  2  0  0  0  0
 17 19  1  0  0  0  0
 19 30  1  0  0  0  0
 19 20  1  0  0  0  0
 20 21  1  0  0  0  0
 20 48  1  0  0  0  0
 20 49  1  0  0  0  0
 21 22  1  0  0  0  0
 21 50  1  0  0  0  0
 21 51  1  0  0  0  0
 22 30  2  0  0  0  0
 22 23  1  0  0  0  0
 23 24  2  0  0  0  0
 23 52  1  0  0  0  0
 24 25  1  0  0  0  0
 24 28  1  0  0  0  0
 25 26  2  0  0  0  0
 25 27  1  0  0  0  0
 28 29  2  0  0  0  0
 28 53  1  0  0  0  0
 29 30  1  0  0  0  0
 29 54  1  0  0  0  0
 31 32  2  0  0  0  0
M  CHG  1  25   1
M  CHG  1  27  -1
M  END
> <s_m_source_file>
AV-unprocessed.smi

> <i_m_source_file_index>
112

> <i_lp_mmshare_version>
43012

> <i_f3d_flags>
0

> <s_epik_input>
W09IXVtDSDJdW0NAQEhdKE8xKVtDQEhdKFtPSF0pW0NIMl1bQ0BIXTFuKFtjSF1jMltDSDNdKWMoPU8pbihjMj1PKVtDSDJdQyg9TylOKFtDSDJdW0NIMl0zKWMoYzM0KVtjSF1bY0hdYyhbY0hdNClbTitdKD1PKVtPLV0=

> <s_epik_cmdline>
J2VwaWtfcHl0aG9uJywgJy1waCcsICc3LjAnLCAnLXRuJywgJzgnLCAnLW1hJywgJzIwMCcsICctbWV0YWxfYmluZGluZycsICctaW1hZScsICc8aW5maWxlLm1hZT4nLCAnLW9tYWUnLCAnPG91dGZpbGUubWFlPic=

> <r_lp_tautomer_probability>
1

> <r_epik_Ionization_Penalty>
2.5696e-07

> <r_epik_Ionization_Penalty_Charging>
1.04886e-08

> <r_epik_Ionization_Penalty_Neutral>
2.46472e-07

> <r_epik_State_Penalty>
-0

> <r_epik_Charging_Adjusted_Penalty>
1.04886e-08

> <i_epik_Tot_Q>
0

> <i_epik_Tot_abs_Q>
2

> <r_epik_Metal_State_Penalty>
-0

> <b_epik_Metal_Only>
0

> <s_epik_Chemistry_Notes>
This compound contains an acetal/aminal-like group ( X-CH(R)-Y where X, Y are N, S, or O) that may be acid/base labile, releasing an aldehyde.

> <s_lp_Force_Field>
OPLS_2005

> <r_lp_Energy>
57.8842

> <b_lp_Chiralities_Consistent>
1

> <s_lp_Variant>
AV-unprocessed.smi:112-3

> <Gold.Version>
5.8.1

> <Gold.Id.Protein>
6NUR|6NUR_protein|mol2

> <Gold.PLP.Fitness>
58.6154

> <Gold.PLP.PLP>
-51.7465

> <Gold.PLP.part.hbond>
-5.1667

> <Gold.PLP.part.metal>
0.0000

> <Gold.PLP.part.buried>
-3.8207

> <Gold.PLP.part.nonpolar>
-41.3649

> <Gold.PLP.part.repulsive>
0.2801

> <Gold.PLP.ligand.clash>
0.0000

> <Gold.PLP.ligand.torsion>
0.8772

> <Gold.PLP.Chemscore.Hbond>
2.8620

> <Gold.PLP.Chemscore.CHOScore>
0.0000

> <Gold.PLP.Chemscore.Metal>
0.0000

> <Gold.Chemscore.Hbonds>
donor molecule, donor type, donor heavy atom, donor atom, acceptor molecule, acceptor atom, score
      P1  H  6896  6908       L1    11  1.00
      P1  H  7997  8009       L1    18  1.00
      P1  H 10752 10764       L1    12  0.90

> <Gold.PLP.Chemscore.Internal.Correction>
0.0373

> <Gold.Rescore>
     Score         DG    S(hbond)    S(metal)    S(lipo)     H(rot)  DE(clash)    DE(int)     intcor
     13.22     -17.56       2.41        0.00     106.34       3.29       1.02       3.32       ----

> <Gold.Chemscore.Fitness>
13.2195

> <Gold.Chemscore.DG>
-17.5594

> <Gold.Chemscore.ZeroCoef>
-5.4800

> <Gold.Chemscore.Hbond>
2.4144

> <Gold.Chemscore.Metal>
0.0000

> <Gold.Chemscore.Lipo>
106.3392

> <Gold.Chemscore.Internal_Hbond>
0.0000

> <Gold.Chemscore.DEClash>
1.0221

> <Gold.Chemscore.DEInternal>
3.3178

> <Gold.Chemscore.Rot>
3.2916

> <Gold.Chemscore.Internal.Correction>
   9.000000E+99

> <Gold.Chemscore.Hbonds>
donor molecule, donor type, donor heavy atom, donor atom, acceptor molecule, acceptor atom, score
      P1  H  6896  6908       L1    11  0.17
      P1  H  7997  8009       L1    18  0.30
      P1  H 10752 10764       L1    12  0.35

> <Gold.Chemscore.Hbond.Weighted>
-8.0642

> <Gold.Chemscore.Metal.Weighted>
-0.0000

> <Gold.Chemscore.Lipo.Weighted>
-12.4417

> <Gold.Chemscore.Internal_Hbond.Weighted>
0.0000

> <Gold.Chemscore.DEClash.Weighted>
1.0221

> <Gold.Chemscore.DEInternal.Weighted>
3.3178

> <Gold.Chemscore.Rot.Weighted>
8.4265

> <Gold.Chemscore.Internal.Correction.Weighted>
   9.000000E+99

> <Gold.Protein.RotatedTorsions>
[ 6907 6896 6895 6894 ] final   68.82 input  -60.11 | X-H torsion
[ 7974 7965 7964 7962 ] final -168.77 input  175.53 | X-H torsion
[ 8008 7997 7996 7995 ] final  147.67 input   59.86 | X-H torsion
[ 10167 10162 10161 10158 ] final  146.49 input  -65.29 | X-H torsion
[ 10718 10713 10712 10709 ] final  170.23 input   66.30 | X-H torsion
[ 10763 10752 10751 10750 ] final  -39.16 input  -60.55 | X-H torsion
[ 11005 11000 10999 10996 ] final   35.15 input  -57.11 | X-H torsion

> <Gold.Protein.ActiveResidues>
 VAL166  LYS551  ARG553  GLY616  TRP617  ASP618  TYR619  PRO620  LYS621  CYS622 
 ASP623  PHE694  ASN695  SER759  ASP760  ASP761  ALA762  ILE779  LEU786  VAL792 
 PHE793  MET794  SER795  GLU796  ALA797  LYS798  CYS799  TRP800  GLU811  SER814 

> <Gold.Protein.RotatedAtoms>
  152.4646  134.5106  159.9752 H   0  0  0  0  0  0  0  0  0  0  0  0  # atno 6907 bound_to 6896
  151.5147  133.3472  159.2899 H   0  0  0  0  0  0  0  0  0  0  0  0  # atno 6908 bound_to 6896
  150.8624  134.8008  159.7155 H   0  0  0  0  0  0  0  0  0  0  0  0  # atno 6909 bound_to 6896
  144.7197  140.2321  143.6303 H   0  0  0  0  0  0  0  0  0  0  0  0  # atno 7974 bound_to 7965
  156.2817  140.2149  156.5575 H   0  0  0  0  0  0  0  0  0  0  0  0  # atno 8008 bound_to 7997
  154.7240  140.0501  157.0688 H   0  0  0  0  0  0  0  0  0  0  0  0  # atno 8009 bound_to 7997
  155.0441  140.3149  155.4717 H   0  0  0  0  0  0  0  0  0  0  0  0  # atno 8010 bound_to 7997
  139.4906  144.5825  151.6842 H   0  0  0  0  0  0  0  0  0  0  0  0  # atno 10167 bound_to 10162
  157.0111  131.0204  151.2803 H   0  0  0  0  0  0  0  0  0  0  0  0  # atno 10718 bound_to 10713
  153.9248  135.6778  153.4747 H   0  0  0  0  0  0  0  0  0  0  0  0  # atno 10763 bound_to 10752
  153.1010  135.4828  154.8864 H   0  0  0  0  0  0  0  0  0  0  0  0  # atno 10764 bound_to 10752
  154.7459  135.3172  154.8602 H   0  0  0  0  0  0  0  0  0  0  0  0  # atno 10765 bound_to 10752
  140.2456  134.3363  155.7909 H   0  0  0  0  0  0  0  0  0  0  0  0  # atno 11005 bound_to 11000
  145.8401  139.2126  143.1832 LP  0  0  0  0  0  0  0  0  0  0  0  0  # atno 17320 bound_to 7965
  146.0354  140.8217  142.9855 LP  0  0  0  0  0  0  0  0  0  0  0  0  # atno 17321 bound_to 7965
  140.5435  144.0541  150.6097 LP  0  0  0  0  0  0  0  0  0  0  0  0  # atno 17342 bound_to 10162
  140.3571  143.2929  152.0424 LP  0  0  0  0  0  0  0  0  0  0  0  0  # atno 17343 bound_to 10162
  157.5319  130.8064  149.7927 LP  0  0  0  0  0  0  0  0  0  0  0  0  # atno 17370 bound_to 10713
  156.0135  130.3823  150.2185 LP  0  0  0  0  0  0  0  0  0  0  0  0  # atno 17371 bound_to 10713
  141.2206  133.7324  156.8955 LP  0  0  0  0  0  0  0  0  0  0  0  0  # atno 17394 bound_to 11000
  140.1609  134.9166  157.2713 LP  0  0  0  0  0  0  0  0  0  0  0  0  # atno 17395 bound_to 11000

$$$$
