AV-unprocessed.smi:3018|AV-procd|sdf|11482|dock9
  -GOLD-   2272016423D 1   1.00000     0.00000
 Structure written by MMmdl.
 44 45  0  0  0  0  0  0  0  0  2 V2000
  150.4832  138.9495  155.2554 C   0  0  0  0  0  0  0  0  0  0  0  0
  150.9613  140.3142  155.7671 C   0  0  0  0  0  0  0  0  0  0  0  0
  149.8913  141.0450  156.5990 C   0  0  1  0  0  0  0  0  0  0  0  0
  150.3075  142.4016  156.7455 O   0  0  0  0  0  0  0  0  0  0  0  0
  151.4871  142.6283  157.5124 C   0  0  0  0  0  0  0  0  0  0  0  0
  151.2993  141.9186  158.8643 C   0  0  0  0  0  0  0  0  0  0  0  0
  152.4881  142.1775  159.8037 C   0  0  0  0  0  0  0  0  0  0  0  0
  152.7172  143.6837  160.0071 C   0  0  0  0  0  0  0  0  0  0  0  0
  152.8963  144.4054  158.6620 C   0  0  0  0  0  0  0  0  0  0  0  0
  151.7085  144.1404  157.7225 C   0  0  0  0  0  0  0  0  0  0  0  0
  148.5199  140.9988  155.9076 C   0  0  0  0  0  0  0  0  0  0  0  0
  147.9295  139.9270  155.7714 O   0  0  0  0  0  0  0  0  0  0  0  0
  148.0347  142.1690  155.4646 N   0  0  0  0  0  0  0  0  0  0  0  0
  146.7604  142.3426  154.7779 C   0  0  0  0  0  0  0  0  0  0  0  0
  145.7749  143.1772  155.6218 C   0  0  0  0  0  0  0  0  0  0  0  0
  145.9029  143.0015  157.1286 C   0  0  0  0  0  0  0  0  0  0  0  0
  145.3475  142.1132  157.8688 N   0  0  0  0  0  0  0  0  0  0  0  0
  145.8021  142.3999  159.1972 N   0  5  0  0  0  0  0  0  0  0  0  0
  146.6178  143.4787  159.1131 C   0  0  0  0  0  0  0  0  0  0  0  0
  147.2209  144.0590  160.0129 O   0  0  0  0  0  0  0  0  0  0  0  0
  146.6909  143.8608  157.8426 N   0  0  0  0  0  0  0  0  0  0  0  0
  147.2183  144.6350  157.4678 H   0  0  0  0  0  0  0  0  0  0  0  0
  151.2584  138.4643  154.6620 H   0  0  0  0  0  0  0  0  0  0  0  0
  149.5983  139.0525  154.6268 H   0  0  0  0  0  0  0  0  0  0  0  0
  150.2320  138.2833  156.0811 H   0  0  0  0  0  0  0  0  0  0  0  0
  151.8679  140.1787  156.3588 H   0  0  0  0  0  0  0  0  0  0  0  0
  151.2434  140.9277  154.9101 H   0  0  0  0  0  0  0  0  0  0  0  0
  149.8220  140.5589  157.5730 H   0  0  0  0  0  0  0  0  0  0  0  0
  152.3614  142.1965  157.0235 H   0  0  0  0  0  0  0  0  0  0  0  0
  150.3797  142.2659  159.3375 H   0  0  0  0  0  0  0  0  0  0  0  0
  151.1792  140.8463  158.7063 H   0  0  0  0  0  0  0  0  0  0  0  0
  152.3139  141.6946  160.7656 H   0  0  0  0  0  0  0  0  0  0  0  0
  153.3883  141.7229  159.3880 H   0  0  0  0  0  0  0  0  0  0  0  0
  151.8686  144.1129  160.5412 H   0  0  0  0  0  0  0  0  0  0  0  0
  153.5927  143.8456  160.6365 H   0  0  0  0  0  0  0  0  0  0  0  0
  153.0071  145.4773  158.8280 H   0  0  0  0  0  0  0  0  0  0  0  0
  153.8186  144.0688  158.1870 H   0  0  0  0  0  0  0  0  0  0  0  0
  151.8847  144.6403  156.7705 H   0  0  0  0  0  0  0  0  0  0  0  0
  150.8060  144.5871  158.1418 H   0  0  0  0  0  0  0  0  0  0  0  0
  148.5886  142.9996  155.6152 H   0  0  0  0  0  0  0  0  0  0  0  0
  146.9618  142.8436  153.8303 H   0  0  0  0  0  0  0  0  0  0  0  0
  146.3364  141.3668  154.5334 H   0  0  0  0  0  0  0  0  0  0  0  0
  145.8982  144.2365  155.3943 H   0  0  0  0  0  0  0  0  0  0  0  0
  144.7535  142.9206  155.3388 H   0  0  0  0  0  0  0  0  0  0  0  0
  1  2  1  0  0  0  0
  1 23  1  0  0  0  0
  1 24  1  0  0  0  0
  1 25  1  0  0  0  0
  2  3  1  0  0  0  0
  2 26  1  0  0  0  0
  2 27  1  0  0  0  0
  3  4  1  0  0  0  0
  3 11  1  0  0  0  0
  3 28  1  0  0  0  0
  4  5  1  0  0  0  0
  5 10  1  0  0  0  0
  5  6  1  0  0  0  0
  5 29  1  0  0  0  0
  6  7  1  0  0  0  0
  6 30  1  0  0  0  0
  6 31  1  0  0  0  0
  7  8  1  0  0  0  0
  7 32  1  0  0  0  0
  7 33  1  0  0  0  0
  8  9  1  0  0  0  0
  8 34  1  0  0  0  0
  8 35  1  0  0  0  0
  9 10  1  0  0  0  0
  9 36  1  0  0  0  0
  9 37  1  0  0  0  0
 10 38  1  0  0  0  0
 10 39  1  0  0  0  0
 11 12  2  0  0  0  0
 11 13  1  0  0  0  0
 13 14  1  0  0  0  0
 13 40  1  0  0  0  0
 14 15  1  0  0  0  0
 14 41  1  0  0  0  0
 14 42  1  0  0  0  0
 15 16  1  0  0  0  0
 15 43  1  0  0  0  0
 15 44  1  0  0  0  0
 16 21  1  0  0  0  0
 16 17  2  0  0  0  0
 17 18  1  0  0  0  0
 18 19  1  0  0  0  0
 19 20  2  0  0  0  0
 19 21  1  0  0  0  0
 21 22  1  0  0  0  0
M  CHG  1  18  -1
M  END
> <s_m_source_file>
AV-unprocessed.smi

> <i_m_source_file_index>
3018

> <i_lp_mmshare_version>
43012

> <i_f3d_flags>
0

> <s_epik_input>
W0NIMl0xW0NIMl1bQ0gyXVtDSDJdW0NIMl1bQ0hdMU9bQ0BASF0oW0NIMl1bQ0gzXSlDKD1PKVtOSF1bQ0gyXVtDSDJdYzJuW25IXWMoPU8pW25IXTI=

> <s_epik_cmdline>
J2VwaWtfcHl0aG9uJywgJy1waCcsICc3LjAnLCAnLXRuJywgJzgnLCAnLW1hJywgJzIwMCcsICctbWV0YWxfYmluZGluZycsICctaW1hZScsICc8aW5maWxlLm1hZT4nLCAnLW9tYWUnLCAnPG91dGZpbGUubWFlPic=

> <r_lp_tautomer_probability>
1

> <r_epik_Ionization_Penalty>
14.1812

> <r_epik_Ionization_Penalty_Charging>
13.7758

> <r_epik_Ionization_Penalty_Neutral>
0.405355

> <r_epik_State_Penalty>
4.92413

> <r_epik_Charging_Adjusted_Penalty>
18.7

> <i_epik_Tot_Q>
-1

> <i_epik_Tot_abs_Q>
1

> <r_epik_Metal_State_Penalty>
1.32654

> <b_epik_Metal_Only>
1

> <s_lp_Force_Field>
OPLS_2005

> <r_lp_Energy>
19.6137

> <b_lp_Chiralities_Consistent>
1

> <s_lp_Variant>
AV-unprocessed.smi:3018-4

> <Gold.Version>
5.8.1

> <Gold.Id.Protein>
6NUR|6NUR_protein|mol2

> <Gold.PLP.Fitness>
50.3888

> <Gold.PLP.PLP>
-36.7075

> <Gold.PLP.part.hbond>
-4.0000

> <Gold.PLP.part.metal>
0.0000

> <Gold.PLP.part.buried>
-5.2433

> <Gold.PLP.part.nonpolar>
-29.9416

> <Gold.PLP.part.repulsive>
1.6151

> <Gold.PLP.ligand.clash>
0.0000

> <Gold.PLP.ligand.torsion>
0.7586

> <Gold.PLP.Chemscore.Hbond>
5.0000

> <Gold.PLP.Chemscore.CHOScore>
0.0000

> <Gold.PLP.Chemscore.Metal>
0.0000

> <Gold.Chemscore.Hbonds>
donor molecule, donor type, donor heavy atom, donor atom, acceptor molecule, acceptor atom, score
      L1  H    13    40       P1  8028  1.00
      L1  H    21    22       P1  8029  0.37
      P1  H  6934  6946       L1    18  0.03

> <Gold.PLP.Chemscore.Internal.Correction>
0.1986

> <Gold.Rescore>
     Score         DG    S(hbond)    S(metal)    S(lipo)     H(rot)  DE(clash)    DE(int)     intcor
     16.77     -19.39       3.06        0.00      96.59       2.98       0.70       1.91       ----

> <Gold.Chemscore.Fitness>
16.7722

> <Gold.Chemscore.DG>
-19.3911

> <Gold.Chemscore.ZeroCoef>
-5.4800

> <Gold.Chemscore.Hbond>
3.0635

> <Gold.Chemscore.Metal>
0.0000

> <Gold.Chemscore.Lipo>
96.5864

> <Gold.Chemscore.Internal_Hbond>
0.0000

> <Gold.Chemscore.DEClash>
0.7046

> <Gold.Chemscore.DEInternal>
1.9142

> <Gold.Chemscore.Rot>
2.9772

> <Gold.Chemscore.Internal.Correction>
   9.000000E+99

> <Gold.Chemscore.Hbonds>
donor molecule, donor type, donor heavy atom, donor atom, acceptor molecule, acceptor atom, score
      L1  H    13    40       P1  8028  0.97
      L1  H    21    22       P1  8029  0.01
      P1  H  6934  6946       L1    18  0.04

> <Gold.Chemscore.Hbond.Weighted>
-10.2321

> <Gold.Chemscore.Metal.Weighted>
-0.0000

> <Gold.Chemscore.Lipo.Weighted>
-11.3006

> <Gold.Chemscore.Internal_Hbond.Weighted>
0.0000

> <Gold.Chemscore.DEClash.Weighted>
0.7046

> <Gold.Chemscore.DEInternal.Weighted>
1.9142

> <Gold.Chemscore.Rot.Weighted>
7.6216

> <Gold.Chemscore.Internal.Correction.Weighted>
   9.000000E+99

> <Gold.Protein.RotatedTorsions>
[ 6907 6896 6895 6894 ] final -142.59 input  -60.11 | X-H torsion
[ 7974 7965 7964 7962 ] final  -89.55 input  175.53 | X-H torsion
[ 8008 7997 7996 7995 ] final  -58.21 input   59.86 | X-H torsion
[ 10167 10162 10161 10158 ] final -107.63 input  -65.29 | X-H torsion
[ 10718 10713 10712 10709 ] final   76.18 input   66.30 | X-H torsion
[ 10763 10752 10751 10750 ] final  126.91 input  -60.55 | X-H torsion
[ 11005 11000 10999 10996 ] final -122.57 input  -57.11 | X-H torsion

> <Gold.Protein.ActiveResidues>
 VAL166  LYS551  ARG553  GLY616  TRP617  ASP618  TYR619  PRO620  LYS621  CYS622 
 ASP623  PHE694  ASN695  SER759  ASP760  ASP761  ALA762  ILE779  LEU786  VAL792 
 PHE793  MET794  SER795  GLU796  ALA797  LYS798  CYS799  TRP800  GLU811  SER814 

> <Gold.Protein.RotatedAtoms>
  151.0892  133.5329  159.2615 H   0  0  0  0  0  0  0  0  0  0  0  0  # atno 6907 bound_to 6896
  151.2203  135.0515  159.8957 H   0  0  0  0  0  0  0  0  0  0  0  0  # atno 6908 bound_to 6896
  152.5432  134.0695  159.8241 H   0  0  0  0  0  0  0  0  0  0  0  0  # atno 6909 bound_to 6896
  145.4383  140.9558  143.2089 H   0  0  0  0  0  0  0  0  0  0  0  0  # atno 7974 bound_to 7965
  154.4299  140.1089  156.5921 H   0  0  0  0  0  0  0  0  0  0  0  0  # atno 8008 bound_to 7997
  155.6001  140.3493  155.4572 H   0  0  0  0  0  0  0  0  0  0  0  0  # atno 8009 bound_to 7997
  156.0180  140.1233  157.0376 H   0  0  0  0  0  0  0  0  0  0  0  0  # atno 8010 bound_to 7997
  140.1749  143.4013  152.1326 H   0  0  0  0  0  0  0  0  0  0  0  0  # atno 10167 bound_to 10162
  157.6663  130.9762  150.1459 H   0  0  0  0  0  0  0  0  0  0  0  0  # atno 10718 bound_to 10713
  153.7010  135.3283  155.3224 H   0  0  0  0  0  0  0  0  0  0  0  0  # atno 10763 bound_to 10752
  154.8413  135.4454  154.1411 H   0  0  0  0  0  0  0  0  0  0  0  0  # atno 10764 bound_to 10752
  153.2478  135.6978  153.7790 H   0  0  0  0  0  0  0  0  0  0  0  0  # atno 10765 bound_to 10752
  140.9985  134.0437  157.3567 H   0  0  0  0  0  0  0  0  0  0  0  0  # atno 11005 bound_to 11000
  144.8138  139.5914  143.7018 LP  0  0  0  0  0  0  0  0  0  0  0  0  # atno 17320 bound_to 7965
  146.2570  139.6324  142.9388 LP  0  0  0  0  0  0  0  0  0  0  0  0  # atno 17321 bound_to 7965
  139.5321  144.7171  151.5019 LP  0  0  0  0  0  0  0  0  0  0  0  0  # atno 17342 bound_to 10162
  140.6558  143.8603  150.6833 LP  0  0  0  0  0  0  0  0  0  0  0  0  # atno 17343 bound_to 10162
  156.2270  130.3679  149.8488 LP  0  0  0  0  0  0  0  0  0  0  0  0  # atno 17370 bound_to 10713
  156.6326  130.8672  151.3498 LP  0  0  0  0  0  0  0  0  0  0  0  0  # atno 17371 bound_to 10713
  139.9027  135.0170  156.7343 LP  0  0  0  0  0  0  0  0  0  0  0  0  # atno 17394 bound_to 11000
  140.6927  133.9376  155.7976 LP  0  0  0  0  0  0  0  0  0  0  0  0  # atno 17395 bound_to 11000

$$$$
