#       Name:                AV-unprocessed.smi:2845
#       Creating user name   scv26
#       Creation time:       Fri Mar 27 15:39:48 2020


#       File generated by GOLD software.
#

@<TRIPOS>MOLECULE
AV-unprocessed.smi:2845
    47    49     1
SMALL
NO_CHARGES


@<TRIPOS>ATOM
      1 ****        -1.8999   4.4856   4.0486 C.3            1 S1                 0.0000
      2 ****        -1.6084   3.4923   2.9366 C.ar           1 S1                 0.0000
      3 ****        -1.8842   3.8724   1.6035 C.ar           1 S1                 0.0000
      4 ****        -1.6056   2.9431   0.6084 C.ar           1 S1                 0.0000
      5 ****        -1.7598   3.0115  -0.7782 N.pl3          1 S1                 1.0000
      6 ****        -1.3448   1.8421  -1.3396 C.2            1 S1                 0.0000
      7 ****        -0.9288   1.0288  -0.3314 N.pl3          1 S1                 0.0000
      8 ****        -0.3835  -0.3334  -0.3841 C.3            1 S1                 0.0000
      9 ****         1.1591  -0.3590  -0.3342 C.3            1 S1                 0.0000
     10 ****         1.6752   0.3709  -1.4313 O.3            1 S1                 0.0000
     11 ****         1.7531  -1.7842  -0.3226 C.3            1 S1                 0.0000
     12 ****         1.3273  -2.6078  -1.4419 N.pl3          1 S1                 0.0000
     13 ****         0.3447  -3.5096  -1.5307 C.2            1 S1                 0.0000
     14 ****         0.2409  -4.0790  -2.7239 N.2            1 S1                 0.0000
     15 ****         1.2654  -3.4357  -3.3561 C.2            1 S1                 0.0000
     16 ****         1.6812  -3.7758  -5.0952 S.o            1 S1                 0.0000
     17 ****         2.6052  -5.3483  -4.7586 C.3            1 S1                 0.0000
     18 ****         0.3669  -4.1650  -5.7752 O.2            1 S1                 0.0000
     19 ****         1.9545  -2.5493  -2.6411 N.2            1 S1                 0.0000
     20 ****        -1.0724   1.6729   0.9013 C.ar           1 S1                 0.0000
     21 ****        -0.7947   1.2816   2.2086 C.ar           1 S1                 0.0000
     22 ****        -1.0707   2.2132   3.2351 C.ar           1 S1                 0.0000
     23 ****        -0.7787   1.8153   4.6721 C.3            1 S1                 0.0000
     24 ****        -2.3141   5.4146   3.6555 H              1 S1                 0.0000
     25 ****        -0.9872   4.7317   4.5917 H              1 S1                 0.0000
     26 ****        -2.6217   4.0716   4.7531 H              1 S1                 0.0000
     27 ****        -2.2938   4.8441   1.3691 H              1 S1                 0.0000
     28 ****        -1.3409   1.6038  -2.3936 H              1 S1                 0.0000
     29 ****        -0.8120  -0.9109   0.4358 H              1 S1                 0.0000
     30 ****        -0.7474  -0.7880  -1.3064 H              1 S1                 0.0000
     31 ****         1.4933   0.1501   0.5703 H              1 S1                 0.0000
     32 ****         2.6192   0.3528  -1.3880 H              1 S1                 0.0000
     33 ****         2.8434  -1.7421  -0.3141 H              1 S1                 0.0000
     34 ****         1.4607  -2.2927   0.5969 H              1 S1                 0.0000
     35 ****        -0.3106  -3.7507  -0.7065 H              1 S1                 0.0000
     36 ****         3.0580  -5.3330  -3.7669 H              1 S1                 0.0000
     37 ****         3.3977  -5.4801  -5.4949 H              1 S1                 0.0000
     38 ****         1.9308  -6.2024  -4.8191 H              1 S1                 0.0000
     39 ****        -0.3848   0.3084   2.4343 H              1 S1                 0.0000
     40 ****        -0.3725   0.8051   4.7323 H              1 S1                 0.0000
     41 ****        -1.6899   1.8437   5.2701 H              1 S1                 0.0000
     42 ****        -0.0505   2.4937   5.1172 H              1 S1                 0.0000
     43 ****        -2.1193   3.7969  -1.3057 H              1 S1                 0.0000
     44 ****         1.3540   1.3169  -1.3877 LP             1 S1                 0.0000
     45 ****         1.3691  -0.0459  -2.2872 LP             1 S1                 0.0000
     46 ****        -0.3969  -4.7720  -3.0599 LP             1 S1                 0.0000
     47 ****         2.7333  -1.9862  -2.9176 LP             1 S1                 0.0000
@<TRIPOS>BOND
    1    1    2 1     
    2    1   24 1     
    3    1   25 1     
    4    1   26 1     
    5    2   22 ar    
    6    2    3 ar    
    7    3    4 ar    
    8    3   27 1     
    9    4   20 ar    
   10    4    5 1     
   11    5    6 2     
   12    5   43 1     
   13    6    7 1     
   14    6   28 1     
   15    7    8 1     
   16    7   20 1     
   17    8    9 1     
   18    8   29 1     
   19    8   30 1     
   20    9   10 1     
   21    9   11 1     
   22    9   31 1     
   23   10   32 1     
   24   11   12 1     
   25   11   33 1     
   26   11   34 1     
   27   12   19 1     
   28   12   13 1     
   29   13   14 2     
   30   13   35 1     
   31   14   15 1     
   32   15   16 1     
   33   15   19 2     
   34   16   17 1     
   35   16   18 2     
   36   17   36 1     
   37   17   37 1     
   38   17   38 1     
   39   20   21 ar    
   40   21   22 ar    
   41   21   39 1     
   42   22   23 1     
   43   23   40 1     
   44   23   41 1     
   45   23   42 1     
   46   10   44 1     
   47   10   45 1     
   48   14   46 1     
   49   19   47 1     
@<TRIPOS>SUBSTRUCTURE
      1 S1             1
@<TRIPOS>SET
LONE_PAIRS      STATIC     ATOMS    <user>   **** ""
5 44 45 46 18 47
DONOR_HYDROGENS      STATIC     ATOMS    <user>   **** ""
2 43 32
ATOM$BLUE        STATIC     ATOMS    COLORGROUP SYSTEM
5 44 45 46 18 47
ATOM$RED        STATIC     ATOMS    COLORGROUP SYSTEM
2 43 32
