AV-unprocessed.smi:3088|AV-procd|sdf|11768|dock1
  -GOLD-   2272017153D 1   1.00000     0.00000
 Structure written by MMmdl.
 29 30  0  0  0  0  0  0  0  0  2 V2000
  148.1254  138.7848  153.1696 N   0  3  0  0  0  0  0  0  0  0  0  0
  148.7337  139.0080  154.4919 C   0  0  0  0  0  0  0  0  0  0  0  0
  149.5134  140.3296  154.5337 C   0  0  0  0  0  0  0  0  0  0  0  0
  150.3209  140.4722  155.7881 C   0  0  0  0  0  0  0  0  0  0  0  0
  150.9066  139.4622  156.5108 C   0  0  0  0  0  0  0  0  0  0  0  0
  151.7575  140.0683  157.9055 S   0  0  0  0  0  0  0  0  0  0  0  0
  151.2773  141.6993  157.4465 C   0  0  0  0  0  0  0  0  0  0  0  0
  151.6444  142.8154  158.1925 N   0  0  0  0  0  0  0  0  0  0  0  0
  152.0721  142.8313  159.5884 C   0  0  0  0  0  0  0  0  0  0  0  0
  152.0954  144.2855  160.0529 C   0  0  0  0  0  0  0  0  0  0  0  0
  152.4122  145.0283  158.7695 C   0  0  0  0  0  0  0  0  0  0  0  0
  151.6701  144.1982  157.7253 C   0  0  0  0  0  0  0  0  0  0  0  0
  150.5420  141.7413  156.3321 N   0  0  0  0  0  0  0  0  0  0  0  0
  148.5384  139.4168  152.4986 H   0  0  0  0  0  0  0  0  0  0  0  0
  147.1311  138.9547  153.2225 H   0  0  0  0  0  0  0  0  0  0  0  0
  147.9447  139.0096  155.2446 H   0  0  0  0  0  0  0  0  0  0  0  0
  149.3930  138.1692  154.7180 H   0  0  0  0  0  0  0  0  0  0  0  0
  150.1693  140.3938  153.6644 H   0  0  0  0  0  0  0  0  0  0  0  0
  148.8177  141.1651  154.4453 H   0  0  0  0  0  0  0  0  0  0  0  0
  150.8902  138.4011  156.3103 H   0  0  0  0  0  0  0  0  0  0  0  0
  151.4089  142.2306  160.2116 H   0  0  0  0  0  0  0  0  0  0  0  0
  153.0705  142.3965  159.6494 H   0  0  0  0  0  0  0  0  0  0  0  0
  151.1092  144.5771  160.4169 H   0  0  0  0  0  0  0  0  0  0  0  0
  152.8204  144.4681  160.8466 H   0  0  0  0  0  0  0  0  0  0  0  0
  152.0963  146.0715  158.7868 H   0  0  0  0  0  0  0  0  0  0  0  0
  153.4856  144.9990  158.5771 H   0  0  0  0  0  0  0  0  0  0  0  0
  152.1463  144.2752  156.7474 H   0  0  0  0  0  0  0  0  0  0  0  0
  150.6418  144.5462  157.6229 H   0  0  0  0  0  0  0  0  0  0  0  0
  148.2891  137.8317  152.8784 H   0  0  0  0  0  0  0  0  0  0  0  0
  1  2  1  0  0  0  0
  1 14  1  0  0  0  0
  1 15  1  0  0  0  0
  1 29  1  0  0  0  0
  2  3  1  0  0  0  0
  2 16  1  0  0  0  0
  2 17  1  0  0  0  0
  3  4  1  0  0  0  0
  3 18  1  0  0  0  0
  3 19  1  0  0  0  0
  4 13  1  0  0  0  0
  4  5  2  0  0  0  0
  5  6  1  0  0  0  0
  5 20  1  0  0  0  0
  6  7  1  0  0  0  0
  7  8  1  0  0  0  0
  7 13  2  0  0  0  0
  8 12  1  0  0  0  0
  8  9  1  0  0  0  0
  9 10  1  0  0  0  0
  9 21  1  0  0  0  0
  9 22  1  0  0  0  0
 10 11  1  0  0  0  0
 10 23  1  0  0  0  0
 10 24  1  0  0  0  0
 11 12  1  0  0  0  0
 11 25  1  0  0  0  0
 11 26  1  0  0  0  0
 12 27  1  0  0  0  0
 12 28  1  0  0  0  0
M  CHG  1   1   1
M  END
> <s_m_source_file>
AV-unprocessed.smi

> <i_m_source_file_index>
3088

> <i_lp_mmshare_version>
43012

> <i_f3d_flags>
0

> <s_epik_input>
W05IMl1bQ0gyXVtDSDJdYzFbY0hdc2MobjEpTjJbQ0gyXVtDSDJdW0NIMl1bQ0gyXTI=

> <s_epik_cmdline>
J2VwaWtfcHl0aG9uJywgJy1waCcsICc3LjAnLCAnLXRuJywgJzgnLCAnLW1hJywgJzIwMCcsICctbWV0YWxfYmluZGluZycsICctaW1hZScsICc8aW5maWxlLm1hZT4nLCAnLW9tYWUnLCAnPG91dGZpbGUubWFlPic=

> <r_epik_Ionization_Penalty>
0.0059221

> <r_epik_Ionization_Penalty_Charging>
0.00199846

> <r_epik_Ionization_Penalty_Neutral>
0.00392364

> <r_epik_State_Penalty>
0.00774005

> <r_epik_Charging_Adjusted_Penalty>
0.00973852

> <i_epik_Tot_Q>
1

> <i_epik_Tot_abs_Q>
1

> <r_epik_Metal_State_Penalty>
7.11937e-06

> <b_epik_Metal_Only>
0

> <s_lp_Force_Field>
OPLS_2005

> <r_lp_Energy>
15.4389

> <b_lp_Chiralities_Consistent>
1

> <s_lp_Variant>
AV-unprocessed.smi:3088-1

> <Gold.Version>
5.8.1

> <Gold.Id.Protein>
6NUR|6NUR_protein|mol2

> <Gold.PLP.Fitness>
41.5669

> <Gold.PLP.PLP>
-33.7092

> <Gold.PLP.part.hbond>
-2.0000

> <Gold.PLP.part.metal>
0.0000

> <Gold.PLP.part.buried>
-2.6186

> <Gold.PLP.part.nonpolar>
-29.5255

> <Gold.PLP.part.repulsive>
0.1534

> <Gold.PLP.ligand.clash>
0.0000

> <Gold.PLP.ligand.torsion>
0.5722

> <Gold.PLP.Chemscore.Hbond>
3.0000

> <Gold.PLP.Chemscore.CHOScore>
0.0000

> <Gold.PLP.Chemscore.Metal>
0.0000

> <Gold.Chemscore.Hbonds>
donor molecule, donor type, donor heavy atom, donor atom, acceptor molecule, acceptor atom, score
      L1  H     1    14       P1  7957  1.00
      L1  H     1    29       P1  7948  2.00

> <Gold.PLP.Chemscore.Internal.Correction>
0.0022

> <Gold.Rescore>
     Score         DG    S(hbond)    S(metal)    S(lipo)     H(rot)  DE(clash)    DE(int)     intcor
     17.75     -18.20       1.99        0.00      80.78       1.32       0.06       0.39       ----

> <Gold.Chemscore.Fitness>
17.7505

> <Gold.Chemscore.DG>
-18.1977

> <Gold.Chemscore.ZeroCoef>
-5.4800

> <Gold.Chemscore.Hbond>
1.9869

> <Gold.Chemscore.Metal>
0.0000

> <Gold.Chemscore.Lipo>
80.7836

> <Gold.Chemscore.Internal_Hbond>
0.0000

> <Gold.Chemscore.DEClash>
0.0614

> <Gold.Chemscore.DEInternal>
0.3858

> <Gold.Chemscore.Rot>
1.3164

> <Gold.Chemscore.Internal.Correction>
   9.000000E+99

> <Gold.Chemscore.Hbonds>
donor molecule, donor type, donor heavy atom, donor atom, acceptor molecule, acceptor atom, score
      L1  H     1    14       P1  7957  1.00
      L1  H     1    29       P1  7948  0.96

> <Gold.Chemscore.Hbond.Weighted>
-6.6361

> <Gold.Chemscore.Metal.Weighted>
-0.0000

> <Gold.Chemscore.Lipo.Weighted>
-9.4517

> <Gold.Chemscore.Internal_Hbond.Weighted>
0.0000

> <Gold.Chemscore.DEClash.Weighted>
0.0614

> <Gold.Chemscore.DEInternal.Weighted>
0.3858

> <Gold.Chemscore.Rot.Weighted>
3.3700

> <Gold.Chemscore.Internal.Correction.Weighted>
   9.000000E+99

> <Gold.Protein.RotatedTorsions>
[ 6907 6896 6895 6894 ] final  -96.84 input  -60.11 | X-H torsion
[ 7974 7965 7964 7962 ] final   64.55 input  175.53 | X-H torsion
[ 8008 7997 7996 7995 ] final   25.45 input   59.86 | X-H torsion
[ 10167 10162 10161 10158 ] final    1.89 input  -65.29 | X-H torsion
[ 10718 10713 10712 10709 ] final  -88.30 input   66.30 | X-H torsion
[ 10763 10752 10751 10750 ] final  -11.84 input  -60.55 | X-H torsion
[ 11005 11000 10999 10996 ] final   73.77 input  -57.11 | X-H torsion

> <Gold.Protein.ActiveResidues>
 VAL166  LYS551  ARG553  GLY616  TRP617  ASP618  TYR619  PRO620  LYS621  CYS622 
 ASP623  PHE694  ASN695  SER759  ASP760  ASP761  ALA762  ILE779  LEU786  VAL792 
 PHE793  MET794  SER795  GLU796  ALA797  LYS798  CYS799  TRP800  GLU811  SER814 

> <Gold.Protein.RotatedAtoms>
  150.6999  134.1441  159.4115 H   0  0  0  0  0  0  0  0  0  0  0  0  # atno 6907 bound_to 6896
  151.9425  135.0204  160.0546 H   0  0  0  0  0  0  0  0  0  0  0  0  # atno 6908 bound_to 6896
  152.2081  133.4856  159.5132 H   0  0  0  0  0  0  0  0  0  0  0  0  # atno 6909 bound_to 6896
  145.8488  139.3241  143.0887 H   0  0  0  0  0  0  0  0  0  0  0  0  # atno 7974 bound_to 7965
  155.0119  140.3137  155.4826 H   0  0  0  0  0  0  0  0  0  0  0  0  # atno 8008 bound_to 7997
  156.2907  140.2213  156.5175 H   0  0  0  0  0  0  0  0  0  0  0  0  # atno 8009 bound_to 7997
  154.7527  140.0465  157.0895 H   0  0  0  0  0  0  0  0  0  0  0  0  # atno 8010 bound_to 7997
  140.6661  143.7175  150.7830 H   0  0  0  0  0  0  0  0  0  0  0  0  # atno 10167 bound_to 10162
  155.9984  130.4830  150.4998 H   0  0  0  0  0  0  0  0  0  0  0  0  # atno 10718 bound_to 10713
  153.4897  135.7017  153.5891 H   0  0  0  0  0  0  0  0  0  0  0  0  # atno 10763 bound_to 10752
  153.4069  135.3858  155.2024 H   0  0  0  0  0  0  0  0  0  0  0  0  # atno 10764 bound_to 10752
  154.8717  135.3895  154.4356 H   0  0  0  0  0  0  0  0  0  0  0  0  # atno 10765 bound_to 10752
  139.9424  134.7375  156.1066 H   0  0  0  0  0  0  0  0  0  0  0  0  # atno 11005 bound_to 11000
  145.9381  140.9000  143.0322 LP  0  0  0  0  0  0  0  0  0  0  0  0  # atno 17320 bound_to 7965
  144.6730  140.1511  143.7430 LP  0  0  0  0  0  0  0  0  0  0  0  0  # atno 17321 bound_to 7965
  140.0852  143.4930  152.2508 LP  0  0  0  0  0  0  0  0  0  0  0  0  # atno 17342 bound_to 10162
  139.5911  144.7550  151.3399 LP  0  0  0  0  0  0  0  0  0  0  0  0  # atno 17343 bound_to 10162
  157.2983  131.0640  151.2086 LP  0  0  0  0  0  0  0  0  0  0  0  0  # atno 17370 bound_to 10713
  157.3074  130.6873  149.6197 LP  0  0  0  0  0  0  0  0  0  0  0  0  # atno 17371 bound_to 10713
  141.1063  133.6659  156.2871 LP  0  0  0  0  0  0  0  0  0  0  0  0  # atno 17394 bound_to 11000
  140.5919  134.5641  157.5501 LP  0  0  0  0  0  0  0  0  0  0  0  0  # atno 17395 bound_to 11000

$$$$
