AV-unprocessed.smi:344|AV-procd|sdf|2389|dock10
  -GOLD-   2262022313D 1   1.00000     0.00000
 Structure written by MMmdl.
 38 39  0  0  0  0  0  0  0  0  1 V2000
  155.5333  143.8722  169.2346 N   0  0  0  0  0  0  0  0  0  0  0  0
  154.6698  143.5459  168.2692 C   0  0  0  0  0  0  0  0  0  0  0  0
  154.1633  144.3897  167.5323 O   0  0  0  0  0  0  0  0  0  0  0  0
  154.3253  142.0623  168.1108 C   0  0  0  0  0  0  0  0  0  0  0  0
  154.7015  141.5754  166.7406 C   0  0  0  0  0  0  0  0  0  0  0  0
  155.5937  140.5754  166.4352 C   0  0  0  0  0  0  0  0  0  0  0  0
  155.7351  140.3257  164.7158 S   0  0  0  0  0  0  0  0  0  0  0  0
  154.5533  141.6021  164.4726 C   0  0  0  0  0  0  0  0  0  0  0  0
  154.1231  141.9898  163.1766 N   0  0  0  0  0  0  0  0  0  0  0  0
  154.1968  141.2921  162.0278 C   0  0  0  0  0  0  0  0  0  0  0  0
  154.6612  140.1553  161.9309 O   0  0  0  0  0  0  0  0  0  0  0  0
  153.6499  142.0171  160.7926 C   0  0  0  0  0  0  0  0  0  0  0  0
  152.2325  142.5930  160.9820 C   0  0  0  0  0  0  0  0  0  0  0  0
  151.6709  143.2458  159.7063 C   0  0  0  0  0  0  0  0  0  0  0  0
  151.4597  142.2799  158.5351 C   0  0  0  0  0  0  0  0  0  0  0  0
  151.4574  143.1553  157.2754 C   0  0  0  0  0  0  0  0  0  0  0  0
  152.1021  144.4913  157.6730 C   0  0  0  0  0  0  0  0  0  0  0  0
  152.5922  144.3130  159.1122 C   0  0  0  0  0  0  0  0  0  0  0  0
  154.1105  142.1494  165.6100 N   0  0  0  0  0  0  0  0  0  0  0  0
  155.7841  144.8404  169.3743 H   0  0  0  0  0  0  0  0  0  0  0  0
  155.9294  143.1539  169.8230 H   0  0  0  0  0  0  0  0  0  0  0  0
  154.8358  141.4740  168.8747 H   0  0  0  0  0  0  0  0  0  0  0  0
  153.2569  141.9343  168.2890 H   0  0  0  0  0  0  0  0  0  0  0  0
  156.1775  139.9750  167.1168 H   0  0  0  0  0  0  0  0  0  0  0  0
  153.7121  142.9097  163.1137 H   0  0  0  0  0  0  0  0  0  0  0  0
  154.3420  142.8189  160.5323 H   0  0  0  0  0  0  0  0  0  0  0  0
  153.6528  141.3162  159.9569 H   0  0  0  0  0  0  0  0  0  0  0  0
  151.5562  141.7930  161.2868 H   0  0  0  0  0  0  0  0  0  0  0  0
  152.2328  143.3193  161.7962 H   0  0  0  0  0  0  0  0  0  0  0  0
  150.7155  143.7189  159.9396 H   0  0  0  0  0  0  0  0  0  0  0  0
  152.2895  141.5738  158.4820 H   0  0  0  0  0  0  0  0  0  0  0  0
  150.5418  141.6997  158.6342 H   0  0  0  0  0  0  0  0  0  0  0  0
  152.0033  142.6720  156.4647 H   0  0  0  0  0  0  0  0  0  0  0  0
  150.4380  143.3232  156.9263 H   0  0  0  0  0  0  0  0  0  0  0  0
  152.9127  144.7743  157.0009 H   0  0  0  0  0  0  0  0  0  0  0  0
  151.3538  145.2841  157.6339 H   0  0  0  0  0  0  0  0  0  0  0  0
  152.5724  145.2455  159.6771 H   0  0  0  0  0  0  0  0  0  0  0  0
  153.6223  143.9532  159.1035 H   0  0  0  0  0  0  0  0  0  0  0  0
  1  2  1  0  0  0  0
  1 20  1  0  0  0  0
  1 21  1  0  0  0  0
  2  3  2  0  0  0  0
  2  4  1  0  0  0  0
  4  5  1  0  0  0  0
  4 22  1  0  0  0  0
  4 23  1  0  0  0  0
  5 19  1  0  0  0  0
  5  6  2  0  0  0  0
  6  7  1  0  0  0  0
  6 24  1  0  0  0  0
  7  8  1  0  0  0  0
  8  9  1  0  0  0  0
  8 19  2  0  0  0  0
  9 10  1  0  0  0  0
  9 25  1  0  0  0  0
 10 11  2  0  0  0  0
 10 12  1  0  0  0  0
 12 13  1  0  0  0  0
 12 26  1  0  0  0  0
 12 27  1  0  0  0  0
 13 14  1  0  0  0  0
 13 28  1  0  0  0  0
 13 29  1  0  0  0  0
 14 18  1  0  0  0  0
 14 15  1  0  0  0  0
 14 30  1  0  0  0  0
 15 16  1  0  0  0  0
 15 31  1  0  0  0  0
 15 32  1  0  0  0  0
 16 17  1  0  0  0  0
 16 33  1  0  0  0  0
 16 34  1  0  0  0  0
 17 18  1  0  0  0  0
 17 35  1  0  0  0  0
 17 36  1  0  0  0  0
 18 37  1  0  0  0  0
 18 38  1  0  0  0  0
M  END
> <s_m_source_file>
AV-unprocessed.smi

> <i_m_source_file_index>
344

> <i_lp_mmshare_version>
43012

> <i_f3d_flags>
0

> <s_epik_input>
W05IMl1DKD1PKVtDSDJdYzFbY0hdc2MobjEpW05IXUMoPU8pW0NIMl1bQ0gyXVtDSF0yW0NIMl1bQ0gyXVtDSDJdW0NIMl0y

> <s_epik_cmdline>
J2VwaWtfcHl0aG9uJywgJy1waCcsICc3LjAnLCAnLXRuJywgJzgnLCAnLW1hJywgJzIwMCcsICctbWV0YWxfYmluZGluZycsICctaW1hZScsICc8aW5maWxlLm1hZT4nLCAnLW9tYWUnLCAnPG91dGZpbGUubWFlPic=

> <r_lp_tautomer_probability>
1

> <r_epik_Ionization_Penalty>
0.000156249

> <r_epik_Ionization_Penalty_Charging>
0

> <r_epik_Ionization_Penalty_Neutral>
0.000156249

> <r_epik_State_Penalty>
-0

> <r_epik_Charging_Adjusted_Penalty>
0

> <i_epik_Tot_Q>
0

> <i_epik_Tot_abs_Q>
0

> <r_epik_Metal_State_Penalty>
0.0972404

> <b_epik_Metal_Only>
0

> <s_lp_Force_Field>
OPLS_2005

> <r_lp_Energy>
21.4861

> <b_lp_Chiralities_Consistent>
1

> <s_lp_Variant>
AV-unprocessed.smi:344-1

> <Gold.Version>
5.8.1

> <Gold.Id.Protein>
6NUR|6NUR_protein|mol2

> <Gold.PLP.Fitness>
44.1104

> <Gold.PLP.PLP>
-44.4467

> <Gold.PLP.part.hbond>
-2.7628

> <Gold.PLP.part.metal>
0.0000

> <Gold.PLP.part.buried>
-3.4658

> <Gold.PLP.part.nonpolar>
-36.1496

> <Gold.PLP.part.repulsive>
0.1653

> <Gold.PLP.ligand.clash>
0.0000

> <Gold.PLP.ligand.torsion>
0.1845

> <Gold.PLP.Chemscore.Hbond>
0.0000

> <Gold.PLP.Chemscore.CHOScore>
0.0000

> <Gold.PLP.Chemscore.Metal>
0.0000

> <Gold.PLP.Chemscore.Internal.Correction>
0.0328

> <Gold.Rescore>
     Score         DG    S(hbond)    S(metal)    S(lipo)     H(rot)  DE(clash)    DE(int)     intcor
      8.65     -11.39       0.00        0.00     103.89       2.44       1.35       1.39       ----

> <Gold.Chemscore.Fitness>
8.6518

> <Gold.Chemscore.DG>
-11.3892

> <Gold.Chemscore.ZeroCoef>
-5.4800

> <Gold.Chemscore.Hbond>
0.0000

> <Gold.Chemscore.Metal>
0.0000

> <Gold.Chemscore.Lipo>
103.8945

> <Gold.Chemscore.Internal_Hbond>
0.0000

> <Gold.Chemscore.DEClash>
1.3466

> <Gold.Chemscore.DEInternal>
1.3908

> <Gold.Chemscore.Rot>
2.4400

> <Gold.Chemscore.Internal.Correction>
   9.000000E+99

> <Gold.Chemscore.Hbond.Weighted>
-0.0000

> <Gold.Chemscore.Metal.Weighted>
-0.0000

> <Gold.Chemscore.Lipo.Weighted>
-12.1557

> <Gold.Chemscore.Internal_Hbond.Weighted>
0.0000

> <Gold.Chemscore.DEClash.Weighted>
1.3466

> <Gold.Chemscore.DEInternal.Weighted>
1.3908

> <Gold.Chemscore.Rot.Weighted>
6.2465

> <Gold.Chemscore.Internal.Correction.Weighted>
   9.000000E+99

> <Gold.Protein.RotatedTorsions>
[ 6907 6896 6895 6894 ] final   70.42 input  -60.11 | X-H torsion
[ 7974 7965 7964 7962 ] final  -84.40 input  175.53 | X-H torsion
[ 8008 7997 7996 7995 ] final  179.97 input   59.86 | X-H torsion
[ 10167 10162 10161 10158 ] final   87.87 input  -65.29 | X-H torsion
[ 10718 10713 10712 10709 ] final  175.66 input   66.30 | X-H torsion
[ 10763 10752 10751 10750 ] final   53.60 input  -60.55 | X-H torsion
[ 11005 11000 10999 10996 ] final   84.18 input  -57.11 | X-H torsion

> <Gold.Protein.ActiveResidues>
 VAL166  LYS551  ARG553  GLY616  TRP617  ASP618  TYR619  PRO620  LYS621  CYS622 
 ASP623  PHE694  ASN695  SER759  ASP760  ASP761  ALA762  ILE779  LEU786  VAL792 
 PHE793  MET794  SER795  GLU796  ALA797  LYS798  CYS799  TRP800  GLU811  SER814 

> <Gold.Protein.RotatedAtoms>
  152.4748  134.4871  159.9683 H   0  0  0  0  0  0  0  0  0  0  0  0  # atno 6907 bound_to 6896
  151.4889  133.3523  159.2858 H   0  0  0  0  0  0  0  0  0  0  0  0  # atno 6908 bound_to 6896
  150.8780  134.8193  159.7265 H   0  0  0  0  0  0  0  0  0  0  0  0  # atno 6909 bound_to 6896
  145.5071  140.9543  143.1728 H   0  0  0  0  0  0  0  0  0  0  0  0  # atno 7974 bound_to 7965
  156.0373  140.1295  157.0194 H   0  0  0  0  0  0  0  0  0  0  0  0  # atno 8008 bound_to 7997
  154.4375  140.1037  156.6257 H   0  0  0  0  0  0  0  0  0  0  0  0  # atno 8009 bound_to 7997
  155.5718  140.3466  155.4519 H   0  0  0  0  0  0  0  0  0  0  0  0  # atno 8010 bound_to 7997
  139.8730  144.6482  150.8928 H   0  0  0  0  0  0  0  0  0  0  0  0  # atno 10167 bound_to 10162
  156.9317  130.9973  151.2986 H   0  0  0  0  0  0  0  0  0  0  0  0  # atno 10718 bound_to 10713
  152.9797  135.5773  154.4768 H   0  0  0  0  0  0  0  0  0  0  0  0  # atno 10763 bound_to 10752
  154.4322  135.2774  155.1906 H   0  0  0  0  0  0  0  0  0  0  0  0  # atno 10764 bound_to 10752
  154.3610  135.6188  153.5744 H   0  0  0  0  0  0  0  0  0  0  0  0  # atno 10765 bound_to 10752
  139.9008  134.8198  156.2410 H   0  0  0  0  0  0  0  0  0  0  0  0  # atno 11005 bound_to 11000
  144.7748  139.6655  143.7179 LP  0  0  0  0  0  0  0  0  0  0  0  0  # atno 17320 bound_to 7965
  146.2190  139.5601  142.9631 LP  0  0  0  0  0  0  0  0  0  0  0  0  # atno 17321 bound_to 7965
  140.7757  143.3648  151.1760 LP  0  0  0  0  0  0  0  0  0  0  0  0  # atno 17342 bound_to 10162
  139.7266  143.9138  152.3005 LP  0  0  0  0  0  0  0  0  0  0  0  0  # atno 17343 bound_to 10162
  157.5843  130.8398  149.8567 LP  0  0  0  0  0  0  0  0  0  0  0  0  # atno 17370 bound_to 10713
  156.0444  130.3731  150.1354 LP  0  0  0  0  0  0  0  0  0  0  0  0  # atno 17371 bound_to 10713
  141.0285  133.7002  156.1388 LP  0  0  0  0  0  0  0  0  0  0  0  0  # atno 17394 bound_to 11000
  140.7131  134.4439  157.5580 LP  0  0  0  0  0  0  0  0  0  0  0  0  # atno 17395 bound_to 11000

$$$$
