AV-unprocessed.smi:1867|AV-procd|sdf|7576|dock1
  -GOLD-   22720 9283D 1   1.00000     0.00000
 Structure written by MMmdl.
 52 55  0  0  0  0  0  0  0  0  4 V2000
  148.5853  137.3978  157.9831 O   0  0  0  0  0  0  0  0  0  0  0  0
  148.1478  137.6766  156.8682 C   0  0  0  0  0  0  0  0  0  0  0  0
  148.4963  138.8593  156.3034 N   0  0  0  0  0  0  0  0  0  0  0  0
  149.2457  139.9322  156.8554 C   0  0  0  0  0  0  0  0  0  0  0  0
  150.2603  139.6182  157.7830 C   0  0  0  0  0  0  0  0  0  0  0  0
  151.0477  140.6490  158.3350 C   0  0  0  0  0  0  0  0  0  0  0  0
  150.8185  141.9899  157.9464 C   0  0  0  0  0  0  0  0  0  0  0  0
  151.5705  143.0680  158.4496 N   0  0  0  0  0  0  0  0  0  0  0  0
  151.2863  144.4406  158.0629 C   0  0  0  0  0  0  0  0  0  0  0  0
  152.2011  145.2867  158.9472 C   0  0  0  0  0  0  0  0  0  0  0  0
  152.2901  144.4698  160.2365 C   0  0  0  0  0  0  0  0  0  0  0  0
  152.1877  143.0136  159.7673 C   0  0  0  0  0  0  0  0  0  0  0  0
  149.8466  142.2428  157.0376 N   0  3  0  0  0  0  0  0  0  0  0  0
  149.0691  141.2863  156.4856 C   0  0  0  0  0  0  0  0  0  0  0  0
  147.3439  136.8067  156.1842 N   0  5  0  0  0  0  0  0  0  0  0  0
  147.3904  136.4242  154.7657 C   0  0  2  0  0  0  0  0  0  0  0  0
  146.0148  136.5733  154.0880 C   0  0  0  0  0  0  0  0  0  0  0  0
  145.9184  135.4039  153.0890 C   0  0  0  0  0  0  0  0  0  0  0  0
  147.1773  134.6487  153.2409 N   0  3  2  0  0  0  0  0  0  0  0  0
  147.1442  133.2041  152.9236 C   0  0  0  0  0  0  0  0  0  0  0  0
  148.5697  132.6260  153.0347 C   0  0  0  0  0  0  0  0  0  0  0  0
  149.2136  132.9437  154.4004 C   0  0  0  0  0  0  0  0  0  0  0  0
  149.1433  134.4517  154.7131 C   0  0  0  0  0  0  0  0  0  0  0  0
  147.6804  134.9283  154.5955 C   0  0  1  0  0  0  0  0  0  0  0  0
  148.2118  138.9794  155.3424 H   0  0  0  0  0  0  0  0  0  0  0  0
  150.4357  138.5927  158.0738 H   0  0  0  0  0  0  0  0  0  0  0  0
  151.8232  140.3965  159.0427 H   0  0  0  0  0  0  0  0  0  0  0  0
  151.4806  144.6102  157.0033 H   0  0  0  0  0  0  0  0  0  0  0  0
  150.2384  144.6671  158.2646 H   0  0  0  0  0  0  0  0  0  0  0  0
  153.1893  145.3639  158.4912 H   0  0  0  0  0  0  0  0  0  0  0  0
  151.8223  146.2967  159.1066 H   0  0  0  0  0  0  0  0  0  0  0  0
  153.1996  144.6683  160.8040 H   0  0  0  0  0  0  0  0  0  0  0  0
  151.4391  144.7085  160.8757 H   0  0  0  0  0  0  0  0  0  0  0  0
  151.6067  142.4174  160.4719 H   0  0  0  0  0  0  0  0  0  0  0  0
  153.1780  142.5668  159.6742 H   0  0  0  0  0  0  0  0  0  0  0  0
  148.3510  141.6428  155.7622 H   0  0  0  0  0  0  0  0  0  0  0  0
  148.1299  136.9905  154.1964 H   0  0  0  0  0  0  0  0  0  0  0  0
  145.2024  136.4950  154.8127 H   0  0  0  0  0  0  0  0  0  0  0  0
  145.9184  137.5416  153.5957 H   0  0  0  0  0  0  0  0  0  0  0  0
  145.0625  134.7717  153.3320 H   0  0  0  0  0  0  0  0  0  0  0  0
  145.8027  135.7456  152.0597 H   0  0  0  0  0  0  0  0  0  0  0  0
  146.4671  132.6897  153.6075 H   0  0  0  0  0  0  0  0  0  0  0  0
  146.7570  133.0597  151.9144 H   0  0  0  0  0  0  0  0  0  0  0  0
  148.5495  131.5479  152.8731 H   0  0  0  0  0  0  0  0  0  0  0  0
  149.1904  133.0442  152.2414 H   0  0  0  0  0  0  0  0  0  0  0  0
  148.6958  132.3874  155.1827 H   0  0  0  0  0  0  0  0  0  0  0  0
  150.2499  132.6052  154.4148 H   0  0  0  0  0  0  0  0  0  0  0  0
  149.5329  134.6364  155.7159 H   0  0  0  0  0  0  0  0  0  0  0  0
  149.7895  134.9944  154.0203 H   0  0  0  0  0  0  0  0  0  0  0  0
  147.0664  134.3675  155.3049 H   0  0  0  0  0  0  0  0  0  0  0  0
  147.8383  135.0791  152.6103 H   0  0  0  0  0  0  0  0  0  0  0  0
  149.6927  143.2091  156.7501 H   0  0  0  0  0  0  0  0  0  0  0  0
  1  2  2  0  0  0  0
  2  3  1  0  0  0  0
  2 15  1  0  0  0  0
  3  4  1  0  0  0  0
  3 25  1  0  0  0  0
  4 14  1  0  0  0  0
  4  5  2  0  0  0  0
  5  6  1  0  0  0  0
  5 26  1  0  0  0  0
  6  7  2  0  0  0  0
  6 27  1  0  0  0  0
  7  8  1  0  0  0  0
  7 13  1  0  0  0  0
  8 12  1  0  0  0  0
  8  9  1  0  0  0  0
  9 10  1  0  0  0  0
  9 28  1  0  0  0  0
  9 29  1  0  0  0  0
 10 11  1  0  0  0  0
 10 30  1  0  0  0  0
 10 31  1  0  0  0  0
 11 12  1  0  0  0  0
 11 32  1  0  0  0  0
 11 33  1  0  0  0  0
 12 34  1  0  0  0  0
 12 35  1  0  0  0  0
 13 14  2  0  0  0  0
 13 52  1  0  0  0  0
 14 36  1  0  0  0  0
 15 16  1  0  0  0  0
 16 24  1  0  0  0  0
 16 17  1  0  0  0  0
 16 37  1  0  0  0  0
 17 18  1  0  0  0  0
 17 38  1  0  0  0  0
 17 39  1  0  0  0  0
 18 19  1  0  0  0  0
 18 40  1  0  0  0  0
 18 41  1  0  0  0  0
 19 24  1  0  0  0  0
 19 20  1  0  0  0  0
 19 51  1  0  0  0  0
 20 21  1  0  0  0  0
 20 42  1  0  0  0  0
 20 43  1  0  0  0  0
 21 22  1  0  0  0  0
 21 44  1  0  0  0  0
 21 45  1  0  0  0  0
 22 23  1  0  0  0  0
 22 46  1  0  0  0  0
 22 47  1  0  0  0  0
 23 24  1  0  0  0  0
 23 48  1  0  0  0  0
 23 49  1  0  0  0  0
 24 50  1  0  0  0  0
M  CHG  1  13   1
M  CHG  1  15  -1
M  CHG  1  19   1
M  END
> <s_m_source_file>
AV-unprocessed.smi

> <i_m_source_file_index>
1867

> <i_lp_mmshare_version>
43012

> <i_f3d_flags>
0

> <s_epik_input>
W0NIMl0xW0NIMl1bQ0gyXVtDSDJdW0NASF0oTjEyKVtDQEBIXShbQ0gyXVtDSDJdMilbTkhdQyg9TylbTkhdYzNbY0hdW2NIXWMobltjSF0zKU40W0NIMl1bQ0gyXVtDSDJdW0NIMl00

> <s_epik_cmdline>
J2VwaWtfcHl0aG9uJywgJy1waCcsICc3LjAnLCAnLXRuJywgJzgnLCAnLW1hJywgJzIwMCcsICctbWV0YWxfYmluZGluZycsICctaW1hZScsICc8aW5maWxlLm1hZT4nLCAnLW9tYWUnLCAnPG91dGZpbGUubWFlPic=

> <r_lp_tautomer_probability>
0.999994

> <r_epik_Ionization_Penalty>
8.56137

> <r_epik_Ionization_Penalty_Charging>
8.56136

> <r_epik_Ionization_Penalty_Neutral>
3.91889e-06

> <r_epik_State_Penalty>
8.16255

> <r_epik_Charging_Adjusted_Penalty>
16.7239

> <i_epik_Tot_Q>
1

> <i_epik_Tot_abs_Q>
3

> <r_epik_Metal_State_Penalty>
4.14279

> <b_epik_Metal_Only>
1

> <s_lp_Force_Field>
OPLS_2005

> <r_lp_Energy>
66.0689

> <b_lp_Chiralities_Consistent>
1

> <s_lp_Variant>
AV-unprocessed.smi:1867-17

> <Gold.Version>
5.8.1

> <Gold.Id.Protein>
6NUR|6NUR_protein|mol2

> <Gold.PLP.Fitness>
49.1088

> <Gold.PLP.PLP>
-38.3782

> <Gold.PLP.part.hbond>
-2.0000

> <Gold.PLP.part.metal>
0.0000

> <Gold.PLP.part.buried>
-4.6544

> <Gold.PLP.part.nonpolar>
-32.4082

> <Gold.PLP.part.repulsive>
0.0339

> <Gold.PLP.ligand.clash>
0.0000

> <Gold.PLP.ligand.torsion>
0.7481

> <Gold.PLP.Chemscore.Hbond>
4.0000

> <Gold.PLP.Chemscore.CHOScore>
0.0000

> <Gold.PLP.Chemscore.Metal>
0.0000

> <Gold.Chemscore.Hbonds>
donor molecule, donor type, donor heavy atom, donor atom, acceptor molecule, acceptor atom, score
      L1  H    13    52       P1  8028  2.00
      L1  H    19    51       P1  7948  2.00

> <Gold.PLP.Chemscore.Internal.Correction>
0.2268

> <Gold.Rescore>
     Score         DG    S(hbond)    S(metal)    S(lipo)     H(rot)  DE(clash)    DE(int)     intcor
     18.72     -20.88       1.97        0.00      97.19       1.00       0.05       2.11       ----

> <Gold.Chemscore.Fitness>
18.7170

> <Gold.Chemscore.DG>
-20.8779

> <Gold.Chemscore.ZeroCoef>
-5.4800

> <Gold.Chemscore.Hbond>
1.9721

> <Gold.Chemscore.Metal>
0.0000

> <Gold.Chemscore.Lipo>
97.1878

> <Gold.Chemscore.Internal_Hbond>
0.0000

> <Gold.Chemscore.DEClash>
0.0478

> <Gold.Chemscore.DEInternal>
2.1132

> <Gold.Chemscore.Rot>
1.0000

> <Gold.Chemscore.Internal.Correction>
   9.000000E+99

> <Gold.Chemscore.Hbonds>
donor molecule, donor type, donor heavy atom, donor atom, acceptor molecule, acceptor atom, score
      L1  H    13    52       P1  8028  0.92
      L1  H    19    51       P1  7948  0.98

> <Gold.Chemscore.Hbond.Weighted>
-6.5870

> <Gold.Chemscore.Metal.Weighted>
-0.0000

> <Gold.Chemscore.Lipo.Weighted>
-11.3710

> <Gold.Chemscore.Internal_Hbond.Weighted>
0.0000

> <Gold.Chemscore.DEClash.Weighted>
0.0478

> <Gold.Chemscore.DEInternal.Weighted>
2.1132

> <Gold.Chemscore.Rot.Weighted>
2.5600

> <Gold.Chemscore.Internal.Correction.Weighted>
   9.000000E+99

> <Gold.Protein.RotatedTorsions>
[ 6907 6896 6895 6894 ] final   98.05 input  -60.11 | X-H torsion
[ 7974 7965 7964 7962 ] final -114.83 input  175.53 | X-H torsion
[ 8008 7997 7996 7995 ] final  161.06 input   59.86 | X-H torsion
[ 10167 10162 10161 10158 ] final   63.94 input  -65.29 | X-H torsion
[ 10718 10713 10712 10709 ] final  169.06 input   66.30 | X-H torsion
[ 10763 10752 10751 10750 ] final -111.23 input  -60.55 | X-H torsion
[ 11005 11000 10999 10996 ] final    8.96 input  -57.11 | X-H torsion

> <Gold.Protein.ActiveResidues>
 VAL166  LYS551  ARG553  GLY616  TRP617  ASP618  TYR619  PRO620  LYS621  CYS622 
 ASP623  PHE694  ASN695  SER759  ASP760  ASP761  ALA762  ILE779  LEU786  VAL792 
 PHE793  MET794  SER795  GLU796  ALA797  LYS798  CYS799  TRP800  GLU811  SER814 

> <Gold.Protein.RotatedAtoms>
  152.5415  134.0640  159.8164 H   0  0  0  0  0  0  0  0  0  0  0  0  # atno 6907 bound_to 6896
  151.0764  133.5417  159.2631 H   0  0  0  0  0  0  0  0  0  0  0  0  # atno 6908 bound_to 6896
  151.2261  135.0545  159.9023 H   0  0  0  0  0  0  0  0  0  0  0  0  # atno 6909 bound_to 6896
  145.1155  140.8638  143.3844 H   0  0  0  0  0  0  0  0  0  0  0  0  # atno 7974 bound_to 7965
  156.2129  140.1787  156.7654 H   0  0  0  0  0  0  0  0  0  0  0  0  # atno 8008 bound_to 7997
  154.5749  140.0676  156.9048 H   0  0  0  0  0  0  0  0  0  0  0  0  # atno 8009 bound_to 7997
  155.2607  140.3335  155.4276 H   0  0  0  0  0  0  0  0  0  0  0  0  # atno 8010 bound_to 7997
  140.1275  144.4674  150.6884 H   0  0  0  0  0  0  0  0  0  0  0  0  # atno 10167 bound_to 10162
  157.0280  131.0251  151.2753 H   0  0  0  0  0  0  0  0  0  0  0  0  # atno 10718 bound_to 10713
  154.8289  135.4535  154.1006 H   0  0  0  0  0  0  0  0  0  0  0  0  # atno 10763 bound_to 10752
  153.2296  135.6904  153.7911 H   0  0  0  0  0  0  0  0  0  0  0  0  # atno 10764 bound_to 10752
  153.7298  135.3328  155.3260 H   0  0  0  0  0  0  0  0  0  0  0  0  # atno 10765 bound_to 10752
  140.5311  134.0466  155.7873 H   0  0  0  0  0  0  0  0  0  0  0  0  # atno 11005 bound_to 11000
  145.0798  139.2968  143.5789 LP  0  0  0  0  0  0  0  0  0  0  0  0  # atno 17320 bound_to 7965
  146.3524  140.0301  142.8651 LP  0  0  0  0  0  0  0  0  0  0  0  0  # atno 17321 bound_to 7965
  140.6836  143.2339  151.5319 LP  0  0  0  0  0  0  0  0  0  0  0  0  # atno 17342 bound_to 10162
  139.5536  144.2331  152.1574 LP  0  0  0  0  0  0  0  0  0  0  0  0  # atno 17343 bound_to 10162
  157.5199  130.7991  149.7797 LP  0  0  0  0  0  0  0  0  0  0  0  0  # atno 17370 bound_to 10713
  156.0079  130.3847  150.2366 LP  0  0  0  0  0  0  0  0  0  0  0  0  # atno 17371 bound_to 10713
  141.1281  133.9349  157.2593 LP  0  0  0  0  0  0  0  0  0  0  0  0  # atno 17394 bound_to 11000
  139.9554  135.0166  156.9113 LP  0  0  0  0  0  0  0  0  0  0  0  0  # atno 17395 bound_to 11000

$$$$
