#       Name:                AV-unprocessed.smi:2658
#       Creating user name   scv26
#       Creation time:       Fri Mar 27 14:32:47 2020


#       File generated by GOLD software.
#

@<TRIPOS>MOLECULE
AV-unprocessed.smi:2658
    53    55     1
SMALL
NO_CHARGES


@<TRIPOS>ATOM
      1 ****        -6.2686   0.3700   2.1223 C.3            1 S1                 0.0000
      2 ****        -5.1058   0.3650   1.1443 C.ar           1 S1                 0.0000
      3 ****        -5.3877   0.4259  -0.2390 C.ar           1 S1                 0.0000
      4 ****        -4.3036   0.4111  -1.1087 C.ar           1 S1                 0.0000
      5 ****        -4.2501   0.4522  -2.5036 N.pl3          1 S1                 1.0000
      6 ****        -2.9513   0.4087  -2.9099 C.2            1 S1                 0.0000
      7 ****        -2.1740   0.3414  -1.7953 N.pl3          1 S1                 0.0000
      8 ****        -0.7110   0.2663  -1.6763 C.3            1 S1                 0.0000
      9 ****        -0.1822  -1.1809  -1.7525 C.3            1 S1                 0.0000
     10 ****        -0.7019  -1.9868  -0.7141 O.3            1 S1                 0.0000
     11 ****         1.3517  -1.2795  -1.7436 C.3            1 S1                 0.0000
     12 ****         1.8823  -0.4763  -0.6923 O.3            1 S1                 0.0000
     13 ****         3.2504  -0.4374  -0.5199 C.ar           1 S1                 0.0000
     14 ****         3.7836   0.3731   0.4999 C.ar           1 S1                 0.0000
     15 ****         5.1820   0.3953   0.6574 C.ar           1 S1                 0.0000
     16 ****         5.8285   1.2488   1.7323 C.3            1 S1                 0.0000
     17 ****         5.9419  -0.4066  -0.2236 C.ar           1 S1                 0.0000
     18 ****         7.4557  -0.4678  -0.1413 C.3            1 S1                 0.0000
     19 ****         5.3703  -1.1654  -1.1878 N.ar           1 S1                 0.0000
     20 ****         4.0416  -1.1804  -1.3362 N.ar           1 S1                 0.0000
     21 ****        -2.9748   0.3423  -0.6467 C.ar           1 S1                 0.0000
     22 ****        -2.6799   0.2863   0.7136 C.ar           1 S1                 0.0000
     23 ****        -3.7688   0.2970   1.6145 C.ar           1 S1                 0.0000
     24 ****        -3.4771   0.2312   3.1039 C.3            1 S1                 0.0000
     25 ****        -7.2260   0.4276   1.6037 H              1 S1                 0.0000
     26 ****        -6.2014   1.2257   2.7943 H              1 S1                 0.0000
     27 ****        -6.2685  -0.5413   2.7208 H              1 S1                 0.0000
     28 ****        -6.4030   0.4770  -0.6040 H              1 S1                 0.0000
     29 ****        -2.6013   0.4216  -3.9322 H              1 S1                 0.0000
     30 ****        -0.2926   0.8542  -2.4942 H              1 S1                 0.0000
     31 ****        -0.4021   0.7624  -0.7560 H              1 S1                 0.0000
     32 ****        -0.5362  -1.6268  -2.6827 H              1 S1                 0.0000
     33 ****        -0.3461  -1.6824   0.1067 H              1 S1                 0.0000
     34 ****         1.6641  -2.3208  -1.6447 H              1 S1                 0.0000
     35 ****         1.7338  -0.9116  -2.6975 H              1 S1                 0.0000
     36 ****         3.1363   0.9575   1.1372 H              1 S1                 0.0000
     37 ****         6.5277   1.9570   1.2873 H              1 S1                 0.0000
     38 ****         6.3727   0.6235   2.4404 H              1 S1                 0.0000
     39 ****         5.0815   1.8167   2.2876 H              1 S1                 0.0000
     40 ****         7.7701  -0.7869   0.8526 H              1 S1                 0.0000
     41 ****         7.8867   0.5130  -0.3428 H              1 S1                 0.0000
     42 ****         7.8669  -1.1723  -0.8654 H              1 S1                 0.0000
     43 ****        -1.6632   0.2294   1.0728 H              1 S1                 0.0000
     44 ****        -2.4053   0.1835   3.2991 H              1 S1                 0.0000
     45 ****        -3.9353  -0.6542   3.5453 H              1 S1                 0.0000
     46 ****        -3.8687   1.1136   3.6104 H              1 S1                 0.0000
     47 ****        -5.0402   0.5023  -3.1340 H              1 S1                 0.0000
     48 ****        -0.4394  -2.9402  -0.8631 LP             1 S1                 0.0000
     49 ****        -1.6992  -1.9144  -0.6974 LP             1 S1                 0.0000
     50 ****         1.4864  -0.8105   0.1630 LP             1 S1                 0.0000
     51 ****         1.5786   0.4623  -0.8559 LP             1 S1                 0.0000
     52 ****         5.9446  -1.7176  -1.7922 LP             1 S1                 0.0000
     53 ****         3.6279  -1.7422  -2.0527 LP             1 S1                 0.0000
@<TRIPOS>BOND
    1    1    2 1     
    2    1   25 1     
    3    1   26 1     
    4    1   27 1     
    5    2   23 ar    
    6    2    3 ar    
    7    3    4 ar    
    8    3   28 1     
    9    4   21 ar    
   10    4    5 1     
   11    5    6 2     
   12    5   47 1     
   13    6    7 1     
   14    6   29 1     
   15    7    8 1     
   16    7   21 1     
   17    8    9 1     
   18    8   30 1     
   19    8   31 1     
   20    9   10 1     
   21    9   11 1     
   22    9   32 1     
   23   10   33 1     
   24   11   12 1     
   25   11   34 1     
   26   11   35 1     
   27   12   13 1     
   28   13   20 ar    
   29   13   14 ar    
   30   14   15 ar    
   31   14   36 1     
   32   15   16 1     
   33   15   17 ar    
   34   16   37 1     
   35   16   38 1     
   36   16   39 1     
   37   17   18 1     
   38   17   19 ar    
   39   18   40 1     
   40   18   41 1     
   41   18   42 1     
   42   19   20 ar    
   43   21   22 ar    
   44   22   23 ar    
   45   22   43 1     
   46   23   24 1     
   47   24   44 1     
   48   24   45 1     
   49   24   46 1     
   50   10   48 1     
   51   10   49 1     
   52   12   50 1     
   53   12   51 1     
   54   19   52 1     
   55   20   53 1     
@<TRIPOS>SUBSTRUCTURE
      1 S1             1
@<TRIPOS>SET
LONE_PAIRS      STATIC     ATOMS    <user>   **** ""
6 48 49 50 51 52 53
DONOR_HYDROGENS      STATIC     ATOMS    <user>   **** ""
2 47 33
ATOM$BLUE        STATIC     ATOMS    COLORGROUP SYSTEM
6 48 49 50 51 52 53
ATOM$RED        STATIC     ATOMS    COLORGROUP SYSTEM
2 47 33
