AV-unprocessed.smi:2324|AV-procd|sdf|9294|dock10
  -GOLD-   2272012513D 1   1.00000     0.00000
 Structure written by MMmdl.
 37 39  0  0  0  0  0  0  0  0  1 V2000
  150.7487  134.8895  155.8696 O   0  0  0  0  0  0  0  0  0  0  0  0
  150.2054  135.1751  154.8039 C   0  0  0  0  0  0  0  0  0  0  0  0
  149.6910  134.2133  154.0081 N   0  0  0  0  0  0  0  0  0  0  0  0
  149.6381  132.7958  154.1494 C   0  0  0  0  0  0  0  0  0  0  0  0
  148.6828  132.1567  153.3301 C   0  0  0  0  0  0  0  0  0  0  0  0
  148.5623  130.7587  153.4065 C   0  0  0  0  0  0  0  0  0  0  0  0
  149.4107  130.0880  154.3034 C   0  0  0  0  0  0  0  0  0  0  0  0
  150.3122  130.7380  155.0703 N   0  0  0  0  0  0  0  0  0  0  0  0
  150.4200  132.0684  154.9911 N   0  0  0  0  0  0  0  0  0  0  0  0
  150.0858  136.4398  154.3671 N   0  0  0  0  0  0  0  0  0  0  0  0
  150.5668  137.6266  155.0669 C   0  0  1  0  0  0  0  0  0  0  0  0
  152.0322  137.8912  154.6974 C   0  0  0  0  0  0  0  0  0  0  0  0
  152.5233  139.2001  155.3343 C   0  0  0  0  0  0  0  0  0  0  0  0
  151.6880  140.2888  154.9454 O   0  0  0  0  0  0  0  0  0  0  0  0
  150.3084  140.1556  155.2925 C   0  0  2  0  0  0  0  0  0  0  0  0
  150.0841  140.2831  156.7935 C   0  0  0  0  0  0  0  0  0  0  0  0
  150.2758  141.6096  157.4904 C   0  0  0  0  0  0  0  0  0  0  0  0
  151.2507  140.4820  157.7321 C   0  0  0  0  0  0  0  0  0  0  0  0
  149.7237  138.8596  154.6975 C   0  0  0  0  0  0  0  0  0  0  0  0
  149.2671  134.5613  153.1604 H   0  0  0  0  0  0  0  0  0  0  0  0
  148.0542  132.7221  152.6574 H   0  0  0  0  0  0  0  0  0  0  0  0
  147.8469  130.2215  152.8015 H   0  0  0  0  0  0  0  0  0  0  0  0
  149.3663  129.0143  154.4095 H   0  0  0  0  0  0  0  0  0  0  0  0
  149.6239  136.5898  153.4810 H   0  0  0  0  0  0  0  0  0  0  0  0
  150.5082  137.4518  156.1425 H   0  0  0  0  0  0  0  0  0  0  0  0
  152.6608  137.0606  155.0206 H   0  0  0  0  0  0  0  0  0  0  0  0
  152.1366  137.9586  153.6136 H   0  0  0  0  0  0  0  0  0  0  0  0
  152.5620  139.1131  156.4202 H   0  0  0  0  0  0  0  0  0  0  0  0
  153.5409  139.4118  155.0060 H   0  0  0  0  0  0  0  0  0  0  0  0
  149.7968  140.9950  154.8201 H   0  0  0  0  0  0  0  0  0  0  0  0
  149.2702  139.6742  157.1803 H   0  0  0  0  0  0  0  0  0  0  0  0
  150.6189  142.4520  156.8930 H   0  0  0  0  0  0  0  0  0  0  0  0
  149.5833  141.8581  158.2919 H   0  0  0  0  0  0  0  0  0  0  0  0
  151.2102  139.9786  158.6959 H   0  0  0  0  0  0  0  0  0  0  0  0
  152.2432  140.5745  157.2957 H   0  0  0  0  0  0  0  0  0  0  0  0
  149.6920  138.9588  153.6114 H   0  0  0  0  0  0  0  0  0  0  0  0
  148.6905  138.7316  155.0225 H   0  0  0  0  0  0  0  0  0  0  0  0
  1  2  2  0  0  0  0
  2  3  1  0  0  0  0
  2 10  1  0  0  0  0
  3  4  1  0  0  0  0
  3 20  1  0  0  0  0
  4  9  1  0  0  0  0
  4  5  2  0  0  0  0
  5  6  1  0  0  0  0
  5 21  1  0  0  0  0
  6  7  2  0  0  0  0
  6 22  1  0  0  0  0
  7  8  1  0  0  0  0
  7 23  1  0  0  0  0
  8  9  2  0  0  0  0
 10 11  1  0  0  0  0
 10 24  1  0  0  0  0
 11 19  1  0  0  0  0
 11 12  1  0  0  0  0
 11 25  1  0  0  0  0
 12 13  1  0  0  0  0
 12 26  1  0  0  0  0
 12 27  1  0  0  0  0
 13 14  1  0  0  0  0
 13 28  1  0  0  0  0
 13 29  1  0  0  0  0
 14 15  1  0  0  0  0
 15 16  1  0  0  0  0
 15 19  1  0  0  0  0
 15 30  1  0  0  0  0
 16 18  1  0  0  0  0
 16 17  1  0  0  0  0
 16 31  1  0  0  0  0
 17 18  1  0  0  0  0
 17 32  1  0  0  0  0
 17 33  1  0  0  0  0
 18 34  1  0  0  0  0
 18 35  1  0  0  0  0
 19 36  1  0  0  0  0
 19 37  1  0  0  0  0
M  END
> <s_m_source_file>
AV-unprocessed.smi

> <i_m_source_file_index>
2324

> <i_lp_mmshare_version>
43012

> <i_f3d_flags>
0

> <s_epik_input>
bjFuW2NIXVtjSF1bY0hdYzFbTkhdQyg9TylbTkhdW0NAQEhdMltDSDJdW0NIMl1PW0NASF0oW0NIMl0yKVtDSF0zW0NIMl1bQ0gyXTM=

> <s_epik_cmdline>
J2VwaWtfcHl0aG9uJywgJy1waCcsICc3LjAnLCAnLXRuJywgJzgnLCAnLW1hJywgJzIwMCcsICctbWV0YWxfYmluZGluZycsICctaW1hZScsICc8aW5maWxlLm1hZT4nLCAnLW9tYWUnLCAnPG91dGZpbGUubWFlPic=

> <r_lp_tautomer_probability>
1

> <r_epik_Ionization_Penalty>
0.00521499

> <r_epik_Ionization_Penalty_Charging>
0

> <r_epik_Ionization_Penalty_Neutral>
0.00521499

> <r_epik_State_Penalty>
-0

> <r_epik_Charging_Adjusted_Penalty>
0

> <i_epik_Tot_Q>
0

> <i_epik_Tot_abs_Q>
0

> <r_epik_Metal_State_Penalty>
-0

> <b_epik_Metal_Only>
0

> <s_lp_Force_Field>
OPLS_2005

> <r_lp_Energy>
28.1305

> <b_lp_Chiralities_Consistent>
1

> <s_lp_Variant>
AV-unprocessed.smi:2324-4

> <Gold.Version>
5.8.1

> <Gold.Id.Protein>
6NUR|6NUR_protein|mol2

> <Gold.PLP.Fitness>
38.1347

> <Gold.PLP.PLP>
-32.4805

> <Gold.PLP.part.hbond>
-3.2954

> <Gold.PLP.part.metal>
0.0000

> <Gold.PLP.part.buried>
-3.0048

> <Gold.PLP.part.nonpolar>
-26.7997

> <Gold.PLP.part.repulsive>
0.1828

> <Gold.PLP.ligand.clash>
0.0000

> <Gold.PLP.ligand.torsion>
1.2626

> <Gold.PLP.Chemscore.Hbond>
2.3670

> <Gold.PLP.Chemscore.CHOScore>
0.0000

> <Gold.PLP.Chemscore.Metal>
0.0000

> <Gold.Chemscore.Hbonds>
donor molecule, donor type, donor heavy atom, donor atom, acceptor molecule, acceptor atom, score
      L1  H     3    20       P1  7948  0.29
      L1  H    10    24       P1  7948  1.00
      P1  H  7989  7998       L1    14  0.93

> <Gold.PLP.Chemscore.Internal.Correction>
1.0783

> <Gold.Rescore>
     Score         DG    S(hbond)    S(metal)    S(lipo)     H(rot)  DE(clash)    DE(int)     intcor
     12.71     -15.21       1.69        0.00      62.24       1.25       0.01       2.49       ----

> <Gold.Chemscore.Fitness>
12.7079

> <Gold.Chemscore.DG>
-15.2126

> <Gold.Chemscore.ZeroCoef>
-5.4800

> <Gold.Chemscore.Hbond>
1.6899

> <Gold.Chemscore.Metal>
0.0000

> <Gold.Chemscore.Lipo>
62.2413

> <Gold.Chemscore.Internal_Hbond>
0.0000

> <Gold.Chemscore.DEClash>
0.0110

> <Gold.Chemscore.DEInternal>
2.4936

> <Gold.Chemscore.Rot>
1.2476

> <Gold.Chemscore.Internal.Correction>
   9.000000E+99

> <Gold.Chemscore.Hbonds>
donor molecule, donor type, donor heavy atom, donor atom, acceptor molecule, acceptor atom, score
      L1  H     3    20       P1  7948  0.01
      L1  H    10    24       P1  7948  0.55
      P1  H  7989  7998       L1    14  0.38

> <Gold.Chemscore.Hbond.Weighted>
-5.6441

> <Gold.Chemscore.Metal.Weighted>
-0.0000

> <Gold.Chemscore.Lipo.Weighted>
-7.2822

> <Gold.Chemscore.Internal_Hbond.Weighted>
0.0000

> <Gold.Chemscore.DEClash.Weighted>
0.0110

> <Gold.Chemscore.DEInternal.Weighted>
2.4936

> <Gold.Chemscore.Rot.Weighted>
3.1938

> <Gold.Chemscore.Internal.Correction.Weighted>
   9.000000E+99

> <Gold.Protein.RotatedTorsions>
[ 6907 6896 6895 6894 ] final  105.42 input  -60.11 | X-H torsion
[ 7974 7965 7964 7962 ] final  -64.75 input  175.53 | X-H torsion
[ 8008 7997 7996 7995 ] final  -31.49 input   59.86 | X-H torsion
[ 10167 10162 10161 10158 ] final  -82.19 input  -65.29 | X-H torsion
[ 10718 10713 10712 10709 ] final  127.23 input   66.30 | X-H torsion
[ 10763 10752 10751 10750 ] final -179.41 input  -60.55 | X-H torsion
[ 11005 11000 10999 10996 ] final -112.85 input  -57.11 | X-H torsion

> <Gold.Protein.ActiveResidues>
 VAL166  LYS551  ARG553  GLY616  TRP617  ASP618  TYR619  PRO620  LYS621  CYS622 
 ASP623  PHE694  ASN695  SER759  ASP760  ASP761  ALA762  ILE779  LEU786  VAL792 
 PHE793  MET794  SER795  GLU796  ALA797  LYS798  CYS799  TRP800  GLU811  SER814 

> <Gold.Protein.RotatedAtoms>
  152.5231  133.9531  159.7680 H   0  0  0  0  0  0  0  0  0  0  0  0  # atno 6907 bound_to 6896
  150.9837  133.6211  159.2726 H   0  0  0  0  0  0  0  0  0  0  0  0  # atno 6908 bound_to 6896
  151.3380  135.0863  159.9414 H   0  0  0  0  0  0  0  0  0  0  0  0  # atno 6909 bound_to 6896
  145.7628  140.8853  143.0421 H   0  0  0  0  0  0  0  0  0  0  0  0  # atno 7974 bound_to 7965
  154.4212  140.1763  156.1575 H   0  0  0  0  0  0  0  0  0  0  0  0  # atno 8008 bound_to 7997
  155.9865  140.3373  155.6688 H   0  0  0  0  0  0  0  0  0  0  0  0  # atno 8009 bound_to 7997
  155.6430  140.0682  157.2603 H   0  0  0  0  0  0  0  0  0  0  0  0  # atno 8010 bound_to 7997
  140.4342  143.2537  151.8716 H   0  0  0  0  0  0  0  0  0  0  0  0  # atno 10167 bound_to 10162
  157.5351  131.1098  150.8949 H   0  0  0  0  0  0  0  0  0  0  0  0  # atno 10718 bound_to 10713
  154.5354  135.2802  155.1143 H   0  0  0  0  0  0  0  0  0  0  0  0  # atno 10763 bound_to 10752
  154.2646  135.6315  153.5291 H   0  0  0  0  0  0  0  0  0  0  0  0  # atno 10764 bound_to 10752
  152.9966  135.5614  154.5879 H   0  0  0  0  0  0  0  0  0  0  0  0  # atno 10765 bound_to 10752
  141.0650  133.9473  157.2595 H   0  0  0  0  0  0  0  0  0  0  0  0  # atno 11005 bound_to 11000
  144.6827  139.9746  143.7482 LP  0  0  0  0  0  0  0  0  0  0  0  0  # atno 17320 bound_to 7965
  146.0247  139.3282  143.0791 LP  0  0  0  0  0  0  0  0  0  0  0  0  # atno 17321 bound_to 7965
  139.4786  144.5301  151.8679 LP  0  0  0  0  0  0  0  0  0  0  0  0  # atno 17342 bound_to 10162
  140.4392  144.2009  150.5890 LP  0  0  0  0  0  0  0  0  0  0  0  0  # atno 17343 bound_to 10162
  156.9518  130.5422  149.5283 LP  0  0  0  0  0  0  0  0  0  0  0  0  # atno 17370 bound_to 10713
  156.0452  130.5529  150.8864 LP  0  0  0  0  0  0  0  0  0  0  0  0  # atno 17371 bound_to 10713
  139.9468  135.0182  156.8876 LP  0  0  0  0  0  0  0  0  0  0  0  0  # atno 17394 bound_to 11000
  140.5791  134.0369  155.7457 LP  0  0  0  0  0  0  0  0  0  0  0  0  # atno 17395 bound_to 11000

$$$$
