AV-unprocessed.smi:1933|AV-procd|sdf|7818|dock4
  -GOLD-   22720 9563D 1   1.00000     0.00000
 Structure written by MMmdl.
 47 49  0  0  0  0  0  0  0  0  1 V2000
  145.0207  135.3095  153.6243 O   0  0  0  0  0  0  0  0  0  0  0  0
  146.1102  135.4719  153.0739 C   0  0  0  0  0  0  0  0  0  0  0  0
  147.1089  136.1857  153.6137 N   0  0  0  0  0  0  0  0  0  0  0  0
  147.0488  136.8497  154.9120 C   0  0  0  0  0  0  0  0  0  0  0  0
  148.4330  137.3627  155.3948 C   0  0  1  0  0  0  0  0  0  0  0  0
  148.8382  138.7156  154.7405 C   0  0  1  0  0  0  0  0  0  0  0  0
  148.2189  140.0068  155.2417 C   0  0  0  0  0  0  0  0  0  0  0  0
  149.1076  141.0389  154.5552 C   0  0  0  0  0  0  0  0  0  0  0  0
  150.4079  140.4547  154.5203 O   0  0  0  0  0  0  0  0  0  0  0  0
  150.3274  139.0588  154.8039 C   0  0  0  0  0  0  0  0  0  0  0  0
  148.6409  137.2827  156.8540 N   0  0  0  0  0  0  0  0  0  0  0  0
  147.9915  136.1518  157.5226 C   0  0  0  0  0  0  0  0  0  0  0  0
  148.1853  136.2111  159.0468 C   0  0  0  0  0  0  0  0  0  0  0  0
  149.5775  136.2293  159.3455 O   0  0  0  0  0  0  0  0  0  0  0  0
  150.2568  137.3251  158.7405 C   0  0  0  0  0  0  0  0  0  0  0  0
  150.0570  137.2848  157.2153 C   0  0  0  0  0  0  0  0  0  0  0  0
  146.4606  134.9689  151.8769 N   0  0  0  0  0  0  0  0  0  0  0  0
  145.6892  134.1475  151.0114 C   0  0  0  0  0  0  0  0  0  0  0  0
  146.4376  133.2806  150.1833 C   0  0  0  0  0  0  0  0  0  0  0  0
  145.7654  132.4210  149.2927 C   0  0  0  0  0  0  0  0  0  0  0  0
  144.3602  132.4510  149.2523 C   0  0  0  0  0  0  0  0  0  0  0  0
  143.6913  133.3450  150.1084 C   0  0  0  0  0  0  0  0  0  0  0  0
  144.3335  134.1690  150.9631 N   0  0  0  0  0  0  0  0  0  0  0  0
  147.9709  136.2727  153.0955 H   0  0  0  0  0  0  0  0  0  0  0  0
  146.3491  137.6808  154.8230 H   0  0  0  0  0  0  0  0  0  0  0  0
  146.6128  136.1608  155.6369 H   0  0  0  0  0  0  0  0  0  0  0  0
  149.1558  136.6713  154.9597 H   0  0  0  0  0  0  0  0  0  0  0  0
  148.5957  138.6477  153.6789 H   0  0  0  0  0  0  0  0  0  0  0  0
  147.1639  140.1136  154.9892 H   0  0  0  0  0  0  0  0  0  0  0  0
  148.3406  140.1257  156.3153 H   0  0  0  0  0  0  0  0  0  0  0  0
  148.7724  141.2097  153.5313 H   0  0  0  0  0  0  0  0  0  0  0  0
  149.1138  141.9978  155.0740 H   0  0  0  0  0  0  0  0  0  0  0  0
  150.7325  138.8891  155.8022 H   0  0  0  0  0  0  0  0  0  0  0  0
  150.9177  138.4758  154.0965 H   0  0  0  0  0  0  0  0  0  0  0  0
  146.9303  136.1085  157.3016 H   0  0  0  0  0  0  0  0  0  0  0  0
  148.4130  135.2128  157.1622 H   0  0  0  0  0  0  0  0  0  0  0  0
  147.7018  137.0953  159.4649 H   0  0  0  0  0  0  0  0  0  0  0  0
  147.7310  135.3413  159.5212 H   0  0  0  0  0  0  0  0  0  0  0  0
  149.8832  138.2636  159.1526 H   0  0  0  0  0  0  0  0  0  0  0  0
  151.3172  137.2670  158.9858 H   0  0  0  0  0  0  0  0  0  0  0  0
  150.5496  136.4001  156.8110 H   0  0  0  0  0  0  0  0  0  0  0  0
  150.5542  138.1481  156.7719 H   0  0  0  0  0  0  0  0  0  0  0  0
  147.3891  135.1915  151.5505 H   0  0  0  0  0  0  0  0  0  0  0  0
  147.5170  133.2699  150.2273 H   0  0  0  0  0  0  0  0  0  0  0  0
  146.3191  131.7503  148.6523 H   0  0  0  0  0  0  0  0  0  0  0  0
  143.8095  131.8062  148.5833 H   0  0  0  0  0  0  0  0  0  0  0  0
  142.6127  133.3997  150.1076 H   0  0  0  0  0  0  0  0  0  0  0  0
  1  2  2  0  0  0  0
  2  3  1  0  0  0  0
  2 17  1  0  0  0  0
  3  4  1  0  0  0  0
  3 24  1  0  0  0  0
  4  5  1  0  0  0  0
  4 25  1  0  0  0  0
  4 26  1  0  0  0  0
  5  6  1  0  0  0  0
  5 11  1  0  0  0  0
  5 27  1  0  0  0  0
  6 10  1  0  0  0  0
  6  7  1  0  0  0  0
  6 28  1  0  0  0  0
  7  8  1  0  0  0  0
  7 29  1  0  0  0  0
  7 30  1  0  0  0  0
  8  9  1  0  0  0  0
  8 31  1  0  0  0  0
  8 32  1  0  0  0  0
  9 10  1  0  0  0  0
 10 33  1  0  0  0  0
 10 34  1  0  0  0  0
 11 16  1  0  0  0  0
 11 12  1  0  0  0  0
 12 13  1  0  0  0  0
 12 35  1  0  0  0  0
 12 36  1  0  0  0  0
 13 14  1  0  0  0  0
 13 37  1  0  0  0  0
 13 38  1  0  0  0  0
 14 15  1  0  0  0  0
 15 16  1  0  0  0  0
 15 39  1  0  0  0  0
 15 40  1  0  0  0  0
 16 41  1  0  0  0  0
 16 42  1  0  0  0  0
 17 18  1  0  0  0  0
 17 43  1  0  0  0  0
 18 23  1  0  0  0  0
 18 19  2  0  0  0  0
 19 20  1  0  0  0  0
 19 44  1  0  0  0  0
 20 21  2  0  0  0  0
 20 45  1  0  0  0  0
 21 22  1  0  0  0  0
 21 46  1  0  0  0  0
 22 23  2  0  0  0  0
 22 47  1  0  0  0  0
M  END
> <s_m_source_file>
AV-unprocessed.smi

> <i_m_source_file_index>
1933

> <i_lp_mmshare_version>
43012

> <i_f3d_flags>
0

> <s_epik_input>
bjFbY0hdW2NIXVtjSF1bY0hdYzFbTkhdQyg9TylbTkhdW0NIMl1bQ0BIXShbQ0BASF0yW0NIMl1bQ0gyXU9bQ0gyXTIpTjNbQ0gyXVtDSDJdT1tDSDJdW0NIMl0z

> <s_epik_cmdline>
J2VwaWtfcHl0aG9uJywgJy1waCcsICc3LjAnLCAnLXRuJywgJzgnLCAnLW1hJywgJzIwMCcsICctbWV0YWxfYmluZGluZycsICctaW1hZScsICc8aW5maWxlLm1hZT4nLCAnLW9tYWUnLCAnPG91dGZpbGUubWFlPic=

> <r_epik_Ionization_Penalty>
0.125062

> <r_epik_Ionization_Penalty_Charging>
0

> <r_epik_Ionization_Penalty_Neutral>
0.125062

> <r_epik_State_Penalty>
0.114484

> <r_epik_Charging_Adjusted_Penalty>
0.114484

> <i_epik_Tot_Q>
0

> <i_epik_Tot_abs_Q>
0

> <r_epik_Metal_State_Penalty>
0.114484

> <b_epik_Metal_Only>
0

> <s_lp_Force_Field>
OPLS_2005

> <r_lp_Energy>
56.0331

> <b_lp_Chiralities_Consistent>
1

> <s_lp_Variant>
AV-unprocessed.smi:1933-4

> <Gold.Version>
5.8.1

> <Gold.Id.Protein>
6NUR|6NUR_protein|mol2

> <Gold.PLP.Fitness>
46.0160

> <Gold.PLP.PLP>
-33.0506

> <Gold.PLP.part.hbond>
-3.6949

> <Gold.PLP.part.metal>
0.0000

> <Gold.PLP.part.buried>
-5.3052

> <Gold.PLP.part.nonpolar>
-24.5745

> <Gold.PLP.part.repulsive>
0.3227

> <Gold.PLP.ligand.clash>
0.0000

> <Gold.PLP.ligand.torsion>
1.0466

> <Gold.PLP.Chemscore.Hbond>
3.9120

> <Gold.PLP.Chemscore.CHOScore>
1.0000

> <Gold.PLP.Chemscore.Metal>
0.0000

> <Gold.Chemscore.Hbonds>
donor molecule, donor type, donor heavy atom, donor atom, acceptor molecule, acceptor atom, score
      L1  H     3    24       P1  7948  1.00
      L1  H    17    43       P1  7948  0.94
      P1  H  6896  6909       L1    14  1.00
      P1  H  7989  7998       L1     9  1.00
      L1  C    22    47       P1 10186  0.88

> <Gold.PLP.Chemscore.Internal.Correction>
0.3226

> <Gold.Rescore>
     Score         DG    S(hbond)    S(metal)    S(lipo)     H(rot)  DE(clash)    DE(int)     intcor
     18.92     -21.90       3.61        0.00      74.85       1.72       0.04       2.93       ----

> <Gold.Chemscore.Fitness>
18.9222

> <Gold.Chemscore.DG>
-21.8981

> <Gold.Chemscore.ZeroCoef>
-5.4800

> <Gold.Chemscore.Hbond>
3.6089

> <Gold.Chemscore.Metal>
0.0000

> <Gold.Chemscore.Lipo>
74.8506

> <Gold.Chemscore.Internal_Hbond>
0.0000

> <Gold.Chemscore.DEClash>
0.0411

> <Gold.Chemscore.DEInternal>
2.9348

> <Gold.Chemscore.Rot>
1.7161

> <Gold.Chemscore.Internal.Correction>
   9.000000E+99

> <Gold.Chemscore.Hbonds>
donor molecule, donor type, donor heavy atom, donor atom, acceptor molecule, acceptor atom, score
      L1  H     3    24       P1  7948  0.97
      L1  H    17    43       P1  7948  0.78
      P1  H  6896  6909       L1    14  0.74
      P1  H  7989  7998       L1     9  0.85

> <Gold.Chemscore.Hbond.Weighted>
-12.0538

> <Gold.Chemscore.Metal.Weighted>
-0.0000

> <Gold.Chemscore.Lipo.Weighted>
-8.7575

> <Gold.Chemscore.Internal_Hbond.Weighted>
0.0000

> <Gold.Chemscore.DEClash.Weighted>
0.0411

> <Gold.Chemscore.DEInternal.Weighted>
2.9348

> <Gold.Chemscore.Rot.Weighted>
4.3932

> <Gold.Chemscore.Internal.Correction.Weighted>
   9.000000E+99

> <Gold.Protein.RotatedTorsions>
[ 6907 6896 6895 6894 ] final   67.00 input  -60.11 | X-H torsion
[ 7974 7965 7964 7962 ] final  -96.05 input  175.53 | X-H torsion
[ 8008 7997 7996 7995 ] final   72.42 input   59.86 | X-H torsion
[ 10167 10162 10161 10158 ] final -102.11 input  -65.29 | X-H torsion
[ 10718 10713 10712 10709 ] final   -5.59 input   66.30 | X-H torsion
[ 10763 10752 10751 10750 ] final  158.25 input  -60.55 | X-H torsion
[ 11005 11000 10999 10996 ] final -114.17 input  -57.11 | X-H torsion

> <Gold.Protein.ActiveResidues>
 VAL166  LYS551  ARG553  GLY616  TRP617  ASP618  TYR619  PRO620  LYS621  CYS622 
 ASP623  PHE694  ASN695  SER759  ASP760  ASP761  ALA762  ILE779  LEU786  VAL792 
 PHE793  MET794  SER795  GLU796  ALA797  LYS798  CYS799  TRP800  GLU811  SER814 

> <Gold.Protein.RotatedAtoms>
  152.4521  134.5370  159.9827 H   0  0  0  0  0  0  0  0  0  0  0  0  # atno 6907 bound_to 6896
  151.5440  133.3422  159.2948 H   0  0  0  0  0  0  0  0  0  0  0  0  # atno 6908 bound_to 6896
  150.8454  134.7792  159.7029 H   0  0  0  0  0  0  0  0  0  0  0  0  # atno 6909 bound_to 6896
  145.3520  140.9478  143.2549 H   0  0  0  0  0  0  0  0  0  0  0  0  # atno 7974 bound_to 7965
  155.7685  140.3485  155.5234 H   0  0  0  0  0  0  0  0  0  0  0  0  # atno 8008 bound_to 7997
  155.8845  140.1007  157.1483 H   0  0  0  0  0  0  0  0  0  0  0  0  # atno 8009 bound_to 7997
  154.4027  140.1316  156.4225 H   0  0  0  0  0  0  0  0  0  0  0  0  # atno 8010 bound_to 7997
  140.2341  143.3585  152.0860 H   0  0  0  0  0  0  0  0  0  0  0  0  # atno 10167 bound_to 10162
  156.7443  130.5219  149.5817 H   0  0  0  0  0  0  0  0  0  0  0  0  # atno 10718 bound_to 10713
  154.2130  135.2785  155.2951 H   0  0  0  0  0  0  0  0  0  0  0  0  # atno 10763 bound_to 10752
  154.5763  135.5603  153.7146 H   0  0  0  0  0  0  0  0  0  0  0  0  # atno 10764 bound_to 10752
  153.0059  135.6333  154.2270 H   0  0  0  0  0  0  0  0  0  0  0  0  # atno 10765 bound_to 10752
  141.0569  133.9598  157.2738 H   0  0  0  0  0  0  0  0  0  0  0  0  # atno 11005 bound_to 11000
  144.8710  139.5038  143.6767 LP  0  0  0  0  0  0  0  0  0  0  0  0  # atno 17320 bound_to 7965
  146.2964  139.7290  142.9124 LP  0  0  0  0  0  0  0  0  0  0  0  0  # atno 17321 bound_to 7965
  139.5099  144.6876  151.5846 LP  0  0  0  0  0  0  0  0  0  0  0  0  # atno 17342 bound_to 10162
  140.6163  143.9343  150.6491 LP  0  0  0  0  0  0  0  0  0  0  0  0  # atno 17343 bound_to 10162
  156.1443  130.6266  151.0510 LP  0  0  0  0  0  0  0  0  0  0  0  0  # atno 17370 bound_to 10713
  157.6805  131.0839  150.7383 LP  0  0  0  0  0  0  0  0  0  0  0  0  # atno 17371 bound_to 10713
  139.9398  135.0192  156.8671 LP  0  0  0  0  0  0  0  0  0  0  0  0  # atno 17394 bound_to 11000
  140.5946  134.0229  155.7513 LP  0  0  0  0  0  0  0  0  0  0  0  0  # atno 17395 bound_to 11000

$$$$
