AV-unprocessed.smi:1837|AV-procd|sdf|7481|dock1
  -GOLD-   22720 9173D 1   1.00000     0.00000
 Structure written by MMmdl.
 45 48  0  0  0  0  0  0  0  0  3 V2000
  151.6705  140.5876  155.3772 O   0  0  0  0  0  0  0  0  0  0  0  0
  151.2635  140.0320  156.3980 C   0  0  0  0  0  0  0  0  0  0  0  0
  152.2498  139.5635  157.4774 C   0  0  0  0  0  0  0  0  0  0  0  0
  152.5680  140.6073  158.4662 N   0  0  0  0  0  0  0  0  0  0  0  0
  151.8997  141.8407  158.3342 C   0  0  0  0  0  0  0  0  0  0  0  0
  152.1180  142.8672  159.1794 C   0  0  0  0  0  0  0  0  0  0  0  0
  151.4278  144.1290  159.0255 N   0  3  0  0  0  0  0  0  0  0  0  0
  151.9550  145.1457  159.4656 O   0  0  0  0  0  0  0  0  0  0  0  0
  150.3376  144.1469  158.4619 O   0  5  0  0  0  0  0  0  0  0  0  0
  153.0749  142.6669  160.2503 C   0  0  0  0  0  0  0  0  0  0  0  0
  153.7210  141.4912  160.3791 C   0  0  0  0  0  0  0  0  0  0  0  0
  153.4853  140.3771  159.4552 C   0  0  0  0  0  0  0  0  0  0  0  0
  154.0765  139.3027  159.5641 O   0  0  0  0  0  0  0  0  0  0  0  0
  149.9645  139.8089  156.6620 N   0  0  0  0  0  0  0  0  0  0  0  0
  148.7982  140.1376  155.8356 C   0  0  0  0  0  0  0  0  0  0  0  0
  147.4688  139.8827  156.5976 C   0  0  0  0  0  0  0  0  0  0  0  0
  146.2687  140.1783  155.6717 C   0  0  1  0  0  0  0  0  0  0  0  0
  146.3219  141.6506  155.2086 C   0  0  0  0  0  0  0  0  0  0  0  0
  147.6327  141.8973  154.4301 C   0  0  2  0  0  0  0  0  0  0  0  0
  147.6856  140.9679  153.1997 C   0  0  0  0  0  0  0  0  0  0  0  0
  147.6330  139.4997  153.6705 C   0  0  2  0  0  0  0  0  0  0  0  0
  146.3209  139.2480  154.4420 C   0  0  0  0  0  0  0  0  0  0  0  0
  148.8365  139.2120  154.5928 C   0  0  0  0  0  0  0  0  0  0  0  0
  148.8406  141.6125  155.3491 C   0  0  0  0  0  0  0  0  0  0  0  0
  151.8244  138.6869  157.9680 H   0  0  0  0  0  0  0  0  0  0  0  0
  153.1658  139.2062  157.0023 H   0  0  0  0  0  0  0  0  0  0  0  0
  151.2138  141.8919  157.5010 H   0  0  0  0  0  0  0  0  0  0  0  0
  153.2819  143.4585  160.9555 H   0  0  0  0  0  0  0  0  0  0  0  0
  154.4309  141.3645  161.1835 H   0  0  0  0  0  0  0  0  0  0  0  0
  149.7569  139.3504  157.5374 H   0  0  0  0  0  0  0  0  0  0  0  0
  147.4242  138.8507  156.9483 H   0  0  0  0  0  0  0  0  0  0  0  0
  147.3978  140.5103  157.4860 H   0  0  0  0  0  0  0  0  0  0  0  0
  145.3407  140.0044  156.2172 H   0  0  0  0  0  0  0  0  0  0  0  0
  145.4606  141.8792  154.5795 H   0  0  0  0  0  0  0  0  0  0  0  0
  146.2612  142.3192  156.0680 H   0  0  0  0  0  0  0  0  0  0  0  0
  147.6673  142.9359  154.0998 H   0  0  0  0  0  0  0  0  0  0  0  0
  146.8525  141.1803  152.5284 H   0  0  0  0  0  0  0  0  0  0  0  0
  148.5964  141.1492  152.6275 H   0  0  0  0  0  0  0  0  0  0  0  0
  147.6749  138.8400  152.8033 H   0  0  0  0  0  0  0  0  0  0  0  0
  146.2590  138.2049  154.7542 H   0  0  0  0  0  0  0  0  0  0  0  0
  145.4615  139.4283  153.7949 H   0  0  0  0  0  0  0  0  0  0  0  0
  149.7662  139.3569  154.0403 H   0  0  0  0  0  0  0  0  0  0  0  0
  148.8240  138.1648  154.8989 H   0  0  0  0  0  0  0  0  0  0  0  0
  148.8195  142.3051  156.1906 H   0  0  0  0  0  0  0  0  0  0  0  0
  149.7707  141.8095  154.8143 H   0  0  0  0  0  0  0  0  0  0  0  0
  1  2  2  0  0  0  0
  2  3  1  0  0  0  0
  2 14  1  0  0  0  0
  3  4  1  0  0  0  0
  3 25  1  0  0  0  0
  3 26  1  0  0  0  0
  4 12  1  0  0  0  0
  4  5  1  0  0  0  0
  5  6  2  0  0  0  0
  5 27  1  0  0  0  0
  6  7  1  0  0  0  0
  6 10  1  0  0  0  0
  7  8  2  0  0  0  0
  7  9  1  0  0  0  0
 10 11  2  0  0  0  0
 10 28  1  0  0  0  0
 11 12  1  0  0  0  0
 11 29  1  0  0  0  0
 12 13  2  0  0  0  0
 14 15  1  0  0  0  0
 14 30  1  0  0  0  0
 15 23  1  0  0  0  0
 15 24  1  0  0  0  0
 15 16  1  0  0  0  0
 16 17  1  0  0  0  0
 16 31  1  0  0  0  0
 16 32  1  0  0  0  0
 17 22  1  0  0  0  0
 17 18  1  0  0  0  0
 17 33  1  0  0  0  0
 18 19  1  0  0  0  0
 18 34  1  0  0  0  0
 18 35  1  0  0  0  0
 19 20  1  0  0  0  0
 19 24  1  0  0  0  0
 19 36  1  0  0  0  0
 20 21  1  0  0  0  0
 20 37  1  0  0  0  0
 20 38  1  0  0  0  0
 21 22  1  0  0  0  0
 21 23  1  0  0  0  0
 21 39  1  0  0  0  0
 22 40  1  0  0  0  0
 22 41  1  0  0  0  0
 23 42  1  0  0  0  0
 23 43  1  0  0  0  0
 24 44  1  0  0  0  0
 24 45  1  0  0  0  0
M  CHG  1   7   1
M  CHG  1   9  -1
M  END
> <s_m_source_file>
AV-unprocessed.smi

> <i_m_source_file_index>
1837

> <i_lp_mmshare_version>
43012

> <i_f3d_flags>
0

> <s_epik_input>
Tz1jMVtjSF1bY0hdYyhbTitdKD1PKVtPLV0pW2NIXW4xW0NIMl1DKD1PKVtOSF1DMjNbQ0gyXVtDQEhdNFtDSDJdW0NAQEhdKFtDSDJdMylbQ0gyXVtDQEhdKFtDSDJdNClbQ0gyXTI=

> <s_epik_cmdline>
J2VwaWtfcHl0aG9uJywgJy1waCcsICc3LjAnLCAnLXRuJywgJzgnLCAnLW1hJywgJzIwMCcsICctbWV0YWxfYmluZGluZycsICctaW1hZScsICc8aW5maWxlLm1hZT4nLCAnLW9tYWUnLCAnPG91dGZpbGUubWFlPic=

> <r_lp_tautomer_probability>
1

> <r_epik_Ionization_Penalty>
2.34466e-08

> <r_epik_Ionization_Penalty_Charging>
8.88262e-11

> <r_epik_Ionization_Penalty_Neutral>
2.33578e-08

> <r_epik_State_Penalty>
-0

> <r_epik_Charging_Adjusted_Penalty>
8.88262e-11

> <i_epik_Tot_Q>
0

> <i_epik_Tot_abs_Q>
2

> <r_epik_Metal_State_Penalty>
-0

> <b_epik_Metal_Only>
0

> <s_lp_Force_Field>
OPLS_2005

> <r_lp_Energy>
41.9783

> <b_lp_Chiralities_Consistent>
1

> <s_lp_Variant>
AV-unprocessed.smi:1837-1

> <Gold.Version>
5.8.1

> <Gold.Id.Protein>
6NUR|6NUR_protein|mol2

> <Gold.PLP.Fitness>
37.9853

> <Gold.PLP.PLP>
-37.9166

> <Gold.PLP.part.hbond>
-1.0000

> <Gold.PLP.part.metal>
0.0000

> <Gold.PLP.part.buried>
-4.5395

> <Gold.PLP.part.nonpolar>
-33.6610

> <Gold.PLP.part.repulsive>
0.4286

> <Gold.PLP.ligand.clash>
0.9105

> <Gold.PLP.ligand.torsion>
0.7745

> <Gold.PLP.Chemscore.Hbond>
0.8320

> <Gold.PLP.Chemscore.CHOScore>
0.0000

> <Gold.PLP.Chemscore.Metal>
0.0000

> <Gold.Chemscore.Hbonds>
donor molecule, donor type, donor heavy atom, donor atom, acceptor molecule, acceptor atom, score
      P1  H  7989  7998       L1     1  0.74

> <Gold.PLP.Chemscore.Internal.Correction>
0.0321

> <Gold.Rescore>
     Score         DG    S(hbond)    S(metal)    S(lipo)     H(rot)  DE(clash)    DE(int)     intcor
     13.81     -14.64       0.85        0.00      87.68       1.53       0.18       0.65       ----

> <Gold.Chemscore.Fitness>
13.8134

> <Gold.Chemscore.DG>
-14.6443

> <Gold.Chemscore.ZeroCoef>
-5.4800

> <Gold.Chemscore.Hbond>
0.8476

> <Gold.Chemscore.Metal>
0.0000

> <Gold.Chemscore.Lipo>
87.6773

> <Gold.Chemscore.Internal_Hbond>
0.0000

> <Gold.Chemscore.DEClash>
0.1829

> <Gold.Chemscore.DEInternal>
0.6481

> <Gold.Chemscore.Rot>
1.5332

> <Gold.Chemscore.Internal.Correction>
   9.000000E+99

> <Gold.Chemscore.Hbonds>
donor molecule, donor type, donor heavy atom, donor atom, acceptor molecule, acceptor atom, score
      P1  H  7989  7998       L1     1  0.74

> <Gold.Chemscore.Hbond.Weighted>
-2.8310

> <Gold.Chemscore.Metal.Weighted>
-0.0000

> <Gold.Chemscore.Lipo.Weighted>
-10.2582

> <Gold.Chemscore.Internal_Hbond.Weighted>
0.0000

> <Gold.Chemscore.DEClash.Weighted>
0.1829

> <Gold.Chemscore.DEInternal.Weighted>
0.6481

> <Gold.Chemscore.Rot.Weighted>
3.9249

> <Gold.Chemscore.Internal.Correction.Weighted>
   9.000000E+99

> <Gold.Protein.RotatedTorsions>
[ 6907 6896 6895 6894 ] final   90.74 input  -60.11 | X-H torsion
[ 7974 7965 7964 7962 ] final  136.97 input  175.53 | X-H torsion
[ 8008 7997 7996 7995 ] final -131.21 input   59.86 | X-H torsion
[ 10167 10162 10161 10158 ] final  135.76 input  -65.29 | X-H torsion
[ 10718 10713 10712 10709 ] final   71.31 input   66.30 | X-H torsion
[ 10763 10752 10751 10750 ] final  -38.19 input  -60.55 | X-H torsion
[ 11005 11000 10999 10996 ] final   -8.55 input  -57.11 | X-H torsion

> <Gold.Protein.ActiveResidues>
 VAL166  LYS551  ARG553  GLY616  TRP617  ASP618  TYR619  PRO620  LYS621  CYS622 
 ASP623  PHE694  ASN695  SER759  ASP760  ASP761  ALA762  ILE779  LEU786  VAL792 
 PHE793  MET794  SER795  GLU796  ALA797  LYS798  CYS799  TRP800  GLU811  SER814 

> <Gold.Protein.RotatedAtoms>
  152.5446  134.1765  159.8617 H   0  0  0  0  0  0  0  0  0  0  0  0  # atno 6907 bound_to 6896
  151.1770  133.4741  159.2601 H   0  0  0  0  0  0  0  0  0  0  0  0  # atno 6908 bound_to 6896
  151.1216  135.0094  159.8596 H   0  0  0  0  0  0  0  0  0  0  0  0  # atno 6909 bound_to 6896
  144.9513  139.4815  143.5524 H   0  0  0  0  0  0  0  0  0  0  0  0  # atno 7974 bound_to 7965
  155.3086  140.0456  157.3033 H   0  0  0  0  0  0  0  0  0  0  0  0  # atno 8008 bound_to 7997
  154.5446  140.2298  155.8551 H   0  0  0  0  0  0  0  0  0  0  0  0  # atno 8009 bound_to 7997
  156.1912  140.3050  155.9343 H   0  0  0  0  0  0  0  0  0  0  0  0  # atno 8010 bound_to 7997
  139.5205  144.6500  151.5330 H   0  0  0  0  0  0  0  0  0  0  0  0  # atno 10167 bound_to 10162
  157.6445  130.9521  150.0771 H   0  0  0  0  0  0  0  0  0  0  0  0  # atno 10718 bound_to 10713
  153.9087  135.6795  153.4752 H   0  0  0  0  0  0  0  0  0  0  0  0  # atno 10763 bound_to 10752
  153.1090  135.4792  154.8999 H   0  0  0  0  0  0  0  0  0  0  0  0  # atno 10764 bound_to 10752
  154.7538  135.3192  154.8463 H   0  0  0  0  0  0  0  0  0  0  0  0  # atno 10765 bound_to 10752
  140.7247  133.8799  155.8847 H   0  0  0  0  0  0  0  0  0  0  0  0  # atno 11005 bound_to 11000
  146.3322  139.8601  142.8858 LP  0  0  0  0  0  0  0  0  0  0  0  0  # atno 17320 bound_to 7965
  145.2839  141.0147  143.3701 LP  0  0  0  0  0  0  0  0  0  0  0  0  # atno 17321 bound_to 7965
  140.6301  143.9093  150.6598 LP  0  0  0  0  0  0  0  0  0  0  0  0  # atno 17342 bound_to 10162
  140.2394  143.3675  152.1499 LP  0  0  0  0  0  0  0  0  0  0  0  0  # atno 17343 bound_to 10162
  156.1758  130.3648  149.9102 LP  0  0  0  0  0  0  0  0  0  0  0  0  # atno 17370 bound_to 10713
  156.7066  130.8954  151.3605 LP  0  0  0  0  0  0  0  0  0  0  0  0  # atno 17371 bound_to 10713
  140.9973  134.1198  157.4351 LP  0  0  0  0  0  0  0  0  0  0  0  0  # atno 17394 bound_to 11000
  139.8840  135.0058  156.6338 LP  0  0  0  0  0  0  0  0  0  0  0  0  # atno 17395 bound_to 11000

$$$$
