#       Name:                AV-unprocessed.smi:1269
#       Creating user name   scv26
#       Creation time:       Fri Mar 27 04:45:36 2020


#       File generated by GOLD software.
#

@<TRIPOS>MOLECULE
AV-unprocessed.smi:1269
    51    52     1
SMALL
NO_CHARGES


@<TRIPOS>ATOM
      1 ****        -6.6095   2.8897  -1.4985 C.3            1 S1                 0.0000
      2 ****        -5.3535   3.4256  -1.0970 O.3            1 S1                 0.0000
      3 ****        -4.2380   2.6183  -1.1861 C.ar           1 S1                 0.0000
      4 ****        -2.9941   3.1393  -0.7791 C.ar           1 S1                 0.0000
      5 ****        -1.8508   2.3214  -0.8623 C.ar           1 S1                 0.0000
      6 ****        -1.9877   1.0004  -1.3540 C.ar           1 S1                 0.0000
      7 ****        -0.9262   0.0627  -1.4904 N.am           1 S1                 0.0000
      8 ****         0.3755   0.1871  -1.1779 C.2            1 S1                 0.0000
      9 ****         0.9108   1.1977  -0.7246 O.2            1 S1                 0.0000
     10 ****         1.0355  -0.9549  -1.4220 N.am           1 S1                 0.0000
     11 ****         2.4529  -1.1995  -1.1591 C.3            1 S1                 0.0000
     12 ****         3.0591  -1.9468  -2.3547 C.3            1 S1                 0.0000
     13 ****         2.6225  -2.0097   0.1447 C.3            1 S1                 0.0000
     14 ****         2.1329  -1.3630   1.3630 N.3            1 S1                 0.0000
     15 ****         2.9372  -0.2055   1.7502 C.3            1 S1                 0.0000
     16 ****         2.4120   0.4501   3.0390 C.3            1 S1                 0.0000
     17 ****         2.3752  -0.5146   4.0856 O.3            1 S1                 0.0000
     18 ****         1.5667  -1.6420   3.7648 C.3            1 S1                 0.0000
     19 ****         2.0904  -2.3026   2.4777 C.3            1 S1                 0.0000
     20 ****        -3.2776   0.5779  -1.7377 C.ar           1 S1                 0.0000
     21 ****        -4.3775   1.3558  -1.6595 N.ar           1 S1                 0.0000
     22 ****        -7.3825   3.6470  -1.3692 H              1 S1                 0.0000
     23 ****        -6.8874   2.0267  -0.8914 H              1 S1                 0.0000
     24 ****        -6.6030   2.6004  -2.5504 H              1 S1                 0.0000
     25 ****        -2.9173   4.1503  -0.4071 H              1 S1                 0.0000
     26 ****        -0.9057   2.7321  -0.5468 H              1 S1                 0.0000
     27 ****        -1.2006  -0.8370  -1.8569 H              1 S1                 0.0000
     28 ****         0.5093  -1.7302  -1.7971 H              1 S1                 0.0000
     29 ****         2.9897  -0.2537  -1.0790 H              1 S1                 0.0000
     30 ****         4.1231  -2.1306  -2.2026 H              1 S1                 0.0000
     31 ****         2.9541  -1.3688  -3.2736 H              1 S1                 0.0000
     32 ****         2.5740  -2.9112  -2.5099 H              1 S1                 0.0000
     33 ****         2.0988  -2.9580   0.0142 H              1 S1                 0.0000
     34 ****         3.6742  -2.2704   0.2741 H              1 S1                 0.0000
     35 ****         3.9752  -0.5081   1.8966 H              1 S1                 0.0000
     36 ****         2.9391   0.5414   0.9577 H              1 S1                 0.0000
     37 ****         3.0600   1.2746   3.3369 H              1 S1                 0.0000
     38 ****         1.4153   0.8656   2.8815 H              1 S1                 0.0000
     39 ****         1.5959  -2.3497   4.5934 H              1 S1                 0.0000
     40 ****         0.5278  -1.3306   3.6443 H              1 S1                 0.0000
     41 ****         1.4510  -3.1490   2.2245 H              1 S1                 0.0000
     42 ****         3.0872  -2.7078   2.6592 H              1 S1                 0.0000
     43 ****        -3.4353  -0.4200  -2.1206 H              1 S1                 0.0000
     44 ****        -5.4423   3.7029  -0.1403 LP             1 S1                 0.0000
     45 ****        -5.1812   4.2317  -1.6631 LP             1 S1                 0.0000
     46 ****         0.3668   2.0203  -0.5591 LP             1 S1                 0.0000
     47 ****         1.8900   1.1966  -0.5216 LP             1 S1                 0.0000
     48 ****         1.2089  -1.0453   1.1505 LP             1 S1                 0.0000
     49 ****         2.0074  -0.0807   4.9080 LP             1 S1                 0.0000
     50 ****         3.3075  -0.8296   4.2634 LP             1 S1                 0.0000
     51 ****        -5.2718   1.0100  -1.9433 LP             1 S1                 0.0000
@<TRIPOS>BOND
    1    1    2 1     
    2    1   22 1     
    3    1   23 1     
    4    1   24 1     
    5    2    3 1     
    6    3   21 ar    
    7    3    4 ar    
    8    4    5 ar    
    9    4   25 1     
   10    5    6 ar    
   11    5   26 1     
   12    6    7 1     
   13    6   20 ar    
   14    7    8 am    
   15    7   27 1     
   16    8    9 2     
   17    8   10 am    
   18   10   11 1     
   19   10   28 1     
   20   11   12 1     
   21   11   13 1     
   22   11   29 1     
   23   12   30 1     
   24   12   31 1     
   25   12   32 1     
   26   13   14 1     
   27   13   33 1     
   28   13   34 1     
   29   14   19 1     
   30   14   15 1     
   31   15   16 1     
   32   15   35 1     
   33   15   36 1     
   34   16   17 1     
   35   16   37 1     
   36   16   38 1     
   37   17   18 1     
   38   18   19 1     
   39   18   39 1     
   40   18   40 1     
   41   19   41 1     
   42   19   42 1     
   43   20   21 ar    
   44   20   43 1     
   45    2   44 1     
   46    2   45 1     
   47    9   46 1     
   48    9   47 1     
   49   14   48 1     
   50   17   49 1     
   51   17   50 1     
   52   21   51 1     
@<TRIPOS>SUBSTRUCTURE
      1 S1             1
@<TRIPOS>SET
LONE_PAIRS      STATIC     ATOMS    <user>   **** ""
8 44 45 46 47 48 49 50 51
DONOR_HYDROGENS      STATIC     ATOMS    <user>   **** ""
2 27 28
ATOM$BLUE        STATIC     ATOMS    COLORGROUP SYSTEM
8 44 45 46 47 48 49 50 51
ATOM$RED        STATIC     ATOMS    COLORGROUP SYSTEM
2 27 28
