AV-unprocessed.smi:1809|AV-procd|sdf|7324|dock6
  -GOLD-   22720 8583D 1   1.00000     0.00000
 Structure written by MMmdl.
 39 41  0  0  0  0  0  0  0  0  3 V2000
  146.7327  135.4878  162.7981 C   0  0  0  0  0  0  0  0  0  0  0  0
  147.6407  135.5085  161.6165 C   0  0  0  0  0  0  0  0  0  0  0  0
  148.4622  136.5280  161.3550 N   0  0  0  0  0  0  0  0  0  0  0  0
  149.2011  136.3205  160.1991 N   0  0  0  0  0  0  0  0  0  0  0  0
  148.9225  135.1542  159.5993 C   0  0  0  0  0  0  0  0  0  0  0  0
  149.5297  134.7643  158.4662 N   0  5  0  0  0  0  0  0  0  0  0  0
  148.8629  134.0037  157.5696 C   0  0  0  0  0  0  0  0  0  0  0  0
  147.7658  133.4661  157.7386 O   0  0  0  0  0  0  0  0  0  0  0  0
  149.5099  133.8494  156.4060 N   0  0  0  0  0  0  0  0  0  0  0  0
  149.0392  133.0668  155.2683 C   0  0  0  0  0  0  0  0  0  0  0  0
  148.2556  133.9344  154.2681 C   0  0  1  0  0  0  0  0  0  0  0  0
  147.9681  133.1849  152.9582 C   0  0  0  0  0  0  0  0  0  0  0  0
  147.1844  134.0247  152.0174 N   0  3  1  0  0  0  0  0  0  0  0  0
  146.6516  133.2438  150.8791 C   0  0  0  0  0  0  0  0  0  0  0  0
  145.1895  132.9030  151.2221 C   0  0  0  0  0  0  0  0  0  0  0  0
  144.9016  133.6051  152.5540 C   0  0  0  0  0  0  0  0  0  0  0  0
  146.0057  134.6579  152.6490 C   0  0  1  0  0  0  0  0  0  0  0  0
  146.2923  135.2139  154.0593 C   0  0  0  0  0  0  0  0  0  0  0  0
  147.0018  134.2710  154.8489 O   0  0  0  0  0  0  0  0  0  0  0  0
  147.7138  134.1953  160.4534 S   0  0  0  0  0  0  0  0  0  0  0  0
  145.8635  136.1181  162.6101 H   0  0  0  0  0  0  0  0  0  0  0  0
  147.2531  135.8595  163.6811 H   0  0  0  0  0  0  0  0  0  0  0  0
  146.3923  134.4716  162.9967 H   0  0  0  0  0  0  0  0  0  0  0  0
  150.4039  134.3082  156.3083 H   0  0  0  0  0  0  0  0  0  0  0  0
  149.8905  132.5929  154.7768 H   0  0  0  0  0  0  0  0  0  0  0  0
  148.4088  132.2594  155.6415 H   0  0  0  0  0  0  0  0  0  0  0  0
  148.8244  134.8402  154.0499 H   0  0  0  0  0  0  0  0  0  0  0  0
  148.9022  132.8924  152.4773 H   0  0  0  0  0  0  0  0  0  0  0  0
  147.4230  132.2653  153.1778 H   0  0  0  0  0  0  0  0  0  0  0  0
  146.6812  133.8734  149.9890 H   0  0  0  0  0  0  0  0  0  0  0  0
  147.2483  132.3556  150.6653 H   0  0  0  0  0  0  0  0  0  0  0  0
  144.5247  133.2712  150.4398 H   0  0  0  0  0  0  0  0  0  0  0  0
  145.0340  131.8269  151.3056 H   0  0  0  0  0  0  0  0  0  0  0  0
  143.9020  134.0390  152.5941 H   0  0  0  0  0  0  0  0  0  0  0  0
  144.9877  132.8916  153.3750 H   0  0  0  0  0  0  0  0  0  0  0  0
  145.7122  135.4934  152.0109 H   0  0  0  0  0  0  0  0  0  0  0  0
  146.8734  136.1353  153.9918 H   0  0  0  0  0  0  0  0  0  0  0  0
  145.3597  135.4726  154.5613 H   0  0  0  0  0  0  0  0  0  0  0  0
  147.8002  134.7488  151.6750 H   0  0  0  0  0  0  0  0  0  0  0  0
  1  2  1  0  0  0  0
  1 21  1  0  0  0  0
  1 22  1  0  0  0  0
  1 23  1  0  0  0  0
  2 20  1  0  0  0  0
  2  3  2  0  0  0  0
  3  4  1  0  0  0  0
  4  5  2  0  0  0  0
  5  6  1  0  0  0  0
  5 20  1  0  0  0  0
  6  7  1  0  0  0  0
  7  8  2  0  0  0  0
  7  9  1  0  0  0  0
  9 10  1  0  0  0  0
  9 24  1  0  0  0  0
 10 11  1  0  0  0  0
 10 25  1  0  0  0  0
 10 26  1  0  0  0  0
 11 19  1  0  0  0  0
 11 12  1  0  0  0  0
 11 27  1  0  0  0  0
 12 13  1  0  0  0  0
 12 28  1  0  0  0  0
 12 29  1  0  0  0  0
 13 17  1  0  0  0  0
 13 14  1  0  0  0  0
 13 39  1  0  0  0  0
 14 15  1  0  0  0  0
 14 30  1  0  0  0  0
 14 31  1  0  0  0  0
 15 16  1  0  0  0  0
 15 32  1  0  0  0  0
 15 33  1  0  0  0  0
 16 17  1  0  0  0  0
 16 34  1  0  0  0  0
 16 35  1  0  0  0  0
 17 18  1  0  0  0  0
 17 36  1  0  0  0  0
 18 19  1  0  0  0  0
 18 37  1  0  0  0  0
 18 38  1  0  0  0  0
M  CHG  1   6  -1
M  CHG  1  13   1
M  END
> <s_m_source_file>
AV-unprocessed.smi

> <i_m_source_file_index>
1809

> <i_lp_mmshare_version>
43012

> <i_f3d_flags>
0

> <s_epik_input>
W0NIM11jMW5uYyhzMSlbTkhdQyg9TylbTkhdW0NIMl1bQ0BIXShbQ0gyXTIpT1tDSDJdW0NAQEhdKE4yMylbQ0gyXVtDSDJdW0NIMl0z

> <s_epik_cmdline>
J2VwaWtfcHl0aG9uJywgJy1waCcsICc3LjAnLCAnLXRuJywgJzgnLCAnLW1hJywgJzIwMCcsICctbWV0YWxfYmluZGluZycsICctaW1hZScsICc8aW5maWxlLm1hZT4nLCAnLW9tYWUnLCAnPG91dGZpbGUubWFlPic=

> <r_lp_tautomer_probability>
1

> <r_epik_Ionization_Penalty>
3.2601

> <r_epik_Ionization_Penalty_Charging>
3.1406

> <r_epik_Ionization_Penalty_Neutral>
0.119497

> <r_epik_State_Penalty>
3.08894

> <r_epik_Charging_Adjusted_Penalty>
6.22954

> <i_epik_Tot_Q>
0

> <i_epik_Tot_abs_Q>
2

> <r_epik_Metal_State_Penalty>
0.510807

> <b_epik_Metal_Only>
1

> <s_lp_Force_Field>
OPLS_2005

> <r_lp_Energy>
28.9947

> <b_lp_Chiralities_Consistent>
1

> <s_lp_Variant>
AV-unprocessed.smi:1809-16

> <Gold.Version>
5.8.1

> <Gold.Id.Protein>
6NUR|6NUR_protein|mol2

> <Gold.PLP.Fitness>
41.2655

> <Gold.PLP.PLP>
-25.9466

> <Gold.PLP.part.hbond>
-5.0000

> <Gold.PLP.part.metal>
0.0000

> <Gold.PLP.part.buried>
-2.2380

> <Gold.PLP.part.nonpolar>
-18.8370

> <Gold.PLP.part.repulsive>
0.1379

> <Gold.PLP.ligand.clash>
0.0000

> <Gold.PLP.ligand.torsion>
0.4760

> <Gold.PLP.Chemscore.Hbond>
5.4161

> <Gold.PLP.Chemscore.CHOScore>
0.0000

> <Gold.PLP.Chemscore.Metal>
0.0000

> <Gold.Chemscore.Hbonds>
donor molecule, donor type, donor heavy atom, donor atom, acceptor molecule, acceptor atom, score
      L1  H    13    39       P1  7948  2.00
      P1  H  6896  6907       L1     6  0.60
      P1  H  6931  6943       L1     3  1.00

> <Gold.PLP.Chemscore.Internal.Correction>
0.0225

> <Gold.Rescore>
     Score         DG    S(hbond)    S(metal)    S(lipo)     H(rot)  DE(clash)    DE(int)     intcor
     12.24     -14.08       1.31        0.00      65.02       1.32       0.02       1.82       ----

> <Gold.Chemscore.Fitness>
12.2406

> <Gold.Chemscore.DG>
-14.0841

> <Gold.Chemscore.ZeroCoef>
-5.4800

> <Gold.Chemscore.Hbond>
1.3136

> <Gold.Chemscore.Metal>
0.0000

> <Gold.Chemscore.Lipo>
65.0239

> <Gold.Chemscore.Internal_Hbond>
0.0000

> <Gold.Chemscore.DEClash>
0.0195

> <Gold.Chemscore.DEInternal>
1.8240

> <Gold.Chemscore.Rot>
1.3246

> <Gold.Chemscore.Internal.Correction>
   9.000000E+99

> <Gold.Chemscore.Hbonds>
donor molecule, donor type, donor heavy atom, donor atom, acceptor molecule, acceptor atom, score
      L1  H    13    39       P1  7948  0.25
      P1  H  6931  6943       L1     3  0.35

> <Gold.Chemscore.Hbond.Weighted>
-4.3873

> <Gold.Chemscore.Metal.Weighted>
-0.0000

> <Gold.Chemscore.Lipo.Weighted>
-7.6078

> <Gold.Chemscore.Internal_Hbond.Weighted>
0.0000

> <Gold.Chemscore.DEClash.Weighted>
0.0195

> <Gold.Chemscore.DEInternal.Weighted>
1.8240

> <Gold.Chemscore.Rot.Weighted>
3.3910

> <Gold.Chemscore.Internal.Correction.Weighted>
   9.000000E+99

> <Gold.Protein.RotatedTorsions>
[ 6907 6896 6895 6894 ] final  -93.84 input  -60.11 | X-H torsion
[ 7974 7965 7964 7962 ] final -160.67 input  175.53 | X-H torsion
[ 8008 7997 7996 7995 ] final   -0.63 input   59.86 | X-H torsion
[ 10167 10162 10161 10158 ] final  -34.67 input  -65.29 | X-H torsion
[ 10718 10713 10712 10709 ] final   63.51 input   66.30 | X-H torsion
[ 10763 10752 10751 10750 ] final   -0.82 input  -60.55 | X-H torsion
[ 11005 11000 10999 10996 ] final -167.90 input  -57.11 | X-H torsion

> <Gold.Protein.ActiveResidues>
 VAL166  LYS551  ARG553  GLY616  TRP617  ASP618  TYR619  PRO620  LYS621  CYS622 
 ASP623  PHE694  ASN695  SER759  ASP760  ASP761  ALA762  ILE779  LEU786  VAL792 
 PHE793  MET794  SER795  GLU796  ALA797  LYS798  CYS799  TRP800  GLU811  SER814 

> <Gold.Protein.RotatedAtoms>
  150.6930  134.1904  159.4282 H   0  0  0  0  0  0  0  0  0  0  0  0  # atno 6907 bound_to 6896
  151.9875  134.9994  160.0569 H   0  0  0  0  0  0  0  0  0  0  0  0  # atno 6908 bound_to 6896
  152.1698  133.4601  159.4940 H   0  0  0  0  0  0  0  0  0  0  0  0  # atno 6909 bound_to 6896
  144.7419  140.3509  143.6116 H   0  0  0  0  0  0  0  0  0  0  0  0  # atno 7974 bound_to 7965
  154.6559  140.2579  155.7162 H   0  0  0  0  0  0  0  0  0  0  0  0  # atno 8008 bound_to 7997
  156.2596  140.2858  156.0932 H   0  0  0  0  0  0  0  0  0  0  0  0  # atno 8009 bound_to 7997
  155.1381  140.0380  157.2782 H   0  0  0  0  0  0  0  0  0  0  0  0  # atno 8010 bound_to 7997
  140.7181  143.3532  151.2114 H   0  0  0  0  0  0  0  0  0  0  0  0  # atno 10167 bound_to 10162
  157.5976  130.9109  149.9725 H   0  0  0  0  0  0  0  0  0  0  0  0  # atno 10718 bound_to 10713
  153.3368  135.6978  153.6900 H   0  0  0  0  0  0  0  0  0  0  0  0  # atno 10763 bound_to 10752
  153.5681  135.3521  155.2827 H   0  0  0  0  0  0  0  0  0  0  0  0  # atno 10764 bound_to 10752
  154.8629  135.4265  154.2571 H   0  0  0  0  0  0  0  0  0  0  0  0  # atno 10765 bound_to 10752
  140.5480  134.5457  157.5116 H   0  0  0  0  0  0  0  0  0  0  0  0  # atno 11005 bound_to 11000
  145.7277  139.1727  143.2448 LP  0  0  0  0  0  0  0  0  0  0  0  0  # atno 17320 bound_to 7965
  146.1229  140.7285  142.9449 LP  0  0  0  0  0  0  0  0  0  0  0  0  # atno 17321 bound_to 7965
  139.7067  143.9444  152.2930 LP  0  0  0  0  0  0  0  0  0  0  0  0  # atno 17342 bound_to 10162
  139.9155  144.6831  150.8517 LP  0  0  0  0  0  0  0  0  0  0  0  0  # atno 17343 bound_to 10162
  156.1042  130.3654  150.0163 LP  0  0  0  0  0  0  0  0  0  0  0  0  # atno 17370 bound_to 10713
  156.8273  130.9380  151.3639 LP  0  0  0  0  0  0  0  0  0  0  0  0  # atno 17371 bound_to 10713
  139.9470  134.7685  156.0539 LP  0  0  0  0  0  0  0  0  0  0  0  0  # atno 17394 bound_to 11000
  141.1188  133.6619  156.3163 LP  0  0  0  0  0  0  0  0  0  0  0  0  # atno 17395 bound_to 11000

$$$$
