AV-unprocessed.smi:910|AV-procd|sdf|4123|dock10
  -GOLD-   22720 2 23D 1   1.00000     0.00000
 Structure written by MMmdl.
 46 47  0  0  0  0  0  0  0  0  1 V2000
  146.4857  134.1804  162.6241 C   0  0  0  0  0  0  0  0  0  0  0  0
  147.2228  135.2121  161.7987 C   0  0  0  0  0  0  0  0  0  0  0  0
  147.9949  134.8640  160.7239 N   0  0  0  0  0  0  0  0  0  0  0  0
  148.5378  136.0210  160.1868 C   0  0  0  0  0  0  0  0  0  0  0  0
  149.3257  136.1241  159.1616 N   0  0  0  0  0  0  0  0  0  0  0  0
  149.7842  137.3748  158.7750 C   0  0  0  0  0  0  0  0  0  0  0  0
  149.1733  138.4483  158.7656 O   0  0  0  0  0  0  0  0  0  0  0  0
  151.0567  137.2892  158.3597 N   0  0  0  0  0  0  0  0  0  0  0  0
  151.8568  138.3935  157.8394 C   0  0  0  0  0  0  0  0  0  0  0  0
  151.9856  139.5297  158.8641 C   0  0  0  0  0  0  0  0  0  0  0  0
  153.2090  140.2131  158.6346 O   0  0  0  0  0  0  0  0  0  0  0  0
  153.4357  141.3269  159.4886 C   0  0  1  0  0  0  0  0  0  0  0  0
  152.2488  142.3078  159.3890 C   0  0  0  0  0  0  0  0  0  0  0  0
  152.3801  143.4566  160.3999 C   0  0  0  0  0  0  0  0  0  0  0  0
  152.5278  142.9185  161.8298 C   0  0  0  0  0  0  0  0  0  0  0  0
  153.7159  141.9501  161.9345 C   0  0  0  0  0  0  0  0  0  0  0  0
  153.5977  140.7880  160.9278 C   0  0  2  0  0  0  0  0  0  0  0  0
  154.8036  139.8407  161.0470 C   0  0  0  0  0  0  0  0  0  0  0  0
  148.0711  137.0619  160.9567 O   0  0  0  0  0  0  0  0  0  0  0  0
  147.2755  136.5357  161.9283 C   0  0  0  0  0  0  0  0  0  0  0  0
  146.6344  137.4732  162.9265 C   0  0  0  0  0  0  0  0  0  0  0  0
  146.8185  134.2202  163.6615 H   0  0  0  0  0  0  0  0  0  0  0  0
  146.6637  133.1740  162.2440 H   0  0  0  0  0  0  0  0  0  0  0  0
  145.4131  134.3735  162.5985 H   0  0  0  0  0  0  0  0  0  0  0  0
  148.1225  133.9118  160.4138 H   0  0  0  0  0  0  0  0  0  0  0  0
  151.4993  136.3819  158.3841 H   0  0  0  0  0  0  0  0  0  0  0  0
  152.8446  138.0330  157.5481 H   0  0  0  0  0  0  0  0  0  0  0  0
  151.3820  138.7651  156.9312 H   0  0  0  0  0  0  0  0  0  0  0  0
  151.1401  140.2138  158.7757 H   0  0  0  0  0  0  0  0  0  0  0  0
  151.9661  139.1182  159.8731 H   0  0  0  0  0  0  0  0  0  0  0  0
  154.3586  141.8388  159.2086 H   0  0  0  0  0  0  0  0  0  0  0  0
  152.1776  142.7214  158.3835 H   0  0  0  0  0  0  0  0  0  0  0  0
  151.3158  141.7719  159.5687 H   0  0  0  0  0  0  0  0  0  0  0  0
  153.2464  144.0694  160.1468 H   0  0  0  0  0  0  0  0  0  0  0  0
  151.5093  144.1097  160.3364 H   0  0  0  0  0  0  0  0  0  0  0  0
  152.6598  143.7463  162.5270 H   0  0  0  0  0  0  0  0  0  0  0  0
  151.6109  142.4072  162.1259 H   0  0  0  0  0  0  0  0  0  0  0  0
  154.6439  142.4965  161.7595 H   0  0  0  0  0  0  0  0  0  0  0  0
  153.7770  141.5582  162.9505 H   0  0  0  0  0  0  0  0  0  0  0  0
  152.7019  140.2179  161.1793 H   0  0  0  0  0  0  0  0  0  0  0  0
  155.7341  140.3488  160.7922 H   0  0  0  0  0  0  0  0  0  0  0  0
  154.7030  138.9819  160.3827 H   0  0  0  0  0  0  0  0  0  0  0  0
  154.9016  139.4566  162.0626 H   0  0  0  0  0  0  0  0  0  0  0  0
  145.8110  136.9823  163.4458 H   0  0  0  0  0  0  0  0  0  0  0  0
  146.2452  138.3560  162.4193 H   0  0  0  0  0  0  0  0  0  0  0  0
  147.3686  137.7936  163.6657 H   0  0  0  0  0  0  0  0  0  0  0  0
  1 22  1  0  0  0  0
  1 23  1  0  0  0  0
  1 24  1  0  0  0  0
  1  2  1  0  0  0  0
  2  3  1  0  0  0  0
  2 20  2  0  0  0  0
  3 25  1  0  0  0  0
  3  4  1  0  0  0  0
  4 19  1  0  0  0  0
  4  5  2  0  0  0  0
  5  6  1  0  0  0  0
  6  8  1  0  0  0  0
  6  7  2  0  0  0  0
  8  9  1  0  0  0  0
  8 26  1  0  0  0  0
  9 10  1  0  0  0  0
  9 27  1  0  0  0  0
  9 28  1  0  0  0  0
 10 11  1  0  0  0  0
 10 29  1  0  0  0  0
 10 30  1  0  0  0  0
 11 12  1  0  0  0  0
 12 17  1  0  0  0  0
 12 13  1  0  0  0  0
 12 31  1  0  0  0  0
 13 14  1  0  0  0  0
 13 32  1  0  0  0  0
 13 33  1  0  0  0  0
 14 15  1  0  0  0  0
 14 34  1  0  0  0  0
 14 35  1  0  0  0  0
 15 16  1  0  0  0  0
 15 36  1  0  0  0  0
 15 37  1  0  0  0  0
 16 17  1  0  0  0  0
 16 38  1  0  0  0  0
 16 39  1  0  0  0  0
 17 18  1  0  0  0  0
 17 40  1  0  0  0  0
 18 41  1  0  0  0  0
 18 42  1  0  0  0  0
 18 43  1  0  0  0  0
 19 20  1  0  0  0  0
 20 21  1  0  0  0  0
 21 44  1  0  0  0  0
 21 45  1  0  0  0  0
 21 46  1  0  0  0  0
M  END
> <s_m_source_file>
AV-unprocessed.smi

> <i_m_source_file_index>
910

> <i_lp_mmshare_version>
43012

> <i_f3d_flags>
0

> <s_epik_input>
W0NIM11jMW5jKG9jMVtDSDNdKVtOSF1DKD1PKVtOSF1bQ0gyXVtDSDJdT1tDQEBIXTJbQ0gyXVtDSDJdW0NIMl1bQ0gyXVtDQEhdMltDSDNd

> <s_epik_cmdline>
J2VwaWtfcHl0aG9uJywgJy1waCcsICc3LjAnLCAnLXRuJywgJzgnLCAnLW1hJywgJzIwMCcsICctbWV0YWxfYmluZGluZycsICctaW1hZScsICc8aW5maWxlLm1hZT4nLCAnLW9tYWUnLCAnPG91dGZpbGUubWFlPic=

> <r_lp_tautomer_probability>
0.107061

> <r_epik_Ionization_Penalty>
0.727192

> <r_epik_Ionization_Penalty_Charging>
0.726719

> <r_epik_Ionization_Penalty_Neutral>
0.000473387

> <r_epik_State_Penalty>
2.53712

> <r_epik_Charging_Adjusted_Penalty>
3.26383

> <i_epik_Tot_Q>
0

> <i_epik_Tot_abs_Q>
0

> <r_epik_Metal_State_Penalty>
3.71015

> <b_epik_Metal_Only>
0

> <s_lp_Force_Field>
OPLS_2005

> <r_lp_Energy>
30.8064

> <b_lp_Chiralities_Consistent>
1

> <s_lp_Variant>
AV-unprocessed.smi:910-8

> <Gold.Version>
5.8.1

> <Gold.Id.Protein>
6NUR|6NUR_protein|mol2

> <Gold.PLP.Fitness>
54.4534

> <Gold.PLP.PLP>
-46.2149

> <Gold.PLP.part.hbond>
-4.2047

> <Gold.PLP.part.metal>
0.0000

> <Gold.PLP.part.buried>
-3.9625

> <Gold.PLP.part.nonpolar>
-38.0822

> <Gold.PLP.part.repulsive>
0.1947

> <Gold.PLP.ligand.clash>
0.0000

> <Gold.PLP.ligand.torsion>
0.4725

> <Gold.PLP.Chemscore.Hbond>
3.0463

> <Gold.PLP.Chemscore.CHOScore>
0.0000

> <Gold.PLP.Chemscore.Metal>
0.0000

> <Gold.Chemscore.Hbonds>
donor molecule, donor type, donor heavy atom, donor atom, acceptor molecule, acceptor atom, score
      P1  H  6896  6909       L1     5  0.94
      P1  H  6931  6943       L1    19  0.99
      P1  H  6934  6947       L1    19  0.45
      P1  H  7997  8008       L1    11  0.58

> <Gold.PLP.Chemscore.Internal.Correction>
0.0445

> <Gold.Rescore>
     Score         DG    S(hbond)    S(metal)    S(lipo)     H(rot)  DE(clash)    DE(int)     intcor
     16.75     -19.45       1.40        0.00     115.59       1.66       0.10       2.60       ----

> <Gold.Chemscore.Fitness>
16.7456

> <Gold.Chemscore.DG>
-19.4480

> <Gold.Chemscore.ZeroCoef>
-5.4800

> <Gold.Chemscore.Hbond>
1.4034

> <Gold.Chemscore.Metal>
0.0000

> <Gold.Chemscore.Lipo>
115.5916

> <Gold.Chemscore.Internal_Hbond>
0.0000

> <Gold.Chemscore.DEClash>
0.0998

> <Gold.Chemscore.DEInternal>
2.6025

> <Gold.Chemscore.Rot>
1.6576

> <Gold.Chemscore.Internal.Correction>
   9.000000E+99

> <Gold.Chemscore.Hbonds>
donor molecule, donor type, donor heavy atom, donor atom, acceptor molecule, acceptor atom, score
      P1  H  6896  6909       L1     5  0.22
      P1  H  6931  6943       L1    19  0.28
      P1  H  6934  6947       L1    19  0.08
      P1  H  7997  8008       L1    11  0.40

> <Gold.Chemscore.Hbond.Weighted>
-4.6873

> <Gold.Chemscore.Metal.Weighted>
-0.0000

> <Gold.Chemscore.Lipo.Weighted>
-13.5242

> <Gold.Chemscore.Internal_Hbond.Weighted>
0.0000

> <Gold.Chemscore.DEClash.Weighted>
0.0998

> <Gold.Chemscore.DEInternal.Weighted>
2.6025

> <Gold.Chemscore.Rot.Weighted>
4.2436

> <Gold.Chemscore.Internal.Correction.Weighted>
   9.000000E+99

> <Gold.Protein.RotatedTorsions>
[ 6907 6896 6895 6894 ] final   54.46 input  -60.11 | X-H torsion
[ 7974 7965 7964 7962 ] final   38.31 input  175.53 | X-H torsion
[ 8008 7997 7996 7995 ] final -104.49 input   59.86 | X-H torsion
[ 10167 10162 10161 10158 ] final  -15.87 input  -65.29 | X-H torsion
[ 10718 10713 10712 10709 ] final   91.96 input   66.30 | X-H torsion
[ 10763 10752 10751 10750 ] final  -40.03 input  -60.55 | X-H torsion
[ 11005 11000 10999 10996 ] final -127.57 input  -57.11 | X-H torsion

> <Gold.Protein.ActiveResidues>
 VAL166  LYS551  ARG553  GLY616  TRP617  ASP618  TYR619  PRO620  LYS621  CYS622 
 ASP623  PHE694  ASN695  SER759  ASP760  ASP761  ALA762  ILE779  LEU786  VAL792 
 PHE793  MET794  SER795  GLU796  ALA797  LYS798  CYS799  TRP800  GLU811  SER814 

> <Gold.Protein.RotatedAtoms>
  152.3441  134.7095  160.0255 H   0  0  0  0  0  0  0  0  0  0  0  0  # atno 6907 bound_to 6896
  151.7471  133.3320  159.3389 H   0  0  0  0  0  0  0  0  0  0  0  0  # atno 6908 bound_to 6896
  150.7498  134.6159  159.6155 H   0  0  0  0  0  0  0  0  0  0  0  0  # atno 6909 bound_to 6896
  146.1071  139.5788  142.9376 H   0  0  0  0  0  0  0  0  0  0  0  0  # atno 7974 bound_to 7965
  154.8861  140.0417  157.1811 H   0  0  0  0  0  0  0  0  0  0  0  0  # atno 8008 bound_to 7997
  154.8589  140.2941  155.5531 H   0  0  0  0  0  0  0  0  0  0  0  0  # atno 8009 bound_to 7997
  156.2998  140.2451  156.3560 H   0  0  0  0  0  0  0  0  0  0  0  0  # atno 8010 bound_to 7997
  140.7225  143.5174  150.9675 H   0  0  0  0  0  0  0  0  0  0  0  0  # atno 10167 bound_to 10162
  157.6959  131.0426  150.3809 H   0  0  0  0  0  0  0  0  0  0  0  0  # atno 10718 bound_to 10713
  153.9392  135.6763  153.4744 H   0  0  0  0  0  0  0  0  0  0  0  0  # atno 10763 bound_to 10752
  153.0940  135.4860  154.8741 H   0  0  0  0  0  0  0  0  0  0  0  0  # atno 10764 bound_to 10752
  154.7386  135.3155  154.8725 H   0  0  0  0  0  0  0  0  0  0  0  0  # atno 10765 bound_to 10752
  140.9588  134.0964  157.3989 H   0  0  0  0  0  0  0  0  0  0  0  0  # atno 11005 bound_to 11000
  145.5738  141.0391  143.2159 LP  0  0  0  0  0  0  0  0  0  0  0  0  # atno 17320 bound_to 7965
  144.7480  139.7268  143.7284 LP  0  0  0  0  0  0  0  0  0  0  0  0  # atno 17321 bound_to 7965
  139.8890  143.6977  152.3147 LP  0  0  0  0  0  0  0  0  0  0  0  0  # atno 17342 bound_to 10162
  139.7286  144.7587  151.0839 LP  0  0  0  0  0  0  0  0  0  0  0  0  # atno 17343 bound_to 10162
  156.4223  130.3955  149.6816 LP  0  0  0  0  0  0  0  0  0  0  0  0  # atno 17370 bound_to 10713
  156.4063  130.7700  151.2710 LP  0  0  0  0  0  0  0  0  0  0  0  0  # atno 17371 bound_to 10713
  139.8871  135.0087  156.6540 LP  0  0  0  0  0  0  0  0  0  0  0  0  # atno 17394 bound_to 11000
  140.7497  133.8908  155.8338 LP  0  0  0  0  0  0  0  0  0  0  0  0  # atno 17395 bound_to 11000

$$$$
