AV-unprocessed.smi:2546|AV-procd|sdf|9999|dock1
  -GOLD-   2272014 43D 1   1.00000     0.00000
 Structure written by MMmdl.
 17 17  0  0  0  0  0  0  0  0  2 V2000
  142.3061  132.6223  148.3050 N   0  3  0  0  0  0  0  0  0  0  0  0
  143.7777  132.5833  148.3410 C   0  0  0  0  0  0  0  0  0  0  0  0
  144.2993  132.4084  149.7739 C   0  0  0  0  0  0  0  0  0  0  0  0
  144.3273  133.6957  150.5312 C   0  0  0  0  0  0  0  0  0  0  0  0
  143.7664  133.8827  151.7318 N   0  0  0  0  0  0  0  0  0  0  0  0
  144.0379  135.1992  152.0687 N   0  0  0  0  0  0  0  0  0  0  0  0
  144.7379  135.6781  151.0390 C   0  0  0  0  0  0  0  0  0  0  0  0
  144.9478  134.7887  150.0612 N   0  0  0  0  0  0  0  0  0  0  0  0
  145.4435  134.9143  149.1904 H   0  0  0  0  0  0  0  0  0  0  0  0
  141.9402  131.7041  148.5135 H   0  0  0  0  0  0  0  0  0  0  0  0
  141.9964  132.9062  147.3865 H   0  0  0  0  0  0  0  0  0  0  0  0
  144.1199  131.7628  147.7091 H   0  0  0  0  0  0  0  0  0  0  0  0
  144.1635  133.5065  147.9075 H   0  0  0  0  0  0  0  0  0  0  0  0
  143.6794  131.6925  150.3155 H   0  0  0  0  0  0  0  0  0  0  0  0
  145.3093  131.9964  149.7587 H   0  0  0  0  0  0  0  0  0  0  0  0
  145.1035  136.6937  150.9993 H   0  0  0  0  0  0  0  0  0  0  0  0
  141.9689  133.2812  148.9925 H   0  0  0  0  0  0  0  0  0  0  0  0
  1  2  1  0  0  0  0
  1 10  1  0  0  0  0
  1 11  1  0  0  0  0
  1 17  1  0  0  0  0
  2  3  1  0  0  0  0
  2 12  1  0  0  0  0
  2 13  1  0  0  0  0
  3  4  1  0  0  0  0
  3 14  1  0  0  0  0
  3 15  1  0  0  0  0
  4  8  1  0  0  0  0
  4  5  2  0  0  0  0
  5  6  1  0  0  0  0
  6  7  2  0  0  0  0
  7  8  1  0  0  0  0
  7 16  1  0  0  0  0
  8  9  1  0  0  0  0
M  CHG  1   1   1
M  END
> <s_m_source_file>
AV-unprocessed.smi

> <i_m_source_file_index>
2546

> <i_lp_mmshare_version>
43012

> <i_f3d_flags>
0

> <s_epik_input>
W05IMl1bQ0gyXVtDSDJdYzFubltjSF1bbkhdMQ==

> <s_epik_cmdline>
J2VwaWtfcHl0aG9uJywgJy1waCcsICc3LjAnLCAnLXRuJywgJzgnLCAnLW1hJywgJzIwMCcsICctbWV0YWxfYmluZGluZycsICctaW1hZScsICc8aW5maWxlLm1hZT4nLCAnLW9tYWUnLCAnPG91dGZpbGUubWFlPic=

> <r_lp_tautomer_probability>
0.0517155

> <r_epik_Ionization_Penalty>
0.045181

> <r_epik_Ionization_Penalty_Charging>
0.00465044

> <r_epik_Ionization_Penalty_Neutral>
0.0405306

> <r_epik_State_Penalty>
2.26292

> <r_epik_Charging_Adjusted_Penalty>
2.26757

> <i_epik_Tot_Q>
1

> <i_epik_Tot_abs_Q>
1

> <r_epik_Metal_State_Penalty>
2.49167

> <b_epik_Metal_Only>
0

> <s_lp_Force_Field>
OPLS_2005

> <r_lp_Energy>
3.59513

> <b_lp_Chiralities_Consistent>
1

> <s_lp_Variant>
AV-unprocessed.smi:2546-3

> <Gold.Version>
5.8.1

> <Gold.Id.Protein>
6NUR|6NUR_protein|mol2

> <Gold.PLP.Fitness>
36.7376

> <Gold.PLP.PLP>
-19.2891

> <Gold.PLP.part.hbond>
-3.9549

> <Gold.PLP.part.metal>
0.0000

> <Gold.PLP.part.buried>
-4.2425

> <Gold.PLP.part.nonpolar>
-11.9638

> <Gold.PLP.part.repulsive>
0.5329

> <Gold.PLP.ligand.clash>
0.0000

> <Gold.PLP.ligand.torsion>
0.1521

> <Gold.PLP.Chemscore.Hbond>
5.0000

> <Gold.PLP.Chemscore.CHOScore>
0.9174

> <Gold.PLP.Chemscore.Metal>
0.0000

> <Gold.Chemscore.Hbonds>
donor molecule, donor type, donor heavy atom, donor atom, acceptor molecule, acceptor atom, score
      L1  H     1    10       P1 10952  0.99
      L1  H     1    11       P1 10195  1.00
      L1  H     1    17       P1 10186  2.00
      L1  H     8     9       P1  7921  1.00
      L1  C     7    16       P1 10171  0.82

> <Gold.PLP.Chemscore.Internal.Correction>
0.0005

> <Gold.Rescore>
     Score         DG    S(hbond)    S(metal)    S(lipo)     H(rot)  DE(clash)    DE(int)     intcor
     17.28     -17.58       3.99        0.00      26.04       1.67       0.16       0.14       ----

> <Gold.Chemscore.Fitness>
17.2835

> <Gold.Chemscore.DG>
-17.5811

> <Gold.Chemscore.ZeroCoef>
-5.4800

> <Gold.Chemscore.Hbond>
3.9891

> <Gold.Chemscore.Metal>
0.0000

> <Gold.Chemscore.Lipo>
26.0447

> <Gold.Chemscore.Internal_Hbond>
0.0000

> <Gold.Chemscore.DEClash>
0.1596

> <Gold.Chemscore.DEInternal>
0.1379

> <Gold.Chemscore.Rot>
1.6679

> <Gold.Chemscore.Internal.Correction>
   9.000000E+99

> <Gold.Chemscore.Hbonds>
donor molecule, donor type, donor heavy atom, donor atom, acceptor molecule, acceptor atom, score
      L1  H     1    10       P1 10952  0.91
      L1  H     1    11       P1 10195  0.96
      L1  H     1    17       P1 10186  0.95
      L1  H     8     9       P1  7921  1.00

> <Gold.Chemscore.Hbond.Weighted>
-13.3236

> <Gold.Chemscore.Metal.Weighted>
-0.0000

> <Gold.Chemscore.Lipo.Weighted>
-3.0472

> <Gold.Chemscore.Internal_Hbond.Weighted>
0.0000

> <Gold.Chemscore.DEClash.Weighted>
0.1596

> <Gold.Chemscore.DEInternal.Weighted>
0.1379

> <Gold.Chemscore.Rot.Weighted>
4.2697

> <Gold.Chemscore.Internal.Correction.Weighted>
   9.000000E+99

> <Gold.Protein.RotatedTorsions>
[ 6907 6896 6895 6894 ] final   37.00 input  -60.11 | X-H torsion
[ 7974 7965 7964 7962 ] final  -48.83 input  175.53 | X-H torsion
[ 8008 7997 7996 7995 ] final   19.59 input   59.86 | X-H torsion
[ 10167 10162 10161 10158 ] final  121.32 input  -65.29 | X-H torsion
[ 10718 10713 10712 10709 ] final -136.08 input   66.30 | X-H torsion
[ 10763 10752 10751 10750 ] final  -75.33 input  -60.55 | X-H torsion
[ 11005 11000 10999 10996 ] final  -47.43 input  -57.11 | X-H torsion

> <Gold.Protein.ActiveResidues>
 VAL166  LYS551  ARG553  GLY616  TRP617  ASP618  TYR619  PRO620  LYS621  CYS622 
 ASP623  PHE694  ASN695  SER759  ASP760  ASP761  ALA762  ILE779  LEU786  VAL792 
 PHE793  MET794  SER795  GLU796  ALA797  LYS798  CYS799  TRP800  GLU811  SER814 

> <Gold.Protein.RotatedAtoms>
  152.1373  134.9089  160.0555 H   0  0  0  0  0  0  0  0  0  0  0  0  # atno 6907 bound_to 6896
  152.0170  133.3879  159.4251 H   0  0  0  0  0  0  0  0  0  0  0  0  # atno 6908 bound_to 6896
  150.6862  134.3589  159.4985 H   0  0  0  0  0  0  0  0  0  0  0  0  # atno 6909 bound_to 6896
  145.9470  140.7608  142.9523 H   0  0  0  0  0  0  0  0  0  0  0  0  # atno 7974 bound_to 7965
  154.9230  140.3030  155.5206 H   0  0  0  0  0  0  0  0  0  0  0  0  # atno 8008 bound_to 7997
  156.3008  140.2368  156.4218 H   0  0  0  0  0  0  0  0  0  0  0  0  # atno 8009 bound_to 7997
  154.8312  140.0418  157.1467 H   0  0  0  0  0  0  0  0  0  0  0  0  # atno 8010 bound_to 7997
  139.5927  144.7031  151.3251 H   0  0  0  0  0  0  0  0  0  0  0  0  # atno 10167 bound_to 10162
  156.2732  130.7277  151.1251 H   0  0  0  0  0  0  0  0  0  0  0  0  # atno 10718 bound_to 10713
  154.4851  135.5835  153.6417 H   0  0  0  0  0  0  0  0  0  0  0  0  # atno 10763 bound_to 10752
  152.9853  135.6099  154.3197 H   0  0  0  0  0  0  0  0  0  0  0  0  # atno 10764 bound_to 10752
  154.3092  135.2845  155.2553 H   0  0  0  0  0  0  0  0  0  0  0  0  # atno 10765 bound_to 10752
  141.0640  133.6699  156.3297 H   0  0  0  0  0  0  0  0  0  0  0  0  # atno 11005 bound_to 11000
  144.6789  140.2373  143.7348 LP  0  0  0  0  0  0  0  0  0  0  0  0  # atno 17320 bound_to 7965
  145.8222  139.2049  143.1931 LP  0  0  0  0  0  0  0  0  0  0  0  0  # atno 17321 bound_to 7965
  140.7186  143.7197  150.7705 LP  0  0  0  0  0  0  0  0  0  0  0  0  # atno 17342 bound_to 10162
  140.0756  143.5018  152.2557 LP  0  0  0  0  0  0  0  0  0  0  0  0  # atno 17343 bound_to 10162
  157.7290  131.0627  150.5792 LP  0  0  0  0  0  0  0  0  0  0  0  0  # atno 17370 bound_to 10713
  156.5890  130.4324  149.5944 LP  0  0  0  0  0  0  0  0  0  0  0  0  # atno 17371 bound_to 10713
  140.5810  134.5745  157.5479 LP  0  0  0  0  0  0  0  0  0  0  0  0  # atno 17394 bound_to 11000
  139.9459  134.7703  156.0563 LP  0  0  0  0  0  0  0  0  0  0  0  0  # atno 17395 bound_to 11000

$$$$
