AV-unprocessed.smi:1829|AV-procd|sdf|7429|dock6
  -GOLD-   22720 9113D 1   1.00000     0.00000
 Structure written by MMmdl.
 45 47  0  0  0  0  0  0  0  0  1 V2000
  143.6255  141.8906  155.9649 C   0  0  0  0  0  0  0  0  0  0  0  0
  144.6911  142.9981  155.9535 C   0  0  0  0  0  0  0  0  0  0  0  0
  144.4451  144.0091  154.8225 C   0  0  0  0  0  0  0  0  0  0  0  0
  146.1012  142.4241  155.8946 C   0  0  0  0  0  0  0  0  0  0  0  0
  146.8133  142.1746  157.0873 C   0  0  0  0  0  0  0  0  0  0  0  0
  148.1193  141.6491  157.0405 C   0  0  0  0  0  0  0  0  0  0  0  0
  148.7281  141.3639  155.8005 C   0  0  0  0  0  0  0  0  0  0  0  0
  150.1424  140.8070  155.7573 C   0  0  1  0  0  0  0  0  0  0  0  0
  150.4663  140.2707  154.4891 O   0  0  0  0  0  0  0  0  0  0  0  0
  151.1770  141.8773  156.1582 C   0  0  0  0  0  0  0  0  0  0  0  0
  151.5977  141.7582  157.5481 N   0  0  0  0  0  0  0  0  0  0  0  0
  152.0038  140.6487  158.2164 C   0  0  0  0  0  0  0  0  0  0  0  0
  152.0715  139.3080  157.5409 C   0  0  0  0  0  0  0  0  0  0  0  0
  152.8966  139.2822  156.3932 O   0  0  0  0  0  0  0  0  0  0  0  0
  152.3379  140.8376  159.4957 N   0  0  0  0  0  0  0  0  0  0  0  0
  152.1277  142.1909  159.6716 C   0  0  0  0  0  0  0  0  0  0  0  0
  152.2991  143.0074  160.8125 C   0  0  0  0  0  0  0  0  0  0  0  0
  152.0172  144.3880  160.7509 C   0  0  0  0  0  0  0  0  0  0  0  0
  151.5611  144.9708  159.5507 C   0  0  0  0  0  0  0  0  0  0  0  0
  151.3836  144.1750  158.4026 C   0  0  0  0  0  0  0  0  0  0  0  0
  151.6660  142.7975  158.4700 C   0  0  0  0  0  0  0  0  0  0  0  0
  148.0181  141.6156  154.6066 C   0  0  0  0  0  0  0  0  0  0  0  0
  146.7128  142.1413  154.6537 C   0  0  0  0  0  0  0  0  0  0  0  0
  143.7809  141.2056  156.7991 H   0  0  0  0  0  0  0  0  0  0  0  0
  143.6419  141.3054  155.0450 H   0  0  0  0  0  0  0  0  0  0  0  0
  142.6252  142.3123  156.0681 H   0  0  0  0  0  0  0  0  0  0  0  0
  144.5952  143.5422  156.8941 H   0  0  0  0  0  0  0  0  0  0  0  0
  145.1728  144.8205  154.8579 H   0  0  0  0  0  0  0  0  0  0  0  0
  143.4528  144.4536  154.9043 H   0  0  0  0  0  0  0  0  0  0  0  0
  144.5160  143.5406  153.8404 H   0  0  0  0  0  0  0  0  0  0  0  0
  146.3627  142.3873  158.0457 H   0  0  0  0  0  0  0  0  0  0  0  0
  148.6523  141.4685  157.9627 H   0  0  0  0  0  0  0  0  0  0  0  0
  150.2022  139.9793  156.4653 H   0  0  0  0  0  0  0  0  0  0  0  0
  150.2732  139.3457  154.4976 H   0  0  0  0  0  0  0  0  0  0  0  0
  152.0478  141.8353  155.5042 H   0  0  0  0  0  0  0  0  0  0  0  0
  150.7490  142.8716  156.0242 H   0  0  0  0  0  0  0  0  0  0  0  0
  152.4455  138.5663  158.2466 H   0  0  0  0  0  0  0  0  0  0  0  0
  151.0649  139.0062  157.2506 H   0  0  0  0  0  0  0  0  0  0  0  0
  152.5828  138.6058  155.8131 H   0  0  0  0  0  0  0  0  0  0  0  0
  152.6481  142.5702  161.7363 H   0  0  0  0  0  0  0  0  0  0  0  0
  152.1517  145.0026  161.6289 H   0  0  0  0  0  0  0  0  0  0  0  0
  151.3474  146.0289  159.5121 H   0  0  0  0  0  0  0  0  0  0  0  0
  151.0343  144.6174  157.4814 H   0  0  0  0  0  0  0  0  0  0  0  0
  148.4744  141.4095  153.6494 H   0  0  0  0  0  0  0  0  0  0  0  0
  146.1839  142.3286  153.7307 H   0  0  0  0  0  0  0  0  0  0  0  0
  1  2  1  0  0  0  0
  1 24  1  0  0  0  0
  1 25  1  0  0  0  0
  1 26  1  0  0  0  0
  2  3  1  0  0  0  0
  2  4  1  0  0  0  0
  2 27  1  0  0  0  0
  3 28  1  0  0  0  0
  3 29  1  0  0  0  0
  3 30  1  0  0  0  0
  4 23  1  0  0  0  0
  4  5  2  0  0  0  0
  5  6  1  0  0  0  0
  5 31  1  0  0  0  0
  6  7  2  0  0  0  0
  6 32  1  0  0  0  0
  7  8  1  0  0  0  0
  7 22  1  0  0  0  0
  8  9  1  0  0  0  0
  8 10  1  0  0  0  0
  8 33  1  0  0  0  0
  9 34  1  0  0  0  0
 10 11  1  0  0  0  0
 10 35  1  0  0  0  0
 10 36  1  0  0  0  0
 11 21  1  0  0  0  0
 11 12  1  0  0  0  0
 12 13  1  0  0  0  0
 12 15  2  0  0  0  0
 13 14  1  0  0  0  0
 13 37  1  0  0  0  0
 13 38  1  0  0  0  0
 14 39  1  0  0  0  0
 15 16  1  0  0  0  0
 16 21  2  0  0  0  0
 16 17  1  0  0  0  0
 17 18  2  0  0  0  0
 17 40  1  0  0  0  0
 18 19  1  0  0  0  0
 18 41  1  0  0  0  0
 19 20  2  0  0  0  0
 19 42  1  0  0  0  0
 20 21  1  0  0  0  0
 20 43  1  0  0  0  0
 22 23  2  0  0  0  0
 22 44  1  0  0  0  0
 23 45  1  0  0  0  0
M  END
> <s_m_source_file>
AV-unprocessed.smi

> <i_m_source_file_index>
1829

> <i_lp_mmshare_version>
43012

> <i_f3d_flags>
0

> <s_epik_input>
W0NIM11bQ0hdKFtDSDNdKWMxW2NIXVtjSF1jKFtjSF1bY0hdMSlbQ0BIXShbT0hdKVtDSDJdbihjKG4yKVtDSDJdW09IXSljKGMyMylbY0hdW2NIXVtjSF1bY0hdMw==

> <s_epik_cmdline>
J2VwaWtfcHl0aG9uJywgJy1waCcsICc3LjAnLCAnLXRuJywgJzgnLCAnLW1hJywgJzIwMCcsICctbWV0YWxfYmluZGluZycsICctaW1hZScsICc8aW5maWxlLm1hZT4nLCAnLW9tYWUnLCAnPG91dGZpbGUubWFlPic=

> <r_epik_Ionization_Penalty>
0.0634718

> <r_epik_Ionization_Penalty_Charging>
0

> <r_epik_Ionization_Penalty_Neutral>
0.0634718

> <r_epik_State_Penalty>
0.0551572

> <r_epik_Charging_Adjusted_Penalty>
0.0551572

> <i_epik_Tot_Q>
0

> <i_epik_Tot_abs_Q>
0

> <r_epik_Metal_State_Penalty>
5.78034e-05

> <b_epik_Metal_Only>
0

> <s_lp_Force_Field>
OPLS_2005

> <r_lp_Energy>
13.3672

> <b_lp_Chiralities_Consistent>
1

> <s_lp_Variant>
AV-unprocessed.smi:1829-2

> <Gold.Version>
5.8.1

> <Gold.Id.Protein>
6NUR|6NUR_protein|mol2

> <Gold.PLP.Fitness>
51.1156

> <Gold.PLP.PLP>
-48.4481

> <Gold.PLP.part.hbond>
-2.0000

> <Gold.PLP.part.metal>
0.0000

> <Gold.PLP.part.buried>
-7.6308

> <Gold.PLP.part.nonpolar>
-38.4853

> <Gold.PLP.part.repulsive>
0.0000

> <Gold.PLP.ligand.clash>
0.0000

> <Gold.PLP.ligand.torsion>
1.7114

> <Gold.PLP.Chemscore.Hbond>
2.0000

> <Gold.PLP.Chemscore.CHOScore>
0.0000

> <Gold.PLP.Chemscore.Metal>
0.0000

> <Gold.Chemscore.Hbonds>
donor molecule, donor type, donor heavy atom, donor atom, acceptor molecule, acceptor atom, score
      P1  H  7989  7998       L1     9  1.00
      P1  H  7997  8008       L1    14  1.00

> <Gold.PLP.Chemscore.Internal.Correction>
0.0904

> <Gold.Rescore>
     Score         DG    S(hbond)    S(metal)    S(lipo)     H(rot)  DE(clash)    DE(int)     intcor
     17.79     -19.02       1.94        0.00     118.88       2.68       0.05       1.18       ----

> <Gold.Chemscore.Fitness>
17.7868

> <Gold.Chemscore.DG>
-19.0204

> <Gold.Chemscore.ZeroCoef>
-5.4800

> <Gold.Chemscore.Hbond>
1.9409

> <Gold.Chemscore.Metal>
0.0000

> <Gold.Chemscore.Lipo>
118.8757

> <Gold.Chemscore.Internal_Hbond>
0.0000

> <Gold.Chemscore.DEClash>
0.0507

> <Gold.Chemscore.DEInternal>
1.1829

> <Gold.Chemscore.Rot>
2.6761

> <Gold.Chemscore.Internal.Correction>
   9.000000E+99

> <Gold.Chemscore.Hbonds>
donor molecule, donor type, donor heavy atom, donor atom, acceptor molecule, acceptor atom, score
      P1  H  7989  7998       L1     9  0.96
      P1  H  7997  8008       L1    14  0.99

> <Gold.Chemscore.Hbond.Weighted>
-6.4827

> <Gold.Chemscore.Metal.Weighted>
-0.0000

> <Gold.Chemscore.Lipo.Weighted>
-13.9085

> <Gold.Chemscore.Internal_Hbond.Weighted>
0.0000

> <Gold.Chemscore.DEClash.Weighted>
0.0507

> <Gold.Chemscore.DEInternal.Weighted>
1.1829

> <Gold.Chemscore.Rot.Weighted>
6.8507

> <Gold.Chemscore.Internal.Correction.Weighted>
   9.000000E+99

> <Gold.Protein.RotatedTorsions>
[ 6907 6896 6895 6894 ] final  -22.27 input  -60.11 | X-H torsion
[ 7974 7965 7964 7962 ] final -126.23 input  175.53 | X-H torsion
[ 8008 7997 7996 7995 ] final  -33.34 input   59.86 | X-H torsion
[ 10167 10162 10161 10158 ] final -172.70 input  -65.29 | X-H torsion
[ 10718 10713 10712 10709 ] final  -21.44 input   66.30 | X-H torsion
[ 10763 10752 10751 10750 ] final   35.75 input  -60.55 | X-H torsion
[ 11005 11000 10999 10996 ] final  -98.15 input  -57.11 | X-H torsion

> <Gold.Protein.ActiveResidues>
 VAL166  LYS551  ARG553  GLY616  TRP617  ASP618  TYR619  PRO620  LYS621  CYS622 
 ASP623  PHE694  ASN695  SER759  ASP760  ASP761  ALA762  ILE779  LEU786  VAL792 
 PHE793  MET794  SER795  GLU796  ALA797  LYS798  CYS799  TRP800  GLU811  SER814 

> <Gold.Protein.RotatedAtoms>
  151.2211  135.0519  159.8949 H   0  0  0  0  0  0  0  0  0  0  0  0  # atno 6907 bound_to 6896
  152.5415  134.0640  159.8175 H   0  0  0  0  0  0  0  0  0  0  0  0  # atno 6908 bound_to 6896
  151.0806  133.5345  159.2652 H   0  0  0  0  0  0  0  0  0  0  0  0  # atno 6909 bound_to 6896
  144.9894  140.7718  143.4563 H   0  0  0  0  0  0  0  0  0  0  0  0  # atno 7974 bound_to 7965
  154.4152  140.1713  156.1872 H   0  0  0  0  0  0  0  0  0  0  0  0  # atno 8008 bound_to 7997
  155.9633  140.3391  155.6487 H   0  0  0  0  0  0  0  0  0  0  0  0  # atno 8009 bound_to 7997
  155.6720  140.0712  157.2507 H   0  0  0  0  0  0  0  0  0  0  0  0  # atno 8010 bound_to 7997
  139.5730  144.1598  152.1410 H   0  0  0  0  0  0  0  0  0  0  0  0  # atno 10167 bound_to 10162
  156.5181  130.4626  149.6611 H   0  0  0  0  0  0  0  0  0  0  0  0  # atno 10718 bound_to 10713
  153.0106  135.6325  154.1876 H   0  0  0  0  0  0  0  0  0  0  0  0  # atno 10763 bound_to 10752
  154.1618  135.2823  155.3108 H   0  0  0  0  0  0  0  0  0  0  0  0  # atno 10764 bound_to 10752
  154.5975  135.5598  153.7401 H   0  0  0  0  0  0  0  0  0  0  0  0  # atno 10765 bound_to 10752
  141.1355  133.8224  157.0801 H   0  0  0  0  0  0  0  0  0  0  0  0  # atno 11005 bound_to 11000
  145.2307  139.2116  143.5044 LP  0  0  0  0  0  0  0  0  0  0  0  0  # atno 17320 bound_to 7965
  146.3428  140.2183  142.8591 LP  0  0  0  0  0  0  0  0  0  0  0  0  # atno 17321 bound_to 7965
  140.1135  144.5436  150.6909 LP  0  0  0  0  0  0  0  0  0  0  0  0  # atno 17342 bound_to 10162
  140.7013  143.2437  151.4855 LP  0  0  0  0  0  0  0  0  0  0  0  0  # atno 17343 bound_to 10162
  156.3176  130.7263  151.2168 LP  0  0  0  0  0  0  0  0  0  0  0  0  # atno 17370 bound_to 10713
  157.7441  131.0464  150.4893 LP  0  0  0  0  0  0  0  0  0  0  0  0  # atno 17371 bound_to 10713
  140.0457  134.9832  157.1044 LP  0  0  0  0  0  0  0  0  0  0  0  0  # atno 17394 bound_to 11000
  140.4067  134.2025  155.7163 LP  0  0  0  0  0  0  0  0  0  0  0  0  # atno 17395 bound_to 11000

$$$$
