#       Name:                AV-unprocessed.smi:1286
#       Creating user name   scv26
#       Creation time:       Fri Mar 27 04:52:20 2020


#       File generated by GOLD software.
#

@<TRIPOS>MOLECULE
AV-unprocessed.smi:1286
    39    40     1
SMALL
NO_CHARGES


@<TRIPOS>ATOM
      1 ****        -1.9919  -1.4165  -1.3015 C.3            1 S1                 0.0000
      2 ****        -1.5065  -0.6097  -0.0861 C.3            1 S1                 0.0000
      3 ****        -2.0864  -1.1158   1.2531 C.3            1 S1                 0.0000
      4 ****        -3.5379  -1.0980   1.2782 N.pl3          1 S1                 0.0000
      5 ****        -4.3754  -0.0104   1.4081 C.2            1 S1                 0.0000
      6 ****        -5.6574  -0.4793   1.3811 C.2            1 S1                 0.0000
      7 ****        -5.4996  -1.8856   1.2326 C.2            1 S1                 0.0000
      8 ****        -4.2298  -2.2534   1.1728 N.2            1 S1                 0.0000
      9 ****        -0.0473  -0.6393  -0.0446 N.am           1 S1                 0.0000
     10 ****         0.7341   0.2998   0.5113 C.2            1 S1                 0.0000
     11 ****         0.2917   1.3070   1.0645 O.2            1 S1                 0.0000
     12 ****         2.2464   0.0595   0.4371 C.3            1 S1                 0.0000
     13 ****         3.0578   1.3093   0.0306 C.3            1 S1                 0.0000
     14 ****         2.7102   1.8387  -1.3401 C.2            1 S1                 0.0000
     15 ****         3.7756   1.9675  -2.1272 C.2            1 S1                 0.0000
     16 ****         5.0490   1.5498  -1.4460 C.3            1 S1                 0.0000
     17 ****         4.5819   1.0410  -0.0638 C.3            1 S1                 0.0000
     18 ****        -3.0733  -1.3480  -1.4218 H              1 S1                 0.0000
     19 ****        -1.7342  -2.4718  -1.2049 H              1 S1                 0.0000
     20 ****        -1.5410  -1.0458  -2.2227 H              1 S1                 0.0000
     21 ****        -1.8275   0.4230  -0.2352 H              1 S1                 0.0000
     22 ****        -1.7402  -2.1308   1.4563 H              1 S1                 0.0000
     23 ****        -1.7322  -0.4974   2.0788 H              1 S1                 0.0000
     24 ****        -3.9920   0.9947   1.5061 H              1 S1                 0.0000
     25 ****        -6.5689   0.0946   1.4564 H              1 S1                 0.0000
     26 ****        -6.2648  -2.6450   1.1675 H              1 S1                 0.0000
     27 ****         0.4027  -1.4351  -0.4735 H              1 S1                 0.0000
     28 ****         2.5783  -0.2880   1.4160 H              1 S1                 0.0000
     29 ****         2.4508  -0.7527  -0.2626 H              1 S1                 0.0000
     30 ****         2.8799   2.1137   0.7460 H              1 S1                 0.0000
     31 ****         1.6993   2.0949  -1.6217 H              1 S1                 0.0000
     32 ****         3.7597   2.3390  -3.1411 H              1 S1                 0.0000
     33 ****         5.5518   0.7690  -2.0176 H              1 S1                 0.0000
     34 ****         5.7200   2.4044  -1.3557 H              1 S1                 0.0000
     35 ****         5.1188   1.5425   0.7423 H              1 S1                 0.0000
     36 ****         4.7979  -0.0243   0.0271 H              1 S1                 0.0000
     37 ****        -3.8645  -3.1789   1.0722 LP             1 S1                 0.0000
     38 ****        -0.6957   1.4564   1.1156 LP             1 S1                 0.0000
     39 ****         0.9199   1.9755   1.4626 LP             1 S1                 0.0000
@<TRIPOS>BOND
    1    1    2 1     
    2    1   18 1     
    3    1   19 1     
    4    1   20 1     
    5    2    3 1     
    6    2    9 1     
    7    2   21 1     
    8    3    4 1     
    9    3   22 1     
   10    3   23 1     
   11    4    8 1     
   12    4    5 1     
   13    5    6 2     
   14    5   24 1     
   15    6    7 1     
   16    6   25 1     
   17    7    8 2     
   18    7   26 1     
   19    9   10 am    
   20    9   27 1     
   21   10   11 2     
   22   10   12 1     
   23   12   13 1     
   24   12   28 1     
   25   12   29 1     
   26   13   17 1     
   27   13   14 1     
   28   13   30 1     
   29   14   15 2     
   30   14   31 1     
   31   15   16 1     
   32   15   32 1     
   33   16   17 1     
   34   16   33 1     
   35   16   34 1     
   36   17   35 1     
   37   17   36 1     
   38    8   37 1     
   39   11   38 1     
   40   11   39 1     
@<TRIPOS>SUBSTRUCTURE
      1 S1             1
@<TRIPOS>SET
LONE_PAIRS      STATIC     ATOMS    <user>   **** ""
3 37 38 39
DONOR_HYDROGENS      STATIC     ATOMS    <user>   **** ""
1 27
ATOM$BLUE        STATIC     ATOMS    COLORGROUP SYSTEM
3 37 38 39
ATOM$RED        STATIC     ATOMS    COLORGROUP SYSTEM
1 27
