#       Name:                AV-unprocessed.smi:2205
#       Creating user name   scv26
#       Creation time:       Fri Mar 27 12:15:56 2020


#       File generated by GOLD software.
#

@<TRIPOS>MOLECULE
AV-unprocessed.smi:2205
    42    43     1
SMALL
NO_CHARGES


@<TRIPOS>ATOM
      1 ****        -3.9006  -1.6906  -1.5670 C.3            1 S1                 0.0000
      2 ****        -2.5018  -1.8416  -1.4038 O.3            1 S1                 0.0000
      3 ****        -2.1260  -3.1835  -1.1400 C.3            1 S1                 0.0000
      4 ****        -0.6051  -3.2571  -0.9290 C.3            1 S1                 0.0000
      5 ****        -0.1921  -2.5688   0.3028 N.am           1 S1                 0.0000
      6 ****         0.2349  -1.2322   0.1755 C.2            1 S1                 0.0000
      7 ****         0.6316  -0.4932   1.2349 C.2            1 S1                 0.0000
      8 ****         1.0603   0.8424   1.1867 N.am           1 S1                 0.0000
      9 ****         1.2231   1.6573   0.1253 C.2            1 S1                 0.0000
     10 ****         1.0213   1.3464  -1.0486 O.2            1 S1                 0.0000
     11 ****         1.7070   3.0758   0.4636 C.3            1 S1                 0.0000
     12 ****         0.8550   4.2025  -0.1442 C.3            1 S1                 0.0000
     13 ****         1.9771   4.5117  -1.1401 C.3            1 S1                 0.0000
     14 ****         2.9025   3.5619  -0.3730 C.3            1 S1                 0.0000
     15 ****         0.5982  -1.1392   2.5295 C.2            1 S1                 0.0000
     16 ****         0.1844  -2.4138   2.6638 C.2            1 S1                 0.0000
     17 ****        -0.2485  -3.2053   1.5102 C.2            1 S1                 0.0000
     18 ****        -0.6395  -4.3673   1.6244 O.2            1 S1                 0.0000
     19 ****        -4.1331  -0.6480  -1.7825 H              1 S1                 0.0000
     20 ****        -4.4353  -1.9737  -0.6594 H              1 S1                 0.0000
     21 ****        -4.2700  -2.2966  -2.3952 H              1 S1                 0.0000
     22 ****        -2.6542  -3.5653  -0.2648 H              1 S1                 0.0000
     23 ****        -2.4078  -3.8112  -1.9865 H              1 S1                 0.0000
     24 ****        -0.2911  -4.3017  -0.8979 H              1 S1                 0.0000
     25 ****        -0.0925  -2.8380  -1.7961 H              1 S1                 0.0000
     26 ****         0.1979  -0.8720  -0.8400 H              1 S1                 0.0000
     27 ****         1.2786   1.2452   2.0862 H              1 S1                 0.0000
     28 ****         1.8715   3.2155   1.5332 H              1 S1                 0.0000
     29 ****        -0.0724   3.8800  -0.6198 H              1 S1                 0.0000
     30 ****         0.6732   5.0161   0.5590 H              1 S1                 0.0000
     31 ****         1.7539   4.1611  -2.1485 H              1 S1                 0.0000
     32 ****         2.3029   5.5523  -1.1370 H              1 S1                 0.0000
     33 ****         3.6475   4.0856   0.2269 H              1 S1                 0.0000
     34 ****         3.3690   2.8035  -1.0037 H              1 S1                 0.0000
     35 ****         0.9085  -0.5928   3.4085 H              1 S1                 0.0000
     36 ****         0.1707  -2.8650   3.6451 H              1 S1                 0.0000
     37 ****        -2.2048  -1.2695  -0.6393 LP             1 S1                 0.0000
     38 ****        -2.0470  -1.5404  -2.2419 LP             1 S1                 0.0000
     39 ****         0.7105   0.4233  -1.2750 LP             1 S1                 0.0000
     40 ****         1.1682   2.0169  -1.7757 LP             1 S1                 0.0000
     41 ****        -0.9300  -4.8789   0.8158 LP             1 S1                 0.0000
     42 ****        -0.6665  -4.7995   2.5258 LP             1 S1                 0.0000
@<TRIPOS>BOND
    1    1    2 1     
    2    1   19 1     
    3    1   20 1     
    4    1   21 1     
    5    2    3 1     
    6    3    4 1     
    7    3   22 1     
    8    3   23 1     
    9    4    5 1     
   10    4   24 1     
   11    4   25 1     
   12    5   17 am    
   13    5    6 1     
   14    6    7 2     
   15    6   26 1     
   16    7    8 1     
   17    7   15 1     
   18    8    9 am    
   19    8   27 1     
   20    9   10 2     
   21    9   11 1     
   22   11   14 1     
   23   11   12 1     
   24   11   28 1     
   25   12   13 1     
   26   12   29 1     
   27   12   30 1     
   28   13   14 1     
   29   13   31 1     
   30   13   32 1     
   31   14   33 1     
   32   14   34 1     
   33   15   16 2     
   34   15   35 1     
   35   16   17 1     
   36   16   36 1     
   37   17   18 2     
   38    2   37 1     
   39    2   38 1     
   40   10   39 1     
   41   10   40 1     
   42   18   41 1     
   43   18   42 1     
@<TRIPOS>SUBSTRUCTURE
      1 S1             1
@<TRIPOS>SET
LONE_PAIRS      STATIC     ATOMS    <user>   **** ""
6 37 38 39 40 41 42
DONOR_HYDROGENS      STATIC     ATOMS    <user>   **** ""
1 27
ATOM$BLUE        STATIC     ATOMS    COLORGROUP SYSTEM
6 37 38 39 40 41 42
ATOM$RED        STATIC     ATOMS    COLORGROUP SYSTEM
1 27
