AV-unprocessed.smi:1997|AV-procd|sdf|8087|dock8
  -GOLD-   2272010303D 1   1.00000     0.00000
 Structure written by MMmdl.
 37 39  0  0  0  0  0  0  0  0  1 V2000
  145.7970  129.4022  152.6769 O   0  0  0  0  0  0  0  0  0  0  0  0
  146.7221  129.7552  151.9451 C   0  0  0  0  0  0  0  0  0  0  0  0
  147.7816  128.9986  151.6091 N   0  0  0  0  0  0  0  0  0  0  0  0
  148.0846  127.6746  152.0227 C   0  0  0  0  0  0  0  0  0  0  0  0
  147.8074  127.1925  153.2420 N   0  0  0  0  0  0  0  0  0  0  0  0
  148.2173  125.8740  153.3829 N   0  0  0  0  0  0  0  0  0  0  0  0
  148.7919  125.3988  152.2714 C   0  0  0  0  0  0  0  0  0  0  0  0
  149.3222  124.0068  152.1814 C   0  0  0  0  0  0  0  0  0  0  0  0
  148.9003  123.0911  151.0552 C   0  0  0  0  0  0  0  0  0  0  0  0
  148.4465  122.8053  152.4637 C   0  0  0  0  0  0  0  0  0  0  0  0
  148.8709  126.5433  150.9357 S   0  0  0  0  0  0  0  0  0  0  0  0
  146.7937  130.9685  151.3762 N   0  0  0  0  0  0  0  0  0  0  0  0
  145.8028  132.0369  151.5257 C   0  0  1  0  0  0  0  0  0  0  0  0
  144.4193  131.4418  151.1761 C   0  0  0  0  0  0  0  0  0  0  0  0
  143.3772  132.4944  150.7594 C   0  0  0  0  0  0  0  0  0  0  0  0
  142.9789  133.4858  151.8633 C   0  0  0  0  0  0  0  0  0  0  0  0
  144.1442  134.3574  152.3617 C   0  0  0  0  0  0  0  0  0  0  0  0
  145.0215  133.6320  153.2712 N   0  0  0  0  0  0  0  0  0  0  0  0
  145.7768  132.5619  152.9805 C   0  0  0  0  0  0  0  0  0  0  0  0
  146.4324  132.0059  153.8614 O   0  0  0  0  0  0  0  0  0  0  0  0
  148.4585  129.4246  150.9937 H   0  0  0  0  0  0  0  0  0  0  0  0
  150.3594  123.9684  152.5086 H   0  0  0  0  0  0  0  0  0  0  0  0
  148.1552  123.4616  150.3538 H   0  0  0  0  0  0  0  0  0  0  0  0
  149.6589  122.4384  150.6284 H   0  0  0  0  0  0  0  0  0  0  0  0
  148.9028  121.9614  152.9769 H   0  0  0  0  0  0  0  0  0  0  0  0
  147.3956  122.9742  152.6898 H   0  0  0  0  0  0  0  0  0  0  0  0
  147.5849  131.1678  150.7822 H   0  0  0  0  0  0  0  0  0  0  0  0
  146.0485  132.8484  150.8383 H   0  0  0  0  0  0  0  0  0  0  0  0
  144.5302  130.7553  150.3349 H   0  0  0  0  0  0  0  0  0  0  0  0
  144.0351  130.8345  151.9978 H   0  0  0  0  0  0  0  0  0  0  0  0
  143.7464  133.0453  149.8934 H   0  0  0  0  0  0  0  0  0  0  0  0
  142.4791  131.9772  150.4199 H   0  0  0  0  0  0  0  0  0  0  0  0
  142.2040  134.1414  151.4649 H   0  0  0  0  0  0  0  0  0  0  0  0
  142.5201  132.9560  152.6993 H   0  0  0  0  0  0  0  0  0  0  0  0
  144.7135  134.7718  151.5283 H   0  0  0  0  0  0  0  0  0  0  0  0
  143.7444  135.2087  152.9130 H   0  0  0  0  0  0  0  0  0  0  0  0
  145.0362  133.9560  154.2275 H   0  0  0  0  0  0  0  0  0  0  0  0
  1  2  2  0  0  0  0
  2  3  1  0  0  0  0
  2 12  1  0  0  0  0
  3  4  1  0  0  0  0
  3 21  1  0  0  0  0
  4 11  1  0  0  0  0
  4  5  2  0  0  0  0
  5  6  1  0  0  0  0
  6  7  2  0  0  0  0
  7  8  1  0  0  0  0
  7 11  1  0  0  0  0
  8 10  1  0  0  0  0
  8  9  1  0  0  0  0
  8 22  1  0  0  0  0
  9 10  1  0  0  0  0
  9 23  1  0  0  0  0
  9 24  1  0  0  0  0
 10 25  1  0  0  0  0
 10 26  1  0  0  0  0
 12 13  1  0  0  0  0
 12 27  1  0  0  0  0
 13 19  1  0  0  0  0
 13 14  1  0  0  0  0
 13 28  1  0  0  0  0
 14 15  1  0  0  0  0
 14 29  1  0  0  0  0
 14 30  1  0  0  0  0
 15 16  1  0  0  0  0
 15 31  1  0  0  0  0
 15 32  1  0  0  0  0
 16 17  1  0  0  0  0
 16 33  1  0  0  0  0
 16 34  1  0  0  0  0
 17 18  1  0  0  0  0
 17 35  1  0  0  0  0
 17 36  1  0  0  0  0
 18 19  1  0  0  0  0
 18 37  1  0  0  0  0
 19 20  2  0  0  0  0
M  END
> <s_m_source_file>
AV-unprocessed.smi

> <i_m_source_file_index>
1997

> <i_lp_mmshare_version>
43012

> <i_f3d_flags>
0

> <s_epik_input>
W0NIMl0xW0NIMl1bQ0hdMWMoczIpbm5jMltOSF1DKD1PKVtOSF1bQ0BASF0zW0NIMl1bQ0gyXVtDSDJdW0NIMl1bTkhdQzM9Tw==

> <s_epik_cmdline>
J2VwaWtfcHl0aG9uJywgJy1waCcsICc3LjAnLCAnLXRuJywgJzgnLCAnLW1hJywgJzIwMCcsICctbWV0YWxfYmluZGluZycsICctaW1hZScsICc8aW5maWxlLm1hZT4nLCAnLW9tYWUnLCAnPG91dGZpbGUubWFlPic=

> <r_lp_tautomer_probability>
1

> <r_epik_Ionization_Penalty>
0.000421558

> <r_epik_Ionization_Penalty_Charging>
0

> <r_epik_Ionization_Penalty_Neutral>
0.000421558

> <r_epik_State_Penalty>
-0

> <r_epik_Charging_Adjusted_Penalty>
0

> <i_epik_Tot_Q>
0

> <i_epik_Tot_abs_Q>
0

> <r_epik_Metal_State_Penalty>
0.200761

> <b_epik_Metal_Only>
0

> <s_lp_Force_Field>
OPLS_2005

> <r_lp_Energy>
8.5849

> <b_lp_Chiralities_Consistent>
1

> <s_lp_Variant>
AV-unprocessed.smi:1997-2

> <Gold.Version>
5.8.1

> <Gold.Id.Protein>
6NUR|6NUR_protein|mol2

> <Gold.PLP.Fitness>
39.5784

> <Gold.PLP.PLP>
-34.6986

> <Gold.PLP.part.hbond>
-3.6729

> <Gold.PLP.part.metal>
0.0000

> <Gold.PLP.part.buried>
-2.8454

> <Gold.PLP.part.nonpolar>
-27.9565

> <Gold.PLP.part.repulsive>
0.4751

> <Gold.PLP.ligand.clash>
0.0000

> <Gold.PLP.ligand.torsion>
0.3674

> <Gold.PLP.Chemscore.Hbond>
1.8296

> <Gold.PLP.Chemscore.CHOScore>
0.0000

> <Gold.PLP.Chemscore.Metal>
0.0000

> <Gold.Chemscore.Hbonds>
donor molecule, donor type, donor heavy atom, donor atom, acceptor molecule, acceptor atom, score
      L1  H     3    21       P1 10747  0.72
      L1  H    12    27       P1 10747  0.96

> <Gold.PLP.Chemscore.Internal.Correction>
0.1258

> <Gold.Rescore>
     Score         DG    S(hbond)    S(metal)    S(lipo)     H(rot)  DE(clash)    DE(int)     intcor
     11.79     -14.00       1.50        0.00      58.12       1.29       0.06       2.15       ----

> <Gold.Chemscore.Fitness>
11.7947

> <Gold.Chemscore.DG>
-13.9996

> <Gold.Chemscore.ZeroCoef>
-5.4800

> <Gold.Chemscore.Hbond>
1.5007

> <Gold.Chemscore.Metal>
0.0000

> <Gold.Chemscore.Lipo>
58.1175

> <Gold.Chemscore.Internal_Hbond>
0.0000

> <Gold.Chemscore.DEClash>
0.0564

> <Gold.Chemscore.DEInternal>
2.1485

> <Gold.Chemscore.Rot>
1.2860

> <Gold.Chemscore.Internal.Correction>
   9.000000E+99

> <Gold.Chemscore.Hbonds>
donor molecule, donor type, donor heavy atom, donor atom, acceptor molecule, acceptor atom, score
      L1  H     3    21       P1 10747  0.09
      L1  H    12    27       P1 10747  0.86

> <Gold.Chemscore.Hbond.Weighted>
-5.0122

> <Gold.Chemscore.Metal.Weighted>
-0.0000

> <Gold.Chemscore.Lipo.Weighted>
-6.7997

> <Gold.Chemscore.Internal_Hbond.Weighted>
0.0000

> <Gold.Chemscore.DEClash.Weighted>
0.0564

> <Gold.Chemscore.DEInternal.Weighted>
2.1485

> <Gold.Chemscore.Rot.Weighted>
3.2923

> <Gold.Chemscore.Internal.Correction.Weighted>
   9.000000E+99

> <Gold.Protein.RotatedTorsions>
[ 6907 6896 6895 6894 ] final   78.02 input  -60.11 | X-H torsion
[ 7974 7965 7964 7962 ] final  163.69 input  175.53 | X-H torsion
[ 8008 7997 7996 7995 ] final    9.14 input   59.86 | X-H torsion
[ 10167 10162 10161 10158 ] final -158.15 input  -65.29 | X-H torsion
[ 10718 10713 10712 10709 ] final -107.45 input   66.30 | X-H torsion
[ 10763 10752 10751 10750 ] final  -45.95 input  -60.55 | X-H torsion
[ 11005 11000 10999 10996 ] final -164.82 input  -57.11 | X-H torsion

> <Gold.Protein.ActiveResidues>
 VAL166  LYS551  ARG553  GLY616  TRP617  ASP618  TYR619  PRO620  LYS621  CYS622 
 ASP623  PHE694  ASN695  SER759  ASP760  ASP761  ALA762  ILE779  LEU786  VAL792 
 PHE793  MET794  SER795  GLU796  ALA797  LYS798  CYS799  TRP800  GLU811  SER814 

> <Gold.Protein.RotatedAtoms>
  152.5142  134.3727  159.9323 H   0  0  0  0  0  0  0  0  0  0  0  0  # atno 6907 bound_to 6896
  151.3682  133.3858  159.2704 H   0  0  0  0  0  0  0  0  0  0  0  0  # atno 6908 bound_to 6896
  150.9598  134.9007  159.7782 H   0  0  0  0  0  0  0  0  0  0  0  0  # atno 6909 bound_to 6896
  144.7578  139.8218  143.6343 H   0  0  0  0  0  0  0  0  0  0  0  0  # atno 7974 bound_to 7965
  154.7761  140.2810  155.6100 H   0  0  0  0  0  0  0  0  0  0  0  0  # atno 8008 bound_to 7997
  156.2942  140.2632  156.2503 H   0  0  0  0  0  0  0  0  0  0  0  0  # atno 8009 bound_to 7997
  154.9840  140.0374  157.2280 H   0  0  0  0  0  0  0  0  0  0  0  0  # atno 8010 bound_to 7997
  139.6714  143.9738  152.2286 H   0  0  0  0  0  0  0  0  0  0  0  0  # atno 10167 bound_to 10162
  156.0437  130.5663  150.7823 H   0  0  0  0  0  0  0  0  0  0  0  0  # atno 10718 bound_to 10713
  154.0370  135.6649  153.4786 H   0  0  0  0  0  0  0  0  0  0  0  0  # atno 10763 bound_to 10752
  153.0517  135.5080  154.7879 H   0  0  0  0  0  0  0  0  0  0  0  0  # atno 10764 bound_to 10752
  154.6842  135.3050  154.9536 H   0  0  0  0  0  0  0  0  0  0  0  0  # atno 10765 bound_to 10752
  140.5826  134.5126  157.5181 H   0  0  0  0  0  0  0  0  0  0  0  0  # atno 11005 bound_to 11000
  146.1609  139.4723  142.9989 LP  0  0  0  0  0  0  0  0  0  0  0  0  # atno 17320 bound_to 7965
  145.6719  141.0214  143.1653 LP  0  0  0  0  0  0  0  0  0  0  0  0  # atno 17321 bound_to 7965
  139.9503  144.6624  150.8178 LP  0  0  0  0  0  0  0  0  0  0  0  0  # atno 17342 bound_to 10162
  140.7619  143.3186  151.2674 LP  0  0  0  0  0  0  0  0  0  0  0  0  # atno 17343 bound_to 10162
  157.5287  131.0935  150.9984 LP  0  0  0  0  0  0  0  0  0  0  0  0  # atno 17370 bound_to 10713
  157.0296  130.5706  149.5341 LP  0  0  0  0  0  0  0  0  0  0  0  0  # atno 17371 bound_to 10713
  139.9310  134.7963  156.0931 LP  0  0  0  0  0  0  0  0  0  0  0  0  # atno 17394 bound_to 11000
  141.0986  133.6686  156.2703 LP  0  0  0  0  0  0  0  0  0  0  0  0  # atno 17395 bound_to 11000

$$$$
