#       Name:                AV-unprocessed.smi:287
#       Creating user name   scv26
#       Creation time:       Thu Mar 26 22:01:24 2020


#       File generated by GOLD software.
#

@<TRIPOS>MOLECULE
AV-unprocessed.smi:287
    70    73     1
SMALL
NO_CHARGES


@<TRIPOS>ATOM
      1 ****        -1.8784   3.7619  -4.1880 C.3            1 S1                 0.0000
      2 ****        -2.3478   3.6711  -2.7766 C.2            1 S1                 0.0000
      3 ****        -2.7831   2.6444  -1.9903 C.2            1 S1                 0.0000
      4 ****        -3.0819   3.1890  -0.7053 C.2            1 S1                 0.0000
      5 ****        -3.6031   2.4232   0.5034 C.3            1 S1                 0.0000
      6 ****        -5.1276   2.2595   0.3938 C.3            1 S1                 0.0000
      7 ****        -3.3832   3.1129   1.7189 O.3            1 S1                 0.0000
      8 ****        -2.9301   1.0417   0.6783 C.3            1 S1                 0.0000
      9 ****        -1.4818   1.0888   0.5057 N.pl3          1 S1                 0.0000
     10 ****        -0.7449  -0.0338   0.6340 C.ar           1 S1                 0.0000
     11 ****        -1.3187  -1.2119   0.9926 N.ar           1 S1                 0.0000
     12 ****        -0.5653  -2.3082   1.1199 C.ar           1 S1                 0.0000
     13 ****         0.7500  -2.4419   0.9383 N.ar           1 S1                 0.0000
     14 ****         1.3302  -1.2619   0.5729 C.ar           1 S1                 0.0000
     15 ****         0.6543  -0.0219   0.4014 C.ar           1 S1                 0.0000
     16 ****         1.5605   0.9621   0.0290 N.2            1 S1                 0.0000
     17 ****         2.7056   0.3356  -0.0138 C.2            1 S1                 0.0000
     18 ****         2.6584  -1.0050   0.2984 N.pl3          1 S1                 0.0000
     19 ****         3.7977  -1.9699   0.3361 C.3            1 S1                 0.0000
     20 ****         3.6629  -2.7576   1.4751 O.3            1 S1                 0.0000
     21 ****         4.1443  -4.0629   1.1917 C.3            1 S1                 0.0000
     22 ****         3.6202  -5.0793   2.2213 C.3            1 S1                 0.0000
     23 ****         4.4270  -5.0549   3.3793 O.3            1 S1                 0.0000
     24 ****         3.6997  -4.2941  -0.2614 C.3            1 S1                 0.0000
     25 ****         2.3773  -4.7938  -0.3318 O.3            1 S1                 0.0000
     26 ****         3.7808  -2.9029  -0.8879 C.3            1 S1                 0.0000
     27 ****         4.9814  -2.7902  -1.6263 O.3            1 S1                 0.0000
     28 ****        -2.8211   4.5326  -0.8256 C.2            1 S1                 0.0000
     29 ****        -2.9346   5.6960   0.1036 C.3            1 S1                 0.0000
     30 ****        -2.3688   4.8320  -2.0752 O.3            1 S1                 0.0000
     31 ****         4.6927  -1.3495   0.4045 H              1 S1                 0.0000
     32 ****         5.2358  -4.0372   1.2114 H              1 S1                 0.0000
     33 ****         4.3458  -5.0174  -0.7611 H              1 S1                 0.0000
     34 ****         2.9339  -2.6881  -1.5424 H              1 S1                 0.0000
     35 ****        -1.8951   2.7831  -4.6675 H              1 S1                 0.0000
     36 ****        -0.8577   4.1421  -4.2318 H              1 S1                 0.0000
     37 ****        -2.5153   4.4323  -4.7652 H              1 S1                 0.0000
     38 ****        -2.8693   1.6131  -2.2991 H              1 S1                 0.0000
     39 ****        -5.4007   1.7061  -0.5054 H              1 S1                 0.0000
     40 ****        -5.6281   3.2279   0.3473 H              1 S1                 0.0000
     41 ****        -5.5351   1.7175   1.2481 H              1 S1                 0.0000
     42 ****        -3.7133   2.5829   2.4280 H              1 S1                 0.0000
     43 ****        -3.1869   0.6076   1.6459 H              1 S1                 0.0000
     44 ****        -3.3188   0.3611  -0.0809 H              1 S1                 0.0000
     45 ****        -1.0950   1.9841   0.2418 H              1 S1                 0.0000
     46 ****        -1.0903  -3.2063   1.4091 H              1 S1                 0.0000
     47 ****         3.6241   0.8391  -0.2779 H              1 S1                 0.0000
     48 ****         2.5796  -4.8812   2.4809 H              1 S1                 0.0000
     49 ****         3.6697  -6.0890   1.8132 H              1 S1                 0.0000
     50 ****         4.0809  -5.6779   4.0000 H              1 S1                 0.0000
     51 ****         2.3489  -5.6354   0.0966 H              1 S1                 0.0000
     52 ****         5.7071  -2.9733  -1.0493 H              1 S1                 0.0000
     53 ****        -3.9274   5.7367   0.5519 H              1 S1                 0.0000
     54 ****        -2.7647   6.6376  -0.4189 H              1 S1                 0.0000
     55 ****        -2.2026   5.6208   0.9075 H              1 S1                 0.0000
     56 ****        -3.8637   3.9897   1.7010 LP             1 S1                 0.0000
     57 ****        -2.4039   3.2720   1.8442 LP             1 S1                 0.0000
     58 ****        -2.3033  -1.2585   1.1611 LP             1 S1                 0.0000
     59 ****         1.2489  -3.3006   1.0555 LP             1 S1                 0.0000
     60 ****         1.3786   1.9267  -0.1620 LP             1 S1                 0.0000
     61 ****         2.6993  -2.8050   1.7383 LP             1 S1                 0.0000
     62 ****         4.1935  -2.3593   2.2234 LP             1 S1                 0.0000
     63 ****         4.4151  -4.1384   3.7793 LP             1 S1                 0.0000
     64 ****         5.3662  -5.3024   3.1412 LP             1 S1                 0.0000
     65 ****         2.1058  -4.8939  -1.2890 LP             1 S1                 0.0000
     66 ****         1.7535  -4.1611   0.1272 LP             1 S1                 0.0000
     67 ****         5.0668  -1.8633  -1.9918 LP             1 S1                 0.0000
     68 ****         4.9763  -3.4467  -2.3805 LP             1 S1                 0.0000
     69 ****        -2.9823   5.4881  -2.5147 LP             1 S1                 0.0000
     70 ****        -1.4482   5.2193  -2.0238 LP             1 S1                 0.0000
@<TRIPOS>BOND
    1    1    2 1     
    2    1   35 1     
    3    1   36 1     
    4    1   37 1     
    5    2   30 1     
    6    2    3 2     
    7    3    4 1     
    8    3   38 1     
    9    4    5 1     
   10    4   28 2     
   11    5    6 1     
   12    5    7 1     
   13    5    8 1     
   14    6   39 1     
   15    6   40 1     
   16    6   41 1     
   17    7   42 1     
   18    8    9 1     
   19    8   43 1     
   20    8   44 1     
   21    9   10 1     
   22    9   45 1     
   23   10   15 ar    
   24   10   11 ar    
   25   11   12 ar    
   26   12   13 ar    
   27   12   46 1     
   28   13   14 ar    
   29   14   18 1     
   30   14   15 ar    
   31   15   16 1     
   32   16   17 2     
   33   17   18 1     
   34   17   47 1     
   35   18   19 1     
   36   19   31 1     
   37   19   26 1     
   38   19   20 1     
   39   20   21 1     
   40   21   32 1     
   41   21   22 1     
   42   21   24 1     
   43   22   23 1     
   44   22   48 1     
   45   22   49 1     
   46   23   50 1     
   47   24   33 1     
   48   24   25 1     
   49   24   26 1     
   50   25   51 1     
   51   26   34 1     
   52   26   27 1     
   53   27   52 1     
   54   28   29 1     
   55   28   30 1     
   56   29   53 1     
   57   29   54 1     
   58   29   55 1     
   59    7   56 1     
   60    7   57 1     
   61   11   58 1     
   62   13   59 1     
   63   16   60 1     
   64   20   61 1     
   65   20   62 1     
   66   23   63 1     
   67   23   64 1     
   68   25   65 1     
   69   25   66 1     
   70   27   67 1     
   71   27   68 1     
   72   30   69 1     
   73   30   70 1     
@<TRIPOS>SUBSTRUCTURE
      1 S1             1
@<TRIPOS>SET
LONE_PAIRS      STATIC     ATOMS    <user>   **** ""
15 56 57 58 59 60 61 62 63 64 65 66 67 68 69 70
DONOR_HYDROGENS      STATIC     ATOMS    <user>   **** ""
5 42 45 50 51 52
ATOM$BLUE        STATIC     ATOMS    COLORGROUP SYSTEM
15 56 57 58 59 60 61 62 63 64 65 66 67 68 69 70
ATOM$RED        STATIC     ATOMS    COLORGROUP SYSTEM
5 42 45 50 51 52
