#       Name:                AV-unprocessed.smi:2062
#       Creating user name   scv26
#       Creation time:       Fri Mar 27 11:08:40 2020


#       File generated by GOLD software.
#

@<TRIPOS>MOLECULE
AV-unprocessed.smi:2062
    48    49     1
SMALL
NO_CHARGES


@<TRIPOS>ATOM
      1 ****        -4.5256   1.2039  -0.5245 C.3            1 S1                 0.0000
      2 ****        -4.0703   1.3040   0.9418 C.3            1 S1                 0.0000
      3 ****        -3.1433   2.5048   1.1953 C.3            1 S1                 0.0000
      4 ****        -3.5387  -0.0298   1.5228 C.3            1 S1                 0.0000
      5 ****        -2.0968  -0.2834   1.4380 N.3            1 S1                 0.0000
      6 ****        -1.7318  -1.4404   2.2491 C.3            1 S1                 0.0000
      7 ****        -0.2254  -1.7395   2.1881 C.3            1 S1                 0.0000
      8 ****         0.1617  -1.9316   0.8327 O.3            1 S1                 0.0000
      9 ****        -0.1161  -0.7989   0.0131 C.3            1 S1                 0.0000
     10 ****         0.3532  -1.1044  -1.4196 C.3            1 S1                 0.0000
     11 ****         1.7978  -1.2985  -1.4854 N.am           1 S1                 0.0000
     12 ****         2.7045  -0.3115  -1.5235 C.2            1 S1                 0.0000
     13 ****         2.4069   0.8835  -1.5182 O.2            1 S1                 0.0000
     14 ****         3.9560  -0.8010  -1.5661 N.am           1 S1                 0.0000
     15 ****         5.1789  -0.0816  -1.6190 C.2            1 S1                 0.0000
     16 ****         5.2703   1.2536  -1.6237 N.2            1 S1                 0.0000
     17 ****         6.5968   1.6886  -1.6826 C.2            1 S1                 0.0000
     18 ****         7.5093   0.6638  -1.7215 C.2            1 S1                 0.0000
     19 ****         6.7343  -0.8976  -1.6855 S.3            1 S1                 0.0000
     20 ****        -1.6273  -0.4986   0.0714 C.3            1 S1                 0.0000
     21 ****        -3.6965   1.0689  -1.2157 H              1 S1                 0.0000
     22 ****        -5.0500   2.1107  -0.8270 H              1 S1                 0.0000
     23 ****        -5.2139   0.3703  -0.6649 H              1 S1                 0.0000
     24 ****        -4.9847   1.5107   1.4996 H              1 S1                 0.0000
     25 ****        -2.2120   2.4238   0.6346 H              1 S1                 0.0000
     26 ****        -2.8895   2.5869   2.2526 H              1 S1                 0.0000
     27 ****        -3.6237   3.4377   0.8992 H              1 S1                 0.0000
     28 ****        -3.8083  -0.0263   2.5800 H              1 S1                 0.0000
     29 ****        -4.0904  -0.8674   1.0933 H              1 S1                 0.0000
     30 ****        -2.0204  -1.2709   3.2870 H              1 S1                 0.0000
     31 ****        -2.2855  -2.3181   1.9114 H              1 S1                 0.0000
     32 ****         0.3510  -0.9246   2.6288 H              1 S1                 0.0000
     33 ****         0.0057  -2.6404   2.7563 H              1 S1                 0.0000
     34 ****         0.4316   0.0637   0.3977 H              1 S1                 0.0000
     35 ****        -0.1336  -2.0077  -1.7885 H              1 S1                 0.0000
     36 ****         0.0599  -0.2984  -2.0947 H              1 S1                 0.0000
     37 ****         2.1281  -2.2524  -1.4885 H              1 S1                 0.0000
     38 ****         4.0444  -1.8064  -1.5632 H              1 S1                 0.0000
     39 ****         6.8015   2.7491  -1.6933 H              1 S1                 0.0000
     40 ****         8.5859   0.7329  -1.7690 H              1 S1                 0.0000
     41 ****        -2.1837  -1.3172  -0.3879 H              1 S1                 0.0000
     42 ****        -1.8118   0.3885  -0.5296 H              1 S1                 0.0000
     43 ****        -1.6532   0.5431   1.7847 LP             1 S1                 0.0000
     44 ****        -0.3340  -2.7195   0.4674 LP             1 S1                 0.0000
     45 ****         1.1446  -2.1135   0.8038 LP             1 S1                 0.0000
     46 ****         1.4464   1.1594  -1.4841 LP             1 S1                 0.0000
     47 ****         3.1259   1.5780  -1.5480 LP             1 S1                 0.0000
     48 ****         4.4819   1.8678  -1.5891 LP             1 S1                 0.0000
@<TRIPOS>BOND
    1    1    2 1     
    2    1   21 1     
    3    1   22 1     
    4    1   23 1     
    5    2    3 1     
    6    2    4 1     
    7    2   24 1     
    8    3   25 1     
    9    3   26 1     
   10    3   27 1     
   11    4    5 1     
   12    4   28 1     
   13    4   29 1     
   14    5   20 1     
   15    5    6 1     
   16    6    7 1     
   17    6   30 1     
   18    6   31 1     
   19    7    8 1     
   20    7   32 1     
   21    7   33 1     
   22    8    9 1     
   23    9   10 1     
   24    9   20 1     
   25    9   34 1     
   26   10   11 1     
   27   10   35 1     
   28   10   36 1     
   29   11   12 am    
   30   11   37 1     
   31   12   13 2     
   32   12   14 am    
   33   14   15 1     
   34   14   38 1     
   35   15   19 1     
   36   15   16 2     
   37   16   17 1     
   38   17   18 2     
   39   17   39 1     
   40   18   19 1     
   41   18   40 1     
   42   20   41 1     
   43   20   42 1     
   44    5   43 1     
   45    8   44 1     
   46    8   45 1     
   47   13   46 1     
   48   13   47 1     
   49   16   48 1     
@<TRIPOS>SUBSTRUCTURE
      1 S1             1
@<TRIPOS>SET
LONE_PAIRS      STATIC     ATOMS    <user>   **** ""
6 43 44 45 46 47 48
DONOR_HYDROGENS      STATIC     ATOMS    <user>   **** ""
2 37 38
ATOM$BLUE        STATIC     ATOMS    COLORGROUP SYSTEM
6 43 44 45 46 47 48
ATOM$RED        STATIC     ATOMS    COLORGROUP SYSTEM
2 37 38
