#       Name:                AV-unprocessed.smi:2027
#       Creating user name   scv26
#       Creation time:       Fri Mar 27 10:47:55 2020


#       File generated by GOLD software.
#

@<TRIPOS>MOLECULE
AV-unprocessed.smi:2027
    54    56     1
SMALL
NO_CHARGES


@<TRIPOS>ATOM
      1 ****        -5.4143   2.3369  -2.2689 C.3            1 S1                 0.0000
      2 ****        -4.4011   1.8950  -1.2275 C.ar           1 S1                 0.0000
      3 ****        -4.8515   1.2018  -0.0815 C.ar           1 S1                 0.0000
      4 ****        -3.9417   0.7713   0.9088 C.ar           1 S1                 0.0000
      5 ****        -4.1584   0.0840   2.0908 N.2            1 S1                 0.0000
      6 ****        -2.9226  -0.0217   2.5701 C.2            1 S1                 0.0000
      7 ****        -1.9287   0.5163   1.8375 N.pl3          1 S1                 0.0000
      8 ****        -0.5122   0.5199   2.1561 C.3            1 S1                 0.0000
      9 ****         0.2021  -0.7637   1.6904 C.3            1 S1                 0.0000
     10 ****         0.0618  -0.9022   0.2885 O.3            1 S1                 0.0000
     11 ****         1.7031  -0.7389   2.0319 C.3            1 S1                 0.0000
     12 ****         2.3680  -2.0237   1.6861 N.4            1 S1                 1.0000
     13 ****         2.2435  -3.0370   2.7591 C.3            1 S1                 0.0000
     14 ****         3.7706  -1.8642   1.2279 C.3            1 S1                 0.0000
     15 ****         3.8284  -1.2074  -0.1259 C.2            1 S1                 0.0000
     16 ****         4.1947   0.1344  -0.4343 C.2            1 S1                 0.0000
     17 ****         4.1208   0.4038  -1.7268 N.2            1 S1                 0.0000
     18 ****         3.7185  -0.7541  -2.2895 N.pl3          1 S1                 0.0000
     19 ****         3.5271  -0.8231  -3.7224 C.3            1 S1                 0.0000
     20 ****         3.5385  -1.7449  -1.3488 C.2            1 S1                 0.0000
     21 ****        -2.5579   1.0577   0.7211 C.ar           1 S1                 0.0000
     22 ****        -2.0976   1.7481  -0.4143 C.ar           1 S1                 0.0000
     23 ****        -3.0198   2.1685  -1.3954 C.ar           1 S1                 0.0000
     24 ****        -2.5126   2.9087  -2.6204 C.3            1 S1                 0.0000
     25 ****        -6.4297   2.0700  -1.9747 H              1 S1                 0.0000
     26 ****        -5.2079   1.8616  -3.2281 H              1 S1                 0.0000
     27 ****        -5.3793   3.4184  -2.4024 H              1 S1                 0.0000
     28 ****        -5.9034   0.9925   0.0463 H              1 S1                 0.0000
     29 ****        -2.7275  -0.5207   3.5081 H              1 S1                 0.0000
     30 ****        -0.0558   1.4004   1.7016 H              1 S1                 0.0000
     31 ****        -0.4060   0.6386   3.2352 H              1 S1                 0.0000
     32 ****        -0.2746  -1.6222   2.1645 H              1 S1                 0.0000
     33 ****         0.3838  -0.1173  -0.1288 H              1 S1                 0.0000
     34 ****         2.1615   0.0951   1.5001 H              1 S1                 0.0000
     35 ****         1.8530  -0.5270   3.0916 H              1 S1                 0.0000
     36 ****         2.7970  -2.7334   3.6487 H              1 S1                 0.0000
     37 ****         2.6340  -3.9998   2.4275 H              1 S1                 0.0000
     38 ****         1.2015  -3.1877   3.0405 H              1 S1                 0.0000
     39 ****         4.3317  -1.2993   1.9739 H              1 S1                 0.0000
     40 ****         4.2446  -2.8453   1.1763 H              1 S1                 0.0000
     41 ****         4.5005   0.9192   0.2420 H              1 S1                 0.0000
     42 ****         3.4062  -1.8611  -4.0338 H              1 S1                 0.0000
     43 ****         4.3914  -0.3993  -4.2350 H              1 S1                 0.0000
     44 ****         2.6347  -0.2623  -4.0009 H              1 S1                 0.0000
     45 ****         3.2140  -2.7379  -1.6237 H              1 S1                 0.0000
     46 ****        -1.0433   1.9499  -0.5310 H              1 S1                 0.0000
     47 ****        -1.4298   3.0336  -2.5903 H              1 S1                 0.0000
     48 ****        -2.9619   3.9001  -2.6815 H              1 S1                 0.0000
     49 ****        -2.7607   2.3589  -3.5286 H              1 S1                 0.0000
     50 ****         1.8653  -2.3902   0.8899 H              1 S1                 0.0000
     51 ****        -5.0178  -0.2460   2.4813 LP             1 S1                 0.0000
     52 ****        -0.9024  -1.0338   0.0586 LP             1 S1                 0.0000
     53 ****         0.5901  -1.6910  -0.0259 LP             1 S1                 0.0000
     54 ****         4.3187   1.2708  -2.1841 LP             1 S1                 0.0000
@<TRIPOS>BOND
    1    1    2 1     
    2    1   25 1     
    3    1   26 1     
    4    1   27 1     
    5    2   23 ar    
    6    2    3 ar    
    7    3    4 ar    
    8    3   28 1     
    9    4   21 ar    
   10    4    5 1     
   11    5    6 2     
   12    6    7 1     
   13    6   29 1     
   14    7    8 1     
   15    7   21 1     
   16    8    9 1     
   17    8   30 1     
   18    8   31 1     
   19    9   10 1     
   20    9   11 1     
   21    9   32 1     
   22   10   33 1     
   23   11   12 1     
   24   11   34 1     
   25   11   35 1     
   26   12   13 1     
   27   12   14 1     
   28   12   50 1     
   29   13   36 1     
   30   13   37 1     
   31   13   38 1     
   32   14   15 1     
   33   14   39 1     
   34   14   40 1     
   35   15   20 2     
   36   15   16 1     
   37   16   17 2     
   38   16   41 1     
   39   17   18 1     
   40   18   19 1     
   41   18   20 1     
   42   19   42 1     
   43   19   43 1     
   44   19   44 1     
   45   20   45 1     
   46   21   22 ar    
   47   22   23 ar    
   48   22   46 1     
   49   23   24 1     
   50   24   47 1     
   51   24   48 1     
   52   24   49 1     
   53    5   51 1     
   54   10   52 1     
   55   10   53 1     
   56   17   54 1     
@<TRIPOS>SUBSTRUCTURE
      1 S1             1
@<TRIPOS>SET
LONE_PAIRS      STATIC     ATOMS    <user>   **** ""
4 51 52 53 54
DONOR_HYDROGENS      STATIC     ATOMS    <user>   **** ""
2 33 50
ATOM$BLUE        STATIC     ATOMS    COLORGROUP SYSTEM
4 51 52 53 54
ATOM$RED        STATIC     ATOMS    COLORGROUP SYSTEM
2 33 50
