AV-unprocessed.smi:2351|AV-procd|sdf|9375|dock7
  -GOLD-   2272013 03D 1   1.00000     0.00000
 Structure written by MMmdl.
 47 49  0  0  0  0  0  0  0  0  2 V2000
  149.8203  140.2723  157.5701 O   0  0  0  0  0  0  0  0  0  0  0  0
  150.1711  141.2367  156.8907 C   0  0  0  0  0  0  0  0  0  0  0  0
  151.1303  142.1185  157.2208 N   0  0  0  0  0  0  0  0  0  0  0  0
  151.9581  142.1472  158.3768 C   0  0  0  0  0  0  0  0  0  0  0  0
  152.3946  140.9947  159.0744 C   0  0  0  0  0  0  0  0  0  0  0  0
  153.2022  141.1636  160.2172 C   0  0  0  0  0  0  0  0  0  0  0  0
  153.5789  142.3701  160.6913 N   0  0  0  0  0  0  0  0  0  0  0  0
  153.1498  143.4666  160.0316 C   0  0  0  0  0  0  0  0  0  0  0  0
  152.3392  143.4091  158.8801 C   0  0  0  0  0  0  0  0  0  0  0  0
  151.9396  144.5500  158.2678 F   0  0  0  0  0  0  0  0  0  0  0  0
  149.6372  141.5269  155.6951 N   0  0  0  0  0  0  0  0  0  0  0  0
  148.6010  140.7447  155.0270 C   0  0  2  0  0  0  0  0  0  0  0  0
  149.2151  139.4777  154.4123 C   0  0  0  0  0  0  0  0  0  0  0  0
  148.1602  138.6696  153.6380 C   0  0  0  0  0  0  0  0  0  0  0  0
  147.5132  139.4966  152.5860 N   0  3  1  0  0  0  0  0  0  0  0  0
  146.5870  138.7122  151.7278 C   0  0  0  0  0  0  0  0  0  0  0  0
  145.9163  137.5588  152.4981 C   0  0  1  0  0  0  0  0  0  0  0  0
  144.5825  137.9408  153.1092 C   0  0  0  0  0  0  0  0  0  0  0  0
  143.9542  136.5791  153.3869 C   0  0  0  0  0  0  0  0  0  0  0  0
  144.4585  135.7089  152.3787 O   0  0  0  0  0  0  0  0  0  0  0  0
  145.5008  136.3528  151.6534 C   0  0  0  0  0  0  0  0  0  0  0  0
  146.8832  140.7141  153.1622 C   0  0  0  0  0  0  0  0  0  0  0  0
  147.9115  141.5669  153.9237 C   0  0  0  0  0  0  0  0  0  0  0  0
  151.3470  142.8176  156.5256 H   0  0  0  0  0  0  0  0  0  0  0  0
  152.1224  139.9963  158.7696 H   0  0  0  0  0  0  0  0  0  0  0  0
  153.5506  140.3036  160.7697 H   0  0  0  0  0  0  0  0  0  0  0  0
  153.4603  144.4193  160.4343 H   0  0  0  0  0  0  0  0  0  0  0  0
  149.9861  142.3372  155.2040 H   0  0  0  0  0  0  0  0  0  0  0  0
  147.8543  140.4389  155.7628 H   0  0  0  0  0  0  0  0  0  0  0  0
  150.0305  139.7476  153.7392 H   0  0  0  0  0  0  0  0  0  0  0  0
  149.6524  138.8561  155.1947 H   0  0  0  0  0  0  0  0  0  0  0  0
  148.6428  137.8043  153.1816 H   0  0  0  0  0  0  0  0  0  0  0  0
  147.4005  138.2875  154.3215 H   0  0  0  0  0  0  0  0  0  0  0  0
  145.7913  139.3655  151.3659 H   0  0  0  0  0  0  0  0  0  0  0  0
  147.0969  138.3501  150.8334 H   0  0  0  0  0  0  0  0  0  0  0  0
  146.5746  137.2227  153.3014 H   0  0  0  0  0  0  0  0  0  0  0  0
  144.6800  138.5519  154.0071 H   0  0  0  0  0  0  0  0  0  0  0  0
  143.9758  138.4900  152.3873 H   0  0  0  0  0  0  0  0  0  0  0  0
  144.2728  136.2034  154.3599 H   0  0  0  0  0  0  0  0  0  0  0  0
  142.8645  136.6135  153.3770 H   0  0  0  0  0  0  0  0  0  0  0  0
  145.0999  136.6726  150.6905 H   0  0  0  0  0  0  0  0  0  0  0  0
  146.3276  135.6673  151.4673 H   0  0  0  0  0  0  0  0  0  0  0  0
  146.4340  141.3168  152.3743 H   0  0  0  0  0  0  0  0  0  0  0  0
  146.0733  140.4225  153.8329 H   0  0  0  0  0  0  0  0  0  0  0  0
  147.4155  142.4373  154.3555 H   0  0  0  0  0  0  0  0  0  0  0  0
  148.6557  141.9503  153.2240 H   0  0  0  0  0  0  0  0  0  0  0  0
  148.2604  139.8089  151.9822 H   0  0  0  0  0  0  0  0  0  0  0  0
  1  2  2  0  0  0  0
  2  3  1  0  0  0  0
  2 11  1  0  0  0  0
  3  4  1  0  0  0  0
  3 24  1  0  0  0  0
  4  9  1  0  0  0  0
  4  5  2  0  0  0  0
  5  6  1  0  0  0  0
  5 25  1  0  0  0  0
  6  7  2  0  0  0  0
  6 26  1  0  0  0  0
  7  8  1  0  0  0  0
  8  9  2  0  0  0  0
  8 27  1  0  0  0  0
  9 10  1  0  0  0  0
 11 12  1  0  0  0  0
 11 28  1  0  0  0  0
 12 23  1  0  0  0  0
 12 13  1  0  0  0  0
 12 29  1  0  0  0  0
 13 14  1  0  0  0  0
 13 30  1  0  0  0  0
 13 31  1  0  0  0  0
 14 15  1  0  0  0  0
 14 32  1  0  0  0  0
 14 33  1  0  0  0  0
 15 16  1  0  0  0  0
 15 22  1  0  0  0  0
 15 47  1  0  0  0  0
 16 17  1  0  0  0  0
 16 34  1  0  0  0  0
 16 35  1  0  0  0  0
 17 21  1  0  0  0  0
 17 18  1  0  0  0  0
 17 36  1  0  0  0  0
 18 19  1  0  0  0  0
 18 37  1  0  0  0  0
 18 38  1  0  0  0  0
 19 20  1  0  0  0  0
 19 39  1  0  0  0  0
 19 40  1  0  0  0  0
 20 21  1  0  0  0  0
 21 41  1  0  0  0  0
 21 42  1  0  0  0  0
 22 23  1  0  0  0  0
 22 43  1  0  0  0  0
 22 44  1  0  0  0  0
 23 45  1  0  0  0  0
 23 46  1  0  0  0  0
M  CHG  1  15   1
M  END
> <s_m_source_file>
AV-unprocessed.smi

> <i_m_source_file_index>
2351

> <i_lp_mmshare_version>
43012

> <i_f3d_flags>
0

> <s_epik_input>
RmMxW2NIXW5bY0hdW2NIXWMxW05IXUMoPU8pW05IXVtDSF0yW0NIMl1bQ0gyXU4oW0NIMl1bQ0gyXTIpW0NIMl1bQ0BASF0zW0NIMl1bQ0gyXU9bQ0gyXTM=

> <s_epik_cmdline>
J2VwaWtfcHl0aG9uJywgJy1waCcsICc3LjAnLCAnLXRuJywgJzgnLCAnLW1hJywgJzIwMCcsICctbWV0YWxfYmluZGluZycsICctaW1hZScsICc8aW5maWxlLm1hZT4nLCAnLW9tYWUnLCAnPG91dGZpbGUubWFlPic=

> <r_epik_Ionization_Penalty>
0.0102464

> <r_epik_Ionization_Penalty_Charging>
0.00747775

> <r_epik_Ionization_Penalty_Neutral>
0.00276864

> <r_epik_State_Penalty>
0.00558817

> <r_epik_Charging_Adjusted_Penalty>
0.0130659

> <i_epik_Tot_Q>
1

> <i_epik_Tot_abs_Q>
1

> <r_epik_Metal_State_Penalty>
-0

> <b_epik_Metal_Only>
0

> <s_lp_Force_Field>
OPLS_2005

> <r_lp_Energy>
39.8259

> <b_lp_Chiralities_Consistent>
1

> <s_lp_Variant>
AV-unprocessed.smi:2351-2

> <Gold.Version>
5.8.1

> <Gold.Id.Protein>
6NUR|6NUR_protein|mol2

> <Gold.PLP.Fitness>
42.1883

> <Gold.PLP.PLP>
-41.6359

> <Gold.PLP.part.hbond>
-1.2230

> <Gold.PLP.part.metal>
0.0000

> <Gold.PLP.part.buried>
-1.7913

> <Gold.PLP.part.nonpolar>
-41.1185

> <Gold.PLP.part.repulsive>
0.3354

> <Gold.PLP.ligand.clash>
0.0000

> <Gold.PLP.ligand.torsion>
1.2363

> <Gold.PLP.Chemscore.Hbond>
1.0000

> <Gold.PLP.Chemscore.CHOScore>
0.0000

> <Gold.PLP.Chemscore.Metal>
0.0000

> <Gold.Chemscore.Hbonds>
donor molecule, donor type, donor heavy atom, donor atom, acceptor molecule, acceptor atom, score
      L1  H    15    47       P1  7957  1.00

> <Gold.PLP.Chemscore.Internal.Correction>
0.0249

> <Gold.Rescore>
     Score         DG    S(hbond)    S(metal)    S(lipo)     H(rot)  DE(clash)    DE(int)     intcor
     17.49     -18.94       1.08        0.00     115.90       1.45       0.46       0.99       ----

> <Gold.Chemscore.Fitness>
17.4905

> <Gold.Chemscore.DG>
-18.9388

> <Gold.Chemscore.ZeroCoef>
-5.4800

> <Gold.Chemscore.Hbond>
1.0798

> <Gold.Chemscore.Metal>
0.0000

> <Gold.Chemscore.Lipo>
115.8983

> <Gold.Chemscore.Internal_Hbond>
0.0000

> <Gold.Chemscore.DEClash>
0.4552

> <Gold.Chemscore.DEInternal>
0.9931

> <Gold.Chemscore.Rot>
1.4483

> <Gold.Chemscore.Internal.Correction>
   9.000000E+99

> <Gold.Chemscore.Hbonds>
donor molecule, donor type, donor heavy atom, donor atom, acceptor molecule, acceptor atom, score
      L1  H    15    47       P1  7957  0.97

> <Gold.Chemscore.Hbond.Weighted>
-3.6064

> <Gold.Chemscore.Metal.Weighted>
-0.0000

> <Gold.Chemscore.Lipo.Weighted>
-13.5601

> <Gold.Chemscore.Internal_Hbond.Weighted>
0.0000

> <Gold.Chemscore.DEClash.Weighted>
0.4552

> <Gold.Chemscore.DEInternal.Weighted>
0.9931

> <Gold.Chemscore.Rot.Weighted>
3.7077

> <Gold.Chemscore.Internal.Correction.Weighted>
   9.000000E+99

> <Gold.Protein.RotatedTorsions>
[ 6907 6896 6895 6894 ] final   45.01 input  -60.11 | X-H torsion
[ 7974 7965 7964 7962 ] final  118.38 input  175.53 | X-H torsion
[ 8008 7997 7996 7995 ] final  142.20 input   59.86 | X-H torsion
[ 10167 10162 10161 10158 ] final   82.61 input  -65.29 | X-H torsion
[ 10718 10713 10712 10709 ] final  120.65 input   66.30 | X-H torsion
[ 10763 10752 10751 10750 ] final  173.46 input  -60.55 | X-H torsion
[ 11005 11000 10999 10996 ] final  153.73 input  -57.11 | X-H torsion

> <Gold.Protein.ActiveResidues>
 VAL166  LYS551  ARG553  GLY616  TRP617  ASP618  TYR619  PRO620  LYS621  CYS622 
 ASP623  PHE694  ASN695  SER759  ASP760  ASP761  ALA762  ILE779  LEU786  VAL792 
 PHE793  MET794  SER795  GLU796  ALA797  LYS798  CYS799  TRP800  GLU811  SER814 

> <Gold.Protein.RotatedAtoms>
  152.2394  134.8244  160.0462 H   0  0  0  0  0  0  0  0  0  0  0  0  # atno 6907 bound_to 6896
  151.8964  133.3522  159.3824 H   0  0  0  0  0  0  0  0  0  0  0  0  # atno 6908 bound_to 6896
  150.7049  134.4798  159.5509 H   0  0  0  0  0  0  0  0  0  0  0  0  # atno 6909 bound_to 6896
  145.1559  139.3183  143.4542 H   0  0  0  0  0  0  0  0  0  0  0  0  # atno 7974 bound_to 7965
  156.2953  140.2295  156.4689 H   0  0  0  0  0  0  0  0  0  0  0  0  # atno 8008 bound_to 7997
  154.7952  140.0452  157.1252 H   0  0  0  0  0  0  0  0  0  0  0  0  # atno 8009 bound_to 7997
  154.9598  140.3053  155.5040 H   0  0  0  0  0  0  0  0  0  0  0  0  # atno 8010 bound_to 7997
  139.9270  144.6176  150.8382 H   0  0  0  0  0  0  0  0  0  0  0  0  # atno 10167 bound_to 10162
  157.5876  131.1068  150.8064 H   0  0  0  0  0  0  0  0  0  0  0  0  # atno 10718 bound_to 10713
  154.4404  135.2762  155.1852 H   0  0  0  0  0  0  0  0  0  0  0  0  # atno 10763 bound_to 10752
  154.3721  135.6106  153.5749 H   0  0  0  0  0  0  0  0  0  0  0  0  # atno 10764 bound_to 10752
  152.9840  135.5860  154.4730 H   0  0  0  0  0  0  0  0  0  0  0  0  # atno 10765 bound_to 10752
  140.1424  134.8730  157.2349 H   0  0  0  0  0  0  0  0  0  0  0  0  # atno 11005 bound_to 11000
  146.3489  140.1651  142.8590 LP  0  0  0  0  0  0  0  0  0  0  0  0  # atno 17320 bound_to 7965
  145.0382  140.8924  143.5068 LP  0  0  0  0  0  0  0  0  0  0  0  0  # atno 17321 bound_to 7965
  140.7647  143.3257  151.2522 LP  0  0  0  0  0  0  0  0  0  0  0  0  # atno 17342 bound_to 10162
  139.6814  143.9849  152.2810 LP  0  0  0  0  0  0  0  0  0  0  0  0  # atno 17343 bound_to 10162
  156.8494  130.5075  149.5313 LP  0  0  0  0  0  0  0  0  0  0  0  0  # atno 17370 bound_to 10713
  156.0926  130.5908  150.9759 LP  0  0  0  0  0  0  0  0  0  0  0  0  # atno 17371 bound_to 10713
  140.2705  134.3466  155.7375 LP  0  0  0  0  0  0  0  0  0  0  0  0  # atno 17394 bound_to 11000
  141.2188  133.7420  156.9215 LP  0  0  0  0  0  0  0  0  0  0  0  0  # atno 17395 bound_to 11000

$$$$
