AV-unprocessed.smi:2104|AV-procd|sdf|8588|dock10
  -GOLD-   2272011323D 1   1.00000     0.00000
 Structure written by MMmdl.
 42 43  0  0  0  0  0  0  0  0  2 V2000
  149.0565  140.9118  154.5131 C   0  0  0  0  0  0  0  0  0  0  0  0
  149.9815  139.7549  154.6777 C   0  0  0  0  0  0  0  0  0  0  0  0
  149.7859  138.4032  154.6740 C   0  0  0  0  0  0  0  0  0  0  0  0
  151.0924  137.8856  154.8893 C   0  0  0  0  0  0  0  0  0  0  0  0
  151.4232  136.5869  154.9526 N   0  5  0  0  0  0  0  0  0  0  0  0
  150.5091  135.6699  155.3445 C   0  0  0  0  0  0  0  0  0  0  0  0
  150.4717  135.0943  156.4345 O   0  0  0  0  0  0  0  0  0  0  0  0
  149.5713  135.4162  154.4208 N   0  0  0  0  0  0  0  0  0  0  0  0
  148.4137  134.5421  154.5868 C   0  0  0  0  0  0  0  0  0  0  0  0
  148.5801  133.2309  153.8037 C   0  0  0  0  0  0  0  0  0  0  0  0
  147.5290  133.1316  152.8534 O   0  0  0  0  0  0  0  0  0  0  0  0
  146.2652  132.7725  153.3986 C   0  0  1  0  0  0  0  0  0  0  0  0
  145.1275  133.4076  152.5669 C   0  0  0  0  0  0  0  0  0  0  0  0
  145.0984  132.8600  151.1306 C   0  0  0  0  0  0  0  0  0  0  0  0
  144.9924  131.3279  151.1222 C   0  0  0  0  0  0  0  0  0  0  0  0
  146.1181  130.6849  151.9482 C   0  0  0  0  0  0  0  0  0  0  0  0
  146.1478  131.2318  153.3902 C   0  0  1  0  0  0  0  0  0  0  0  0
  147.2464  130.5646  154.2326 C   0  0  0  0  0  0  0  0  0  0  0  0
  152.0030  138.8384  154.9970 N   0  0  0  0  0  0  0  0  0  0  0  0
  151.2976  140.0411  154.8678 O   0  0  0  0  0  0  0  0  0  0  0  0
  148.1281  140.7448  155.0592 H   0  0  0  0  0  0  0  0  0  0  0  0
  148.8097  141.0599  153.4620 H   0  0  0  0  0  0  0  0  0  0  0  0
  149.5072  141.8312  154.8876 H   0  0  0  0  0  0  0  0  0  0  0  0
  148.8578  137.8677  154.5428 H   0  0  0  0  0  0  0  0  0  0  0  0
  149.6439  135.9103  153.5437 H   0  0  0  0  0  0  0  0  0  0  0  0
  148.2986  134.3268  155.6492 H   0  0  0  0  0  0  0  0  0  0  0  0
  147.5077  135.0617  154.2717 H   0  0  0  0  0  0  0  0  0  0  0  0
  149.5380  133.2169  153.2827 H   0  0  0  0  0  0  0  0  0  0  0  0
  148.5852  132.3866  154.4925 H   0  0  0  0  0  0  0  0  0  0  0  0
  146.2020  133.1197  154.4317 H   0  0  0  0  0  0  0  0  0  0  0  0
  144.1721  133.1971  153.0485 H   0  0  0  0  0  0  0  0  0  0  0  0
  145.2150  134.4933  152.5423 H   0  0  0  0  0  0  0  0  0  0  0  0
  144.2609  133.2942  150.5843 H   0  0  0  0  0  0  0  0  0  0  0  0
  146.0011  133.1681  150.6017 H   0  0  0  0  0  0  0  0  0  0  0  0
  144.0253  131.0272  151.5266 H   0  0  0  0  0  0  0  0  0  0  0  0
  145.0269  130.9595  150.0966 H   0  0  0  0  0  0  0  0  0  0  0  0
  145.9848  129.6028  151.9627 H   0  0  0  0  0  0  0  0  0  0  0  0
  147.0770  130.8694  151.4619 H   0  0  0  0  0  0  0  0  0  0  0  0
  145.1945  130.9761  153.8552 H   0  0  0  0  0  0  0  0  0  0  0  0
  148.2373  130.7542  153.8186 H   0  0  0  0  0  0  0  0  0  0  0  0
  147.1061  129.4842  154.2734 H   0  0  0  0  0  0  0  0  0  0  0  0
  147.2364  130.9377  155.2569 H   0  0  0  0  0  0  0  0  0  0  0  0
  1  2  1  0  0  0  0
  1 21  1  0  0  0  0
  1 22  1  0  0  0  0
  1 23  1  0  0  0  0
  2 20  1  0  0  0  0
  2  3  2  0  0  0  0
  3  4  1  0  0  0  0
  3 24  1  0  0  0  0
  4  5  1  0  0  0  0
  4 19  2  0  0  0  0
  5  6  1  0  0  0  0
  6  7  2  0  0  0  0
  6  8  1  0  0  0  0
  8  9  1  0  0  0  0
  8 25  1  0  0  0  0
  9 10  1  0  0  0  0
  9 26  1  0  0  0  0
  9 27  1  0  0  0  0
 10 11  1  0  0  0  0
 10 28  1  0  0  0  0
 10 29  1  0  0  0  0
 11 12  1  0  0  0  0
 12 17  1  0  0  0  0
 12 13  1  0  0  0  0
 12 30  1  0  0  0  0
 13 14  1  0  0  0  0
 13 31  1  0  0  0  0
 13 32  1  0  0  0  0
 14 15  1  0  0  0  0
 14 33  1  0  0  0  0
 14 34  1  0  0  0  0
 15 16  1  0  0  0  0
 15 35  1  0  0  0  0
 15 36  1  0  0  0  0
 16 17  1  0  0  0  0
 16 37  1  0  0  0  0
 16 38  1  0  0  0  0
 17 18  1  0  0  0  0
 17 39  1  0  0  0  0
 18 40  1  0  0  0  0
 18 41  1  0  0  0  0
 18 42  1  0  0  0  0
 19 20  1  0  0  0  0
M  CHG  1   5  -1
M  END
> <s_m_source_file>
AV-unprocessed.smi

> <i_m_source_file_index>
2104

> <i_lp_mmshare_version>
43012

> <i_f3d_flags>
0

> <s_epik_input>
W0NIM11jMVtjSF1jKG5vMSlbTkhdQyg9TylbTkhdW0NIMl1bQ0gyXU9bQ0BASF0yW0NIMl1bQ0gyXVtDSDJdW0NIMl1bQ0BIXTJbQ0gzXQ==

> <s_epik_cmdline>
J2VwaWtfcHl0aG9uJywgJy1waCcsICc3LjAnLCAnLXRuJywgJzgnLCAnLW1hJywgJzIwMCcsICctbWV0YWxfYmluZGluZycsICctaW1hZScsICc8aW5maWxlLm1hZT4nLCAnLW9tYWUnLCAnPG91dGZpbGUubWFlPic=

> <r_lp_tautomer_probability>
1

> <r_epik_Ionization_Penalty>
6.47137

> <r_epik_Ionization_Penalty_Charging>
6.47125

> <r_epik_Ionization_Penalty_Neutral>
0.000118933

> <r_epik_State_Penalty>
6.47124

> <r_epik_Charging_Adjusted_Penalty>
12.9425

> <i_epik_Tot_Q>
-1

> <i_epik_Tot_abs_Q>
1

> <r_epik_Metal_State_Penalty>
2.3995

> <b_epik_Metal_Only>
1

> <s_lp_Force_Field>
OPLS_2005

> <r_lp_Energy>
3.93088

> <b_lp_Chiralities_Consistent>
1

> <s_lp_Variant>
AV-unprocessed.smi:2104-6

> <Gold.Version>
5.8.1

> <Gold.Id.Protein>
6NUR|6NUR_protein|mol2

> <Gold.PLP.Fitness>
41.5735

> <Gold.PLP.PLP>
-32.9591

> <Gold.PLP.part.hbond>
-3.0833

> <Gold.PLP.part.metal>
0.0000

> <Gold.PLP.part.buried>
-5.8761

> <Gold.PLP.part.nonpolar>
-24.3968

> <Gold.PLP.part.repulsive>
0.4569

> <Gold.PLP.ligand.clash>
0.0000

> <Gold.PLP.ligand.torsion>
1.7289

> <Gold.PLP.Chemscore.Hbond>
4.0000

> <Gold.PLP.Chemscore.CHOScore>
0.0000

> <Gold.PLP.Chemscore.Metal>
0.0000

> <Gold.Chemscore.Hbonds>
donor molecule, donor type, donor heavy atom, donor atom, acceptor molecule, acceptor atom, score
      L1  H     8    25       P1  7948  0.93
      P1  H  7989  7998       L1    20  1.00
      P1  H 10752 10765       L1     5  2.00

> <Gold.PLP.Chemscore.Internal.Correction>
0.0722

> <Gold.Rescore>
     Score         DG    S(hbond)    S(metal)    S(lipo)     H(rot)  DE(clash)    DE(int)     intcor
     13.72     -16.71       2.00        0.00      76.29       1.71       0.12       2.86       ----

> <Gold.Chemscore.Fitness>
13.7231

> <Gold.Chemscore.DG>
-16.7082

> <Gold.Chemscore.ZeroCoef>
-5.4800

> <Gold.Chemscore.Hbond>
2.0001

> <Gold.Chemscore.Metal>
0.0000

> <Gold.Chemscore.Lipo>
76.2919

> <Gold.Chemscore.Internal_Hbond>
0.0000

> <Gold.Chemscore.DEClash>
0.1212

> <Gold.Chemscore.DEInternal>
2.8639

> <Gold.Chemscore.Rot>
1.7103

> <Gold.Chemscore.Internal.Correction>
   9.000000E+99

> <Gold.Chemscore.Hbonds>
donor molecule, donor type, donor heavy atom, donor atom, acceptor molecule, acceptor atom, score
      L1  H     8    25       P1  7948  0.20
      P1  H  7989  7998       L1    20  0.26
      P1  H 10752 10765       L1     5  0.55

> <Gold.Chemscore.Hbond.Weighted>
-6.6804

> <Gold.Chemscore.Metal.Weighted>
-0.0000

> <Gold.Chemscore.Lipo.Weighted>
-8.9262

> <Gold.Chemscore.Internal_Hbond.Weighted>
0.0000

> <Gold.Chemscore.DEClash.Weighted>
0.1212

> <Gold.Chemscore.DEInternal.Weighted>
2.8639

> <Gold.Chemscore.Rot.Weighted>
4.3784

> <Gold.Chemscore.Internal.Correction.Weighted>
   9.000000E+99

> <Gold.Protein.RotatedTorsions>
[ 6907 6896 6895 6894 ] final  -94.86 input  -60.11 | X-H torsion
[ 7974 7965 7964 7962 ] final   53.24 input  175.53 | X-H torsion
[ 8008 7997 7996 7995 ] final  110.81 input   59.86 | X-H torsion
[ 10167 10162 10161 10158 ] final  -10.08 input  -65.29 | X-H torsion
[ 10718 10713 10712 10709 ] final  -88.70 input   66.30 | X-H torsion
[ 10763 10752 10751 10750 ] final  171.90 input  -60.55 | X-H torsion
[ 11005 11000 10999 10996 ] final  154.52 input  -57.11 | X-H torsion

> <Gold.Protein.ActiveResidues>
 VAL166  LYS551  ARG553  GLY616  TRP617  ASP618  TYR619  PRO620  LYS621  CYS622 
 ASP623  PHE694  ASN695  SER759  ASP760  ASP761  ALA762  ILE779  LEU786  VAL792 
 PHE793  MET794  SER795  GLU796  ALA797  LYS798  CYS799  TRP800  GLU811  SER814 

> <Gold.Protein.RotatedAtoms>
  150.6951  134.1746  159.4225 H   0  0  0  0  0  0  0  0  0  0  0  0  # atno 6907 bound_to 6896
  151.9723  135.0068  160.0562 H   0  0  0  0  0  0  0  0  0  0  0  0  # atno 6908 bound_to 6896
  152.1830  133.4685  159.5005 H   0  0  0  0  0  0  0  0  0  0  0  0  # atno 6909 bound_to 6896
  145.9732  139.4169  143.0177 H   0  0  0  0  0  0  0  0  0  0  0  0  # atno 7974 bound_to 7965
  156.2079  140.3031  155.9668 H   0  0  0  0  0  0  0  0  0  0  0  0  # atno 8008 bound_to 7997
  155.2795  140.0437  157.3031 H   0  0  0  0  0  0  0  0  0  0  0  0  # atno 8009 bound_to 7997
  154.5659  140.2334  155.8273 H   0  0  0  0  0  0  0  0  0  0  0  0  # atno 8010 bound_to 7997
  140.7104  143.5787  150.9015 H   0  0  0  0  0  0  0  0  0  0  0  0  # atno 10167 bound_to 10162
  155.9983  130.4845  150.5058 H   0  0  0  0  0  0  0  0  0  0  0  0  # atno 10718 bound_to 10713
  154.4185  135.2757  155.1991 H   0  0  0  0  0  0  0  0  0  0  0  0  # atno 10763 bound_to 10752
  154.3947  135.6058  153.5866 H   0  0  0  0  0  0  0  0  0  0  0  0  # atno 10764 bound_to 10752
  152.9832  135.5912  154.4477 H   0  0  0  0  0  0  0  0  0  0  0  0  # atno 10765 bound_to 10752
  140.1496  134.8683  157.2438 H   0  0  0  0  0  0  0  0  0  0  0  0  # atno 11005 bound_to 11000
  145.7876  140.9828  143.1066 LP  0  0  0  0  0  0  0  0  0  0  0  0  # atno 17320 bound_to 7965
  144.6842  139.9642  143.7481 LP  0  0  0  0  0  0  0  0  0  0  0  0  # atno 17321 bound_to 7965
  139.9513  143.6268  152.3028 LP  0  0  0  0  0  0  0  0  0  0  0  0  # atno 17342 bound_to 10162
  139.6788  144.7657  151.1646 LP  0  0  0  0  0  0  0  0  0  0  0  0  # atno 17343 bound_to 10162
  157.3037  131.0650  151.2050 LP  0  0  0  0  0  0  0  0  0  0  0  0  # atno 17370 bound_to 10713
  157.3020  130.6847  149.6169 LP  0  0  0  0  0  0  0  0  0  0  0  0  # atno 17371 bound_to 10713
  140.2620  134.3559  155.7403 LP  0  0  0  0  0  0  0  0  0  0  0  0  # atno 17394 bound_to 11000
  141.2197  133.7375  156.9095 LP  0  0  0  0  0  0  0  0  0  0  0  0  # atno 17395 bound_to 11000

$$$$
