AV-unprocessed.smi:99|AV-procd|sdf|869|dock9
  -GOLD-   2262017323D 1   1.00000     0.00000
 Structure written by MMmdl.
 53 56  0  0  0  0  0  0  0  0  1 V2000
  153.2699  140.0246  157.3969 O   0  0  0  0  0  0  0  0  0  0  0  0
  153.4045  140.5081  158.5230 C   0  0  0  0  0  0  0  0  0  0  0  0
  153.8106  139.7986  159.5944 O   0  0  0  0  0  0  0  0  0  0  0  0
  153.6240  138.3933  159.6242 C   0  0  0  0  0  0  0  0  0  0  0  0
  154.3163  137.8114  160.8667 C   0  0  2  0  0  0  0  0  0  0  0  0
  154.3595  138.8028  161.8860 O   0  0  0  0  0  0  0  0  0  0  0  0
  155.5270  139.5544  161.7732 C   0  0  1  0  0  0  0  0  0  0  0  0
  156.0077  139.8445  163.1816 N   0  0  0  0  0  0  0  0  0  0  0  0
  156.1851  138.8212  164.1060 C   0  0  0  0  0  0  0  0  0  0  0  0
  156.5279  139.0345  165.3982 C   0  0  0  0  0  0  0  0  0  0  0  0
  156.7057  140.3916  165.9010 C   0  0  0  0  0  0  0  0  0  0  0  0
  157.0298  140.6864  167.0495 O   0  0  0  0  0  0  0  0  0  0  0  0
  156.4643  141.3932  164.9572 N   0  0  0  0  0  0  0  0  0  0  0  0
  156.0965  141.1846  163.6266 C   0  0  0  0  0  0  0  0  0  0  0  0
  155.8729  142.1529  162.9010 O   0  0  0  0  0  0  0  0  0  0  0  0
  156.5410  138.7572  160.9281 C   0  0  2  0  0  0  0  0  0  0  0  0
  156.8712  139.4168  159.7218 O   0  0  0  0  0  0  0  0  0  0  0  0
  155.7867  137.4676  160.6071 C   0  0  1  0  0  0  0  0  0  0  0  0
  156.1730  136.4114  161.4780 O   0  0  0  0  0  0  0  0  0  0  0  0
  155.6662  135.1685  161.3325 C   0  0  0  0  0  0  0  0  0  0  0  0
  155.3126  134.6965  160.2504 O   0  0  0  0  0  0  0  0  0  0  0  0
  155.5904  134.4233  162.6215 C   0  0  0  0  0  0  0  0  0  0  0  0
  155.4298  135.1413  163.8295 C   0  0  0  0  0  0  0  0  0  0  0  0
  155.3518  134.4632  165.0616 C   0  0  0  0  0  0  0  0  0  0  0  0
  155.4325  133.0589  165.1006 C   0  0  0  0  0  0  0  0  0  0  0  0
  155.5906  132.3331  163.9057 C   0  0  0  0  0  0  0  0  0  0  0  0
  155.6691  133.0092  162.6726 C   0  0  0  0  0  0  0  0  0  0  0  0
  153.1340  141.9397  158.8416 C   0  0  0  0  0  0  0  0  0  0  0  0
  152.7420  142.8178  157.8043 C   0  0  0  0  0  0  0  0  0  0  0  0
  152.4793  144.1751  158.0741 C   0  0  0  0  0  0  0  0  0  0  0  0
  152.6051  144.6708  159.3847 C   0  0  0  0  0  0  0  0  0  0  0  0
  152.9950  143.8078  160.4254 C   0  0  0  0  0  0  0  0  0  0  0  0
  153.2583  142.4501  160.1575 C   0  0  0  0  0  0  0  0  0  0  0  0
  156.5504  142.3502  165.2679 H   0  0  0  0  0  0  0  0  0  0  0  0
  152.5542  138.1841  159.6669 H   0  0  0  0  0  0  0  0  0  0  0  0
  154.0105  137.9367  158.7121 H   0  0  0  0  0  0  0  0  0  0  0  0
  153.7637  136.9352  161.2095 H   0  0  0  0  0  0  0  0  0  0  0  0
  155.2937  140.5098  161.3010 H   0  0  0  0  0  0  0  0  0  0  0  0
  156.0388  137.7968  163.8041 H   0  0  0  0  0  0  0  0  0  0  0  0
  156.6624  138.1957  166.0662 H   0  0  0  0  0  0  0  0  0  0  0  0
  157.4734  138.5825  161.4648 H   0  0  0  0  0  0  0  0  0  0  0  0
  157.0991  140.3123  159.9192 H   0  0  0  0  0  0  0  0  0  0  0  0
  155.9293  137.1498  159.5726 H   0  0  0  0  0  0  0  0  0  0  0  0
  155.3655  136.2201  163.8246 H   0  0  0  0  0  0  0  0  0  0  0  0
  155.2303  135.0219  165.9778 H   0  0  0  0  0  0  0  0  0  0  0  0
  155.3730  132.5393  166.0456 H   0  0  0  0  0  0  0  0  0  0  0  0
  155.6514  131.2550  163.9342 H   0  0  0  0  0  0  0  0  0  0  0  0
  155.7886  132.4207  161.7744 H   0  0  0  0  0  0  0  0  0  0  0  0
  152.6379  142.4600  156.7900 H   0  0  0  0  0  0  0  0  0  0  0  0
  152.1804  144.8360  157.2739 H   0  0  0  0  0  0  0  0  0  0  0  0
  152.4024  145.7115  159.5913 H   0  0  0  0  0  0  0  0  0  0  0  0
  153.0921  144.1872  161.4320 H   0  0  0  0  0  0  0  0  0  0  0  0
  153.5553  141.8150  160.9792 H   0  0  0  0  0  0  0  0  0  0  0  0
  1  2  2  0  0  0  0
  2  3  1  0  0  0  0
  2 28  1  0  0  0  0
  3  4  1  0  0  0  0
  4  5  1  0  0  0  0
  4 35  1  0  0  0  0
  4 36  1  0  0  0  0
  5 18  1  0  0  0  0
  5  6  1  0  0  0  0
  5 37  1  0  0  0  0
  6  7  1  0  0  0  0
  7  8  1  0  0  0  0
  7 16  1  0  0  0  0
  7 38  1  0  0  0  0
  8 14  1  0  0  0  0
  8  9  1  0  0  0  0
  9 10  2  0  0  0  0
  9 39  1  0  0  0  0
 10 11  1  0  0  0  0
 10 40  1  0  0  0  0
 11 12  2  0  0  0  0
 11 13  1  0  0  0  0
 13 34  1  0  0  0  0
 13 14  1  0  0  0  0
 14 15  2  0  0  0  0
 16 17  1  0  0  0  0
 16 18  1  0  0  0  0
 16 41  1  0  0  0  0
 17 42  1  0  0  0  0
 18 19  1  0  0  0  0
 18 43  1  0  0  0  0
 19 20  1  0  0  0  0
 20 21  2  0  0  0  0
 20 22  1  0  0  0  0
 22 27  1  0  0  0  0
 22 23  2  0  0  0  0
 23 24  1  0  0  0  0
 23 44  1  0  0  0  0
 24 25  2  0  0  0  0
 24 45  1  0  0  0  0
 25 26  1  0  0  0  0
 25 46  1  0  0  0  0
 26 27  2  0  0  0  0
 26 47  1  0  0  0  0
 27 48  1  0  0  0  0
 28 33  1  0  0  0  0
 28 29  2  0  0  0  0
 29 30  1  0  0  0  0
 29 49  1  0  0  0  0
 30 31  2  0  0  0  0
 30 50  1  0  0  0  0
 31 32  1  0  0  0  0
 31 51  1  0  0  0  0
 32 33  2  0  0  0  0
 32 52  1  0  0  0  0
 33 53  1  0  0  0  0
M  END
> <s_m_source_file>
AV-unprocessed.smi

> <i_m_source_file_index>
99

> <i_lp_mmshare_version>
43012

> <i_f3d_flags>
0

> <s_epik_input>
W2NIXTFbY0hdW2NIXVtjSF1bY0hdYzFDKD1PKU9bQ0gyXVtDQEBIXTJPW0NAQEhdKG4zW2NIXVtjSF1jKD1PKVtuSF1jMz1PKVtDQEBIXShbT0hdKVtDQEhdMk9DKD1PKWM0W2NIXVtjSF1bY0hdW2NIXVtjSF00

> <s_epik_cmdline>
J2VwaWtfcHl0aG9uJywgJy1waCcsICc3LjAnLCAnLXRuJywgJzgnLCAnLW1hJywgJzIwMCcsICctbWV0YWxfYmluZGluZycsICctaW1hZScsICc8aW5maWxlLm1hZT4nLCAnLW9tYWUnLCAnPG91dGZpbGUubWFlPic=

> <r_lp_tautomer_probability>
1

> <r_epik_Ionization_Penalty>
0.00454555

> <r_epik_Ionization_Penalty_Charging>
0.0045191

> <r_epik_Ionization_Penalty_Neutral>
2.64449e-05

> <r_epik_State_Penalty>
-0

> <r_epik_Charging_Adjusted_Penalty>
0.0045191

> <i_epik_Tot_Q>
0

> <i_epik_Tot_abs_Q>
0

> <r_epik_Metal_State_Penalty>
1.27877

> <b_epik_Metal_Only>
0

> <s_epik_Chemistry_Notes>
This compound has an ester and may undergo hydrolysis at high or low pH. This compound contains an acetal/aminal-like group ( X-CH(R)-Y where X, Y are N, S, or O) that may be acid/base labile, releasing an aldehyde.

> <s_lp_Force_Field>
OPLS_2005

> <r_lp_Energy>
32.4523

> <b_lp_Chiralities_Consistent>
1

> <s_lp_Variant>
AV-unprocessed.smi:99-5

> <Gold.Version>
5.8.1

> <Gold.Id.Protein>
6NUR|6NUR_protein|mol2

> <Gold.PLP.Fitness>
56.5588

> <Gold.PLP.PLP>
-53.2735

> <Gold.PLP.part.hbond>
-3.6259

> <Gold.PLP.part.metal>
0.0000

> <Gold.PLP.part.buried>
-5.6858

> <Gold.PLP.part.nonpolar>
-43.6445

> <Gold.PLP.part.repulsive>
0.1075

> <Gold.PLP.ligand.clash>
0.0000

> <Gold.PLP.ligand.torsion>
1.5094

> <Gold.PLP.Chemscore.Hbond>
1.9920

> <Gold.PLP.Chemscore.CHOScore>
0.0000

> <Gold.PLP.Chemscore.Metal>
0.0000

> <Gold.Chemscore.Hbonds>
donor molecule, donor type, donor heavy atom, donor atom, acceptor molecule, acceptor atom, score
      P1  H  7997  8008       L1     1  0.47

> <Gold.PLP.Chemscore.Internal.Correction>
0.3281

> <Gold.Rescore>
     Score         DG    S(hbond)    S(metal)    S(lipo)     H(rot)  DE(clash)    DE(int)     intcor
     12.79     -17.83       1.88        0.00     121.62       3.19       1.53       3.50       ----

> <Gold.Chemscore.Fitness>
12.7943

> <Gold.Chemscore.DG>
-17.8328

> <Gold.Chemscore.ZeroCoef>
-5.4800

> <Gold.Chemscore.Hbond>
1.8833

> <Gold.Chemscore.Metal>
0.0000

> <Gold.Chemscore.Lipo>
121.6219

> <Gold.Chemscore.Internal_Hbond>
0.0000

> <Gold.Chemscore.DEClash>
1.5335

> <Gold.Chemscore.DEInternal>
3.5049

> <Gold.Chemscore.Rot>
3.1903

> <Gold.Chemscore.Internal.Correction>
   9.000000E+99

> <Gold.Chemscore.Hbonds>
donor molecule, donor type, donor heavy atom, donor atom, acceptor molecule, acceptor atom, score
      P1  H  7997  8008       L1     1  0.20

> <Gold.Chemscore.Hbond.Weighted>
-6.2901

> <Gold.Chemscore.Metal.Weighted>
-0.0000

> <Gold.Chemscore.Lipo.Weighted>
-14.2298

> <Gold.Chemscore.Internal_Hbond.Weighted>
0.0000

> <Gold.Chemscore.DEClash.Weighted>
1.5335

> <Gold.Chemscore.DEInternal.Weighted>
3.5049

> <Gold.Chemscore.Rot.Weighted>
8.1671

> <Gold.Chemscore.Internal.Correction.Weighted>
   9.000000E+99

> <Gold.Protein.RotatedTorsions>
[ 6907 6896 6895 6894 ] final -174.30 input  -60.11 | X-H torsion
[ 7974 7965 7964 7962 ] final  124.21 input  175.53 | X-H torsion
[ 8008 7997 7996 7995 ] final  -75.77 input   59.86 | X-H torsion
[ 10167 10162 10161 10158 ] final -125.43 input  -65.29 | X-H torsion
[ 10718 10713 10712 10709 ] final -171.04 input   66.30 | X-H torsion
[ 10763 10752 10751 10750 ] final   12.41 input  -60.55 | X-H torsion
[ 11005 11000 10999 10996 ] final   15.29 input  -57.11 | X-H torsion

> <Gold.Protein.ActiveResidues>
 VAL166  LYS551  ARG553  GLY616  TRP617  ASP618  TYR619  PRO620  LYS621  CYS622 
 ASP623  PHE694  ASN695  SER759  ASP760  ASP761  ALA762  ILE779  LEU786  VAL792 
 PHE793  MET794  SER795  GLU796  ALA797  LYS798  CYS799  TRP800  GLU811  SER814 

> <Gold.Protein.RotatedAtoms>
  151.5701  133.3391  159.2987 H   0  0  0  0  0  0  0  0  0  0  0  0  # atno 6907 bound_to 6896
  150.8372  134.7653  159.6914 H   0  0  0  0  0  0  0  0  0  0  0  0  # atno 6908 bound_to 6896
  152.4446  134.5527  159.9923 H   0  0  0  0  0  0  0  0  0  0  0  0  # atno 6909 bound_to 6896
  145.0871  139.3614  143.4880 H   0  0  0  0  0  0  0  0  0  0  0  0  # atno 7974 bound_to 7965
  154.5445  140.0738  156.8566 H   0  0  0  0  0  0  0  0  0  0  0  0  # atno 8008 bound_to 7997
  155.3114  140.3390  155.4225 H   0  0  0  0  0  0  0  0  0  0  0  0  # atno 8009 bound_to 7997
  156.1906  140.1684  156.8086 H   0  0  0  0  0  0  0  0  0  0  0  0  # atno 8010 bound_to 7997
  139.9822  143.5730  152.2374 H   0  0  0  0  0  0  0  0  0  0  0  0  # atno 10167 bound_to 10162
  156.7351  130.9321  151.3107 H   0  0  0  0  0  0  0  0  0  0  0  0  # atno 10718 bound_to 10713
  153.1825  135.6830  153.8458 H   0  0  0  0  0  0  0  0  0  0  0  0  # atno 10763 bound_to 10752
  153.7785  135.3186  155.3363 H   0  0  0  0  0  0  0  0  0  0  0  0  # atno 10764 bound_to 10752
  154.8069  135.4743  154.0510 H   0  0  0  0  0  0  0  0  0  0  0  0  # atno 10765 bound_to 10752
  140.4600  134.1137  155.7715 H   0  0  0  0  0  0  0  0  0  0  0  0  # atno 11005 bound_to 11000
  146.3531  140.0688  142.8624 LP  0  0  0  0  0  0  0  0  0  0  0  0  # atno 17320 bound_to 7965
  145.1110  140.9405  143.4656 LP  0  0  0  0  0  0  0  0  0  0  0  0  # atno 17321 bound_to 7965
  139.6402  144.7654  151.2356 LP  0  0  0  0  0  0  0  0  0  0  0  0  # atno 17342 bound_to 10162
  140.7485  143.6331  150.8405 LP  0  0  0  0  0  0  0  0  0  0  0  0  # atno 17343 bound_to 10162
  157.6842  130.9170  150.0345 LP  0  0  0  0  0  0  0  0  0  0  0  0  # atno 17370 bound_to 10713
  156.1503  130.3642  149.9449 LP  0  0  0  0  0  0  0  0  0  0  0  0  # atno 17371 bound_to 10713
  141.1625  133.8765  157.1807 LP  0  0  0  0  0  0  0  0  0  0  0  0  # atno 17394 bound_to 11000
  139.9951  135.0050  157.0065 LP  0  0  0  0  0  0  0  0  0  0  0  0  # atno 17395 bound_to 11000

$$$$
