AV-unprocessed.smi:1525|AV-procd|sdf|6142|dock1
  -GOLD-   22720 6283D 1   1.00000     0.00000
 Structure written by MMmdl.
 49 51  0  0  0  0  0  0  0  0  2 V2000
  145.1832  138.1892  152.8044 O   0  0  0  0  0  0  0  0  0  0  0  0
  146.2771  137.6798  152.5614 C   0  0  0  0  0  0  0  0  0  0  0  0
  146.4181  136.4975  151.9479 N   0  0  0  0  0  0  0  0  0  0  0  0
  145.3059  135.6765  151.4894 C   0  0  0  0  0  0  0  0  0  0  0  0
  145.4237  134.2462  152.0407 C   0  0  0  0  0  0  0  0  0  0  0  0
  145.0872  133.2198  151.0225 N   0  3  0  0  0  0  0  0  0  0  0  0
  144.1132  133.6893  150.0057 C   0  0  0  0  0  0  0  0  0  0  0  0
  143.7880  132.5624  149.0108 C   0  0  0  0  0  0  0  0  0  0  0  0
  144.9875  132.1002  148.4026 O   0  0  0  0  0  0  0  0  0  0  0  0
  145.8946  131.5648  149.3578 C   0  0  0  0  0  0  0  0  0  0  0  0
  146.2910  132.6600  150.3626 C   0  0  0  0  0  0  0  0  0  0  0  0
  147.4709  138.2263  152.8472 N   0  0  0  0  0  0  0  0  0  0  0  0
  147.7439  139.4757  153.4746 C   0  0  0  0  0  0  0  0  0  0  0  0
  146.8141  140.5443  153.4471 C   0  0  0  0  0  0  0  0  0  0  0  0
  147.1418  141.7606  154.0707 C   0  0  0  0  0  0  0  0  0  0  0  0
  148.3903  141.8668  154.7052 C   0  0  0  0  0  0  0  0  0  0  0  0
  149.2785  140.8543  154.7563 N   0  0  0  0  0  0  0  0  0  0  0  0
  148.9707  139.6701  154.1719 C   0  0  0  0  0  0  0  0  0  0  0  0
  149.9294  138.6369  154.2762 N   0  0  0  0  0  0  0  0  0  0  0  0
  149.5094  137.3770  154.8824 C   0  0  0  0  0  0  0  0  0  0  0  0
  150.7059  136.8654  155.6922 C   0  0  0  0  0  0  0  0  0  0  0  0
  151.8977  137.5854  155.0691 C   0  0  0  0  0  0  0  0  0  0  0  0
  151.2970  138.9354  154.6880 C   0  0  0  0  0  0  0  0  0  0  0  0
  147.3515  136.1509  151.7797 H   0  0  0  0  0  0  0  0  0  0  0  0
  144.3630  136.1218  151.8118 H   0  0  0  0  0  0  0  0  0  0  0  0
  145.3082  135.6795  150.3993 H   0  0  0  0  0  0  0  0  0  0  0  0
  146.4243  134.0619  152.4351 H   0  0  0  0  0  0  0  0  0  0  0  0
  144.7364  134.1500  152.8827 H   0  0  0  0  0  0  0  0  0  0  0  0
  143.1919  134.0224  150.4823 H   0  0  0  0  0  0  0  0  0  0  0  0
  144.5252  134.5475  149.4723 H   0  0  0  0  0  0  0  0  0  0  0  0
  143.2763  131.7374  149.5093 H   0  0  0  0  0  0  0  0  0  0  0  0
  143.1169  132.9297  148.2341 H   0  0  0  0  0  0  0  0  0  0  0  0
  145.4439  130.7115  149.8674 H   0  0  0  0  0  0  0  0  0  0  0  0
  146.7779  131.1946  148.8369 H   0  0  0  0  0  0  0  0  0  0  0  0
  146.8334  133.4574  149.8520 H   0  0  0  0  0  0  0  0  0  0  0  0
  146.9650  132.2416  151.1111 H   0  0  0  0  0  0  0  0  0  0  0  0
  148.2802  137.7381  152.4932 H   0  0  0  0  0  0  0  0  0  0  0  0
  145.8524  140.4495  152.9668 H   0  0  0  0  0  0  0  0  0  0  0  0
  146.4527  142.5919  154.0612 H   0  0  0  0  0  0  0  0  0  0  0  0
  148.6804  142.7859  155.1921 H   0  0  0  0  0  0  0  0  0  0  0  0
  148.6252  137.4963  155.5103 H   0  0  0  0  0  0  0  0  0  0  0  0
  149.2696  136.6693  154.0886 H   0  0  0  0  0  0  0  0  0  0  0  0
  150.6002  137.1694  156.7344 H   0  0  0  0  0  0  0  0  0  0  0  0
  150.8021  135.7796  155.6667 H   0  0  0  0  0  0  0  0  0  0  0  0
  152.7479  137.6735  155.7461 H   0  0  0  0  0  0  0  0  0  0  0  0
  152.2271  137.0554  154.1743 H   0  0  0  0  0  0  0  0  0  0  0  0
  151.8570  139.4168  153.8857 H   0  0  0  0  0  0  0  0  0  0  0  0
  151.3077  139.5942  155.5572 H   0  0  0  0  0  0  0  0  0  0  0  0
  144.6540  132.4526  151.5168 H   0  0  0  0  0  0  0  0  0  0  0  0
  1  2  2  0  0  0  0
  2  3  1  0  0  0  0
  2 12  1  0  0  0  0
  3  4  1  0  0  0  0
  3 24  1  0  0  0  0
  4  5  1  0  0  0  0
  4 25  1  0  0  0  0
  4 26  1  0  0  0  0
  5  6  1  0  0  0  0
  5 27  1  0  0  0  0
  5 28  1  0  0  0  0
  6 11  1  0  0  0  0
  6  7  1  0  0  0  0
  6 49  1  0  0  0  0
  7  8  1  0  0  0  0
  7 29  1  0  0  0  0
  7 30  1  0  0  0  0
  8  9  1  0  0  0  0
  8 31  1  0  0  0  0
  8 32  1  0  0  0  0
  9 10  1  0  0  0  0
 10 11  1  0  0  0  0
 10 33  1  0  0  0  0
 10 34  1  0  0  0  0
 11 35  1  0  0  0  0
 11 36  1  0  0  0  0
 12 13  1  0  0  0  0
 12 37  1  0  0  0  0
 13 18  1  0  0  0  0
 13 14  2  0  0  0  0
 14 15  1  0  0  0  0
 14 38  1  0  0  0  0
 15 16  2  0  0  0  0
 15 39  1  0  0  0  0
 16 17  1  0  0  0  0
 16 40  1  0  0  0  0
 17 18  2  0  0  0  0
 18 19  1  0  0  0  0
 19 23  1  0  0  0  0
 19 20  1  0  0  0  0
 20 21  1  0  0  0  0
 20 41  1  0  0  0  0
 20 42  1  0  0  0  0
 21 22  1  0  0  0  0
 21 43  1  0  0  0  0
 21 44  1  0  0  0  0
 22 23  1  0  0  0  0
 22 45  1  0  0  0  0
 22 46  1  0  0  0  0
 23 47  1  0  0  0  0
 23 48  1  0  0  0  0
M  CHG  1   6   1
M  END
> <s_m_source_file>
AV-unprocessed.smi

> <i_m_source_file_index>
1525

> <i_lp_mmshare_version>
43012

> <i_f3d_flags>
0

> <s_epik_input>
W0NIMl0xW0NIMl1PW0NIMl1bQ0gyXU4xW0NIMl1bQ0gyXVtOSF1DKD1PKVtOSF1jMltjSF1bY0hdW2NIXW5jMk4zW0NIMl1bQ0gyXVtDSDJdW0NIMl0z

> <s_epik_cmdline>
J2VwaWtfcHl0aG9uJywgJy1waCcsICc3LjAnLCAnLXRuJywgJzgnLCAnLW1hJywgJzIwMCcsICctbWV0YWxfYmluZGluZycsICctaW1hZScsICc8aW5maWxlLm1hZT4nLCAnLW9tYWUnLCAnPG91dGZpbGUubWFlPic=

> <r_lp_tautomer_probability>
1

> <r_epik_Ionization_Penalty>
0.684913

> <r_epik_Ionization_Penalty_Charging>
0.602531

> <r_epik_Ionization_Penalty_Neutral>
0.0823828

> <r_epik_State_Penalty>
0.678827

> <r_epik_Charging_Adjusted_Penalty>
1.28136

> <i_epik_Tot_Q>
1

> <i_epik_Tot_abs_Q>
1

> <r_epik_Metal_State_Penalty>
0.678066

> <b_epik_Metal_Only>
0

> <s_lp_Force_Field>
OPLS_2005

> <r_lp_Energy>
44.7597

> <b_lp_Chiralities_Consistent>
1

> <s_lp_Variant>
AV-unprocessed.smi:1525-2

> <Gold.Version>
5.8.1

> <Gold.Id.Protein>
6NUR|6NUR_protein|mol2

> <Gold.PLP.Fitness>
43.7158

> <Gold.PLP.PLP>
-36.8477

> <Gold.PLP.part.hbond>
-3.8675

> <Gold.PLP.part.metal>
0.0000

> <Gold.PLP.part.buried>
-0.3803

> <Gold.PLP.part.nonpolar>
-37.0030

> <Gold.PLP.part.repulsive>
4.0096

> <Gold.PLP.ligand.clash>
0.0000

> <Gold.PLP.ligand.torsion>
1.1056

> <Gold.PLP.Chemscore.Hbond>
1.9760

> <Gold.PLP.Chemscore.CHOScore>
0.9109

> <Gold.PLP.Chemscore.Metal>
0.0000

> <Gold.Chemscore.Hbonds>
donor molecule, donor type, donor heavy atom, donor atom, acceptor molecule, acceptor atom, score
      L1  H     3    24       P1  7948  1.00
      L1  H    12    37       P1  7948  0.98
      L1  C    16    40       P1  8028  0.89

> <Gold.PLP.Chemscore.Internal.Correction>
0.4186

> <Gold.Rescore>
     Score         DG    S(hbond)    S(metal)    S(lipo)     H(rot)  DE(clash)    DE(int)     intcor
     14.65     -19.85       1.94        0.00     103.99       1.66       1.87       3.33       ----

> <Gold.Chemscore.Fitness>
14.6547

> <Gold.Chemscore.DG>
-19.8549

> <Gold.Chemscore.ZeroCoef>
-5.4800

> <Gold.Chemscore.Hbond>
1.9359

> <Gold.Chemscore.Metal>
0.0000

> <Gold.Chemscore.Lipo>
103.9905

> <Gold.Chemscore.Internal_Hbond>
0.0000

> <Gold.Chemscore.DEClash>
1.8683

> <Gold.Chemscore.DEInternal>
3.3319

> <Gold.Chemscore.Rot>
1.6632

> <Gold.Chemscore.Internal.Correction>
   9.000000E+99

> <Gold.Chemscore.Hbonds>
donor molecule, donor type, donor heavy atom, donor atom, acceptor molecule, acceptor atom, score
      L1  H     3    24       P1  7948  0.95
      L1  H    12    37       P1  7948  0.93

> <Gold.Chemscore.Hbond.Weighted>
-6.4657

> <Gold.Chemscore.Metal.Weighted>
-0.0000

> <Gold.Chemscore.Lipo.Weighted>
-12.1669

> <Gold.Chemscore.Internal_Hbond.Weighted>
0.0000

> <Gold.Chemscore.DEClash.Weighted>
1.8683

> <Gold.Chemscore.DEInternal.Weighted>
3.3319

> <Gold.Chemscore.Rot.Weighted>
4.2577

> <Gold.Chemscore.Internal.Correction.Weighted>
   9.000000E+99

> <Gold.Protein.RotatedTorsions>
[ 6907 6896 6895 6894 ] final   46.60 input  -60.11 | X-H torsion
[ 7974 7965 7964 7962 ] final -104.99 input  175.53 | X-H torsion
[ 8008 7997 7996 7995 ] final  -29.09 input   59.86 | X-H torsion
[ 10167 10162 10161 10158 ] final  139.43 input  -65.29 | X-H torsion
[ 10718 10713 10712 10709 ] final  105.06 input   66.30 | X-H torsion
[ 10763 10752 10751 10750 ] final  -12.95 input  -60.55 | X-H torsion
[ 11005 11000 10999 10996 ] final  -51.26 input  -57.11 | X-H torsion

> <Gold.Protein.ActiveResidues>
 VAL166  LYS551  ARG553  GLY616  TRP617  ASP618  TYR619  PRO620  LYS621  CYS622 
 ASP623  PHE694  ASN695  SER759  ASP760  ASP761  ALA762  ILE779  LEU786  VAL792 
 PHE793  MET794  SER795  GLU796  ALA797  LYS798  CYS799  TRP800  GLU811  SER814 

> <Gold.Protein.RotatedAtoms>
  152.2583  134.8060  160.0434 H   0  0  0  0  0  0  0  0  0  0  0  0  # atno 6907 bound_to 6896
  151.8716  133.3471  159.3745 H   0  0  0  0  0  0  0  0  0  0  0  0  # atno 6908 bound_to 6896
  150.7108  134.5034  159.5617 H   0  0  0  0  0  0  0  0  0  0  0  0  # atno 6909 bound_to 6896
  145.2362  140.9188  143.3176 H   0  0  0  0  0  0  0  0  0  0  0  0  # atno 7974 bound_to 7965
  154.4304  140.1828  156.1192 H   0  0  0  0  0  0  0  0  0  0  0  0  # atno 8008 bound_to 7997
  156.0156  140.3346  155.6960 H   0  0  0  0  0  0  0  0  0  0  0  0  # atno 8009 bound_to 7997
  155.6049  140.0644  157.2713 H   0  0  0  0  0  0  0  0  0  0  0  0  # atno 8010 bound_to 7997
  139.5079  144.6295  151.5853 H   0  0  0  0  0  0  0  0  0  0  0  0  # atno 10167 bound_to 10162
  157.6719  131.0819  150.5800 H   0  0  0  0  0  0  0  0  0  0  0  0  # atno 10718 bound_to 10713
  153.5061  135.7017  153.5806 H   0  0  0  0  0  0  0  0  0  0  0  0  # atno 10763 bound_to 10752
  153.3916  135.3894  155.1927 H   0  0  0  0  0  0  0  0  0  0  0  0  # atno 10764 bound_to 10752
  154.8707  135.3860  154.4536 H   0  0  0  0  0  0  0  0  0  0  0  0  # atno 10765 bound_to 10752
  141.0861  133.6642  156.3850 H   0  0  0  0  0  0  0  0  0  0  0  0  # atno 11005 bound_to 11000
  144.9631  139.3958  143.6346 LP  0  0  0  0  0  0  0  0  0  0  0  0  # atno 17320 bound_to 7965
  146.3340  139.8694  142.8842 LP  0  0  0  0  0  0  0  0  0  0  0  0  # atno 17321 bound_to 7965
  140.6023  143.9587  150.6395 LP  0  0  0  0  0  0  0  0  0  0  0  0  # atno 17342 bound_to 10162
  140.2803  143.3394  152.1157 LP  0  0  0  0  0  0  0  0  0  0  0  0  # atno 17343 bound_to 10162
  156.6101  130.4377  149.5862 LP  0  0  0  0  0  0  0  0  0  0  0  0  # atno 17370 bound_to 10713
  156.2437  130.6866  151.1580 LP  0  0  0  0  0  0  0  0  0  0  0  0  # atno 17371 bound_to 10713
  140.5360  134.6167  157.5365 LP  0  0  0  0  0  0  0  0  0  0  0  0  # atno 17394 bound_to 11000
  139.9679  134.7341  156.0100 LP  0  0  0  0  0  0  0  0  0  0  0  0  # atno 17395 bound_to 11000

$$$$
