AV-unprocessed.smi:213|AV-procd|sdf|1647|dock3
  -GOLD-   2262020 23D 1   1.00000     0.00000
 Structure written by MMmdl.
 58 61  0  0  0  0  0  0  0  0  1 V2000
  145.9227  129.4133  151.8852 C   0  0  0  0  0  0  0  0  0  0  0  0
  146.5711  130.4217  152.8499 C   0  0  2  0  0  0  0  0  0  0  0  0
  146.8391  131.7862  152.1761 C   0  0  0  0  0  0  0  0  0  0  0  0
  145.7030  132.3687  151.4607 N   0  0  0  0  0  0  0  0  0  0  0  0
  145.5925  131.8142  150.1155 C   0  0  0  0  0  0  0  0  0  0  0  0
  144.4012  132.4083  149.3445 C   0  0  0  0  0  0  0  0  0  0  0  0
  144.5266  133.8253  149.2937 O   0  0  0  0  0  0  0  0  0  0  0  0
  144.5946  134.4164  150.5872 C   0  0  0  0  0  0  0  0  0  0  0  0
  145.7830  133.8256  151.3660 C   0  0  0  0  0  0  0  0  0  0  0  0
  147.8009  129.8753  153.4303 N   0  0  0  0  0  0  0  0  0  0  0  0
  148.3326  128.5840  153.0001 C   0  0  0  0  0  0  0  0  0  0  0  0
  148.5275  130.6078  154.3156 C   0  0  0  0  0  0  0  0  0  0  0  0
  147.9820  131.7541  154.8028 N   0  0  0  0  0  0  0  0  0  0  0  0
  148.6520  132.5058  155.6804 C   0  0  0  0  0  0  0  0  0  0  0  0
  149.8658  132.3050  156.1948 N   0  0  0  0  0  0  0  0  0  0  0  0
  150.4296  131.1666  155.6997 C   0  0  0  0  0  0  0  0  0  0  0  0
  149.8384  130.2673  154.7657 C   0  0  0  0  0  0  0  0  0  0  0  0
  150.7282  129.2339  154.4883 N   0  0  0  0  0  0  0  0  0  0  0  0
  151.7738  129.4994  155.2217 C   0  0  0  0  0  0  0  0  0  0  0  0
  151.6801  130.6434  155.9788 N   0  0  0  0  0  0  0  0  0  0  0  0
  152.6954  131.1767  156.8701 C   0  0  0  0  0  0  0  0  0  0  0  0
  152.1692  132.3447  157.7274 C   0  0  1  0  0  0  0  0  0  0  0  0
  151.0823  131.9246  158.5308 O   0  0  0  0  0  0  0  0  0  0  0  0
  153.2691  132.9954  158.5920 C   0  0  1  0  0  0  0  0  0  0  0  0
  154.5096  133.5060  157.8526 C   0  0  0  0  0  0  0  0  0  0  0  0
  155.0325  134.5348  158.8303 C   0  0  0  0  0  0  0  0  0  0  0  0
  153.7376  135.1490  159.3563 C   0  0  0  0  0  0  0  0  0  0  0  0
  152.7752  134.0983  159.3484 O   0  0  0  0  0  0  0  0  0  0  0  0
  144.9581  129.7763  151.5301 H   0  0  0  0  0  0  0  0  0  0  0  0
  145.7481  128.4560  152.3765 H   0  0  0  0  0  0  0  0  0  0  0  0
  146.5468  129.2295  151.0108 H   0  0  0  0  0  0  0  0  0  0  0  0
  145.8708  130.6031  153.6611 H   0  0  0  0  0  0  0  0  0  0  0  0
  147.1898  132.4959  152.9273 H   0  0  0  0  0  0  0  0  0  0  0  0
  147.6678  131.6619  151.4778 H   0  0  0  0  0  0  0  0  0  0  0  0
  146.5123  132.0037  149.5598 H   0  0  0  0  0  0  0  0  0  0  0  0
  145.4793  130.7309  150.1697 H   0  0  0  0  0  0  0  0  0  0  0  0
  144.3733  132.0156  148.3281 H   0  0  0  0  0  0  0  0  0  0  0  0
  143.4576  132.1357  149.8202 H   0  0  0  0  0  0  0  0  0  0  0  0
  144.7098  135.4952  150.4808 H   0  0  0  0  0  0  0  0  0  0  0  0
  143.6593  134.2455  151.1227 H   0  0  0  0  0  0  0  0  0  0  0  0
  145.8003  134.2736  152.3585 H   0  0  0  0  0  0  0  0  0  0  0  0
  146.7142  134.1143  150.8759 H   0  0  0  0  0  0  0  0  0  0  0  0
  148.7660  128.0419  153.8416 H   0  0  0  0  0  0  0  0  0  0  0  0
  149.1064  128.7245  152.2447 H   0  0  0  0  0  0  0  0  0  0  0  0
  147.5521  127.9569  152.5702 H   0  0  0  0  0  0  0  0  0  0  0  0
  148.1423  133.3955  156.0193 H   0  0  0  0  0  0  0  0  0  0  0  0
  152.6499  128.8674  155.2261 H   0  0  0  0  0  0  0  0  0  0  0  0
  153.0632  130.3686  157.5037 H   0  0  0  0  0  0  0  0  0  0  0  0
  153.5404  131.5059  156.2643 H   0  0  0  0  0  0  0  0  0  0  0  0
  151.7774  133.1124  157.0589 H   0  0  0  0  0  0  0  0  0  0  0  0
  150.7405  131.1181  158.1767 H   0  0  0  0  0  0  0  0  0  0  0  0
  153.6022  132.2606  159.3271 H   0  0  0  0  0  0  0  0  0  0  0  0
  155.2300  132.7173  157.6346 H   0  0  0  0  0  0  0  0  0  0  0  0
  154.2488  133.9980  156.9151 H   0  0  0  0  0  0  0  0  0  0  0  0
  155.5728  134.0428  159.6405 H   0  0  0  0  0  0  0  0  0  0  0  0
  155.6963  135.2677  158.3709 H   0  0  0  0  0  0  0  0  0  0  0  0
  153.8527  135.5777  160.3521 H   0  0  0  0  0  0  0  0  0  0  0  0
  153.3925  135.9374  158.6863 H   0  0  0  0  0  0  0  0  0  0  0  0
  1  2  1  0  0  0  0
  1 29  1  0  0  0  0
  1 30  1  0  0  0  0
  1 31  1  0  0  0  0
  2  3  1  0  0  0  0
  2 10  1  0  0  0  0
  2 32  1  0  0  0  0
  3  4  1  0  0  0  0
  3 33  1  0  0  0  0
  3 34  1  0  0  0  0
  4  9  1  0  0  0  0
  4  5  1  0  0  0  0
  5  6  1  0  0  0  0
  5 35  1  0  0  0  0
  5 36  1  0  0  0  0
  6  7  1  0  0  0  0
  6 37  1  0  0  0  0
  6 38  1  0  0  0  0
  7  8  1  0  0  0  0
  8  9  1  0  0  0  0
  8 39  1  0  0  0  0
  8 40  1  0  0  0  0
  9 41  1  0  0  0  0
  9 42  1  0  0  0  0
 10 11  1  0  0  0  0
 10 12  1  0  0  0  0
 11 43  1  0  0  0  0
 11 44  1  0  0  0  0
 11 45  1  0  0  0  0
 12 17  1  0  0  0  0
 12 13  2  0  0  0  0
 13 14  1  0  0  0  0
 14 15  2  0  0  0  0
 14 46  1  0  0  0  0
 15 16  1  0  0  0  0
 16 20  1  0  0  0  0
 16 17  2  0  0  0  0
 17 18  1  0  0  0  0
 18 19  2  0  0  0  0
 19 20  1  0  0  0  0
 19 47  1  0  0  0  0
 20 21  1  0  0  0  0
 21 22  1  0  0  0  0
 21 48  1  0  0  0  0
 21 49  1  0  0  0  0
 22 23  1  0  0  0  0
 22 24  1  0  0  0  0
 22 50  1  0  0  0  0
 23 51  1  0  0  0  0
 24 28  1  0  0  0  0
 24 25  1  0  0  0  0
 24 52  1  0  0  0  0
 25 26  1  0  0  0  0
 25 53  1  0  0  0  0
 25 54  1  0  0  0  0
 26 27  1  0  0  0  0
 26 55  1  0  0  0  0
 26 56  1  0  0  0  0
 27 28  1  0  0  0  0
 27 57  1  0  0  0  0
 27 58  1  0  0  0  0
M  END
> <s_m_source_file>
AV-unprocessed.smi

> <i_m_source_file_index>
213

> <i_lp_mmshare_version>
43012

> <i_f3d_flags>
0

> <s_epik_input>
W0NIMl0xW0NIMl1PW0NIMl1bQ0gyXU4xW0NIMl1bQ0BASF0oW0NIM10pTihbQ0gzXSljKG5bY0hdbjIpYyhjMjMpbltjSF1uM1tDSDJdW0NASF0oW09IXSlbQ0BASF00W0NIMl1bQ0gyXVtDSDJdTzQ=

> <s_epik_cmdline>
J2VwaWtfcHl0aG9uJywgJy1waCcsICc3LjAnLCAnLXRuJywgJzgnLCAnLW1hJywgJzIwMCcsICctbWV0YWxfYmluZGluZycsICctaW1hZScsICc8aW5maWxlLm1hZT4nLCAnLW9tYWUnLCAnPG91dGZpbGUubWFlPic=

> <r_lp_tautomer_probability>
1

> <r_epik_Ionization_Penalty>
0.423322

> <r_epik_Ionization_Penalty_Charging>
0

> <r_epik_Ionization_Penalty_Neutral>
0.423322

> <r_epik_State_Penalty>
0.569486

> <r_epik_Charging_Adjusted_Penalty>
0.569486

> <i_epik_Tot_Q>
0

> <i_epik_Tot_abs_Q>
0

> <r_epik_Metal_State_Penalty>
0.568671

> <b_epik_Metal_Only>
0

> <s_lp_Force_Field>
OPLS_2005

> <r_lp_Energy>
53.6453

> <b_lp_Chiralities_Consistent>
1

> <s_lp_Variant>
AV-unprocessed.smi:213-15

> <Gold.Version>
5.8.1

> <Gold.Id.Protein>
6NUR|6NUR_protein|mol2

> <Gold.PLP.Fitness>
44.3592

> <Gold.PLP.PLP>
-39.7547

> <Gold.PLP.part.hbond>
-2.0000

> <Gold.PLP.part.metal>
0.0000

> <Gold.PLP.part.buried>
-6.8528

> <Gold.PLP.part.nonpolar>
-32.3822

> <Gold.PLP.part.repulsive>
0.9457

> <Gold.PLP.ligand.clash>
0.0000

> <Gold.PLP.ligand.torsion>
0.4546

> <Gold.PLP.Chemscore.Hbond>
1.6800

> <Gold.PLP.Chemscore.CHOScore>
0.0000

> <Gold.PLP.Chemscore.Metal>
0.0000

> <Gold.Chemscore.Hbonds>
donor molecule, donor type, donor heavy atom, donor atom, acceptor molecule, acceptor atom, score
      P1  H  6896  6909       L1    23  0.05

> <Gold.PLP.Chemscore.Internal.Correction>
0.4738

> <Gold.Rescore>
     Score         DG    S(hbond)    S(metal)    S(lipo)     H(rot)  DE(clash)    DE(int)     intcor
      6.74     -11.10       0.99        0.00      79.59       2.74       0.21       4.15       ----

> <Gold.Chemscore.Fitness>
6.7381

> <Gold.Chemscore.DG>
-11.1011

> <Gold.Chemscore.ZeroCoef>
-5.4800

> <Gold.Chemscore.Hbond>
0.9933

> <Gold.Chemscore.Metal>
0.0000

> <Gold.Chemscore.Lipo>
79.5917

> <Gold.Chemscore.Internal_Hbond>
0.0000

> <Gold.Chemscore.DEClash>
0.2131

> <Gold.Chemscore.DEInternal>
4.1499

> <Gold.Chemscore.Rot>
2.7378

> <Gold.Chemscore.Internal.Correction>
   9.000000E+99

> <Gold.Chemscore.Hbond.Weighted>
-3.3175

> <Gold.Chemscore.Metal.Weighted>
-0.0000

> <Gold.Chemscore.Lipo.Weighted>
-9.3122

> <Gold.Chemscore.Internal_Hbond.Weighted>
0.0000

> <Gold.Chemscore.DEClash.Weighted>
0.2131

> <Gold.Chemscore.DEInternal.Weighted>
4.1499

> <Gold.Chemscore.Rot.Weighted>
7.0087

> <Gold.Chemscore.Internal.Correction.Weighted>
   9.000000E+99

> <Gold.Protein.RotatedTorsions>
[ 6907 6896 6895 6894 ] final  -45.43 input  -60.11 | X-H torsion
[ 7974 7965 7964 7962 ] final  179.12 input  175.53 | X-H torsion
[ 8008 7997 7996 7995 ] final -135.76 input   59.86 | X-H torsion
[ 10167 10162 10161 10158 ] final  153.03 input  -65.29 | X-H torsion
[ 10718 10713 10712 10709 ] final -158.39 input   66.30 | X-H torsion
[ 10763 10752 10751 10750 ] final  -77.76 input  -60.55 | X-H torsion
[ 11005 11000 10999 10996 ] final -109.76 input  -57.11 | X-H torsion

> <Gold.Protein.ActiveResidues>
 VAL166  LYS551  ARG553  GLY616  TRP617  ASP618  TYR619  PRO620  LYS621  CYS622 
 ASP623  PHE694  ASN695  SER759  ASP760  ASP761  ALA762  ILE779  LEU786  VAL792 
 PHE793  MET794  SER795  GLU796  ALA797  LYS798  CYS799  TRP800  GLU811  SER814 

> <Gold.Protein.RotatedAtoms>
  150.9221  134.8638  159.7495 H   0  0  0  0  0  0  0  0  0  0  0  0  # atno 6907 bound_to 6896
  152.4997  134.4203  159.9488 H   0  0  0  0  0  0  0  0  0  0  0  0  # atno 6908 bound_to 6896
  151.4236  133.3651  159.2794 H   0  0  0  0  0  0  0  0  0  0  0  0  # atno 6909 bound_to 6896
  144.7149  140.0500  143.6435 H   0  0  0  0  0  0  0  0  0  0  0  0  # atno 7974 bound_to 7965
  155.3841  140.0496  157.3043 H   0  0  0  0  0  0  0  0  0  0  0  0  # atno 8008 bound_to 7997
  154.5068  140.2177  155.9197 H   0  0  0  0  0  0  0  0  0  0  0  0  # atno 8009 bound_to 7997
  156.1535  140.3131  155.8693 H   0  0  0  0  0  0  0  0  0  0  0  0  # atno 8010 bound_to 7997
  139.4829  144.5308  151.7726 H   0  0  0  0  0  0  0  0  0  0  0  0  # atno 10167 bound_to 10162
  156.5536  130.8616  151.2787 H   0  0  0  0  0  0  0  0  0  0  0  0  # atno 10718 bound_to 10713
  154.5171  135.5753  153.6651 H   0  0  0  0  0  0  0  0  0  0  0  0  # atno 10763 bound_to 10752
  152.9909  135.6173  154.2803 H   0  0  0  0  0  0  0  0  0  0  0  0  # atno 10764 bound_to 10752
  154.2721  135.2853  155.2713 H   0  0  0  0  0  0  0  0  0  0  0  0  # atno 10765 bound_to 10752
  141.0829  133.9188  157.2248 H   0  0  0  0  0  0  0  0  0  0  0  0  # atno 11005 bound_to 11000
  145.9952  139.3046  143.0961 LP  0  0  0  0  0  0  0  0  0  0  0  0  # atno 17320 bound_to 7965
  145.8857  140.9335  143.0578 LP  0  0  0  0  0  0  0  0  0  0  0  0  # atno 17321 bound_to 7965
  140.4834  144.1416  150.5936 LP  0  0  0  0  0  0  0  0  0  0  0  0  # atno 17342 bound_to 10162
  140.4252  143.2593  151.9665 LP  0  0  0  0  0  0  0  0  0  0  0  0  # atno 17343 bound_to 10162
  157.7383  130.9810  150.2242 LP  0  0  0  0  0  0  0  0  0  0  0  0  # atno 17370 bound_to 10713
  156.2863  130.3740  149.7886 LP  0  0  0  0  0  0  0  0  0  0  0  0  # atno 17371 bound_to 10713
  139.9645  135.0145  156.9349 LP  0  0  0  0  0  0  0  0  0  0  0  0  # atno 17394 bound_to 11000
  140.5427  134.0704  155.7346 LP  0  0  0  0  0  0  0  0  0  0  0  0  # atno 17395 bound_to 11000

$$$$
