AV-unprocessed.smi:1824|AV-procd|sdf|7400|dock3
  -GOLD-   22720 9 73D 1   1.00000     0.00000
 Structure written by MMmdl.
 45 47  0  0  0  0  0  0  0  0  2 V2000
  144.7575  132.9895  150.9072 C   0  0  0  0  0  0  0  0  0  0  0  0
  144.5911  134.2546  151.7560 C   0  0  1  0  0  0  0  0  0  0  0  0
  144.9501  135.5312  150.9694 C   0  0  0  0  0  0  0  0  0  0  0  0
  144.7033  136.7495  151.7783 N   0  3  2  0  0  0  0  0  0  0  0  0
  145.7564  137.0167  152.7951 C   0  0  0  0  0  0  0  0  0  0  0  0
  146.3430  138.4374  152.6777 C   0  0  2  0  0  0  0  0  0  0  0  0
  147.6920  138.3377  152.2623 O   0  0  0  0  0  0  0  0  0  0  0  0
  146.2772  139.1948  154.0182 C   0  0  0  0  0  0  0  0  0  0  0  0
  147.3909  140.1109  154.1924 N   0  0  0  0  0  0  0  0  0  0  0  0
  147.7277  141.1356  153.3857 C   0  0  0  0  0  0  0  0  0  0  0  0
  148.7937  141.8537  153.7255 N   0  0  0  0  0  0  0  0  0  0  0  0
  149.1944  141.2255  154.8923 C   0  0  0  0  0  0  0  0  0  0  0  0
  150.2754  141.5038  155.7587 C   0  0  0  0  0  0  0  0  0  0  0  0
  150.4928  140.7148  156.9073 C   0  0  0  0  0  0  0  0  0  0  0  0
  151.5332  140.9961  157.7272 F   0  0  0  0  0  0  0  0  0  0  0  0
  149.6342  139.6356  157.2053 C   0  0  0  0  0  0  0  0  0  0  0  0
  149.8509  138.8817  158.3089 F   0  0  0  0  0  0  0  0  0  0  0  0
  148.5501  139.3391  156.3567 C   0  0  0  0  0  0  0  0  0  0  0  0
  148.3364  140.1303  155.2128 C   0  0  0  0  0  0  0  0  0  0  0  0
  143.3133  136.7512  152.3017 C   0  0  0  0  0  0  0  0  0  0  0  0
  142.9767  135.4338  153.0343 C   0  0  1  0  0  0  0  0  0  0  0  0
  141.5058  135.3725  153.4595 C   0  0  0  0  0  0  0  0  0  0  0  0
  143.2302  134.3348  152.1658 O   0  0  0  0  0  0  0  0  0  0  0  0
  145.7877  132.8765  150.5681 H   0  0  0  0  0  0  0  0  0  0  0  0
  144.1163  133.0174  150.0256 H   0  0  0  0  0  0  0  0  0  0  0  0
  144.4971  132.0987  151.4794 H   0  0  0  0  0  0  0  0  0  0  0  0
  145.2292  134.1647  152.6369 H   0  0  0  0  0  0  0  0  0  0  0  0
  145.9854  135.5027  150.6271 H   0  0  0  0  0  0  0  0  0  0  0  0
  144.3344  135.5900  150.0708 H   0  0  0  0  0  0  0  0  0  0  0  0
  145.3587  136.8540  153.7968 H   0  0  0  0  0  0  0  0  0  0  0  0
  146.5704  136.2996  152.6774 H   0  0  0  0  0  0  0  0  0  0  0  0
  145.7986  139.0126  151.9292 H   0  0  0  0  0  0  0  0  0  0  0  0
  147.9038  137.4238  152.1428 H   0  0  0  0  0  0  0  0  0  0  0  0
  145.3523  139.7702  154.0792 H   0  0  0  0  0  0  0  0  0  0  0  0
  146.2631  138.4958  154.8557 H   0  0  0  0  0  0  0  0  0  0  0  0
  147.1591  141.3657  152.4964 H   0  0  0  0  0  0  0  0  0  0  0  0
  150.9399  142.3266  155.5397 H   0  0  0  0  0  0  0  0  0  0  0  0
  147.8930  138.5129  156.5837 H   0  0  0  0  0  0  0  0  0  0  0  0
  143.1396  137.6077  152.9518 H   0  0  0  0  0  0  0  0  0  0  0  0
  142.6378  136.8740  151.4538 H   0  0  0  0  0  0  0  0  0  0  0  0
  143.5913  135.3299  153.9292 H   0  0  0  0  0  0  0  0  0  0  0  0
  141.2573  136.1909  154.1355 H   0  0  0  0  0  0  0  0  0  0  0  0
  141.2889  134.4376  153.9770 H   0  0  0  0  0  0  0  0  0  0  0  0
  140.8418  135.4368  152.5967 H   0  0  0  0  0  0  0  0  0  0  0  0
  144.7708  137.5236  151.1323 H   0  0  0  0  0  0  0  0  0  0  0  0
  1  2  1  0  0  0  0
  1 24  1  0  0  0  0
  1 25  1  0  0  0  0
  1 26  1  0  0  0  0
  2 23  1  0  0  0  0
  2  3  1  0  0  0  0
  2 27  1  0  0  0  0
  3  4  1  0  0  0  0
  3 28  1  0  0  0  0
  3 29  1  0  0  0  0
  4  5  1  0  0  0  0
  4 20  1  0  0  0  0
  4 45  1  0  0  0  0
  5  6  1  0  0  0  0
  5 30  1  0  0  0  0
  5 31  1  0  0  0  0
  6  7  1  0  0  0  0
  6  8  1  0  0  0  0
  6 32  1  0  0  0  0
  7 33  1  0  0  0  0
  8  9  1  0  0  0  0
  8 34  1  0  0  0  0
  8 35  1  0  0  0  0
  9 19  1  0  0  0  0
  9 10  1  0  0  0  0
 10 11  2  0  0  0  0
 10 36  1  0  0  0  0
 11 12  1  0  0  0  0
 12 19  2  0  0  0  0
 12 13  1  0  0  0  0
 13 14  2  0  0  0  0
 13 37  1  0  0  0  0
 14 15  1  0  0  0  0
 14 16  1  0  0  0  0
 16 17  1  0  0  0  0
 16 18  2  0  0  0  0
 18 19  1  0  0  0  0
 18 38  1  0  0  0  0
 20 21  1  0  0  0  0
 20 39  1  0  0  0  0
 20 40  1  0  0  0  0
 21 22  1  0  0  0  0
 21 23  1  0  0  0  0
 21 41  1  0  0  0  0
 22 42  1  0  0  0  0
 22 43  1  0  0  0  0
 22 44  1  0  0  0  0
M  CHG  1   4   1
M  END
> <s_m_source_file>
AV-unprocessed.smi

> <i_m_source_file_index>
1824

> <i_lp_mmshare_version>
43012

> <i_f3d_flags>
0

> <s_epik_input>
W0NIM11bQ0BASF0xW0NIMl1OKFtDSDJdW0NASF0oTzEpW0NIM10pW0NIMl1bQ0BIXShbT0hdKVtDSDJdbihbY0hdbjIpYyhjMjMpW2NIXWMoRiljKEYpW2NIXTM=

> <s_epik_cmdline>
J2VwaWtfcHl0aG9uJywgJy1waCcsICc3LjAnLCAnLXRuJywgJzgnLCAnLW1hJywgJzIwMCcsICctbWV0YWxfYmluZGluZycsICctaW1hZScsICc8aW5maWxlLm1hZT4nLCAnLW9tYWUnLCAnPG91dGZpbGUubWFlPic=

> <r_epik_Ionization_Penalty>
0.61967

> <r_epik_Ionization_Penalty_Charging>
0.608065

> <r_epik_Ionization_Penalty_Neutral>
0.0116057

> <r_epik_State_Penalty>
0.664205

> <r_epik_Charging_Adjusted_Penalty>
1.27227

> <i_epik_Tot_Q>
1

> <i_epik_Tot_abs_Q>
1

> <r_epik_Metal_State_Penalty>
0.654947

> <b_epik_Metal_Only>
0

> <s_lp_Force_Field>
OPLS_2005

> <r_lp_Energy>
21.7037

> <b_lp_Chiralities_Consistent>
1

> <s_lp_Variant>
AV-unprocessed.smi:1824-8

> <Gold.Version>
5.8.1

> <Gold.Id.Protein>
6NUR|6NUR_protein|mol2

> <Gold.PLP.Fitness>
44.1013

> <Gold.PLP.PLP>
-40.2014

> <Gold.PLP.part.hbond>
-4.1214

> <Gold.PLP.part.metal>
0.0000

> <Gold.PLP.part.buried>
-7.1414

> <Gold.PLP.part.nonpolar>
-28.9184

> <Gold.PLP.part.repulsive>
0.3952

> <Gold.PLP.ligand.clash>
0.0000

> <Gold.PLP.ligand.torsion>
1.8479

> <Gold.PLP.Chemscore.Hbond>
2.5200

> <Gold.PLP.Chemscore.CHOScore>
0.0000

> <Gold.PLP.Chemscore.Metal>
0.0000

> <Gold.Chemscore.Hbonds>
donor molecule, donor type, donor heavy atom, donor atom, acceptor molecule, acceptor atom, score
      L1  H     4    45       P1 10171  0.93
      L1  H     7    33       P1  7948  1.00
      P1  H  8011  8017       L1    11  0.54

> <Gold.PLP.Chemscore.Internal.Correction>
0.0357

> <Gold.Rescore>
     Score         DG    S(hbond)    S(metal)    S(lipo)     H(rot)  DE(clash)    DE(int)     intcor
     14.37     -16.30       2.34        0.00      76.54       2.33       0.13       1.81       ----

> <Gold.Chemscore.Fitness>
14.3702

> <Gold.Chemscore.DG>
-16.3040

> <Gold.Chemscore.ZeroCoef>
-5.4800

> <Gold.Chemscore.Hbond>
2.3416

> <Gold.Chemscore.Metal>
0.0000

> <Gold.Chemscore.Lipo>
76.5421

> <Gold.Chemscore.Internal_Hbond>
0.0000

> <Gold.Chemscore.DEClash>
0.1251

> <Gold.Chemscore.DEInternal>
1.8087

> <Gold.Chemscore.Rot>
2.3251

> <Gold.Chemscore.Internal.Correction>
   9.000000E+99

> <Gold.Chemscore.Hbonds>
donor molecule, donor type, donor heavy atom, donor atom, acceptor molecule, acceptor atom, score
      L1  H     4    45       P1 10171  0.89
      L1  H     7    33       P1  7948  0.94
      P1  H  8011  8017       L1    11  0.49

> <Gold.Chemscore.Hbond.Weighted>
-7.8209

> <Gold.Chemscore.Metal.Weighted>
-0.0000

> <Gold.Chemscore.Lipo.Weighted>
-8.9554

> <Gold.Chemscore.Internal_Hbond.Weighted>
0.0000

> <Gold.Chemscore.DEClash.Weighted>
0.1251

> <Gold.Chemscore.DEInternal.Weighted>
1.8087

> <Gold.Chemscore.Rot.Weighted>
5.9523

> <Gold.Chemscore.Internal.Correction.Weighted>
   9.000000E+99

> <Gold.Protein.RotatedTorsions>
[ 6907 6896 6895 6894 ] final -105.60 input  -60.11 | X-H torsion
[ 7974 7965 7964 7962 ] final  115.57 input  175.53 | X-H torsion
[ 8008 7997 7996 7995 ] final   35.28 input   59.86 | X-H torsion
[ 10167 10162 10161 10158 ] final  -38.37 input  -65.29 | X-H torsion
[ 10718 10713 10712 10709 ] final -175.09 input   66.30 | X-H torsion
[ 10763 10752 10751 10750 ] final  -61.49 input  -60.55 | X-H torsion
[ 11005 11000 10999 10996 ] final   31.17 input  -57.11 | X-H torsion

> <Gold.Protein.ActiveResidues>
 VAL166  LYS551  ARG553  GLY616  TRP617  ASP618  TYR619  PRO620  LYS621  CYS622 
 ASP623  PHE694  ASN695  SER759  ASP760  ASP761  ALA762  ILE779  LEU786  VAL792 
 PHE793  MET794  SER795  GLU796  ALA797  LYS798  CYS799  TRP800  GLU811  SER814 

> <Gold.Protein.RotatedAtoms>
  150.7345  134.0102  159.3666 H   0  0  0  0  0  0  0  0  0  0  0  0  # atno 6907 bound_to 6896
  151.8062  135.0692  160.0416 H   0  0  0  0  0  0  0  0  0  0  0  0  # atno 6908 bound_to 6896
  152.3106  133.5712  159.5714 H   0  0  0  0  0  0  0  0  0  0  0  0  # atno 6909 bound_to 6896
  145.1903  139.3003  143.4371 H   0  0  0  0  0  0  0  0  0  0  0  0  # atno 7974 bound_to 7965
  155.1686  140.3289  155.4397 H   0  0  0  0  0  0  0  0  0  0  0  0  # atno 8008 bound_to 7997
  156.2518  140.1947  156.6740 H   0  0  0  0  0  0  0  0  0  0  0  0  # atno 8009 bound_to 7997
  154.6354  140.0577  156.9768 H   0  0  0  0  0  0  0  0  0  0  0  0  # atno 8010 bound_to 7997
  140.7094  143.3281  151.2632 H   0  0  0  0  0  0  0  0  0  0  0  0  # atno 10167 bound_to 10162
  156.7947  130.9531  151.3120 H   0  0  0  0  0  0  0  0  0  0  0  0  # atno 10718 bound_to 10713
  154.2854  135.6264  153.5364 H   0  0  0  0  0  0  0  0  0  0  0  0  # atno 10763 bound_to 10752
  152.9860  135.5643  154.5449 H   0  0  0  0  0  0  0  0  0  0  0  0  # atno 10764 bound_to 10752
  154.5048  135.2874  155.1367 H   0  0  0  0  0  0  0  0  0  0  0  0  # atno 10765 bound_to 10752
  140.2866  134.2912  155.7786 H   0  0  0  0  0  0  0  0  0  0  0  0  # atno 11005 bound_to 11000
  146.3437  140.2113  142.8590 LP  0  0  0  0  0  0  0  0  0  0  0  0  # atno 17320 bound_to 7965
  145.0048  140.8663  143.5260 LP  0  0  0  0  0  0  0  0  0  0  0  0  # atno 17321 bound_to 7965
  139.6756  143.9944  152.2779 LP  0  0  0  0  0  0  0  0  0  0  0  0  # atno 17342 bound_to 10162
  139.9557  144.6591  150.8128 LP  0  0  0  0  0  0  0  0  0  0  0  0  # atno 17343 bound_to 10162
  157.6583  130.8944  149.9775 LP  0  0  0  0  0  0  0  0  0  0  0  0  # atno 17370 bound_to 10713
  156.1137  130.3649  150.0005 LP  0  0  0  0  0  0  0  0  0  0  0  0  # atno 17371 bound_to 10713
  141.2153  133.7559  156.9562 LP  0  0  0  0  0  0  0  0  0  0  0  0  # atno 17394 bound_to 11000
  140.1234  134.9403  157.2235 LP  0  0  0  0  0  0  0  0  0  0  0  0  # atno 17395 bound_to 11000

$$$$
