AV-unprocessed.smi:2391|AV-procd|sdf|9484|dock3
  -GOLD-   2272013113D 1   1.00000     0.00000
 Structure written by MMmdl.
 35 36  0  0  0  0  0  0  0  0  1 V2000
  149.0403  142.4356  158.4742 O   0  0  0  0  0  0  0  0  0  0  0  0
  150.0157  142.1189  157.7871 C   0  0  0  0  0  0  0  0  0  0  0  0
  150.0381  141.5692  156.5107 N   0  0  0  0  0  0  0  0  0  0  0  0
  148.9663  141.4424  155.7839 C   0  0  0  0  0  0  0  0  0  0  0  0
  149.0332  140.8533  154.4574 C   0  0  0  0  0  0  0  0  0  0  0  0
  147.9269  140.7167  153.6905 C   0  0  0  0  0  0  0  0  0  0  0  0
  146.6575  141.1752  154.2194 C   0  0  0  0  0  0  0  0  0  0  0  0
  146.5513  141.7042  155.3922 N   0  0  0  0  0  0  0  0  0  0  0  0
  147.6599  141.8345  156.1489 N   0  0  0  0  0  0  0  0  0  0  0  0
  151.2716  142.2799  158.2309 N   0  0  0  0  0  0  0  0  0  0  0  0
  151.6773  142.8308  159.5266 C   0  0  1  0  0  0  0  0  0  0  0  0
  153.0446  142.2277  159.9400 C   0  0  0  0  0  0  0  0  0  0  0  0
  153.2123  140.7413  159.5993 C   0  0  0  0  0  0  0  0  0  0  0  0
  154.4017  140.2903  160.4454 C   0  0  0  0  0  0  0  0  0  0  0  0
  154.3347  141.1315  161.7254 C   0  0  0  0  0  0  0  0  0  0  0  0
  153.3427  142.2701  161.4461 C   0  0  0  0  0  0  0  0  0  0  0  0
  151.6789  144.3738  159.4311 C   0  0  0  0  0  0  0  0  0  0  0  0
  152.4604  144.7631  158.4228 F   0  0  0  0  0  0  0  0  0  0  0  0
  150.4528  144.8401  159.1968 F   0  0  0  0  0  0  0  0  0  0  0  0
  152.1383  144.9143  160.5605 F   0  0  0  0  0  0  0  0  0  0  0  0
  149.9709  140.5065  154.0477 H   0  0  0  0  0  0  0  0  0  0  0  0
  147.9757  140.2772  152.7051 H   0  0  0  0  0  0  0  0  0  0  0  0
  145.7982  141.0443  153.5616 H   0  0  0  0  0  0  0  0  0  0  0  0
  152.0199  142.0006  157.6129 H   0  0  0  0  0  0  0  0  0  0  0  0
  150.9460  142.5551  160.2880 H   0  0  0  0  0  0  0  0  0  0  0  0
  153.8390  142.7717  159.4262 H   0  0  0  0  0  0  0  0  0  0  0  0
  152.3205  140.1861  159.8943 H   0  0  0  0  0  0  0  0  0  0  0  0
  153.3760  140.5664  158.5353 H   0  0  0  0  0  0  0  0  0  0  0  0
  154.3844  139.2190  160.6478 H   0  0  0  0  0  0  0  0  0  0  0  0
  155.3289  140.5092  159.9137 H   0  0  0  0  0  0  0  0  0  0  0  0
  153.9917  140.5310  162.5688 H   0  0  0  0  0  0  0  0  0  0  0  0
  155.3216  141.5187  161.9814 H   0  0  0  0  0  0  0  0  0  0  0  0
  153.7399  143.2369  161.7570 H   0  0  0  0  0  0  0  0  0  0  0  0
  152.4281  142.0944  162.0144 H   0  0  0  0  0  0  0  0  0  0  0  0
  147.5308  142.2519  157.0598 H   0  0  0  0  0  0  0  0  0  0  0  0
  1  2  2  0  0  0  0
  2  3  1  0  0  0  0
  2 10  1  0  0  0  0
  3  4  2  0  0  0  0
  4  9  1  0  0  0  0
  4  5  1  0  0  0  0
  5  6  2  0  0  0  0
  5 21  1  0  0  0  0
  6  7  1  0  0  0  0
  6 22  1  0  0  0  0
  7  8  2  0  0  0  0
  7 23  1  0  0  0  0
  8  9  1  0  0  0  0
  9 35  1  0  0  0  0
 10 11  1  0  0  0  0
 10 24  1  0  0  0  0
 11 12  1  0  0  0  0
 11 17  1  0  0  0  0
 11 25  1  0  0  0  0
 12 16  1  0  0  0  0
 12 13  1  0  0  0  0
 12 26  1  0  0  0  0
 13 14  1  0  0  0  0
 13 27  1  0  0  0  0
 13 28  1  0  0  0  0
 14 15  1  0  0  0  0
 14 29  1  0  0  0  0
 14 30  1  0  0  0  0
 15 16  1  0  0  0  0
 15 31  1  0  0  0  0
 15 32  1  0  0  0  0
 16 33  1  0  0  0  0
 16 34  1  0  0  0  0
 17 18  1  0  0  0  0
 17 19  1  0  0  0  0
 17 20  1  0  0  0  0
M  END
> <s_m_source_file>
AV-unprocessed.smi

> <i_m_source_file_index>
2391

> <i_lp_mmshare_version>
43012

> <i_f3d_flags>
0

> <s_epik_input>
W0NIMl0xW0NIMl1bQ0gyXVtDSDJdW0NIXTFbQ0BIXShDKEYpKEYpRilbTkhdQyg9TylbTkhdYzJbY0hdW2NIXVtjSF1ubjI=

> <s_epik_cmdline>
J2VwaWtfcHl0aG9uJywgJy1waCcsICc3LjAnLCAnLXRuJywgJzgnLCAnLW1hJywgJzIwMCcsICctbWV0YWxfYmluZGluZycsICctaW1hZScsICc8aW5maWxlLm1hZT4nLCAnLW9tYWUnLCAnPG91dGZpbGUubWFlPic=

> <r_epik_Ionization_Penalty>
0.0611197

> <r_epik_Ionization_Penalty_Charging>
0.0611196

> <r_epik_Ionization_Penalty_Neutral>
6.50554e-08

> <r_epik_State_Penalty>
2.29873

> <r_epik_Charging_Adjusted_Penalty>
2.35985

> <i_epik_Tot_Q>
0

> <i_epik_Tot_abs_Q>
0

> <r_epik_Metal_State_Penalty>
2.32932

> <b_epik_Metal_Only>
0

> <s_lp_Force_Field>
OPLS_2005

> <r_lp_Energy>
50.064

> <b_lp_Chiralities_Consistent>
1

> <s_lp_Variant>
AV-unprocessed.smi:2391-4

> <Gold.Version>
5.8.1

> <Gold.Id.Protein>
6NUR|6NUR_protein|mol2

> <Gold.PLP.Fitness>
47.8909

> <Gold.PLP.PLP>
-46.2062

> <Gold.PLP.part.hbond>
-1.0000

> <Gold.PLP.part.metal>
0.0000

> <Gold.PLP.part.buried>
-3.7516

> <Gold.PLP.part.nonpolar>
-41.6396

> <Gold.PLP.part.repulsive>
0.4509

> <Gold.PLP.ligand.clash>
0.0000

> <Gold.PLP.ligand.torsion>
0.8092

> <Gold.PLP.Chemscore.Hbond>
0.0000

> <Gold.PLP.Chemscore.CHOScore>
0.9820

> <Gold.PLP.Chemscore.Metal>
0.0000

> <Gold.Chemscore.Hbonds>
donor molecule, donor type, donor heavy atom, donor atom, acceptor molecule, acceptor atom, score
      L1  C     7    23       P1 10175  1.00

> <Gold.PLP.Chemscore.Internal.Correction>
0.3570

> <Gold.Rescore>
     Score         DG    S(hbond)    S(metal)    S(lipo)     H(rot)  DE(clash)    DE(int)     intcor
     11.75     -12.68       0.00        0.00      90.63       1.33       0.01       0.92       ----

> <Gold.Chemscore.Fitness>
11.7520

> <Gold.Chemscore.DG>
-12.6778

> <Gold.Chemscore.ZeroCoef>
-5.4800

> <Gold.Chemscore.Hbond>
0.0000

> <Gold.Chemscore.Metal>
0.0000

> <Gold.Chemscore.Lipo>
90.6286

> <Gold.Chemscore.Internal_Hbond>
0.0000

> <Gold.Chemscore.DEClash>
0.0085

> <Gold.Chemscore.DEInternal>
0.9173

> <Gold.Chemscore.Rot>
1.3304

> <Gold.Chemscore.Internal.Correction>
   9.000000E+99

> <Gold.Chemscore.Hbond.Weighted>
-0.0000

> <Gold.Chemscore.Metal.Weighted>
-0.0000

> <Gold.Chemscore.Lipo.Weighted>
-10.6035

> <Gold.Chemscore.Internal_Hbond.Weighted>
0.0000

> <Gold.Chemscore.DEClash.Weighted>
0.0085

> <Gold.Chemscore.DEInternal.Weighted>
0.9173

> <Gold.Chemscore.Rot.Weighted>
3.4057

> <Gold.Chemscore.Internal.Correction.Weighted>
   9.000000E+99

> <Gold.Protein.RotatedTorsions>
[ 6907 6896 6895 6894 ] final  -89.93 input  -60.11 | X-H torsion
[ 7974 7965 7964 7962 ] final  116.89 input  175.53 | X-H torsion
[ 8008 7997 7996 7995 ] final -155.42 input   59.86 | X-H torsion
[ 10167 10162 10161 10158 ] final   86.36 input  -65.29 | X-H torsion
[ 10718 10713 10712 10709 ] final  121.05 input   66.30 | X-H torsion
[ 10763 10752 10751 10750 ] final   21.17 input  -60.55 | X-H torsion
[ 11005 11000 10999 10996 ] final -157.59 input  -57.11 | X-H torsion

> <Gold.Protein.ActiveResidues>
 VAL166  LYS551  ARG553  GLY616  TRP617  ASP618  TYR619  PRO620  LYS621  CYS622 
 ASP623  PHE694  ASN695  SER759  ASP760  ASP761  ALA762  ILE779  LEU786  VAL792 
 PHE793  MET794  SER795  GLU796  ALA797  LYS798  CYS799  TRP800  GLU811  SER814 

> <Gold.Protein.RotatedAtoms>
  150.6877  134.2510  159.4510 H   0  0  0  0  0  0  0  0  0  0  0  0  # atno 6907 bound_to 6896
  152.0447  134.9687  160.0583 H   0  0  0  0  0  0  0  0  0  0  0  0  # atno 6908 bound_to 6896
  152.1175  133.4300  159.4697 H   0  0  0  0  0  0  0  0  0  0  0  0  # atno 6909 bound_to 6896
  145.1741  139.3085  143.4452 H   0  0  0  0  0  0  0  0  0  0  0  0  # atno 7974 bound_to 7965
  155.7015  140.0767  157.2408 H   0  0  0  0  0  0  0  0  0  0  0  0  # atno 8008 bound_to 7997
  154.4072  140.1646  156.2249 H   0  0  0  0  0  0  0  0  0  0  0  0  # atno 8009 bound_to 7997
  155.9364  140.3387  155.6294 H   0  0  0  0  0  0  0  0  0  0  0  0  # atno 8010 bound_to 7997
  139.8883  144.6400  150.8766 H   0  0  0  0  0  0  0  0  0  0  0  0  # atno 10167 bound_to 10162
  157.5846  131.1071  150.8119 H   0  0  0  0  0  0  0  0  0  0  0  0  # atno 10718 bound_to 10713
  153.1017  135.6674  153.9660 H   0  0  0  0  0  0  0  0  0  0  0  0  # atno 10763 bound_to 10752
  153.9229  135.3012  155.3448 H   0  0  0  0  0  0  0  0  0  0  0  0  # atno 10764 bound_to 10752
  154.7438  135.5067  153.9244 H   0  0  0  0  0  0  0  0  0  0  0  0  # atno 10765 bound_to 10752
  140.6629  134.4330  157.5234 H   0  0  0  0  0  0  0  0  0  0  0  0  # atno 11005 bound_to 11000
  146.3464  140.1897  142.8589 LP  0  0  0  0  0  0  0  0  0  0  0  0  # atno 17320 bound_to 7965
  145.0203  140.8788  143.5171 LP  0  0  0  0  0  0  0  0  0  0  0  0  # atno 17321 bound_to 7965
  140.7731  143.3530  151.1976 LP  0  0  0  0  0  0  0  0  0  0  0  0  # atno 17342 bound_to 10162
  139.7133  143.9342  152.2956 LP  0  0  0  0  0  0  0  0  0  0  0  0  # atno 17343 bound_to 10162
  156.8557  130.5095  149.5308 LP  0  0  0  0  0  0  0  0  0  0  0  0  # atno 17370 bound_to 10713
  156.0894  130.5884  150.9707 LP  0  0  0  0  0  0  0  0  0  0  0  0  # atno 17371 bound_to 10713
  139.9007  134.8563  156.1909 LP  0  0  0  0  0  0  0  0  0  0  0  0  # atno 17394 bound_to 11000
  141.0451  133.6917  156.1669 LP  0  0  0  0  0  0  0  0  0  0  0  0  # atno 17395 bound_to 11000

$$$$
