AV-unprocessed.smi:2611|AV-procd|sdf|10210|dock7
  -GOLD-   2272014213D 1   1.00000     0.00000
 Structure written by MMmdl.
 39 40  0  0  0  0  0  0  0  0  1 V2000
  146.7437  134.3014  160.8107 C   0  0  0  0  0  0  0  0  0  0  0  0
  147.6860  135.3250  161.4610 C   0  0  0  0  0  0  0  0  0  0  0  0
  146.9982  136.1688  162.5443 C   0  0  0  0  0  0  0  0  0  0  0  0
  148.3647  136.1827  160.4372 C   0  0  0  0  0  0  0  0  0  0  0  0
  148.2402  137.5050  160.4542 N   0  0  0  0  0  0  0  0  0  0  0  0
  149.0168  137.9193  159.3627 O   0  0  0  0  0  0  0  0  0  0  0  0
  149.5047  136.7855  158.8052 C   0  0  0  0  0  0  0  0  0  0  0  0
  150.4232  136.8957  157.6350 C   0  0  0  0  0  0  0  0  0  0  0  0
  151.7444  137.5954  157.9914 C   0  0  0  0  0  0  0  0  0  0  0  0
  151.5161  138.9441  158.4965 N   0  0  0  0  0  0  0  0  0  0  0  0
  152.4766  139.8108  158.8608 C   0  0  0  0  0  0  0  0  0  0  0  0
  153.6722  139.5164  158.8225 O   0  0  0  0  0  0  0  0  0  0  0  0
  152.0219  141.0154  159.2910 N   0  0  0  0  0  0  0  0  0  0  0  0
  150.8117  141.7020  158.8100 C   0  0  0  0  0  0  0  0  0  0  0  0
  151.2058  142.7001  157.7086 C   0  0  0  0  0  0  0  0  0  0  0  0
  152.3157  143.9861  158.3626 S   0  0  0  0  0  0  0  0  0  0  0  0
  153.5420  142.9358  159.2037 C   0  0  0  0  0  0  0  0  0  0  0  0
  152.8549  141.9019  160.1120 C   0  0  0  0  0  0  0  0  0  0  0  0
  149.1453  135.6745  159.4427 N   0  0  0  0  0  0  0  0  0  0  0  0
  147.2793  133.6714  160.1000 H   0  0  0  0  0  0  0  0  0  0  0  0
  145.9320  134.7936  160.2744 H   0  0  0  0  0  0  0  0  0  0  0  0
  146.2973  133.6476  161.5603 H   0  0  0  0  0  0  0  0  0  0  0  0
  148.4622  134.7489  161.9675 H   0  0  0  0  0  0  0  0  0  0  0  0
  147.7110  136.8307  163.0369 H   0  0  0  0  0  0  0  0  0  0  0  0
  146.5525  135.5345  163.3108 H   0  0  0  0  0  0  0  0  0  0  0  0
  146.2048  136.7871  162.1228 H   0  0  0  0  0  0  0  0  0  0  0  0
  150.6152  135.8930  157.2509 H   0  0  0  0  0  0  0  0  0  0  0  0
  149.9102  137.4412  156.8418 H   0  0  0  0  0  0  0  0  0  0  0  0
  152.2660  137.0310  158.7648 H   0  0  0  0  0  0  0  0  0  0  0  0
  152.4089  137.6240  157.1261 H   0  0  0  0  0  0  0  0  0  0  0  0
  150.5558  139.2476  158.5674 H   0  0  0  0  0  0  0  0  0  0  0  0
  150.0499  141.0172  158.4369 H   0  0  0  0  0  0  0  0  0  0  0  0
  150.3315  142.2303  159.6350 H   0  0  0  0  0  0  0  0  0  0  0  0
  151.7025  142.1837  156.8863 H   0  0  0  0  0  0  0  0  0  0  0  0
  150.3195  143.1813  157.2955 H   0  0  0  0  0  0  0  0  0  0  0  0
  154.1557  142.4352  158.4539 H   0  0  0  0  0  0  0  0  0  0  0  0
  154.2073  143.5728  159.7868 H   0  0  0  0  0  0  0  0  0  0  0  0
  152.2439  142.4060  160.8620 H   0  0  0  0  0  0  0  0  0  0  0  0
  153.6045  141.3463  160.6776 H   0  0  0  0  0  0  0  0  0  0  0  0
  1  2  1  0  0  0  0
  1 20  1  0  0  0  0
  1 21  1  0  0  0  0
  1 22  1  0  0  0  0
  2  3  1  0  0  0  0
  2  4  1  0  0  0  0
  2 23  1  0  0  0  0
  3 24  1  0  0  0  0
  3 25  1  0  0  0  0
  3 26  1  0  0  0  0
  4 19  1  0  0  0  0
  4  5  2  0  0  0  0
  5  6  1  0  0  0  0
  6  7  1  0  0  0  0
  7  8  1  0  0  0  0
  7 19  2  0  0  0  0
  8  9  1  0  0  0  0
  8 27  1  0  0  0  0
  8 28  1  0  0  0  0
  9 10  1  0  0  0  0
  9 29  1  0  0  0  0
  9 30  1  0  0  0  0
 10 11  1  0  0  0  0
 10 31  1  0  0  0  0
 11 12  2  0  0  0  0
 11 13  1  0  0  0  0
 13 18  1  0  0  0  0
 13 14  1  0  0  0  0
 14 15  1  0  0  0  0
 14 32  1  0  0  0  0
 14 33  1  0  0  0  0
 15 16  1  0  0  0  0
 15 34  1  0  0  0  0
 15 35  1  0  0  0  0
 16 17  1  0  0  0  0
 17 18  1  0  0  0  0
 17 36  1  0  0  0  0
 17 37  1  0  0  0  0
 18 38  1  0  0  0  0
 18 39  1  0  0  0  0
M  END
> <s_m_source_file>
AV-unprocessed.smi

> <i_m_source_file_index>
2611

> <i_lp_mmshare_version>
43012

> <i_f3d_flags>
0

> <s_epik_input>
W0NIM11bQ0hdKFtDSDNdKWMxbm9jKG4xKVtDSDJdW0NIMl1bTkhdQyg9TylOMltDSDJdW0NIMl1TW0NIMl1bQ0gyXTI=

> <s_epik_cmdline>
J2VwaWtfcHl0aG9uJywgJy1waCcsICc3LjAnLCAnLXRuJywgJzgnLCAnLW1hJywgJzIwMCcsICctbWV0YWxfYmluZGluZycsICctaW1hZScsICc8aW5maWxlLm1hZT4nLCAnLW9tYWUnLCAnPG91dGZpbGUubWFlPic=

> <r_lp_tautomer_probability>
1

> <r_epik_Ionization_Penalty>
4.28847e-05

> <r_epik_Ionization_Penalty_Charging>
0

> <r_epik_Ionization_Penalty_Neutral>
4.28847e-05

> <r_epik_State_Penalty>
-0

> <r_epik_Charging_Adjusted_Penalty>
0

> <i_epik_Tot_Q>
0

> <i_epik_Tot_abs_Q>
0

> <r_epik_Metal_State_Penalty>
-0

> <b_epik_Metal_Only>
0

> <s_lp_Force_Field>
OPLS_2005

> <r_lp_Energy>
14.602

> <b_lp_Chiralities_Consistent>
1

> <s_lp_Variant>
AV-unprocessed.smi:2611-1

> <Gold.Version>
5.8.1

> <Gold.Id.Protein>
6NUR|6NUR_protein|mol2

> <Gold.PLP.Fitness>
44.0425

> <Gold.PLP.PLP>
-35.3445

> <Gold.PLP.part.hbond>
-5.7815

> <Gold.PLP.part.metal>
0.0000

> <Gold.PLP.part.buried>
-3.1201

> <Gold.PLP.part.nonpolar>
-27.3877

> <Gold.PLP.part.repulsive>
0.0814

> <Gold.PLP.ligand.clash>
0.0000

> <Gold.PLP.ligand.torsion>
0.3768

> <Gold.PLP.Chemscore.Hbond>
3.1110

> <Gold.PLP.Chemscore.CHOScore>
0.0000

> <Gold.PLP.Chemscore.Metal>
0.0000

> <Gold.Chemscore.Hbonds>
donor molecule, donor type, donor heavy atom, donor atom, acceptor molecule, acceptor atom, score
      P1  H  6896  6908       L1    19  1.00
      P1  H  6931  6943       L1     5  0.59
      P1  H  6934  6947       L1     5  0.56
      P1  H  7997  8010       L1    12  0.83

> <Gold.PLP.Chemscore.Internal.Correction>
0.1186

> <Gold.Rescore>
     Score         DG    S(hbond)    S(metal)    S(lipo)     H(rot)  DE(clash)    DE(int)     intcor
     18.40     -18.84       2.46        0.00      81.60       1.72       0.05       0.38       ----

> <Gold.Chemscore.Fitness>
18.3999

> <Gold.Chemscore.DG>
-18.8366

> <Gold.Chemscore.ZeroCoef>
-5.4800

> <Gold.Chemscore.Hbond>
2.4583

> <Gold.Chemscore.Metal>
0.0000

> <Gold.Chemscore.Lipo>
81.6023

> <Gold.Chemscore.Internal_Hbond>
0.0000

> <Gold.Chemscore.DEClash>
0.0540

> <Gold.Chemscore.DEInternal>
0.3827

> <Gold.Chemscore.Rot>
1.7193

> <Gold.Chemscore.Internal.Correction>
   9.000000E+99

> <Gold.Chemscore.Hbonds>
donor molecule, donor type, donor heavy atom, donor atom, acceptor molecule, acceptor atom, score
      P1  H  6896  6908       L1    19  0.50
      P1  H  6931  6943       L1     5  0.22
      P1  H  6934  6947       L1     5  0.25
      P1  H  7997  8010       L1    12  0.78

> <Gold.Chemscore.Hbond.Weighted>
-8.2107

> <Gold.Chemscore.Metal.Weighted>
-0.0000

> <Gold.Chemscore.Lipo.Weighted>
-9.5475

> <Gold.Chemscore.Internal_Hbond.Weighted>
0.0000

> <Gold.Chemscore.DEClash.Weighted>
0.0540

> <Gold.Chemscore.DEInternal.Weighted>
0.3827

> <Gold.Chemscore.Rot.Weighted>
4.4015

> <Gold.Chemscore.Internal.Correction.Weighted>
   9.000000E+99

> <Gold.Protein.RotatedTorsions>
[ 6907 6896 6895 6894 ] final  176.45 input  -60.11 | X-H torsion
[ 7974 7965 7964 7962 ] final -133.29 input  175.53 | X-H torsion
[ 8008 7997 7996 7995 ] final    2.55 input   59.86 | X-H torsion
[ 10167 10162 10161 10158 ] final   54.27 input  -65.29 | X-H torsion
[ 10718 10713 10712 10709 ] final  -60.95 input   66.30 | X-H torsion
[ 10763 10752 10751 10750 ] final   45.64 input  -60.55 | X-H torsion
[ 11005 11000 10999 10996 ] final   52.60 input  -57.11 | X-H torsion

> <Gold.Protein.ActiveResidues>
 VAL166  LYS551  ARG553  GLY616  TRP617  ASP618  TYR619  PRO620  LYS621  CYS622 
 ASP623  PHE694  ASN695  SER759  ASP760  ASP761  ALA762  ILE779  LEU786  VAL792 
 PHE793  MET794  SER795  GLU796  ALA797  LYS798  CYS799  TRP800  GLU811  SER814 

> <Gold.Protein.RotatedAtoms>
  151.7200  133.3314  159.3312 H   0  0  0  0  0  0  0  0  0  0  0  0  # atno 6907 bound_to 6896
  150.7657  134.6457  159.6270 H   0  0  0  0  0  0  0  0  0  0  0  0  # atno 6908 bound_to 6896
  152.3658  134.6808  160.0244 H   0  0  0  0  0  0  0  0  0  0  0  0  # atno 6909 bound_to 6896
  144.9207  140.7010  143.4967 H   0  0  0  0  0  0  0  0  0  0  0  0  # atno 7974 bound_to 7965
  154.6930  140.2657  155.6794 H   0  0  0  0  0  0  0  0  0  0  0  0  # atno 8008 bound_to 7997
  156.2739  140.2787  156.1438 H   0  0  0  0  0  0  0  0  0  0  0  0  # atno 8009 bound_to 7997
  155.0870  140.0373  157.2647 H   0  0  0  0  0  0  0  0  0  0  0  0  # atno 8010 bound_to 7997
  140.2319  144.3677  150.6411 H   0  0  0  0  0  0  0  0  0  0  0  0  # atno 10167 bound_to 10162
  156.0955  130.4193  150.0926 H   0  0  0  0  0  0  0  0  0  0  0  0  # atno 10718 bound_to 10713
  152.9821  135.6033  154.3469 H   0  0  0  0  0  0  0  0  0  0  0  0  # atno 10763 bound_to 10752
  154.3161  135.2770  155.2544 H   0  0  0  0  0  0  0  0  0  0  0  0  # atno 10764 bound_to 10752
  154.4731  135.5936  153.6392 H   0  0  0  0  0  0  0  0  0  0  0  0  # atno 10765 bound_to 10752
  140.0835  134.5306  155.8922 H   0  0  0  0  0  0  0  0  0  0  0  0  # atno 11005 bound_to 11000
  145.3301  139.1762  143.4541 LP  0  0  0  0  0  0  0  0  0  0  0  0  # atno 17320 bound_to 7965
  146.3203  140.3329  142.8642 LP  0  0  0  0  0  0  0  0  0  0  0  0  # atno 17321 bound_to 7965
  140.6178  143.2174  151.6755 LP  0  0  0  0  0  0  0  0  0  0  0  0  # atno 17342 bound_to 10162
  139.5107  144.3534  152.0630 LP  0  0  0  0  0  0  0  0  0  0  0  0  # atno 17343 bound_to 10162
  156.8926  130.9593  151.3586 LP  0  0  0  0  0  0  0  0  0  0  0  0  # atno 17370 bound_to 10713
  157.6115  130.8586  149.8959 LP  0  0  0  0  0  0  0  0  0  0  0  0  # atno 17371 bound_to 10713
  141.2055  133.6647  156.6183 LP  0  0  0  0  0  0  0  0  0  0  0  0  # atno 17394 bound_to 11000
  140.3453  134.7814  157.4428 LP  0  0  0  0  0  0  0  0  0  0  0  0  # atno 17395 bound_to 11000

$$$$
