#       Name:                AV-unprocessed.smi:48
#       Creating user name   scv26
#       Creation time:       Thu Mar 26 16:32:28 2020


#       File generated by GOLD software.
#

@<TRIPOS>MOLECULE
AV-unprocessed.smi:48
    41    43     1
SMALL
NO_CHARGES


@<TRIPOS>ATOM
      1 ****        -0.3001   1.5930  -3.7826 O.3            1 S1                 0.0000
      2 ****        -0.7405   0.5385  -2.9541 C.3            1 S1                 0.0000
      3 ****         0.4394  -0.0237  -2.1415 C.3            1 S1                 0.0000
      4 ****         0.6812   0.7617  -0.9834 O.3            1 S1                 0.0000
      5 ****         1.4391   0.0181  -0.0833 C.3            1 S1                 0.0000
      6 ****         1.0085   0.3812   1.2998 N.pl3          1 S1                 0.0000
      7 ****         1.7986   0.5692   2.3761 C.2            1 S1                 0.0000
      8 ****         1.2049   0.8837   3.5266 N.2            1 S1                 0.0000
      9 ****        -0.1286   0.9042   3.1522 C.ar           1 S1                 0.0000
     10 ****        -1.3218   1.1665   3.8684 C.ar           1 S1                 0.0000
     11 ****        -1.2820   1.5525   5.5498 Cl             1 S1                 0.0000
     12 ****        -2.5001   1.1072   3.2033 N.ar           1 S1                 0.0000
     13 ****        -2.5019   0.8061   1.8991 C.ar           1 S1                 0.0000
     14 ****        -1.4653   0.5374   1.0975 N.ar           1 S1                 0.0000
     15 ****        -0.2776   0.5958   1.7697 C.ar           1 S1                 0.0000
     16 ****         1.1817  -1.4721  -0.3673 C.3            1 S1                 0.0000
     17 ****         2.3790  -2.1337  -0.7227 O.3            1 S1                 0.0000
     18 ****         0.2426  -1.4369  -1.5711 C.3            1 S1                 0.0000
     19 ****        -1.0941  -1.6541  -1.1598 O.3            1 S1                 0.0000
     20 ****         1.3466  -0.0283  -2.7489 H              1 S1                 0.0000
     21 ****         2.4912   0.3030  -0.1398 H              1 S1                 0.0000
     22 ****         0.7389  -1.9728   0.4956 H              1 S1                 0.0000
     23 ****         0.4822  -2.1998  -2.3134 H              1 S1                 0.0000
     24 ****        -1.0401   1.9216  -4.2701 H              1 S1                 0.0000
     25 ****        -1.5452   0.8807  -2.3022 H              1 S1                 0.0000
     26 ****        -1.1521  -0.2342  -3.6040 H              1 S1                 0.0000
     27 ****         2.8721   0.4652   2.3121 H              1 S1                 0.0000
     28 ****        -3.4738   0.7754   1.4293 H              1 S1                 0.0000
     29 ****         2.1747  -3.0346  -0.9225 H              1 S1                 0.0000
     30 ****        -1.6585  -1.5698  -1.9128 H              1 S1                 0.0000
     31 ****         0.3975   1.2560  -4.4150 LP             1 S1                 0.0000
     32 ****         0.0852   2.3249  -3.2206 LP             1 S1                 0.0000
     33 ****        -0.1895   1.0135  -0.5610 LP             1 S1                 0.0000
     34 ****         1.1802   1.5901  -1.2380 LP             1 S1                 0.0000
     35 ****         1.6135   1.0585   4.4224 LP             1 S1                 0.0000
     36 ****        -3.3598   1.2865   3.6816 LP             1 S1                 0.0000
     37 ****        -1.5495   0.3203   0.1250 LP             1 S1                 0.0000
     38 ****         3.0251  -2.0951   0.0396 LP             1 S1                 0.0000
     39 ****         2.7829  -1.6933  -1.5245 LP             1 S1                 0.0000
     40 ****        -1.3488  -0.9762  -0.4702 LP             1 S1                 0.0000
     41 ****        -1.1827  -2.5722  -0.7734 LP             1 S1                 0.0000
@<TRIPOS>BOND
    1    1    2 1     
    2    1   24 1     
    3    2    3 1     
    4    2   25 1     
    5    2   26 1     
    6    3   20 1     
    7    3   18 1     
    8    3    4 1     
    9    4    5 1     
   10    5   21 1     
   11    5    6 1     
   12    5   16 1     
   13    6   15 1     
   14    6    7 1     
   15    7    8 2     
   16    7   27 1     
   17    8    9 1     
   18    9   15 ar    
   19    9   10 ar    
   20   10   11 1     
   21   10   12 ar    
   22   12   13 ar    
   23   13   14 ar    
   24   13   28 1     
   25   14   15 ar    
   26   16   22 1     
   27   16   17 1     
   28   16   18 1     
   29   17   29 1     
   30   18   23 1     
   31   18   19 1     
   32   19   30 1     
   33    1   31 1     
   34    1   32 1     
   35    4   33 1     
   36    4   34 1     
   37    8   35 1     
   38   12   36 1     
   39   14   37 1     
   40   17   38 1     
   41   17   39 1     
   42   19   40 1     
   43   19   41 1     
@<TRIPOS>SUBSTRUCTURE
      1 S1             1
@<TRIPOS>SET
LONE_PAIRS      STATIC     ATOMS    <user>   **** ""
11 31 32 33 34 35 36 37 38 39 40 41
DONOR_HYDROGENS      STATIC     ATOMS    <user>   **** ""
3 24 29 30
ATOM$BLUE        STATIC     ATOMS    COLORGROUP SYSTEM
11 31 32 33 34 35 36 37 38 39 40 41
ATOM$RED        STATIC     ATOMS    COLORGROUP SYSTEM
3 24 29 30
