AV-unprocessed.smi:9|AV-procd|sdf|51|dock10
  -GOLD-   2262015173D 1   1.00000     0.00000
 Structure written by MMmdl.
 35 37  0  0  0  0  0  0  0  0  1 V2000
  143.5230  144.2409  156.0579 O   0  0  0  0  0  0  0  0  0  0  0  0
  144.1247  143.1869  156.2521 C   0  0  0  0  0  0  0  0  0  0  0  0
  143.8829  142.3665  157.3034 N   0  0  0  0  0  0  0  0  0  0  0  0
  144.5820  141.1519  157.5234 C   0  0  0  0  0  0  0  0  0  0  0  0
  144.0890  140.4548  158.7817 C   0  0  0  0  0  0  0  0  0  0  0  0
  144.7369  139.3062  158.9816 F   0  0  0  0  0  0  0  0  0  0  0  0
  144.2807  141.2291  159.8502 F   0  0  0  0  0  0  0  0  0  0  0  0
  142.7869  140.1849  158.6846 F   0  0  0  0  0  0  0  0  0  0  0  0
  145.5307  140.6633  156.7663 N   0  0  0  0  0  0  0  0  0  0  0  0
  145.7887  141.4829  155.6856 C   0  0  0  0  0  0  0  0  0  0  0  0
  145.1942  142.6742  155.3604 C   0  0  0  0  0  0  0  0  0  0  0  0
  145.7345  143.2075  154.1967 N   0  0  0  0  0  0  0  0  0  0  0  0
  146.6462  142.2958  153.8642 C   0  0  0  0  0  0  0  0  0  0  0  0
  146.7312  141.2366  154.6925 N   0  0  0  0  0  0  0  0  0  0  0  0
  147.6313  140.0978  154.5714 C   0  0  0  0  0  0  0  0  0  0  0  0
  149.1366  140.4701  154.5710 C   0  0  1  0  0  0  0  0  0  0  0  0
  149.4095  141.1284  153.3478 O   0  0  0  0  0  0  0  0  0  0  0  0
  149.5051  141.4040  155.7453 C   0  0  0  0  0  0  0  0  0  0  0  0
  151.0221  141.5543  155.8978 C   0  0  0  0  0  0  0  0  0  0  0  0
  151.6866  140.1745  155.9557 C   0  0  0  0  0  0  0  0  0  0  0  0
  151.3812  139.4613  154.7655 O   0  0  0  0  0  0  0  0  0  0  0  0
  149.9933  139.1817  154.5993 C   0  0  0  0  0  0  0  0  0  0  0  0
  143.1677  142.6396  157.9617 H   0  0  0  0  0  0  0  0  0  0  0  0
  147.2679  142.3977  152.9866 H   0  0  0  0  0  0  0  0  0  0  0  0
  147.4198  139.4189  155.3987 H   0  0  0  0  0  0  0  0  0  0  0  0
  147.3745  139.5508  153.6631 H   0  0  0  0  0  0  0  0  0  0  0  0
  149.3456  140.4956  152.6488 H   0  0  0  0  0  0  0  0  0  0  0  0
  149.0477  142.3867  155.6243 H   0  0  0  0  0  0  0  0  0  0  0  0
  149.1034  140.9901  156.6712 H   0  0  0  0  0  0  0  0  0  0  0  0
  151.4272  142.1213  155.0591 H   0  0  0  0  0  0  0  0  0  0  0  0
  151.2531  142.1223  156.7994 H   0  0  0  0  0  0  0  0  0  0  0  0
  152.7685  140.2826  156.0337 H   0  0  0  0  0  0  0  0  0  0  0  0
  151.3567  139.6128  156.8311 H   0  0  0  0  0  0  0  0  0  0  0  0
  149.6742  138.5357  155.4189 H   0  0  0  0  0  0  0  0  0  0  0  0
  149.8554  138.6056  153.6833 H   0  0  0  0  0  0  0  0  0  0  0  0
  1  2  2  0  0  0  0
  2 11  1  0  0  0  0
  2  3  1  0  0  0  0
  3 23  1  0  0  0  0
  3  4  1  0  0  0  0
  4  5  1  0  0  0  0
  4  9  2  0  0  0  0
  5  6  1  0  0  0  0
  5  7  1  0  0  0  0
  5  8  1  0  0  0  0
  9 10  1  0  0  0  0
 10 14  1  0  0  0  0
 10 11  2  0  0  0  0
 11 12  1  0  0  0  0
 12 13  2  0  0  0  0
 13 14  1  0  0  0  0
 13 24  1  0  0  0  0
 14 15  1  0  0  0  0
 15 16  1  0  0  0  0
 15 25  1  0  0  0  0
 15 26  1  0  0  0  0
 16 22  1  0  0  0  0
 16 17  1  0  0  0  0
 16 18  1  0  0  0  0
 17 27  1  0  0  0  0
 18 19  1  0  0  0  0
 18 28  1  0  0  0  0
 18 29  1  0  0  0  0
 19 20  1  0  0  0  0
 19 30  1  0  0  0  0
 19 31  1  0  0  0  0
 20 21  1  0  0  0  0
 20 32  1  0  0  0  0
 20 33  1  0  0  0  0
 21 22  1  0  0  0  0
 22 34  1  0  0  0  0
 22 35  1  0  0  0  0
M  END
> <s_m_source_file>
AV-unprocessed.smi

> <i_m_source_file_index>
9

> <i_lp_mmshare_version>
43012

> <i_f3d_flags>
0

> <s_epik_input>
RkMoRikoRiljKG4xKVtuSF1jKD1PKWMoYzEyKW5bY0hdbjJbQ0gyXVtDQEBdMyhbT0hdKVtDSDJdW0NIMl1bQ0gyXU9bQ0gyXTM=

> <s_epik_cmdline>
J2VwaWtfcHl0aG9uJywgJy1waCcsICc3LjAnLCAnLXRuJywgJzgnLCAnLW1hJywgJzIwMCcsICctbWV0YWxfYmluZGluZycsICctaW1hZScsICc8aW5maWxlLm1hZT4nLCAnLW9tYWUnLCAnPG91dGZpbGUubWFlPic=

> <r_lp_tautomer_probability>
0.85571

> <r_epik_Ionization_Penalty>
0.770127

> <r_epik_Ionization_Penalty_Charging>
0.770101

> <r_epik_Ionization_Penalty_Neutral>
2.64604e-05

> <r_epik_State_Penalty>
2.30539

> <r_epik_Charging_Adjusted_Penalty>
3.07549

> <i_epik_Tot_Q>
0

> <i_epik_Tot_abs_Q>
0

> <r_epik_Metal_State_Penalty>
2.4903

> <b_epik_Metal_Only>
0

> <s_lp_Force_Field>
OPLS_2005

> <r_lp_Energy>
27.1686

> <b_lp_Chiralities_Consistent>
1

> <s_lp_Variant>
AV-unprocessed.smi:9-3

> <Gold.Version>
5.8.1

> <Gold.Id.Protein>
6NUR|6NUR_protein|mol2

> <Gold.PLP.Fitness>
37.3770

> <Gold.PLP.PLP>
-29.2492

> <Gold.PLP.part.hbond>
-3.6923

> <Gold.PLP.part.metal>
0.0000

> <Gold.PLP.part.buried>
-6.5568

> <Gold.PLP.part.nonpolar>
-18.9491

> <Gold.PLP.part.repulsive>
0.3349

> <Gold.PLP.ligand.clash>
0.0000

> <Gold.PLP.ligand.torsion>
0.0642

> <Gold.PLP.Chemscore.Hbond>
2.7500

> <Gold.PLP.Chemscore.CHOScore>
0.0000

> <Gold.PLP.Chemscore.Metal>
0.0000

> <Gold.Chemscore.Hbonds>
donor molecule, donor type, donor heavy atom, donor atom, acceptor molecule, acceptor atom, score
      L1  H    17    27       P1  7957  1.00
      P1  H  7989  7998       L1    21  0.95
      P1  H  8011  8017       L1    17  0.70

> <Gold.PLP.Chemscore.Internal.Correction>
0.0063

> <Gold.Rescore>
     Score         DG    S(hbond)    S(metal)    S(lipo)     H(rot)  DE(clash)    DE(int)     intcor
      8.16      -9.41       1.26        0.00      44.27       2.14       0.41       0.84       ----

> <Gold.Chemscore.Fitness>
8.1561

> <Gold.Chemscore.DG>
-9.4125

> <Gold.Chemscore.ZeroCoef>
-5.4800

> <Gold.Chemscore.Hbond>
1.2646

> <Gold.Chemscore.Metal>
0.0000

> <Gold.Chemscore.Lipo>
44.2743

> <Gold.Chemscore.Internal_Hbond>
0.0000

> <Gold.Chemscore.DEClash>
0.4123

> <Gold.Chemscore.DEInternal>
0.8441

> <Gold.Chemscore.Rot>
2.1373

> <Gold.Chemscore.Internal.Correction>
   9.000000E+99

> <Gold.Chemscore.Hbonds>
donor molecule, donor type, donor heavy atom, donor atom, acceptor molecule, acceptor atom, score
      L1  H    17    27       P1  7957  0.93
      P1  H  7989  7998       L1    21  0.07
      P1  H  8011  8017       L1    17  0.07

> <Gold.Chemscore.Hbond.Weighted>
-4.2238

> <Gold.Chemscore.Metal.Weighted>
-0.0000

> <Gold.Chemscore.Lipo.Weighted>
-5.1801

> <Gold.Chemscore.Internal_Hbond.Weighted>
0.0000

> <Gold.Chemscore.DEClash.Weighted>
0.4123

> <Gold.Chemscore.DEInternal.Weighted>
0.8441

> <Gold.Chemscore.Rot.Weighted>
5.4714

> <Gold.Chemscore.Internal.Correction.Weighted>
   9.000000E+99

> <Gold.Protein.RotatedTorsions>
[ 6907 6896 6895 6894 ] final  -23.13 input  -60.11 | X-H torsion
[ 7974 7965 7964 7962 ] final  -14.88 input  175.53 | X-H torsion
[ 8008 7997 7996 7995 ] final   -2.03 input   59.86 | X-H torsion
[ 10167 10162 10161 10158 ] final   19.72 input  -65.29 | X-H torsion
[ 10718 10713 10712 10709 ] final -119.44 input   66.30 | X-H torsion
[ 10763 10752 10751 10750 ] final   85.45 input  -60.55 | X-H torsion
[ 11005 11000 10999 10996 ] final  -32.43 input  -57.11 | X-H torsion

> <Gold.Protein.ActiveResidues>
 VAL166  LYS551  ARG553  GLY616  TRP617  ASP618  TYR619  PRO620  LYS621  CYS622 
 ASP623  PHE694  ASN695  SER759  ASP760  ASP761  ALA762  ILE779  LEU786  VAL792 
 PHE793  MET794  SER795  GLU796  ALA797  LYS798  CYS799  TRP800  GLU811  SER814 

> <Gold.Protein.RotatedAtoms>
  151.2085  135.0472  159.8901 H   0  0  0  0  0  0  0  0  0  0  0  0  # atno 6907 bound_to 6896
  152.5427  134.0771  159.8229 H   0  0  0  0  0  0  0  0  0  0  0  0  # atno 6908 bound_to 6896
  151.0921  133.5260  159.2646 H   0  0  0  0  0  0  0  0  0  0  0  0  # atno 6909 bound_to 6896
  146.2056  140.3412  142.8408 H   0  0  0  0  0  0  0  0  0  0  0  0  # atno 7974 bound_to 7965
  154.6402  140.2544  155.7331 H   0  0  0  0  0  0  0  0  0  0  0  0  # atno 8008 bound_to 7997
  156.2525  140.2889  156.0713 H   0  0  0  0  0  0  0  0  0  0  0  0  # atno 8009 bound_to 7997
  155.1608  140.0384  157.2832 H   0  0  0  0  0  0  0  0  0  0  0  0  # atno 8010 bound_to 7997
  140.5558  143.9427  150.6608 H   0  0  0  0  0  0  0  0  0  0  0  0  # atno 10167 bound_to 10162
  156.1181  130.6302  150.9416 H   0  0  0  0  0  0  0  0  0  0  0  0  # atno 10718 bound_to 10713
  153.1476  135.4617  154.9589 H   0  0  0  0  0  0  0  0  0  0  0  0  # atno 10763 bound_to 10752
  154.7798  135.3185  154.8016 H   0  0  0  0  0  0  0  0  0  0  0  0  # atno 10764 bound_to 10752
  153.8527  135.6920  153.4845 H   0  0  0  0  0  0  0  0  0  0  0  0  # atno 10765 bound_to 10752
  140.9552  133.7197  156.1282 H   0  0  0  0  0  0  0  0  0  0  0  0  # atno 11005 bound_to 11000
  144.8784  140.7367  143.6002 LP  0  0  0  0  0  0  0  0  0  0  0  0  # atno 17320 bound_to 7965
  145.3332  139.1753  143.4525 LP  0  0  0  0  0  0  0  0  0  0  0  0  # atno 17321 bound_to 7965
  140.2865  143.3353  152.1102 LP  0  0  0  0  0  0  0  0  0  0  0  0  # atno 17342 bound_to 10162
  139.5047  144.6781  151.6078 LP  0  0  0  0  0  0  0  0  0  0  0  0  # atno 17343 bound_to 10162
  157.6364  131.0915  150.8339 LP  0  0  0  0  0  0  0  0  0  0  0  0  # atno 17370 bound_to 10713
  156.8439  130.5057  149.5318 LP  0  0  0  0  0  0  0  0  0  0  0  0  # atno 17371 bound_to 10713
  140.7546  134.4006  157.5536 LP  0  0  0  0  0  0  0  0  0  0  0  0  # atno 17394 bound_to 11000
  139.8860  134.8922  156.2611 LP  0  0  0  0  0  0  0  0  0  0  0  0  # atno 17395 bound_to 11000

$$$$
