AV-unprocessed.smi:166|AV-procd|sdf|1388|dock10
  -GOLD-   2262019123D 1   1.00000     0.00000
 Structure written by MMmdl.
 54 58  0  0  0  0  0  0  0  0  1 V2000
  149.7847  143.6885  158.0290 O   0  0  0  0  0  0  0  0  0  0  0  0
  151.1824  143.4565  157.9791 C   0  0  1  0  0  0  0  0  0  0  0  0
  151.4784  142.3937  156.8939 C   0  0  0  0  0  0  0  0  0  0  0  0
  150.7881  141.1304  157.1093 N   0  0  0  0  0  0  0  0  0  0  0  0
  150.2828  140.6569  158.2994 C   0  0  0  0  0  0  0  0  0  0  0  0
  149.7052  139.4887  158.2342 N   0  0  0  0  0  0  0  0  0  0  0  0
  149.8046  139.1341  156.8940 C   0  0  0  0  0  0  0  0  0  0  0  0
  149.3957  138.0010  156.1353 C   0  0  0  0  0  0  0  0  0  0  0  0
  148.7393  136.9478  156.6852 N   0  0  0  0  0  0  0  0  0  0  0  0
  149.1730  135.6371  156.2018 C   0  0  0  0  0  0  0  0  0  0  0  0
  148.1375  134.5557  156.5493 C   0  0  0  0  0  0  0  0  0  0  0  0
  147.8237  134.5606  158.0527 C   0  0  0  0  0  0  0  0  0  0  0  0
  147.3690  135.9593  158.4999 C   0  0  1  0  0  0  0  0  0  0  0  0
  147.1818  135.9184  159.9079 O   0  0  0  0  0  0  0  0  0  0  0  0
  148.3539  135.6066  160.6493 C   0  0  0  0  0  0  0  0  0  0  0  0
  148.0953  135.6854  162.1428 C   0  0  0  0  0  0  0  0  0  0  0  0
  147.9987  134.4285  162.9831 C   0  0  0  0  0  0  0  0  0  0  0  0
  146.7669  135.2551  162.7307 C   0  0  0  0  0  0  0  0  0  0  0  0
  148.4274  137.0137  158.1144 C   0  0  0  0  0  0  0  0  0  0  0  0
  149.6890  138.0000  154.8069 N   0  0  0  0  0  0  0  0  0  0  0  0
  150.3279  139.0357  154.2551 C   0  0  0  0  0  0  0  0  0  0  0  0
  150.7626  140.1541  154.8380 N   0  0  0  0  0  0  0  0  0  0  0  0
  150.4818  140.1580  156.1726 C   0  0  0  0  0  0  0  0  0  0  0  0
  151.8760  144.7873  157.7102 C   0  0  0  0  0  0  0  0  0  0  0  0
  152.0987  145.3420  159.1106 C   0  0  0  0  0  0  0  0  0  0  0  0
  152.4609  144.1882  159.8484 O   0  0  0  0  0  0  0  0  0  0  0  0
  151.6699  143.0924  159.3984 C   0  0  0  0  0  0  0  0  0  0  0  0
  149.4860  143.9121  157.1609 H   0  0  0  0  0  0  0  0  0  0  0  0
  151.2017  142.7705  155.9083 H   0  0  0  0  0  0  0  0  0  0  0  0
  152.5495  142.1924  156.8523 H   0  0  0  0  0  0  0  0  0  0  0  0
  150.3621  141.2061  159.2263 H   0  0  0  0  0  0  0  0  0  0  0  0
  149.3392  135.6426  155.1252 H   0  0  0  0  0  0  0  0  0  0  0  0
  150.1312  135.3950  156.6636 H   0  0  0  0  0  0  0  0  0  0  0  0
  147.2216  134.7324  155.9838 H   0  0  0  0  0  0  0  0  0  0  0  0
  148.5054  133.5751  156.2466 H   0  0  0  0  0  0  0  0  0  0  0  0
  147.0518  133.8241  158.2776 H   0  0  0  0  0  0  0  0  0  0  0  0
  148.7118  134.2638  158.6124 H   0  0  0  0  0  0  0  0  0  0  0  0
  146.4225  136.1868  158.0052 H   0  0  0  0  0  0  0  0  0  0  0  0
  148.7062  134.6024  160.4152 H   0  0  0  0  0  0  0  0  0  0  0  0
  149.1532  136.3049  160.3979 H   0  0  0  0  0  0  0  0  0  0  0  0
  148.5722  136.5386  162.6215 H   0  0  0  0  0  0  0  0  0  0  0  0
  148.0703  133.4673  162.4777 H   0  0  0  0  0  0  0  0  0  0  0  0
  148.4282  134.4600  163.9823 H   0  0  0  0  0  0  0  0  0  0  0  0
  146.3747  135.8375  163.5618 H   0  0  0  0  0  0  0  0  0  0  0  0
  146.0166  134.8450  162.0577 H   0  0  0  0  0  0  0  0  0  0  0  0
  149.3407  136.8502  158.6881 H   0  0  0  0  0  0  0  0  0  0  0  0
  148.0652  138.0122  158.3605 H   0  0  0  0  0  0  0  0  0  0  0  0
  150.5185  138.9567  153.1950 H   0  0  0  0  0  0  0  0  0  0  0  0
  152.8458  144.6213  157.2388 H   0  0  0  0  0  0  0  0  0  0  0  0
  151.3066  145.4603  157.0679 H   0  0  0  0  0  0  0  0  0  0  0  0
  152.8771  146.1042  159.1460 H   0  0  0  0  0  0  0  0  0  0  0  0
  151.1789  145.7658  159.5169 H   0  0  0  0  0  0  0  0  0  0  0  0
  150.8413  142.9240  160.0883 H   0  0  0  0  0  0  0  0  0  0  0  0
  152.2913  142.1979  159.4116 H   0  0  0  0  0  0  0  0  0  0  0  0
  1  2  1  0  0  0  0
  1 28  1  0  0  0  0
  2 27  1  0  0  0  0
  2  3  1  0  0  0  0
  2 24  1  0  0  0  0
  3  4  1  0  0  0  0
  3 29  1  0  0  0  0
  3 30  1  0  0  0  0
  4 23  1  0  0  0  0
  4  5  1  0  0  0  0
  5  6  2  0  0  0  0
  5 31  1  0  0  0  0
  6  7  1  0  0  0  0
  7 23  2  0  0  0  0
  7  8  1  0  0  0  0
  8  9  1  0  0  0  0
  8 20  2  0  0  0  0
  9 19  1  0  0  0  0
  9 10  1  0  0  0  0
 10 11  1  0  0  0  0
 10 32  1  0  0  0  0
 10 33  1  0  0  0  0
 11 12  1  0  0  0  0
 11 34  1  0  0  0  0
 11 35  1  0  0  0  0
 12 13  1  0  0  0  0
 12 36  1  0  0  0  0
 12 37  1  0  0  0  0
 13 14  1  0  0  0  0
 13 19  1  0  0  0  0
 13 38  1  0  0  0  0
 14 15  1  0  0  0  0
 15 16  1  0  0  0  0
 15 39  1  0  0  0  0
 15 40  1  0  0  0  0
 16 18  1  0  0  0  0
 16 17  1  0  0  0  0
 16 41  1  0  0  0  0
 17 18  1  0  0  0  0
 17 42  1  0  0  0  0
 17 43  1  0  0  0  0
 18 44  1  0  0  0  0
 18 45  1  0  0  0  0
 19 46  1  0  0  0  0
 19 47  1  0  0  0  0
 20 21  1  0  0  0  0
 21 22  2  0  0  0  0
 21 48  1  0  0  0  0
 22 23  1  0  0  0  0
 24 25  1  0  0  0  0
 24 49  1  0  0  0  0
 24 50  1  0  0  0  0
 25 26  1  0  0  0  0
 25 51  1  0  0  0  0
 25 52  1  0  0  0  0
 26 27  1  0  0  0  0
 27 53  1  0  0  0  0
 27 54  1  0  0  0  0
M  END
> <s_m_source_file>
AV-unprocessed.smi

> <i_m_source_file_index>
166

> <i_lp_mmshare_version>
43012

> <i_f3d_flags>
0

> <s_epik_input>
W0NIMl0xT1tDSDJdW0NIMl1bQ0BAXTEoW09IXSlbQ0gyXW4oW2NIXW4yKWMoYzIzKW5bY0hdbmMzTjRbQ0gyXVtDSDJdW0NIMl1bQ0BIXShbQ0gyXTQpT1tDSDJdW0NIXTVbQ0gyXVtDSDJdNQ==

> <s_epik_cmdline>
J2VwaWtfcHl0aG9uJywgJy1waCcsICc3LjAnLCAnLXRuJywgJzgnLCAnLW1hJywgJzIwMCcsICctbWV0YWxfYmluZGluZycsICctaW1hZScsICc8aW5maWxlLm1hZT4nLCAnLW9tYWUnLCAnPG91dGZpbGUubWFlPic=

> <r_lp_tautomer_probability>
1

> <r_epik_Ionization_Penalty>
0.00342552

> <r_epik_Ionization_Penalty_Charging>
0

> <r_epik_Ionization_Penalty_Neutral>
0.00342552

> <r_epik_State_Penalty>
0.0022204

> <r_epik_Charging_Adjusted_Penalty>
0.0022204

> <i_epik_Tot_Q>
0

> <i_epik_Tot_abs_Q>
0

> <r_epik_Metal_State_Penalty>
-0

> <b_epik_Metal_Only>
0

> <s_lp_Force_Field>
OPLS_2005

> <r_lp_Energy>
44.5811

> <b_lp_Chiralities_Consistent>
1

> <s_lp_Variant>
AV-unprocessed.smi:166-1

> <Gold.Version>
5.8.1

> <Gold.Id.Protein>
6NUR|6NUR_protein|mol2

> <Gold.PLP.Fitness>
48.8583

> <Gold.PLP.PLP>
-40.9604

> <Gold.PLP.part.hbond>
-2.8874

> <Gold.PLP.part.metal>
0.0000

> <Gold.PLP.part.buried>
-7.4876

> <Gold.PLP.part.nonpolar>
-30.9121

> <Gold.PLP.part.repulsive>
0.2663

> <Gold.PLP.ligand.clash>
0.0000

> <Gold.PLP.ligand.torsion>
1.0558

> <Gold.PLP.Chemscore.Hbond>
2.0000

> <Gold.PLP.Chemscore.CHOScore>
1.0000

> <Gold.PLP.Chemscore.Metal>
0.0000

> <Gold.Chemscore.Hbonds>
donor molecule, donor type, donor heavy atom, donor atom, acceptor molecule, acceptor atom, score
      L1  H     1    28       P1  8028  1.00
      P1  H  7989  7998       L1    22  1.00
      L1  C    21    48       P1  7957  1.00

> <Gold.PLP.Chemscore.Internal.Correction>
1.0095

> <Gold.Rescore>
     Score         DG    S(hbond)    S(metal)    S(lipo)     H(rot)  DE(clash)    DE(int)     intcor
     12.23     -16.51       1.83        0.00     100.66       2.68       0.83       3.45       ----

> <Gold.Chemscore.Fitness>
12.2279

> <Gold.Chemscore.DG>
-16.5069

> <Gold.Chemscore.ZeroCoef>
-5.4800

> <Gold.Chemscore.Hbond>
1.8309

> <Gold.Chemscore.Metal>
0.0000

> <Gold.Chemscore.Lipo>
100.6569

> <Gold.Chemscore.Internal_Hbond>
0.0000

> <Gold.Chemscore.DEClash>
0.8262

> <Gold.Chemscore.DEInternal>
3.4529

> <Gold.Chemscore.Rot>
2.6817

> <Gold.Chemscore.Internal.Correction>
   9.000000E+99

> <Gold.Chemscore.Hbonds>
donor molecule, donor type, donor heavy atom, donor atom, acceptor molecule, acceptor atom, score
      L1  H     1    28       P1  8028  0.60
      P1  H  7989  7998       L1    22  0.26

> <Gold.Chemscore.Hbond.Weighted>
-6.1151

> <Gold.Chemscore.Metal.Weighted>
-0.0000

> <Gold.Chemscore.Lipo.Weighted>
-11.7769

> <Gold.Chemscore.Internal_Hbond.Weighted>
0.0000

> <Gold.Chemscore.DEClash.Weighted>
0.8262

> <Gold.Chemscore.DEInternal.Weighted>
3.4529

> <Gold.Chemscore.Rot.Weighted>
6.8651

> <Gold.Chemscore.Internal.Correction.Weighted>
   9.000000E+99

> <Gold.Protein.RotatedTorsions>
[ 6907 6896 6895 6894 ] final -100.02 input  -60.11 | X-H torsion
[ 7974 7965 7964 7962 ] final   -0.43 input  175.53 | X-H torsion
[ 8008 7997 7996 7995 ] final  -78.52 input   59.86 | X-H torsion
[ 10167 10162 10161 10158 ] final   93.86 input  -65.29 | X-H torsion
[ 10718 10713 10712 10709 ] final -121.37 input   66.30 | X-H torsion
[ 10763 10752 10751 10750 ] final  112.70 input  -60.55 | X-H torsion
[ 11005 11000 10999 10996 ] final   83.43 input  -57.11 | X-H torsion

> <Gold.Protein.ActiveResidues>
 VAL166  LYS551  ARG553  GLY616  TRP617  ASP618  TYR619  PRO620  LYS621  CYS622 
 ASP623  PHE694  ASN695  SER759  ASP760  ASP761  ALA762  ILE779  LEU786  VAL792 
 PHE793  MET794  SER795  GLU796  ALA797  LYS798  CYS799  TRP800  GLU811  SER814 

> <Gold.Protein.RotatedAtoms>
  150.7100  134.0952  159.3945 H   0  0  0  0  0  0  0  0  0  0  0  0  # atno 6907 bound_to 6896
  151.8937  135.0404  160.0509 H   0  0  0  0  0  0  0  0  0  0  0  0  # atno 6908 bound_to 6896
  152.2470  133.5148  159.5340 H   0  0  0  0  0  0  0  0  0  0  0  0  # atno 6909 bound_to 6896
  146.2427  140.1269  142.8339 H   0  0  0  0  0  0  0  0  0  0  0  0  # atno 7974 bound_to 7965
  154.5697  140.0693  156.8946 H   0  0  0  0  0  0  0  0  0  0  0  0  # atno 8008 bound_to 7997
  155.2657  140.3361  155.4251 H   0  0  0  0  0  0  0  0  0  0  0  0  # atno 8009 bound_to 7997
  156.2109  140.1758  156.7683 H   0  0  0  0  0  0  0  0  0  0  0  0  # atno 8010 bound_to 7997
  139.8139  144.6761  150.9605 H   0  0  0  0  0  0  0  0  0  0  0  0  # atno 10167 bound_to 10162
  156.1332  130.6411  150.9654 H   0  0  0  0  0  0  0  0  0  0  0  0  # atno 10718 bound_to 10713
  153.4817  135.3678  155.2445 H   0  0  0  0  0  0  0  0  0  0  0  0  # atno 10763 bound_to 10752
  154.8755  135.3956  154.3692 H   0  0  0  0  0  0  0  0  0  0  0  0  # atno 10764 bound_to 10752
  153.4297  135.7082  153.6304 H   0  0  0  0  0  0  0  0  0  0  0  0  # atno 10765 bound_to 10752
  139.9031  134.8144  156.2308 H   0  0  0  0  0  0  0  0  0  0  0  0  # atno 11005 bound_to 11000
  145.0359  140.8907  143.5081 LP  0  0  0  0  0  0  0  0  0  0  0  0  # atno 17320 bound_to 7965
  145.1341  139.2613  143.5524 LP  0  0  0  0  0  0  0  0  0  0  0  0  # atno 17321 bound_to 7965
  140.7816  143.4158  151.0920 LP  0  0  0  0  0  0  0  0  0  0  0  0  # atno 17342 bound_to 10162
  139.7823  143.8338  152.3139 LP  0  0  0  0  0  0  0  0  0  0  0  0  # atno 17343 bound_to 10162
  157.6508  131.0897  150.8055 LP  0  0  0  0  0  0  0  0  0  0  0  0  # atno 17370 bound_to 10713
  156.8138  130.4961  149.5352 LP  0  0  0  0  0  0  0  0  0  0  0  0  # atno 17371 bound_to 10713
  141.0346  133.6970  156.1490 LP  0  0  0  0  0  0  0  0  0  0  0  0  # atno 17394 bound_to 11000
  140.7046  134.4528  157.5585 LP  0  0  0  0  0  0  0  0  0  0  0  0  # atno 17395 bound_to 11000

$$$$
