#       Name:                AV-unprocessed.smi:384
#       Creating user name   scv26
#       Creation time:       Thu Mar 26 22:40:57 2020


#       File generated by GOLD software.
#

@<TRIPOS>MOLECULE
AV-unprocessed.smi:384
    40    41     1
SMALL
NO_CHARGES


@<TRIPOS>ATOM
      1 ****        -2.9145  -1.8376  -0.1812 C.3            1 S1                 0.0000
      2 ****        -2.3602  -0.9563   0.9520 C.3            1 S1                 0.0000
      3 ****        -0.8202  -0.9441   1.0245 C.3            1 S1                 0.0000
      4 ****        -0.2604  -0.1385  -0.0525 N.3            1 S1                 0.0000
      5 ****         1.1388  -0.1946  -0.1152 C.ar           1 S1                 0.0000
      6 ****         1.7474  -0.8465  -1.2066 C.ar           1 S1                 0.0000
      7 ****         3.1532  -0.8977  -1.2667 C.ar           1 S1                 0.0000
      8 ****         3.9089  -0.2989  -0.2340 C.ar           1 S1                 0.0000
      9 ****         5.4114  -0.3246  -0.2544 C.2            1 S1                 0.0000
     10 ****         6.0370   0.2159   0.6846 O.co2          1 S1                 0.0000
     11 ****         5.9912  -0.8856  -1.2109 O.co2          1 S1                -1.0000
     12 ****         3.2006   0.3256   0.8180 C.ar           1 S1                 0.0000
     13 ****         1.8523   0.3803   0.8816 N.ar           1 S1                 0.0000
     14 ****        -0.7948   1.2158  -0.0638 C.3            1 S1                 0.0000
     15 ****        -2.3288   1.1721  -0.1781 C.3            1 S1                 0.0000
     16 ****        -2.9492   2.5701  -0.0896 C.3            1 S1                 0.0000
     17 ****        -2.8618   0.3820   0.8858 O.3            1 S1                 0.0000
     18 ****        -2.6193  -2.8777  -0.0406 H              1 S1                 0.0000
     19 ****        -2.5518  -1.5289  -1.1613 H              1 S1                 0.0000
     20 ****        -4.0039  -1.8042  -0.2010 H              1 S1                 0.0000
     21 ****        -2.7326  -1.3752   1.8872 H              1 S1                 0.0000
     22 ****        -0.5055  -0.5268   1.9823 H              1 S1                 0.0000
     23 ****        -0.4282  -1.9610   0.9769 H              1 S1                 0.0000
     24 ****         1.1511  -1.2972  -1.9863 H              1 S1                 0.0000
     25 ****         3.6336  -1.3915  -2.0989 H              1 S1                 0.0000
     26 ****         3.7201   0.7998   1.6380 H              1 S1                 0.0000
     27 ****        -0.5033   1.7339   0.8511 H              1 S1                 0.0000
     28 ****        -0.3700   1.7730  -0.9001 H              1 S1                 0.0000
     29 ****        -2.6120   0.7368  -1.1367 H              1 S1                 0.0000
     30 ****        -2.5777   3.2151  -0.8863 H              1 S1                 0.0000
     31 ****        -2.7159   3.0459   0.8634 H              1 S1                 0.0000
     32 ****        -4.0345   2.5206  -0.1807 H              1 S1                 0.0000
     33 ****        -0.5675  -0.5579  -0.9068 LP             1 S1                 0.0000
     34 ****         7.0369   0.2095   0.6883 LP             1 S1                 0.0000
     35 ****         5.5370   0.6544   1.4315 LP             1 S1                 0.0000
     36 ****         6.9903  -0.9130  -1.2433 LP             1 S1                 0.0000
     37 ****         5.4554  -1.3065  -1.9429 LP             1 S1                 0.0000
     38 ****         1.3929   0.8338   1.6453 LP             1 S1                 0.0000
     39 ****        -2.6460   0.8377   1.7494 LP             1 S1                 0.0000
     40 ****        -3.8543   0.3365   0.7718 LP             1 S1                 0.0000
@<TRIPOS>BOND
    1    1    2 1     
    2    1   18 1     
    3    1   19 1     
    4    1   20 1     
    5    2   17 1     
    6    2    3 1     
    7    2   21 1     
    8    3    4 1     
    9    3   22 1     
   10    3   23 1     
   11    4    5 1     
   12    4   14 1     
   13    5   13 ar    
   14    5    6 ar    
   15    6    7 ar    
   16    6   24 1     
   17    7    8 ar    
   18    7   25 1     
   19    8    9 1     
   20    8   12 ar    
   21    9   10 ar    
   22    9   11 ar    
   23   12   13 ar    
   24   12   26 1     
   25   14   15 1     
   26   14   27 1     
   27   14   28 1     
   28   15   16 1     
   29   15   17 1     
   30   15   29 1     
   31   16   30 1     
   32   16   31 1     
   33   16   32 1     
   34    4   33 1     
   35   10   34 1     
   36   10   35 1     
   37   11   36 1     
   38   11   37 1     
   39   13   38 1     
   40   17   39 1     
   41   17   40 1     
@<TRIPOS>SUBSTRUCTURE
      1 S1             1
@<TRIPOS>SET
LONE_PAIRS      STATIC     ATOMS    <user>   **** ""
8 33 34 35 36 37 38 39 40
ATOM$BLUE        STATIC     ATOMS    COLORGROUP SYSTEM
8 33 34 35 36 37 38 39 40
