AV-unprocessed.smi:3266|AV-procd|sdf|12502|dock4
  -GOLD-   2272018403D 1   1.00000     0.00000
 Structure written by MMmdl.
 39 40  0  0  0  0  0  0  0  0  2 V2000
  141.4012  136.3201  153.4704 O   0  0  0  0  0  0  0  0  0  0  0  0
  141.9634  137.3893  153.2306 C   0  0  0  0  0  0  0  0  0  0  0  0
  141.2346  138.7192  153.4439 C   0  0  0  0  0  0  0  0  0  0  0  0
  139.9187  138.8181  152.6502 C   0  0  0  0  0  0  0  0  0  0  0  0
  138.8588  137.8178  153.1345 C   0  0  2  0  0  0  0  0  0  0  0  0
  137.4401  138.3868  153.1578 C   0  0  0  0  0  0  0  0  0  0  0  0
  136.7859  137.5364  154.2218 C   0  0  0  0  0  0  0  0  0  0  0  0
  137.9159  137.3937  155.2357 C   0  0  0  0  0  0  0  0  0  0  0  0
  139.1223  137.4142  154.4772 O   0  0  0  0  0  0  0  0  0  0  0  0
  143.2223  137.4674  152.7723 N   0  0  0  0  0  0  0  0  0  0  0  0
  144.0817  136.3221  152.4964 C   0  0  0  0  0  0  0  0  0  0  0  0
  143.3064  135.1800  151.8178 C   0  0  0  0  0  0  0  0  0  0  0  0
  144.2253  134.0928  151.2960 C   0  0  0  0  0  0  0  0  0  0  0  0
  145.5771  133.9945  151.6915 C   0  0  0  0  0  0  0  0  0  0  0  0
  146.3749  132.9578  151.1636 C   0  0  0  0  0  0  0  0  0  0  0  0
  145.8056  132.0433  150.2531 C   0  0  0  0  0  0  0  0  0  0  0  0
  144.4507  132.1894  149.8917 C   0  0  0  0  0  0  0  0  0  0  0  0
  143.7192  133.1958  150.4185 N   0  3  0  0  0  0  0  0  0  0  0  0
  141.0299  138.8524  154.5075 H   0  0  0  0  0  0  0  0  0  0  0  0
  141.9077  139.5260  153.1518 H   0  0  0  0  0  0  0  0  0  0  0  0
  139.5140  139.8290  152.7188 H   0  0  0  0  0  0  0  0  0  0  0  0
  140.1207  138.6370  151.5933 H   0  0  0  0  0  0  0  0  0  0  0  0
  138.8709  136.9234  152.5096 H   0  0  0  0  0  0  0  0  0  0  0  0
  137.4470  139.4317  153.4716 H   0  0  0  0  0  0  0  0  0  0  0  0
  136.9399  138.3235  152.1911 H   0  0  0  0  0  0  0  0  0  0  0  0
  135.8877  137.9888  154.6430 H   0  0  0  0  0  0  0  0  0  0  0  0
  136.5208  136.5608  153.8121 H   0  0  0  0  0  0  0  0  0  0  0  0
  137.9232  138.2441  155.9186 H   0  0  0  0  0  0  0  0  0  0  0  0
  137.8315  136.4832  155.8293 H   0  0  0  0  0  0  0  0  0  0  0  0
  143.6080  138.3841  152.5959 H   0  0  0  0  0  0  0  0  0  0  0  0
  144.9252  136.6351  151.8785 H   0  0  0  0  0  0  0  0  0  0  0  0
  144.5008  135.9760  153.4416 H   0  0  0  0  0  0  0  0  0  0  0  0
  142.5958  134.7427  152.5208 H   0  0  0  0  0  0  0  0  0  0  0  0
  142.7165  135.5625  150.9836 H   0  0  0  0  0  0  0  0  0  0  0  0
  145.9990  134.7028  152.3898 H   0  0  0  0  0  0  0  0  0  0  0  0
  147.4114  132.8653  151.4540 H   0  0  0  0  0  0  0  0  0  0  0  0
  146.3995  131.2422  149.8379 H   0  0  0  0  0  0  0  0  0  0  0  0
  143.9340  131.5372  149.2027 H   0  0  0  0  0  0  0  0  0  0  0  0
  142.7407  133.2837  150.1425 H   0  0  0  0  0  0  0  0  0  0  0  0
  1  2  2  0  0  0  0
  2  3  1  0  0  0  0
  2 10  1  0  0  0  0
  3  4  1  0  0  0  0
  3 19  1  0  0  0  0
  3 20  1  0  0  0  0
  4  5  1  0  0  0  0
  4 21  1  0  0  0  0
  4 22  1  0  0  0  0
  5  9  1  0  0  0  0
  5  6  1  0  0  0  0
  5 23  1  0  0  0  0
  6  7  1  0  0  0  0
  6 24  1  0  0  0  0
  6 25  1  0  0  0  0
  7  8  1  0  0  0  0
  7 26  1  0  0  0  0
  7 27  1  0  0  0  0
  8  9  1  0  0  0  0
  8 28  1  0  0  0  0
  8 29  1  0  0  0  0
 10 11  1  0  0  0  0
 10 30  1  0  0  0  0
 11 12  1  0  0  0  0
 11 31  1  0  0  0  0
 11 32  1  0  0  0  0
 12 13  1  0  0  0  0
 12 33  1  0  0  0  0
 12 34  1  0  0  0  0
 13 18  1  0  0  0  0
 13 14  2  0  0  0  0
 14 15  1  0  0  0  0
 14 35  1  0  0  0  0
 15 16  2  0  0  0  0
 15 36  1  0  0  0  0
 16 17  1  0  0  0  0
 16 37  1  0  0  0  0
 17 18  2  0  0  0  0
 17 38  1  0  0  0  0
 18 39  1  0  0  0  0
M  CHG  1  18   1
M  END
> <s_m_source_file>
AV-unprocessed.smi

> <i_m_source_file_index>
3266

> <i_lp_mmshare_version>
43012

> <i_f3d_flags>
0

> <s_epik_input>
TzFbQ0gyXVtDSDJdW0NIMl1bQ0BIXTFbQ0gyXVtDSDJdQyg9TylbTkhdW0NIMl1bQ0gyXWMyW2NIXVtjSF1bY0hdW2NIXW4y

> <s_epik_cmdline>
J2VwaWtfcHl0aG9uJywgJy1waCcsICc3LjAnLCAnLXRuJywgJzgnLCAnLW1hJywgJzIwMCcsICctbWV0YWxfYmluZGluZycsICctaW1hZScsICc8aW5maWxlLm1hZT4nLCAnLW9tYWUnLCAnPG91dGZpbGUubWFlPic=

> <r_epik_Ionization_Penalty>
1.8495

> <r_epik_Ionization_Penalty_Charging>
1.8495

> <r_epik_Ionization_Penalty_Neutral>
1.53068e-08

> <r_epik_State_Penalty>
1.96688

> <r_epik_Charging_Adjusted_Penalty>
3.81638

> <i_epik_Tot_Q>
1

> <i_epik_Tot_abs_Q>
1

> <r_epik_Metal_State_Penalty>
1.99263

> <b_epik_Metal_Only>
0

> <s_lp_Force_Field>
OPLS_2005

> <r_lp_Energy>
20.4442

> <b_lp_Chiralities_Consistent>
1

> <s_lp_Variant>
AV-unprocessed.smi:3266-3

> <Gold.Version>
5.8.1

> <Gold.Id.Protein>
6NUR|6NUR_protein|mol2

> <Gold.PLP.Fitness>
43.0083

> <Gold.PLP.PLP>
-35.7259

> <Gold.PLP.part.hbond>
-2.3106

> <Gold.PLP.part.metal>
0.0000

> <Gold.PLP.part.buried>
-4.5034

> <Gold.PLP.part.nonpolar>
-28.8680

> <Gold.PLP.part.repulsive>
0.1759

> <Gold.PLP.ligand.clash>
0.0000

> <Gold.PLP.ligand.torsion>
0.8990

> <Gold.PLP.Chemscore.Hbond>
3.0000

> <Gold.PLP.Chemscore.CHOScore>
0.0000

> <Gold.PLP.Chemscore.Metal>
0.0000

> <Gold.Chemscore.Hbonds>
donor molecule, donor type, donor heavy atom, donor atom, acceptor molecule, acceptor atom, score
      L1  H    10    30       P1 10175  0.94
      L1  H    18    39       P1 10186  1.37

> <Gold.PLP.Chemscore.Internal.Correction>
0.0805

> <Gold.Rescore>
     Score         DG    S(hbond)    S(metal)    S(lipo)     H(rot)  DE(clash)    DE(int)     intcor
     15.42     -17.55       1.99        0.00      86.60       1.84       0.03       2.10       ----

> <Gold.Chemscore.Fitness>
15.4233

> <Gold.Chemscore.DG>
-17.5468

> <Gold.Chemscore.ZeroCoef>
-5.4800

> <Gold.Chemscore.Hbond>
1.9883

> <Gold.Chemscore.Metal>
0.0000

> <Gold.Chemscore.Lipo>
86.5970

> <Gold.Chemscore.Internal_Hbond>
0.0000

> <Gold.Chemscore.DEClash>
0.0252

> <Gold.Chemscore.DEInternal>
2.0983

> <Gold.Chemscore.Rot>
1.8382

> <Gold.Chemscore.Internal.Correction>
   9.000000E+99

> <Gold.Chemscore.Hbonds>
donor molecule, donor type, donor heavy atom, donor atom, acceptor molecule, acceptor atom, score
      L1  H    10    30       P1 10175  0.89
      L1  H    18    39       P1 10186  0.67

> <Gold.Chemscore.Hbond.Weighted>
-6.6408

> <Gold.Chemscore.Metal.Weighted>
-0.0000

> <Gold.Chemscore.Lipo.Weighted>
-10.1318

> <Gold.Chemscore.Internal_Hbond.Weighted>
0.0000

> <Gold.Chemscore.DEClash.Weighted>
0.0252

> <Gold.Chemscore.DEInternal.Weighted>
2.0983

> <Gold.Chemscore.Rot.Weighted>
4.7058

> <Gold.Chemscore.Internal.Correction.Weighted>
   9.000000E+99

> <Gold.Protein.RotatedTorsions>
[ 6907 6896 6895 6894 ] final  129.59 input  -60.11 | X-H torsion
[ 7974 7965 7964 7962 ] final  167.18 input  175.53 | X-H torsion
[ 8008 7997 7996 7995 ] final  116.89 input   59.86 | X-H torsion
[ 10167 10162 10161 10158 ] final  -95.37 input  -65.29 | X-H torsion
[ 10718 10713 10712 10709 ] final -103.05 input   66.30 | X-H torsion
[ 10763 10752 10751 10750 ] final  -56.20 input  -60.55 | X-H torsion
[ 11005 11000 10999 10996 ] final  135.37 input  -57.11 | X-H torsion

> <Gold.Protein.ActiveResidues>
 VAL166  LYS551  ARG553  GLY616  TRP617  ASP618  TYR619  PRO620  LYS621  CYS622 
 ASP623  PHE694  ASN695  SER759  ASP760  ASP761  ALA762  ILE779  LEU786  VAL792 
 PHE793  MET794  SER795  GLU796  ALA797  LYS798  CYS799  TRP800  GLU811  SER814 

> <Gold.Protein.RotatedAtoms>
  152.3609  133.6296  159.6014 H   0  0  0  0  0  0  0  0  0  0  0  0  # atno 6907 bound_to 6896
  150.7600  133.9425  159.3469 H   0  0  0  0  0  0  0  0  0  0  0  0  # atno 6908 bound_to 6896
  151.7263  135.0885  160.0344 H   0  0  0  0  0  0  0  0  0  0  0  0  # atno 6909 bound_to 6896
  144.7434  139.8723  143.6390 H   0  0  0  0  0  0  0  0  0  0  0  0  # atno 7974 bound_to 7965
  156.2464  140.2908  156.0594 H   0  0  0  0  0  0  0  0  0  0  0  0  # atno 8008 bound_to 7997
  155.1793  140.0404  157.2896 H   0  0  0  0  0  0  0  0  0  0  0  0  # atno 8009 bound_to 7997
  154.6271  140.2490  155.7485 H   0  0  0  0  0  0  0  0  0  0  0  0  # atno 8010 bound_to 7997
  140.3048  143.3140  152.0210 H   0  0  0  0  0  0  0  0  0  0  0  0  # atno 10167 bound_to 10162
  156.0251  130.5449  150.7196 H   0  0  0  0  0  0  0  0  0  0  0  0  # atno 10718 bound_to 10713
  154.2028  135.6408  153.5092 H   0  0  0  0  0  0  0  0  0  0  0  0  # atno 10763 bound_to 10752
  153.0008  135.5455  154.6297 H   0  0  0  0  0  0  0  0  0  0  0  0  # atno 10764 bound_to 10752
  154.5714  135.2917  155.0796 H   0  0  0  0  0  0  0  0  0  0  0  0  # atno 10765 bound_to 10752
  139.9976  134.9491  156.9998 H   0  0  0  0  0  0  0  0  0  0  0  0  # atno 11005 bound_to 11000
  146.1271  139.4299  143.0192 LP  0  0  0  0  0  0  0  0  0  0  0  0  # atno 17320 bound_to 7965
  145.7219  141.0072  143.1398 LP  0  0  0  0  0  0  0  0  0  0  0  0  # atno 17321 bound_to 7965
  139.4906  144.6428  151.6840 LP  0  0  0  0  0  0  0  0  0  0  0  0  # atno 17342 bound_to 10162
  140.5619  144.0254  150.6174 LP  0  0  0  0  0  0  0  0  0  0  0  0  # atno 17343 bound_to 10162
  157.4815  131.0903  151.0531 LP  0  0  0  0  0  0  0  0  0  0  0  0  # atno 17370 bound_to 10713
  157.0963  130.5963  149.5450 LP  0  0  0  0  0  0  0  0  0  0  0  0  # atno 17371 bound_to 10713
  140.4789  134.1309  155.7214 LP  0  0  0  0  0  0  0  0  0  0  0  0  # atno 17394 bound_to 11000
  141.1616  133.8781  157.1831 LP  0  0  0  0  0  0  0  0  0  0  0  0  # atno 17395 bound_to 11000

$$$$
