#       Name:                AV-unprocessed.smi:299
#       Creating user name   scv26
#       Creation time:       Thu Mar 26 22:15:58 2020


#       File generated by GOLD software.
#

@<TRIPOS>MOLECULE
AV-unprocessed.smi:299
    47    48     1
SMALL
NO_CHARGES


@<TRIPOS>ATOM
      1 ****        -1.7731   2.0720  -2.3758 C.3            1 S1                 0.0000
      2 ****        -2.3544   1.3979  -1.1152 C.3            1 S1                 0.0000
      3 ****        -3.8881   1.3000  -1.2760 C.3            1 S1                 0.0000
      4 ****        -4.5542   0.6500  -0.0616 C.3            1 S1                 0.0000
      5 ****        -3.9238  -0.7197   0.1866 C.3            1 S1                 0.0000
      6 ****        -2.4028  -0.5934   0.3509 C.3            1 S1                 0.0000
      7 ****        -1.7604   0.0485  -0.8336 N.4            1 S1                 1.0000
      8 ****        -0.2725   0.0514  -0.7203 C.3            1 S1                 0.0000
      9 ****         0.3520  -1.3572  -0.8043 C.3            1 S1                 0.0000
     10 ****         1.8906  -1.3414  -0.8889 C.3            1 S1                 0.0000
     11 ****         2.5146  -0.6763   0.2510 N.am           1 S1                 0.0000
     12 ****         2.6057  -1.1862   1.4898 C.2            1 S1                 0.0000
     13 ****         2.1379  -2.2787   1.8083 O.2            1 S1                 0.0000
     14 ****         3.3277  -0.3315   2.5326 C.3            1 S1                 0.0000
     15 ****         4.7591  -0.3095   2.2963 N.pl3          1 S1                 0.0000
     16 ****         5.5266   0.5640   1.6411 C.2            1 S1                 0.0000
     17 ****         6.8001   0.2013   1.6527 N.2            1 S1                 0.0000
     18 ****         6.7836  -0.9812   2.3737 N.2            1 S1                 0.0000
     19 ****         5.5756  -1.2891   2.7586 N.2            1 S1                 0.0000
     20 ****        -2.3507   2.9570  -2.6449 H              1 S1                 0.0000
     21 ****        -1.7899   1.3978  -3.2328 H              1 S1                 0.0000
     22 ****        -0.7506   2.4182  -2.2299 H              1 S1                 0.0000
     23 ****        -2.1426   2.0423  -0.2601 H              1 S1                 0.0000
     24 ****        -4.3137   2.2929  -1.4264 H              1 S1                 0.0000
     25 ****        -4.1287   0.7250  -2.1718 H              1 S1                 0.0000
     26 ****        -4.4299   1.2843   0.8170 H              1 S1                 0.0000
     27 ****        -5.6272   0.5485  -0.2274 H              1 S1                 0.0000
     28 ****        -4.3586  -1.1720   1.0785 H              1 S1                 0.0000
     29 ****        -4.1516  -1.3897  -0.6437 H              1 S1                 0.0000
     30 ****        -2.1710  -0.0158   1.2472 H              1 S1                 0.0000
     31 ****        -2.0077  -1.5942   0.5135 H              1 S1                 0.0000
     32 ****         0.1705   0.6204  -1.5335 H              1 S1                 0.0000
     33 ****         0.0207   0.5532   0.2030 H              1 S1                 0.0000
     34 ****         0.0609  -1.9636   0.0519 H              1 S1                 0.0000
     35 ****        -0.0375  -1.8701  -1.6845 H              1 S1                 0.0000
     36 ****         2.2722  -2.3604  -0.9707 H              1 S1                 0.0000
     37 ****         2.2060  -0.8244  -1.7954 H              1 S1                 0.0000
     38 ****         2.9311   0.2273   0.0785 H              1 S1                 0.0000
     39 ****         2.9475   0.6905   2.5041 H              1 S1                 0.0000
     40 ****         3.1373  -0.7182   3.5351 H              1 S1                 0.0000
     41 ****         5.1552   1.4554   1.1575 H              1 S1                 0.0000
     42 ****        -1.9843  -0.5270  -1.6330 H              1 S1                 0.0000
     43 ****         1.6604  -2.8355   1.1286 LP             1 S1                 0.0000
     44 ****         2.2351  -2.6098   2.7469 LP             1 S1                 0.0000
     45 ****         7.5831   0.6677   1.2411 LP             1 S1                 0.0000
     46 ****         7.5953  -1.5298   2.5740 LP             1 S1                 0.0000
     47 ****         5.3044  -2.0911   3.2909 LP             1 S1                 0.0000
@<TRIPOS>BOND
    1    1    2 1     
    2    1   20 1     
    3    1   21 1     
    4    1   22 1     
    5    2    7 1     
    6    2    3 1     
    7    2   23 1     
    8    3    4 1     
    9    3   24 1     
   10    3   25 1     
   11    4    5 1     
   12    4   26 1     
   13    4   27 1     
   14    5    6 1     
   15    5   28 1     
   16    5   29 1     
   17    6    7 1     
   18    6   30 1     
   19    6   31 1     
   20    7    8 1     
   21    7   42 1     
   22    8    9 1     
   23    8   32 1     
   24    8   33 1     
   25    9   10 1     
   26    9   34 1     
   27    9   35 1     
   28   10   11 1     
   29   10   36 1     
   30   10   37 1     
   31   11   12 am    
   32   11   38 1     
   33   12   13 2     
   34   12   14 1     
   35   14   15 1     
   36   14   39 1     
   37   14   40 1     
   38   15   19 1     
   39   15   16 1     
   40   16   17 2     
   41   16   41 1     
   42   17   18 1     
   43   18   19 2     
   44   13   43 1     
   45   13   44 1     
   46   17   45 1     
   47   18   46 1     
   48   19   47 1     
@<TRIPOS>SUBSTRUCTURE
      1 S1             1
@<TRIPOS>SET
LONE_PAIRS      STATIC     ATOMS    <user>   **** ""
5 43 44 45 46 47
DONOR_HYDROGENS      STATIC     ATOMS    <user>   **** ""
2 42 38
ATOM$BLUE        STATIC     ATOMS    COLORGROUP SYSTEM
5 43 44 45 46 47
ATOM$RED        STATIC     ATOMS    COLORGROUP SYSTEM
2 42 38
