AV-unprocessed.smi:3198|AV-procd|sdf|12230|dock7
  -GOLD-   2272018 63D 1   1.00000     0.00000
 Structure written by MMmdl.
 37 38  0  0  0  0  0  0  0  0  1 V2000
  153.1542  142.0959  161.2448 C   0  0  0  0  0  0  0  0  0  0  0  0
  152.4130  143.1386  160.4349 C   0  0  0  0  0  0  0  0  0  0  0  0
  152.2192  144.4428  160.9344 C   0  0  0  0  0  0  0  0  0  0  0  0
  151.5249  145.3677  160.1320 C   0  0  0  0  0  0  0  0  0  0  0  0
  151.0561  144.9553  158.8696 C   0  0  0  0  0  0  0  0  0  0  0  0
  151.2998  143.6298  158.4527 C   0  0  0  0  0  0  0  0  0  0  0  0
  150.8305  143.2258  157.1943 N   0  0  0  0  0  0  0  0  0  0  0  0
  151.5014  142.1793  156.4320 C   0  0  0  0  0  0  0  0  0  0  0  0
  150.7219  140.8564  156.4416 C   0  0  0  0  0  0  0  0  0  0  0  0
  151.0151  140.1381  155.2551 O   0  0  0  0  0  0  0  0  0  0  0  0
  149.9519  139.2909  154.8495 C   0  0  0  0  0  0  0  0  0  0  0  0
  148.9202  140.0969  154.0483 C   0  0  1  0  0  0  0  0  0  0  0  0
  147.5315  139.4520  153.9273 C   0  0  0  0  0  0  0  0  0  0  0  0
  146.5671  140.5912  154.2251 C   0  0  0  0  0  0  0  0  0  0  0  0
  147.4476  141.8358  154.1770 C   0  0  0  0  0  0  0  0  0  0  0  0
  148.6982  141.3652  154.6492 O   0  0  0  0  0  0  0  0  0  0  0  0
  151.9647  142.7376  159.2254 N   0  0  0  0  0  0  0  0  0  0  0  0
  153.3835  142.4617  162.2459 H   0  0  0  0  0  0  0  0  0  0  0  0
  154.0919  141.8333  160.7543 H   0  0  0  0  0  0  0  0  0  0  0  0
  152.5524  141.1918  161.3429 H   0  0  0  0  0  0  0  0  0  0  0  0
  152.5923  144.7301  161.9064 H   0  0  0  0  0  0  0  0  0  0  0  0
  151.3552  146.3764  160.4782 H   0  0  0  0  0  0  0  0  0  0  0  0
  150.5217  145.6473  158.2350 H   0  0  0  0  0  0  0  0  0  0  0  0
  150.1645  143.8112  156.7113 H   0  0  0  0  0  0  0  0  0  0  0  0
  151.6569  142.5166  155.4067 H   0  0  0  0  0  0  0  0  0  0  0  0
  152.4948  142.0254  156.8537 H   0  0  0  0  0  0  0  0  0  0  0  0
  150.9669  140.2639  157.3244 H   0  0  0  0  0  0  0  0  0  0  0  0
  149.6520  141.0659  156.4794 H   0  0  0  0  0  0  0  0  0  0  0  0
  150.3346  138.4716  154.2391 H   0  0  0  0  0  0  0  0  0  0  0  0
  149.4752  138.8509  155.7267 H   0  0  0  0  0  0  0  0  0  0  0  0
  149.3117  140.2798  153.0462 H   0  0  0  0  0  0  0  0  0  0  0  0
  147.3817  139.0518  152.9241 H   0  0  0  0  0  0  0  0  0  0  0  0
  147.3843  138.6339  154.6331 H   0  0  0  0  0  0  0  0  0  0  0  0
  145.7342  140.6397  153.5234 H   0  0  0  0  0  0  0  0  0  0  0  0
  146.1562  140.4707  155.2284 H   0  0  0  0  0  0  0  0  0  0  0  0
  147.5556  142.1993  153.1536 H   0  0  0  0  0  0  0  0  0  0  0  0
  147.0635  142.6482  154.7940 H   0  0  0  0  0  0  0  0  0  0  0  0
  1  2  1  0  0  0  0
  1 18  1  0  0  0  0
  1 19  1  0  0  0  0
  1 20  1  0  0  0  0
  2 17  1  0  0  0  0
  2  3  2  0  0  0  0
  3  4  1  0  0  0  0
  3 21  1  0  0  0  0
  4  5  2  0  0  0  0
  4 22  1  0  0  0  0
  5  6  1  0  0  0  0
  5 23  1  0  0  0  0
  6  7  1  0  0  0  0
  6 17  2  0  0  0  0
  7  8  1  0  0  0  0
  7 24  1  0  0  0  0
  8  9  1  0  0  0  0
  8 25  1  0  0  0  0
  8 26  1  0  0  0  0
  9 10  1  0  0  0  0
  9 27  1  0  0  0  0
  9 28  1  0  0  0  0
 10 11  1  0  0  0  0
 11 12  1  0  0  0  0
 11 29  1  0  0  0  0
 11 30  1  0  0  0  0
 12 16  1  0  0  0  0
 12 13  1  0  0  0  0
 12 31  1  0  0  0  0
 13 14  1  0  0  0  0
 13 32  1  0  0  0  0
 13 33  1  0  0  0  0
 14 15  1  0  0  0  0
 14 34  1  0  0  0  0
 14 35  1  0  0  0  0
 15 16  1  0  0  0  0
 15 36  1  0  0  0  0
 15 37  1  0  0  0  0
M  END
> <s_m_source_file>
AV-unprocessed.smi

> <i_m_source_file_index>
3198

> <i_lp_mmshare_version>
43012

> <i_f3d_flags>
0

> <s_epik_input>
W0NIM11jMVtjSF1bY0hdW2NIXWMobjEpW05IXVtDSDJdW0NIMl1PW0NIMl1bQ0BASF0yW0NIMl1bQ0gyXVtDSDJdTzI=

> <s_epik_cmdline>
J2VwaWtfcHl0aG9uJywgJy1waCcsICc3LjAnLCAnLXRuJywgJzgnLCAnLW1hJywgJzIwMCcsICctbWV0YWxfYmluZGluZycsICctaW1hZScsICc8aW5maWxlLm1hZT4nLCAnLW9tYWUnLCAnPG91dGZpbGUubWFlPic=

> <r_lp_tautomer_probability>
1

> <r_epik_Ionization_Penalty>
1.29225

> <r_epik_Ionization_Penalty_Charging>
0

> <r_epik_Ionization_Penalty_Neutral>
1.29225

> <r_epik_State_Penalty>
1.3654

> <r_epik_Charging_Adjusted_Penalty>
1.3654

> <i_epik_Tot_Q>
0

> <i_epik_Tot_abs_Q>
0

> <r_epik_Metal_State_Penalty>
0.00531989

> <b_epik_Metal_Only>
0

> <s_lp_Force_Field>
OPLS_2005

> <r_lp_Energy>
18.8909

> <b_lp_Chiralities_Consistent>
1

> <s_lp_Variant>
AV-unprocessed.smi:3198-4

> <Gold.Version>
5.8.1

> <Gold.Id.Protein>
6NUR|6NUR_protein|mol2

> <Gold.PLP.Fitness>
42.3333

> <Gold.PLP.PLP>
-38.0402

> <Gold.PLP.part.hbond>
-2.0000

> <Gold.PLP.part.metal>
0.0000

> <Gold.PLP.part.buried>
-6.1863

> <Gold.PLP.part.nonpolar>
-30.5715

> <Gold.PLP.part.repulsive>
0.1953

> <Gold.PLP.ligand.clash>
0.0000

> <Gold.PLP.ligand.torsion>
0.8787

> <Gold.PLP.Chemscore.Hbond>
2.0000

> <Gold.PLP.Chemscore.CHOScore>
0.0000

> <Gold.PLP.Chemscore.Metal>
0.0000

> <Gold.Chemscore.Hbonds>
donor molecule, donor type, donor heavy atom, donor atom, acceptor molecule, acceptor atom, score
      L1  H     7    24       P1  8028  1.00
      P1  H  7989  7998       L1    10  1.00

> <Gold.PLP.Chemscore.Internal.Correction>
0.0504

> <Gold.Rescore>
     Score         DG    S(hbond)    S(metal)    S(lipo)     H(rot)  DE(clash)    DE(int)     intcor
     15.55     -19.05       1.91        0.00      97.07       1.63       1.22       2.28       ----

> <Gold.Chemscore.Fitness>
15.5525

> <Gold.Chemscore.DG>
-19.0454

> <Gold.Chemscore.ZeroCoef>
-5.4800

> <Gold.Chemscore.Hbond>
1.9112

> <Gold.Chemscore.Metal>
0.0000

> <Gold.Chemscore.Lipo>
97.0735

> <Gold.Chemscore.Internal_Hbond>
0.0000

> <Gold.Chemscore.DEClash>
1.2151

> <Gold.Chemscore.DEInternal>
2.2779

> <Gold.Chemscore.Rot>
1.6311

> <Gold.Chemscore.Internal.Correction>
   9.000000E+99

> <Gold.Chemscore.Hbonds>
donor molecule, donor type, donor heavy atom, donor atom, acceptor molecule, acceptor atom, score
      L1  H     7    24       P1  8028  1.00
      P1  H  7989  7998       L1    10  0.33

> <Gold.Chemscore.Hbond.Weighted>
-6.3835

> <Gold.Chemscore.Metal.Weighted>
-0.0000

> <Gold.Chemscore.Lipo.Weighted>
-11.3576

> <Gold.Chemscore.Internal_Hbond.Weighted>
0.0000

> <Gold.Chemscore.DEClash.Weighted>
1.2151

> <Gold.Chemscore.DEInternal.Weighted>
2.2779

> <Gold.Chemscore.Rot.Weighted>
4.1757

> <Gold.Chemscore.Internal.Correction.Weighted>
   9.000000E+99

> <Gold.Protein.RotatedTorsions>
[ 6907 6896 6895 6894 ] final   92.12 input  -60.11 | X-H torsion
[ 7974 7965 7964 7962 ] final  -49.15 input  175.53 | X-H torsion
[ 8008 7997 7996 7995 ] final   84.44 input   59.86 | X-H torsion
[ 10167 10162 10161 10158 ] final  150.19 input  -65.29 | X-H torsion
[ 10718 10713 10712 10709 ] final    7.21 input   66.30 | X-H torsion
[ 10763 10752 10751 10750 ] final   20.67 input  -60.55 | X-H torsion
[ 11005 11000 10999 10996 ] final   95.23 input  -57.11 | X-H torsion

> <Gold.Protein.ActiveResidues>
 VAL166  LYS551  ARG553  GLY616  TRP617  ASP618  TYR619  PRO620  LYS621  CYS622 
 ASP623  PHE694  ASN695  SER759  ASP760  ASP761  ALA762  ILE779  LEU786  VAL792 
 PHE793  MET794  SER795  GLU796  ALA797  LYS798  CYS799  TRP800  GLU811  SER814 

> <Gold.Protein.RotatedAtoms>
  152.5452  134.1552  159.8534 H   0  0  0  0  0  0  0  0  0  0  0  0  # atno 6907 bound_to 6896
  151.1575  133.4860  159.2602 H   0  0  0  0  0  0  0  0  0  0  0  0  # atno 6908 bound_to 6896
  151.1407  135.0189  159.8679 H   0  0  0  0  0  0  0  0  0  0  0  0  # atno 6909 bound_to 6896
  145.9436  140.7639  142.9540 H   0  0  0  0  0  0  0  0  0  0  0  0  # atno 7974 bound_to 7965
  155.9371  140.3410  155.6296 H   0  0  0  0  0  0  0  0  0  0  0  0  # atno 8008 bound_to 7997
  155.7086  140.0769  157.2399 H   0  0  0  0  0  0  0  0  0  0  0  0  # atno 8009 bound_to 7997
  154.4095  140.1627  156.2258 H   0  0  0  0  0  0  0  0  0  0  0  0  # atno 8010 bound_to 7997
  139.4853  144.5542  151.7347 H   0  0  0  0  0  0  0  0  0  0  0  0  # atno 10167 bound_to 10162
  156.9335  130.5835  149.5650 H   0  0  0  0  0  0  0  0  0  0  0  0  # atno 10718 bound_to 10713
  153.1058  135.6684  153.9589 H   0  0  0  0  0  0  0  0  0  0  0  0  # atno 10763 bound_to 10752
  153.9146  135.3021  155.3449 H   0  0  0  0  0  0  0  0  0  0  0  0  # atno 10764 bound_to 10752
  154.7479  135.5048  153.9313 H   0  0  0  0  0  0  0  0  0  0  0  0  # atno 10765 bound_to 10752
  139.8791  134.8888  156.3981 H   0  0  0  0  0  0  0  0  0  0  0  0  # atno 11005 bound_to 11000
  144.6783  140.2320  143.7354 LP  0  0  0  0  0  0  0  0  0  0  0  0  # atno 17320 bound_to 7965
  145.8266  139.2067  143.1907 LP  0  0  0  0  0  0  0  0  0  0  0  0  # atno 17321 bound_to 7965
  140.5101  144.1038  150.5993 LP  0  0  0  0  0  0  0  0  0  0  0  0  # atno 17342 bound_to 10162
  140.3961  143.2727  152.0003 LP  0  0  0  0  0  0  0  0  0  0  0  0  # atno 17343 bound_to 10162
  156.0436  130.5516  150.8829 LP  0  0  0  0  0  0  0  0  0  0  0  0  # atno 17370 bound_to 10713
  157.5831  131.0946  150.9239 LP  0  0  0  0  0  0  0  0  0  0  0  0  # atno 17371 bound_to 10713
  140.9286  133.7595  155.9996 LP  0  0  0  0  0  0  0  0  0  0  0  0  # atno 17394 bound_to 11000
  140.8357  134.3126  157.5332 LP  0  0  0  0  0  0  0  0  0  0  0  0  # atno 17395 bound_to 11000

$$$$
