AV-unprocessed.smi:3316|AV-procd|sdf|12756|dock2
  -GOLD-   2272019 93D 1   1.00000     0.00000
 Structure written by MMmdl.
 41 43  0  0  0  0  0  0  0  0  2 V2000
  148.0351  140.1975  154.0220 C   0  0  0  0  0  0  0  0  0  0  0  0
  149.3858  140.6557  154.5941 C   0  0  1  0  0  0  0  0  0  0  0  0
  149.2066  141.4185  155.9215 C   0  0  0  0  0  0  0  0  0  0  0  0
  150.3742  142.2737  156.2187 N   0  3  0  0  0  0  0  0  0  0  0  0
  151.1537  141.8448  157.3963 C   0  0  0  0  0  0  0  0  0  0  0  0
  151.0179  142.8547  158.5602 C   0  0  1  0  0  0  0  0  0  0  0  0
  152.0003  142.5951  159.7498 C   0  0  0  0  0  0  0  0  0  0  0  0
  152.7614  143.9341  159.8799 C   0  0  2  0  0  0  0  0  0  0  0  0
  151.7728  144.9952  160.3129 C   0  0  0  0  0  0  0  0  0  0  0  0
  150.9569  145.2205  159.2820 C   0  0  0  0  0  0  0  0  0  0  0  0
  151.3914  144.3059  158.1554 C   0  0  1  0  0  0  0  0  0  0  0  0
  152.9057  144.2894  158.3976 C   0  0  0  0  0  0  0  0  0  0  0  0
  150.3515  139.4844  154.7333 C   0  0  0  0  0  0  0  0  0  0  0  0
  150.0108  138.2102  154.2316 C   0  0  0  0  0  0  0  0  0  0  0  0
  150.9393  137.1590  154.3726 C   0  0  0  0  0  0  0  0  0  0  0  0
  152.1448  137.3086  154.9615 N   0  0  0  0  0  0  0  0  0  0  0  0
  152.4660  138.5284  155.4420 C   0  0  0  0  0  0  0  0  0  0  0  0
  151.6099  139.6443  155.3535 C   0  0  0  0  0  0  0  0  0  0  0  0
  148.1651  139.7086  153.0559 H   0  0  0  0  0  0  0  0  0  0  0  0
  147.3642  141.0440  153.8728 H   0  0  0  0  0  0  0  0  0  0  0  0
  147.5348  139.4925  154.6864 H   0  0  0  0  0  0  0  0  0  0  0  0
  149.8143  141.3533  153.8726 H   0  0  0  0  0  0  0  0  0  0  0  0
  148.3169  142.0477  155.8718 H   0  0  0  0  0  0  0  0  0  0  0  0
  149.0524  140.7181  156.7433 H   0  0  0  0  0  0  0  0  0  0  0  0
  150.9862  142.2666  155.4147 H   0  0  0  0  0  0  0  0  0  0  0  0
  150.8223  140.8486  157.6900 H   0  0  0  0  0  0  0  0  0  0  0  0
  152.1989  141.7433  157.1009 H   0  0  0  0  0  0  0  0  0  0  0  0
  149.9904  142.8459  158.9303 H   0  0  0  0  0  0  0  0  0  0  0  0
  151.4711  142.3391  160.6689 H   0  0  0  0  0  0  0  0  0  0  0  0
  152.7007  141.7855  159.5428 H   0  0  0  0  0  0  0  0  0  0  0  0
  153.6900  143.9109  160.4506 H   0  0  0  0  0  0  0  0  0  0  0  0
  151.7401  145.4451  161.2943 H   0  0  0  0  0  0  0  0  0  0  0  0
  150.1124  145.8927  159.2407 H   0  0  0  0  0  0  0  0  0  0  0  0
  151.0757  144.6346  157.1648 H   0  0  0  0  0  0  0  0  0  0  0  0
  153.3738  145.2629  158.2365 H   0  0  0  0  0  0  0  0  0  0  0  0
  153.4433  143.5404  157.8131 H   0  0  0  0  0  0  0  0  0  0  0  0
  149.0602  138.0340  153.7498 H   0  0  0  0  0  0  0  0  0  0  0  0
  150.7081  136.1724  153.9992 H   0  0  0  0  0  0  0  0  0  0  0  0
  153.4355  138.6198  155.9089 H   0  0  0  0  0  0  0  0  0  0  0  0
  151.9186  140.5981  155.7557 H   0  0  0  0  0  0  0  0  0  0  0  0
  150.0523  143.2190  156.3699 H   0  0  0  0  0  0  0  0  0  0  0  0
  1  2  1  0  0  0  0
  1 19  1  0  0  0  0
  1 20  1  0  0  0  0
  1 21  1  0  0  0  0
  2  3  1  0  0  0  0
  2 13  1  0  0  0  0
  2 22  1  0  0  0  0
  3  4  1  0  0  0  0
  3 23  1  0  0  0  0
  3 24  1  0  0  0  0
  4  5  1  0  0  0  0
  4 25  1  0  0  0  0
  4 41  1  0  0  0  0
  5  6  1  0  0  0  0
  5 26  1  0  0  0  0
  5 27  1  0  0  0  0
  6 11  1  0  0  0  0
  6  7  1  0  0  0  0
  6 28  1  0  0  0  0
  7  8  1  0  0  0  0
  7 29  1  0  0  0  0
  7 30  1  0  0  0  0
  8 12  1  0  0  0  0
  8  9  1  0  0  0  0
  8 31  1  0  0  0  0
  9 10  2  0  0  0  0
  9 32  1  0  0  0  0
 10 11  1  0  0  0  0
 10 33  1  0  0  0  0
 11 12  1  0  0  0  0
 11 34  1  0  0  0  0
 12 35  1  0  0  0  0
 12 36  1  0  0  0  0
 13 18  1  0  0  0  0
 13 14  2  0  0  0  0
 14 15  1  0  0  0  0
 14 37  1  0  0  0  0
 15 16  2  0  0  0  0
 15 38  1  0  0  0  0
 16 17  1  0  0  0  0
 17 18  2  0  0  0  0
 17 39  1  0  0  0  0
 18 40  1  0  0  0  0
M  CHG  1   4   1
M  END
> <s_m_source_file>
AV-unprocessed.smi

> <i_m_source_file_index>
3316

> <i_lp_mmshare_version>
43012

> <i_f3d_flags>
0

> <s_epik_input>
W2NIXTFbY0hdbltjSF1bY0hdYzFbQ0BIXShbQ0gzXSlbQ0gyXVtOSF1bQ0gyXVtDQEhdKFtDSDJdW0NASF0yMylbQ0BIXShbQ0gyXTMpW0NIXT1bQ0hdMg==

> <s_epik_cmdline>
J2VwaWtfcHl0aG9uJywgJy1waCcsICc3LjAnLCAnLXRuJywgJzgnLCAnLW1hJywgJzIwMCcsICctbWV0YWxfYmluZGluZycsICctaW1hZScsICc8aW5maWxlLm1hZT4nLCAnLW9tYWUnLCAnPG91dGZpbGUubWFlPic=

> <r_lp_tautomer_probability>
1

> <r_epik_Ionization_Penalty>
0.00280406

> <r_epik_Ionization_Penalty_Charging>
0.000446589

> <r_epik_Ionization_Penalty_Neutral>
0.00235747

> <r_epik_State_Penalty>
-0

> <r_epik_Charging_Adjusted_Penalty>
0.000446589

> <i_epik_Tot_Q>
1

> <i_epik_Tot_abs_Q>
1

> <r_epik_Metal_State_Penalty>
-0

> <b_epik_Metal_Only>
0

> <s_lp_Force_Field>
OPLS_2005

> <r_lp_Energy>
68.8741

> <b_lp_Chiralities_Consistent>
1

> <s_lp_Variant>
AV-unprocessed.smi:3316-4

> <Gold.Version>
5.8.1

> <Gold.Id.Protein>
6NUR|6NUR_protein|mol2

> <Gold.PLP.Fitness>
55.6742

> <Gold.PLP.PLP>
-48.2212

> <Gold.PLP.part.hbond>
-2.0000

> <Gold.PLP.part.metal>
0.0000

> <Gold.PLP.part.buried>
-2.2889

> <Gold.PLP.part.nonpolar>
-44.9028

> <Gold.PLP.part.repulsive>
0.1785

> <Gold.PLP.ligand.clash>
0.0000

> <Gold.PLP.ligand.torsion>
1.0743

> <Gold.PLP.Chemscore.Hbond>
2.5600

> <Gold.PLP.Chemscore.CHOScore>
0.5926

> <Gold.PLP.Chemscore.Metal>
0.0000

> <Gold.Chemscore.Hbonds>
donor molecule, donor type, donor heavy atom, donor atom, acceptor molecule, acceptor atom, score
      L1  H     4    41       P1  8028  1.82
      P1  H 10752 10765       L1    16  0.72
      L1  C    15    38       P1  7948  0.10
      L1  C    15    38       P1  7949  0.40

> <Gold.PLP.Chemscore.Internal.Correction>
0.1438

> <Gold.Rescore>
     Score         DG    S(hbond)    S(metal)    S(lipo)     H(rot)  DE(clash)    DE(int)     intcor
     23.64     -24.86       1.83        0.00     143.15       1.36       0.04       1.17       ----

> <Gold.Chemscore.Fitness>
23.6411

> <Gold.Chemscore.DG>
-24.8584

> <Gold.Chemscore.ZeroCoef>
-5.4800

> <Gold.Chemscore.Hbond>
1.8328

> <Gold.Chemscore.Metal>
0.0000

> <Gold.Chemscore.Lipo>
143.1533

> <Gold.Chemscore.Internal_Hbond>
0.0000

> <Gold.Chemscore.DEClash>
0.0435

> <Gold.Chemscore.DEInternal>
1.1739

> <Gold.Chemscore.Rot>
1.3640

> <Gold.Chemscore.Internal.Correction>
   9.000000E+99

> <Gold.Chemscore.Hbonds>
donor molecule, donor type, donor heavy atom, donor atom, acceptor molecule, acceptor atom, score
      L1  H     4    41       P1  8028  0.84
      P1  H 10752 10765       L1    16  0.36

> <Gold.Chemscore.Hbond.Weighted>
-6.1214

> <Gold.Chemscore.Metal.Weighted>
-0.0000

> <Gold.Chemscore.Lipo.Weighted>
-16.7489

> <Gold.Chemscore.Internal_Hbond.Weighted>
0.0000

> <Gold.Chemscore.DEClash.Weighted>
0.0435

> <Gold.Chemscore.DEInternal.Weighted>
1.1739

> <Gold.Chemscore.Rot.Weighted>
3.4919

> <Gold.Chemscore.Internal.Correction.Weighted>
   9.000000E+99

> <Gold.Protein.RotatedTorsions>
[ 6907 6896 6895 6894 ] final -119.75 input  -60.11 | X-H torsion
[ 7974 7965 7964 7962 ] final  -95.77 input  175.53 | X-H torsion
[ 8008 7997 7996 7995 ] final -131.97 input   59.86 | X-H torsion
[ 10167 10162 10161 10158 ] final -143.35 input  -65.29 | X-H torsion
[ 10718 10713 10712 10709 ] final  144.93 input   66.30 | X-H torsion
[ 10763 10752 10751 10750 ] final -166.97 input  -60.55 | X-H torsion
[ 11005 11000 10999 10996 ] final  133.05 input  -57.11 | X-H torsion

> <Gold.Protein.ActiveResidues>
 VAL166  LYS551  ARG553  GLY616  TRP617  ASP618  TYR619  PRO620  LYS621  CYS622 
 ASP623  PHE694  ASN695  SER759  ASP760  ASP761  ALA762  ILE779  LEU786  VAL792 
 PHE793  MET794  SER795  GLU796  ALA797  LYS798  CYS799  TRP800  GLU811  SER814 

> <Gold.Protein.RotatedAtoms>
  150.8333  133.8056  159.3089 H   0  0  0  0  0  0  0  0  0  0  0  0  # atno 6907 bound_to 6896
  151.5779  135.1058  160.0020 H   0  0  0  0  0  0  0  0  0  0  0  0  # atno 6908 bound_to 6896
  152.4409  133.7404  159.6694 H   0  0  0  0  0  0  0  0  0  0  0  0  # atno 6909 bound_to 6896
  145.3557  140.9484  143.2529 H   0  0  0  0  0  0  0  0  0  0  0  0  # atno 7974 bound_to 7965
  155.3212  140.0462  157.3039 H   0  0  0  0  0  0  0  0  0  0  0  0  # atno 8008 bound_to 7997
  154.5379  140.2278  155.8657 H   0  0  0  0  0  0  0  0  0  0  0  0  # atno 8009 bound_to 7997
  156.1853  140.3064  155.9232 H   0  0  0  0  0  0  0  0  0  0  0  0  # atno 8010 bound_to 7997
  139.8002  143.7844  152.2657 H   0  0  0  0  0  0  0  0  0  0  0  0  # atno 10167 bound_to 10162
  157.3513  131.0951  151.0997 H   0  0  0  0  0  0  0  0  0  0  0  0  # atno 10718 bound_to 10713
  154.6779  135.2950  154.9653 H   0  0  0  0  0  0  0  0  0  0  0  0  # atno 10763 bound_to 10752
  154.0658  135.6625  153.4821 H   0  0  0  0  0  0  0  0  0  0  0  0  # atno 10764 bound_to 10752
  153.0528  135.5163  154.7807 H   0  0  0  0  0  0  0  0  0  0  0  0  # atno 10765 bound_to 10752
  139.9828  134.9542  156.9670 H   0  0  0  0  0  0  0  0  0  0  0  0  # atno 11005 bound_to 11000
  144.8684  139.5074  143.6779 LP  0  0  0  0  0  0  0  0  0  0  0  0  # atno 17320 bound_to 7965
  146.2949  139.7248  142.9134 LP  0  0  0  0  0  0  0  0  0  0  0  0  # atno 17321 bound_to 7965
  139.7962  144.7392  150.9887 LP  0  0  0  0  0  0  0  0  0  0  0  0  # atno 17342 bound_to 10162
  140.7820  143.4392  151.0578 LP  0  0  0  0  0  0  0  0  0  0  0  0  # atno 17343 bound_to 10162
  157.2172  130.6465  149.5797 LP  0  0  0  0  0  0  0  0  0  0  0  0  # atno 17370 bound_to 10713
  155.9722  130.4641  150.6205 LP  0  0  0  0  0  0  0  0  0  0  0  0  # atno 17371 bound_to 10713
  140.5063  134.1047  155.7260 LP  0  0  0  0  0  0  0  0  0  0  0  0  # atno 17394 bound_to 11000
  141.1497  133.8990  157.2127 LP  0  0  0  0  0  0  0  0  0  0  0  0  # atno 17395 bound_to 11000

$$$$
