AV-unprocessed.smi:1124|AV-procd|sdf|4833|dock6
  -GOLD-   22720 3393D 1   1.00000     0.00000
 Structure written by MMmdl.
 52 53  0  0  0  0  0  0  0  0  2 V2000
  146.1488  134.1050  162.4937 C   0  0  0  0  0  0  0  0  0  0  0  0
  147.0383  135.0467  161.7777 N   0  3  0  0  0  0  0  0  0  0  0  0
  147.5857  136.0847  162.6789 C   0  0  0  0  0  0  0  0  0  0  0  0
  146.4219  135.6116  160.5472 C   0  0  0  0  0  0  0  0  0  0  0  0
  147.4278  135.7515  159.3713 C   0  0  0  0  0  0  0  0  0  0  0  0
  147.9329  134.3572  158.9428 C   0  0  0  0  0  0  0  0  0  0  0  0
  146.7593  136.4424  158.1621 C   0  0  0  0  0  0  0  0  0  0  0  0
  148.6661  136.5740  159.8223 C   0  0  0  0  0  0  0  0  0  0  0  0
  149.4491  137.1191  158.7147 N   0  0  0  0  0  0  0  0  0  0  0  0
  150.7606  137.4060  158.7492 C   0  0  0  0  0  0  0  0  0  0  0  0
  151.4669  137.2359  159.7434 O   0  0  0  0  0  0  0  0  0  0  0  0
  151.3313  137.9402  157.4615 C   0  0  0  0  0  0  0  0  0  0  0  0
  151.0061  137.3004  156.2426 C   0  0  0  0  0  0  0  0  0  0  0  0
  151.4939  137.8212  155.0314 C   0  0  0  0  0  0  0  0  0  0  0  0
  152.2900  138.9779  155.0788 C   0  0  0  0  0  0  0  0  0  0  0  0
  152.6089  139.6051  156.2283 N   0  0  0  0  0  0  0  0  0  0  0  0
  152.1473  139.1096  157.4036 C   0  0  0  0  0  0  0  0  0  0  0  0
  152.5507  139.7862  158.5725 N   0  0  0  0  0  0  0  0  0  0  0  0
  152.4338  141.2409  158.5824 C   0  0  0  0  0  0  0  0  0  0  0  0
  152.6823  141.7742  160.0037 C   0  0  0  0  0  0  0  0  0  0  0  0
  153.9536  141.3261  160.4662 O   0  0  0  0  0  0  0  0  0  0  0  0
  154.0331  139.9043  160.5232 C   0  0  0  0  0  0  0  0  0  0  0  0
  153.8184  139.3165  159.1181 C   0  0  0  0  0  0  0  0  0  0  0  0
  145.2703  134.6183  162.8870 H   0  0  0  0  0  0  0  0  0  0  0  0
  146.6742  133.6391  163.3280 H   0  0  0  0  0  0  0  0  0  0  0  0
  145.8110  133.3094  161.8292 H   0  0  0  0  0  0  0  0  0  0  0  0
  146.7921  136.7247  163.0666 H   0  0  0  0  0  0  0  0  0  0  0  0
  148.3056  136.7113  162.1513 H   0  0  0  0  0  0  0  0  0  0  0  0
  148.1013  135.6281  163.5245 H   0  0  0  0  0  0  0  0  0  0  0  0
  145.5780  134.9872  160.2512 H   0  0  0  0  0  0  0  0  0  0  0  0
  145.9888  136.5899  160.7635 H   0  0  0  0  0  0  0  0  0  0  0  0
  148.6826  134.4325  158.1542 H   0  0  0  0  0  0  0  0  0  0  0  0
  147.1279  133.7310  158.5573 H   0  0  0  0  0  0  0  0  0  0  0  0
  148.3905  133.8266  159.7787 H   0  0  0  0  0  0  0  0  0  0  0  0
  147.4777  136.6159  157.3601 H   0  0  0  0  0  0  0  0  0  0  0  0
  146.3304  137.4079  158.4334 H   0  0  0  0  0  0  0  0  0  0  0  0
  145.9548  135.8360  157.7456 H   0  0  0  0  0  0  0  0  0  0  0  0
  148.3649  137.3713  160.5044 H   0  0  0  0  0  0  0  0  0  0  0  0
  149.3390  135.9380  160.3986 H   0  0  0  0  0  0  0  0  0  0  0  0
  148.9569  137.2767  157.8469 H   0  0  0  0  0  0  0  0  0  0  0  0
  150.3781  136.4212  156.2256 H   0  0  0  0  0  0  0  0  0  0  0  0
  151.2579  137.3502  154.0886 H   0  0  0  0  0  0  0  0  0  0  0  0
  152.6815  139.4115  154.1705 H   0  0  0  0  0  0  0  0  0  0  0  0
  153.1609  141.6753  157.8947 H   0  0  0  0  0  0  0  0  0  0  0  0
  151.4417  141.5365  158.2390 H   0  0  0  0  0  0  0  0  0  0  0  0
  152.6665  142.8642  160.0050 H   0  0  0  0  0  0  0  0  0  0  0  0
  151.8979  141.4426  160.6864 H   0  0  0  0  0  0  0  0  0  0  0  0
  155.0130  139.6178  160.9051 H   0  0  0  0  0  0  0  0  0  0  0  0
  153.2916  139.5156  161.2235 H   0  0  0  0  0  0  0  0  0  0  0  0
  153.8413  138.2276  159.1642 H   0  0  0  0  0  0  0  0  0  0  0  0
  154.6284  139.6245  158.4556 H   0  0  0  0  0  0  0  0  0  0  0  0
  147.8306  134.5040  161.4652 H   0  0  0  0  0  0  0  0  0  0  0  0
  1  2  1  0  0  0  0
  1 24  1  0  0  0  0
  1 25  1  0  0  0  0
  1 26  1  0  0  0  0
  2  3  1  0  0  0  0
  2  4  1  0  0  0  0
  2 52  1  0  0  0  0
  3 27  1  0  0  0  0
  3 28  1  0  0  0  0
  3 29  1  0  0  0  0
  4  5  1  0  0  0  0
  4 30  1  0  0  0  0
  4 31  1  0  0  0  0
  5  6  1  0  0  0  0
  5  7  1  0  0  0  0
  5  8  1  0  0  0  0
  6 32  1  0  0  0  0
  6 33  1  0  0  0  0
  6 34  1  0  0  0  0
  7 35  1  0  0  0  0
  7 36  1  0  0  0  0
  7 37  1  0  0  0  0
  8  9  1  0  0  0  0
  8 38  1  0  0  0  0
  8 39  1  0  0  0  0
  9 10  1  0  0  0  0
  9 40  1  0  0  0  0
 10 11  2  0  0  0  0
 10 12  1  0  0  0  0
 12 17  1  0  0  0  0
 12 13  2  0  0  0  0
 13 14  1  0  0  0  0
 13 41  1  0  0  0  0
 14 15  2  0  0  0  0
 14 42  1  0  0  0  0
 15 16  1  0  0  0  0
 15 43  1  0  0  0  0
 16 17  2  0  0  0  0
 17 18  1  0  0  0  0
 18 23  1  0  0  0  0
 18 19  1  0  0  0  0
 19 20  1  0  0  0  0
 19 44  1  0  0  0  0
 19 45  1  0  0  0  0
 20 21  1  0  0  0  0
 20 46  1  0  0  0  0
 20 47  1  0  0  0  0
 21 22  1  0  0  0  0
 22 23  1  0  0  0  0
 22 48  1  0  0  0  0
 22 49  1  0  0  0  0
 23 50  1  0  0  0  0
 23 51  1  0  0  0  0
M  CHG  1   2   1
M  END
> <s_m_source_file>
AV-unprocessed.smi

> <i_m_source_file_index>
1124

> <i_lp_mmshare_version>
43012

> <i_f3d_flags>
0

> <s_epik_input>
W0NIM11OKFtDSDNdKVtDSDJdQyhbQ0gzXSkoW0NIM10pW0NIMl1bTkhdQyg9TyljMVtjSF1bY0hdW2NIXW5jMU4yW0NIMl1bQ0gyXU9bQ0gyXVtDSDJdMg==

> <s_epik_cmdline>
J2VwaWtfcHl0aG9uJywgJy1waCcsICc3LjAnLCAnLXRuJywgJzgnLCAnLW1hJywgJzIwMCcsICctbWV0YWxfYmluZGluZycsICctaW1hZScsICc8aW5maWxlLm1hZT4nLCAnLW9tYWUnLCAnPG91dGZpbGUubWFlPic=

> <r_lp_tautomer_probability>
1

> <r_epik_Ionization_Penalty>
0.000493047

> <r_epik_Ionization_Penalty_Charging>
0.000482013

> <r_epik_Ionization_Penalty_Neutral>
1.10333e-05

> <r_epik_State_Penalty>
0.000299147

> <r_epik_Charging_Adjusted_Penalty>
0.000781161

> <i_epik_Tot_Q>
1

> <i_epik_Tot_abs_Q>
1

> <r_epik_Metal_State_Penalty>
-0

> <b_epik_Metal_Only>
0

> <s_lp_Force_Field>
OPLS_2005

> <r_lp_Energy>
38.5131

> <b_lp_Chiralities_Consistent>
1

> <s_lp_Variant>
AV-unprocessed.smi:1124-1

> <Gold.Version>
5.8.1

> <Gold.Id.Protein>
6NUR|6NUR_protein|mol2

> <Gold.PLP.Fitness>
38.2001

> <Gold.PLP.PLP>
-36.0212

> <Gold.PLP.part.hbond>
-1.9704

> <Gold.PLP.part.metal>
0.0000

> <Gold.PLP.part.buried>
-7.3928

> <Gold.PLP.part.nonpolar>
-27.9522

> <Gold.PLP.part.repulsive>
0.2226

> <Gold.PLP.ligand.clash>
0.0000

> <Gold.PLP.ligand.torsion>
2.2790

> <Gold.PLP.Chemscore.Hbond>
1.9913

> <Gold.PLP.Chemscore.CHOScore>
0.0000

> <Gold.PLP.Chemscore.Metal>
0.0000

> <Gold.Chemscore.Hbonds>
donor molecule, donor type, donor heavy atom, donor atom, acceptor molecule, acceptor atom, score
      P1  H  6896  6907       L1    11  0.89
      P1  H  7997  8009       L1    16  1.00

> <Gold.PLP.Chemscore.Internal.Correction>
0.7630

> <Gold.Rescore>
     Score         DG    S(hbond)    S(metal)    S(lipo)     H(rot)  DE(clash)    DE(int)     intcor
     14.25     -17.00       1.86        0.00      83.28       1.73       0.00       2.74       ----

> <Gold.Chemscore.Fitness>
14.2540

> <Gold.Chemscore.DG>
-16.9962

> <Gold.Chemscore.ZeroCoef>
-5.4800

> <Gold.Chemscore.Hbond>
1.8601

> <Gold.Chemscore.Metal>
0.0000

> <Gold.Chemscore.Lipo>
83.2844

> <Gold.Chemscore.Internal_Hbond>
0.0000

> <Gold.Chemscore.DEClash>
0.0000

> <Gold.Chemscore.DEInternal>
2.7422

> <Gold.Chemscore.Rot>
1.7347

> <Gold.Chemscore.Internal.Correction>
   9.000000E+99

> <Gold.Chemscore.Hbonds>
donor molecule, donor type, donor heavy atom, donor atom, acceptor molecule, acceptor atom, score
      P1  H  6896  6907       L1    11  0.34
      P1  H  7997  8009       L1    16  0.63

> <Gold.Chemscore.Hbond.Weighted>
-6.2127

> <Gold.Chemscore.Metal.Weighted>
-0.0000

> <Gold.Chemscore.Lipo.Weighted>
-9.7443

> <Gold.Chemscore.Internal_Hbond.Weighted>
0.0000

> <Gold.Chemscore.DEClash.Weighted>
0.0000

> <Gold.Chemscore.DEInternal.Weighted>
2.7422

> <Gold.Chemscore.Rot.Weighted>
4.4408

> <Gold.Chemscore.Internal.Correction.Weighted>
   9.000000E+99

> <Gold.Protein.RotatedTorsions>
[ 6907 6896 6895 6894 ] final   -4.97 input  -60.11 | X-H torsion
[ 7974 7965 7964 7962 ] final  -29.75 input  175.53 | X-H torsion
[ 8008 7997 7996 7995 ] final -170.27 input   59.86 | X-H torsion
[ 10167 10162 10161 10158 ] final  115.20 input  -65.29 | X-H torsion
[ 10718 10713 10712 10709 ] final -106.81 input   66.30 | X-H torsion
[ 10763 10752 10751 10750 ] final  174.74 input  -60.55 | X-H torsion
[ 11005 11000 10999 10996 ] final   99.57 input  -57.11 | X-H torsion

> <Gold.Protein.ActiveResidues>
 VAL166  LYS551  ARG553  GLY616  TRP617  ASP618  TYR619  PRO620  LYS621  CYS622 
 ASP623  PHE694  ASN695  SER759  ASP760  ASP761  ALA762  ILE779  LEU786  VAL792 
 PHE793  MET794  SER795  GLU796  ALA797  LYS798  CYS799  TRP800  GLU811  SER814 

> <Gold.Protein.RotatedAtoms>
  151.4891  135.1056  159.9798 H   0  0  0  0  0  0  0  0  0  0  0  0  # atno 6907 bound_to 6896
  152.4748  133.8110  159.7014 H   0  0  0  0  0  0  0  0  0  0  0  0  # atno 6908 bound_to 6896
  150.8780  133.7350  159.2967 H   0  0  0  0  0  0  0  0  0  0  0  0  # atno 6909 bound_to 6896
  146.1193  140.5453  142.8742 H   0  0  0  0  0  0  0  0  0  0  0  0  # atno 7974 bound_to 7965
  155.9161  140.1066  157.1242 H   0  0  0  0  0  0  0  0  0  0  0  0  # atno 8008 bound_to 7997
  154.4047  140.1265  156.4685 H   0  0  0  0  0  0  0  0  0  0  0  0  # atno 8009 bound_to 7997
  155.7252  140.3469  155.5036 H   0  0  0  0  0  0  0  0  0  0  0  0  # atno 8010 bound_to 7997
  139.6334  144.7117  151.2385 H   0  0  0  0  0  0  0  0  0  0  0  0  # atno 10167 bound_to 10162
  156.0407  130.5631  150.7733 H   0  0  0  0  0  0  0  0  0  0  0  0  # atno 10718 bound_to 10713
  154.4581  135.2767  155.1732 H   0  0  0  0  0  0  0  0  0  0  0  0  # atno 10763 bound_to 10752
  154.3532  135.6145  153.5656 H   0  0  0  0  0  0  0  0  0  0  0  0  # atno 10764 bound_to 10752
  152.9852  135.5816  154.4938 H   0  0  0  0  0  0  0  0  0  0  0  0  # atno 10765 bound_to 10752
  139.8771  134.9101  156.4626 H   0  0  0  0  0  0  0  0  0  0  0  0  # atno 11005 bound_to 11000
  144.7582  140.5359  143.6754 LP  0  0  0  0  0  0  0  0  0  0  0  0  # atno 17320 bound_to 7965
  145.5500  139.1476  143.3400 LP  0  0  0  0  0  0  0  0  0  0  0  0  # atno 17321 bound_to 7965
  140.7452  143.6439  150.8309 LP  0  0  0  0  0  0  0  0  0  0  0  0  # atno 17342 bound_to 10162
  140.0067  143.5686  152.2855 LP  0  0  0  0  0  0  0  0  0  0  0  0  # atno 17343 bound_to 10162
  157.5221  131.0932  151.0065 LP  0  0  0  0  0  0  0  0  0  0  0  0  # atno 17370 bound_to 10713
  157.0393  130.5742  149.5354 LP  0  0  0  0  0  0  0  0  0  0  0  0  # atno 17371 bound_to 10713
  140.8853  133.7888  155.9511 LP  0  0  0  0  0  0  0  0  0  0  0  0  # atno 17394 bound_to 11000
  140.8811  134.2610  157.5143 LP  0  0  0  0  0  0  0  0  0  0  0  0  # atno 17395 bound_to 11000

$$$$
