AV-unprocessed.smi:236|AV-procd|sdf|1812|dock5
  -GOLD-   2262020393D 1   1.00000     0.00000
 Structure written by MMmdl.
 58 62  0  0  0  0  0  0  0  0  1 V2000
  145.3427  137.5435  160.9407 C   0  0  0  0  0  0  0  0  0  0  0  0
  145.3618  136.5105  162.0769 C   0  0  1  0  0  0  0  0  0  0  0  0
  144.1028  135.8513  162.1827 O   0  0  0  0  0  0  0  0  0  0  0  0
  144.2878  134.5058  162.6139 C   0  0  0  0  0  0  0  0  0  0  0  0
  145.7764  134.3701  162.9213 C   0  0  0  0  0  0  0  0  0  0  0  0
  146.4067  135.3835  161.9732 C   0  0  2  0  0  0  0  0  0  0  0  0
  147.6437  135.8073  162.5142 O   0  0  0  0  0  0  0  0  0  0  0  0
  146.6200  134.8498  160.5293 C   0  0  0  0  0  0  0  0  0  0  0  0
  147.5416  135.6459  159.7342 N   0  0  0  0  0  0  0  0  0  0  0  0
  148.9166  135.6281  159.8020 C   0  0  0  0  0  0  0  0  0  0  0  0
  149.5252  136.4438  158.9853 N   0  0  0  0  0  0  0  0  0  0  0  0
  148.4921  137.0564  158.2859 C   0  0  0  0  0  0  0  0  0  0  0  0
  148.4295  138.0398  157.2579 C   0  0  0  0  0  0  0  0  0  0  0  0
  149.4978  138.6538  156.7077 N   0  0  0  0  0  0  0  0  0  0  0  0
  149.7419  138.2470  155.3310 C   0  0  0  0  0  0  0  0  0  0  0  0
  151.0638  138.8537  154.8341 C   0  0  0  0  0  0  0  0  0  0  0  0
  151.0278  140.2679  155.0004 O   0  0  0  0  0  0  0  0  0  0  0  0
  150.8838  140.6534  156.3667 C   0  0  1  0  0  0  0  0  0  0  0  0
  150.9329  142.1846  156.4379 C   0  0  0  0  0  0  0  0  0  0  0  0
  151.4381  142.5724  157.7048 O   0  0  0  0  0  0  0  0  0  0  0  0
  151.6759  143.9663  157.7948 C   0  0  0  0  0  0  0  0  0  0  0  0
  152.2816  144.2788  159.1464 C   0  0  0  0  0  0  0  0  0  0  0  0
  151.4361  144.2634  160.4001 C   0  0  0  0  0  0  0  0  0  0  0  0
  151.9400  145.5729  159.8497 C   0  0  0  0  0  0  0  0  0  0  0  0
  149.5436  140.0997  156.8887 C   0  0  0  0  0  0  0  0  0  0  0  0
  147.2069  138.4145  156.8089 N   0  0  0  0  0  0  0  0  0  0  0  0
  146.1066  137.8578  157.3243 C   0  0  0  0  0  0  0  0  0  0  0  0
  146.0081  136.9325  158.2816 N   0  0  0  0  0  0  0  0  0  0  0  0
  147.2377  136.5614  158.7416 C   0  0  0  0  0  0  0  0  0  0  0  0
  146.3134  138.0287  160.8361 H   0  0  0  0  0  0  0  0  0  0  0  0
  144.6044  138.3201  161.1406 H   0  0  0  0  0  0  0  0  0  0  0  0
  145.0851  137.0888  159.9842 H   0  0  0  0  0  0  0  0  0  0  0  0
  145.5071  137.0388  163.0213 H   0  0  0  0  0  0  0  0  0  0  0  0
  143.6651  134.2765  163.4789 H   0  0  0  0  0  0  0  0  0  0  0  0
  143.9997  133.8360  161.8030 H   0  0  0  0  0  0  0  0  0  0  0  0
  145.9486  134.6665  163.9577 H   0  0  0  0  0  0  0  0  0  0  0  0
  146.1456  133.3510  162.8160 H   0  0  0  0  0  0  0  0  0  0  0  0
  148.3164  135.2061  162.2319 H   0  0  0  0  0  0  0  0  0  0  0  0
  146.9972  133.8271  160.5554 H   0  0  0  0  0  0  0  0  0  0  0  0
  145.6705  134.8083  159.9946 H   0  0  0  0  0  0  0  0  0  0  0  0
  149.4575  134.9947  160.4902 H   0  0  0  0  0  0  0  0  0  0  0  0
  149.7819  137.1592  155.2634 H   0  0  0  0  0  0  0  0  0  0  0  0
  148.9183  138.5810  154.6983 H   0  0  0  0  0  0  0  0  0  0  0  0
  151.9130  138.4340  155.3757 H   0  0  0  0  0  0  0  0  0  0  0  0
  151.2111  138.6219  153.7794 H   0  0  0  0  0  0  0  0  0  0  0  0
  151.7037  140.2401  156.9572 H   0  0  0  0  0  0  0  0  0  0  0  0
  151.5515  142.5830  155.6320 H   0  0  0  0  0  0  0  0  0  0  0  0
  149.9291  142.5947  156.3155 H   0  0  0  0  0  0  0  0  0  0  0  0
  152.3723  144.2811  157.0165 H   0  0  0  0  0  0  0  0  0  0  0  0
  150.7487  144.5265  157.6636 H   0  0  0  0  0  0  0  0  0  0  0  0
  153.3129  143.9469  159.2529 H   0  0  0  0  0  0  0  0  0  0  0  0
  150.3745  144.0492  160.2942 H   0  0  0  0  0  0  0  0  0  0  0  0
  151.8977  143.8895  161.3117 H   0  0  0  0  0  0  0  0  0  0  0  0
  152.7382  146.0739  160.3933 H   0  0  0  0  0  0  0  0  0  0  0  0
  151.2130  146.2308  159.3777 H   0  0  0  0  0  0  0  0  0  0  0  0
  148.7212  140.5717  156.3508 H   0  0  0  0  0  0  0  0  0  0  0  0
  149.4210  140.3420  157.9453 H   0  0  0  0  0  0  0  0  0  0  0  0
  145.1709  138.2060  156.9124 H   0  0  0  0  0  0  0  0  0  0  0  0
  1  2  1  0  0  0  0
  1 30  1  0  0  0  0
  1 31  1  0  0  0  0
  1 32  1  0  0  0  0
  2  6  1  0  0  0  0
  2  3  1  0  0  0  0
  2 33  1  0  0  0  0
  3  4  1  0  0  0  0
  4  5  1  0  0  0  0
  4 34  1  0  0  0  0
  4 35  1  0  0  0  0
  5  6  1  0  0  0  0
  5 36  1  0  0  0  0
  5 37  1  0  0  0  0
  6  7  1  0  0  0  0
  6  8  1  0  0  0  0
  7 38  1  0  0  0  0
  8  9  1  0  0  0  0
  8 39  1  0  0  0  0
  8 40  1  0  0  0  0
  9 29  1  0  0  0  0
  9 10  1  0  0  0  0
 10 11  2  0  0  0  0
 10 41  1  0  0  0  0
 11 12  1  0  0  0  0
 12 29  2  0  0  0  0
 12 13  1  0  0  0  0
 13 14  1  0  0  0  0
 13 26  2  0  0  0  0
 14 25  1  0  0  0  0
 14 15  1  0  0  0  0
 15 16  1  0  0  0  0
 15 42  1  0  0  0  0
 15 43  1  0  0  0  0
 16 17  1  0  0  0  0
 16 44  1  0  0  0  0
 16 45  1  0  0  0  0
 17 18  1  0  0  0  0
 18 19  1  0  0  0  0
 18 25  1  0  0  0  0
 18 46  1  0  0  0  0
 19 20  1  0  0  0  0
 19 47  1  0  0  0  0
 19 48  1  0  0  0  0
 20 21  1  0  0  0  0
 21 22  1  0  0  0  0
 21 49  1  0  0  0  0
 21 50  1  0  0  0  0
 22 24  1  0  0  0  0
 22 23  1  0  0  0  0
 22 51  1  0  0  0  0
 23 24  1  0  0  0  0
 23 52  1  0  0  0  0
 23 53  1  0  0  0  0
 24 54  1  0  0  0  0
 24 55  1  0  0  0  0
 25 56  1  0  0  0  0
 25 57  1  0  0  0  0
 26 27  1  0  0  0  0
 27 28  2  0  0  0  0
 27 58  1  0  0  0  0
 28 29  1  0  0  0  0
M  END
> <s_m_source_file>
AV-unprocessed.smi

> <i_m_source_file_index>
236

> <i_lp_mmshare_version>
43012

> <i_f3d_flags>
0

> <s_epik_input>
W0NIMl0xW0NIMl1PW0NAQEhdKFtDSDNdKVtDQEBdMShbT0hdKVtDSDJdbihbY0hdbjIpYyhjMjMpbltjSF1uYzNONFtDSDJdW0NIMl1PW0NASF0oW0NIMl00KVtDSDJdT1tDSDJdW0NIXTVbQ0gyXVtDSDJdNQ==

> <s_epik_cmdline>
J2VwaWtfcHl0aG9uJywgJy1waCcsICc3LjAnLCAnLXRuJywgJzgnLCAnLW1hJywgJzIwMCcsICctbWV0YWxfYmluZGluZycsICctaW1hZScsICc8aW5maWxlLm1hZT4nLCAnLW9tYWUnLCAnPG91dGZpbGUubWFlPic=

> <r_lp_tautomer_probability>
1

> <r_epik_Ionization_Penalty>
7.21838e-05

> <r_epik_Ionization_Penalty_Charging>
0

> <r_epik_Ionization_Penalty_Neutral>
7.21838e-05

> <r_epik_State_Penalty>
-0

> <r_epik_Charging_Adjusted_Penalty>
0

> <i_epik_Tot_Q>
0

> <i_epik_Tot_abs_Q>
0

> <r_epik_Metal_State_Penalty>
-0

> <b_epik_Metal_Only>
0

> <s_lp_Force_Field>
OPLS_2005

> <r_lp_Energy>
49.6686

> <b_lp_Chiralities_Consistent>
1

> <s_lp_Variant>
AV-unprocessed.smi:236-4

> <Gold.Version>
5.8.1

> <Gold.Id.Protein>
6NUR|6NUR_protein|mol2

> <Gold.PLP.Fitness>
43.5721

> <Gold.PLP.PLP>
-42.3014

> <Gold.PLP.part.hbond>
-1.5233

> <Gold.PLP.part.metal>
0.0000

> <Gold.PLP.part.buried>
-6.1579

> <Gold.PLP.part.nonpolar>
-36.5090

> <Gold.PLP.part.repulsive>
0.1320

> <Gold.PLP.ligand.clash>
0.0000

> <Gold.PLP.ligand.torsion>
1.2711

> <Gold.PLP.Chemscore.Hbond>
1.0000

> <Gold.PLP.Chemscore.CHOScore>
0.0000

> <Gold.PLP.Chemscore.Metal>
0.0000

> <Gold.Chemscore.Hbonds>
donor molecule, donor type, donor heavy atom, donor atom, acceptor molecule, acceptor atom, score
      P1  H  7989  7998       L1    17  1.00

> <Gold.PLP.Chemscore.Internal.Correction>
0.8129

> <Gold.Rescore>
     Score         DG    S(hbond)    S(metal)    S(lipo)     H(rot)  DE(clash)    DE(int)     intcor
     12.26     -15.40       0.93        0.00     121.04       2.87       0.63       2.51       ----

> <Gold.Chemscore.Fitness>
12.2589

> <Gold.Chemscore.DG>
-15.3997

> <Gold.Chemscore.ZeroCoef>
-5.4800

> <Gold.Chemscore.Hbond>
0.9263

> <Gold.Chemscore.Metal>
0.0000

> <Gold.Chemscore.Lipo>
121.0401

> <Gold.Chemscore.Internal_Hbond>
0.0000

> <Gold.Chemscore.DEClash>
0.6328

> <Gold.Chemscore.DEInternal>
2.5080

> <Gold.Chemscore.Rot>
2.8655

> <Gold.Chemscore.Internal.Correction>
   9.000000E+99

> <Gold.Chemscore.Hbonds>
donor molecule, donor type, donor heavy atom, donor atom, acceptor molecule, acceptor atom, score
      P1  H  7989  7998       L1    17  0.44

> <Gold.Chemscore.Hbond.Weighted>
-3.0938

> <Gold.Chemscore.Metal.Weighted>
-0.0000

> <Gold.Chemscore.Lipo.Weighted>
-14.1617

> <Gold.Chemscore.Internal_Hbond.Weighted>
0.0000

> <Gold.Chemscore.DEClash.Weighted>
0.6328

> <Gold.Chemscore.DEInternal.Weighted>
2.5080

> <Gold.Chemscore.Rot.Weighted>
7.3358

> <Gold.Chemscore.Internal.Correction.Weighted>
   9.000000E+99

> <Gold.Protein.RotatedTorsions>
[ 6907 6896 6895 6894 ] final   16.97 input  -60.11 | X-H torsion
[ 7974 7965 7964 7962 ] final   37.21 input  175.53 | X-H torsion
[ 8008 7997 7996 7995 ] final -145.78 input   59.86 | X-H torsion
[ 10167 10162 10161 10158 ] final  176.98 input  -65.29 | X-H torsion
[ 10718 10713 10712 10709 ] final   80.85 input   66.30 | X-H torsion
[ 10763 10752 10751 10750 ] final -105.34 input  -60.55 | X-H torsion
[ 11005 11000 10999 10996 ] final   66.43 input  -57.11 | X-H torsion

> <Gold.Protein.ActiveResidues>
 VAL166  LYS551  ARG553  GLY616  TRP617  ASP618  TYR619  PRO620  LYS621  CYS622 
 ASP623  PHE694  ASN695  SER759  ASP760  ASP761  ALA762  ILE779  LEU786  VAL792 
 PHE793  MET794  SER795  GLU796  ALA797  LYS798  CYS799  TRP800  GLU811  SER814 

> <Gold.Protein.RotatedAtoms>
  151.8422  135.0586  160.0449 H   0  0  0  0  0  0  0  0  0  0  0  0  # atno 6907 bound_to 6896
  152.2800  133.5457  159.5500 H   0  0  0  0  0  0  0  0  0  0  0  0  # atno 6908 bound_to 6896
  150.7185  134.0493  159.3835 H   0  0  0  0  0  0  0  0  0  0  0  0  # atno 6909 bound_to 6896
  146.1154  139.5922  142.9325 H   0  0  0  0  0  0  0  0  0  0  0  0  # atno 7974 bound_to 7965
  155.5488  140.0614  157.2854 H   0  0  0  0  0  0  0  0  0  0  0  0  # atno 8008 bound_to 7997
  154.4428  140.1906  156.0709 H   0  0  0  0  0  0  0  0  0  0  0  0  # atno 8009 bound_to 7997
  156.0532  140.3282  155.7378 H   0  0  0  0  0  0  0  0  0  0  0  0  # atno 8010 bound_to 7997
  139.5235  144.2852  152.0512 H   0  0  0  0  0  0  0  0  0  0  0  0  # atno 10167 bound_to 10162
  157.6817  130.9978  150.2139 H   0  0  0  0  0  0  0  0  0  0  0  0  # atno 10718 bound_to 10713
  154.7940  135.4753  154.0117 H   0  0  0  0  0  0  0  0  0  0  0  0  # atno 10763 bound_to 10752
  153.1674  135.6819  153.8663 H   0  0  0  0  0  0  0  0  0  0  0  0  # atno 10764 bound_to 10752
  153.8256  135.3198  155.3392 H   0  0  0  0  0  0  0  0  0  0  0  0  # atno 10765 bound_to 10752
  139.9832  134.6709  156.0223 H   0  0  0  0  0  0  0  0  0  0  0  0  # atno 11005 bound_to 11000
  145.5577  141.0407  143.2243 LP  0  0  0  0  0  0  0  0  0  0  0  0  # atno 17320 bound_to 7965
  144.7548  139.7101  143.7258 LP  0  0  0  0  0  0  0  0  0  0  0  0  # atno 17321 bound_to 7965
  140.2305  144.4373  150.6302 LP  0  0  0  0  0  0  0  0  0  0  0  0  # atno 17342 bound_to 10162
  140.6358  143.2194  151.6398 LP  0  0  0  0  0  0  0  0  0  0  0  0  # atno 17343 bound_to 10162
  156.2804  130.3733  149.7940 LP  0  0  0  0  0  0  0  0  0  0  0  0  # atno 17370 bound_to 10713
  156.5630  130.8392  151.3334 LP  0  0  0  0  0  0  0  0  0  0  0  0  # atno 17371 bound_to 10713
  141.1501  133.6550  156.3988 LP  0  0  0  0  0  0  0  0  0  0  0  0  # atno 17394 bound_to 11000
  140.5054  134.6446  157.5264 LP  0  0  0  0  0  0  0  0  0  0  0  0  # atno 17395 bound_to 11000

$$$$
