AV-unprocessed.smi:2061|AV-procd|sdf|8394|dock9
  -GOLD-   2272011 83D 1   1.00000     0.00000
 Structure written by MMmdl.
 45 46  0  0  0  0  0  0  0  0  3 V2000
  147.4280  134.5610  162.9538 C   0  0  0  0  0  0  0  0  0  0  0  0
  147.5115  133.9906  161.5797 C   0  0  0  0  0  0  0  0  0  0  0  0
  148.0112  134.4705  160.4019 C   0  0  0  0  0  0  0  0  0  0  0  0
  147.7619  133.4097  159.4904 C   0  0  0  0  0  0  0  0  0  0  0  0
  148.1413  133.5219  158.1262 N   0  0  0  0  0  0  0  0  0  0  0  0
  149.0203  134.3718  157.5637 C   0  0  0  0  0  0  0  0  0  0  0  0
  149.6141  135.2047  158.2591 O   0  0  0  0  0  0  0  0  0  0  0  0
  149.1385  134.1791  156.2211 N   0  5  0  0  0  0  0  0  0  0  0  0
  149.7290  135.1486  155.2983 C   0  0  0  0  0  0  0  0  0  0  0  0
  149.0507  136.5418  155.4505 C   0  0  2  0  0  0  0  0  0  0  0  0
  147.5047  136.3931  155.5539 C   0  0  0  0  0  0  0  0  0  0  0  0
  149.5137  137.4510  154.3422 N   0  3  1  0  0  0  0  0  0  0  0  0
  148.9605  138.8329  154.2881 C   0  0  0  0  0  0  0  0  0  0  0  0
  149.6663  139.7688  155.2927 C   0  0  2  0  0  0  0  0  0  0  0  0
  149.1562  141.2102  155.1916 C   0  0  0  0  0  0  0  0  0  0  0  0
  151.0604  139.7747  155.0117 O   0  0  0  0  0  0  0  0  0  0  0  0
  151.6521  138.4893  155.1589 C   0  0  2  0  0  0  0  0  0  0  0  0
  153.1584  138.6320  154.9152 C   0  0  0  0  0  0  0  0  0  0  0  0
  150.9940  137.5132  154.1608 C   0  0  0  0  0  0  0  0  0  0  0  0
  147.1666  132.3742  160.0638 N   0  0  0  0  0  0  0  0  0  0  0  0
  147.0034  132.7410  161.4048 O   0  0  0  0  0  0  0  0  0  0  0  0
  147.6134  135.6351  162.9415 H   0  0  0  0  0  0  0  0  0  0  0  0
  148.1654  134.0974  163.6090 H   0  0  0  0  0  0  0  0  0  0  0  0
  146.4400  134.3943  163.3832 H   0  0  0  0  0  0  0  0  0  0  0  0
  148.4776  135.4278  160.2220 H   0  0  0  0  0  0  0  0  0  0  0  0
  147.6992  132.8695  157.4960 H   0  0  0  0  0  0  0  0  0  0  0  0
  150.7983  135.2509  155.4861 H   0  0  0  0  0  0  0  0  0  0  0  0
  149.6479  134.8288  154.2585 H   0  0  0  0  0  0  0  0  0  0  0  0
  149.3812  136.9831  156.3917 H   0  0  0  0  0  0  0  0  0  0  0  0
  147.2043  135.7516  156.3851 H   0  0  0  0  0  0  0  0  0  0  0  0
  147.0636  135.9720  154.6483 H   0  0  0  0  0  0  0  0  0  0  0  0
  147.0144  137.3459  155.7446 H   0  0  0  0  0  0  0  0  0  0  0  0
  149.1345  139.2116  153.2798 H   0  0  0  0  0  0  0  0  0  0  0  0
  147.8781  138.8524  154.4069 H   0  0  0  0  0  0  0  0  0  0  0  0
  149.5155  139.4233  156.3156 H   0  0  0  0  0  0  0  0  0  0  0  0
  148.0902  141.2656  155.4136 H   0  0  0  0  0  0  0  0  0  0  0  0
  149.3119  141.6156  154.1914 H   0  0  0  0  0  0  0  0  0  0  0  0
  149.6761  141.8578  155.8979 H   0  0  0  0  0  0  0  0  0  0  0  0
  151.5036  138.1407  156.1820 H   0  0  0  0  0  0  0  0  0  0  0  0
  153.6664  137.6741  155.0297 H   0  0  0  0  0  0  0  0  0  0  0  0
  153.6034  139.3305  155.6242 H   0  0  0  0  0  0  0  0  0  0  0  0
  153.3633  139.0023  153.9102 H   0  0  0  0  0  0  0  0  0  0  0  0
  151.4506  136.5267  154.2427 H   0  0  0  0  0  0  0  0  0  0  0  0
  151.1935  137.8498  153.1424 H   0  0  0  0  0  0  0  0  0  0  0  0
  149.1542  137.0003  153.5126 H   0  0  0  0  0  0  0  0  0  0  0  0
  1  2  1  0  0  0  0
  1 22  1  0  0  0  0
  1 23  1  0  0  0  0
  1 24  1  0  0  0  0
  2 21  1  0  0  0  0
  2  3  2  0  0  0  0
  3  4  1  0  0  0  0
  3 25  1  0  0  0  0
  4  5  1  0  0  0  0
  4 20  2  0  0  0  0
  5  6  1  0  0  0  0
  5 26  1  0  0  0  0
  6  7  2  0  0  0  0
  6  8  1  0  0  0  0
  8  9  1  0  0  0  0
  9 10  1  0  0  0  0
  9 27  1  0  0  0  0
  9 28  1  0  0  0  0
 10 11  1  0  0  0  0
 10 12  1  0  0  0  0
 10 29  1  0  0  0  0
 11 30  1  0  0  0  0
 11 31  1  0  0  0  0
 11 32  1  0  0  0  0
 12 19  1  0  0  0  0
 12 13  1  0  0  0  0
 12 45  1  0  0  0  0
 13 14  1  0  0  0  0
 13 33  1  0  0  0  0
 13 34  1  0  0  0  0
 14 15  1  0  0  0  0
 14 16  1  0  0  0  0
 14 35  1  0  0  0  0
 15 36  1  0  0  0  0
 15 37  1  0  0  0  0
 15 38  1  0  0  0  0
 16 17  1  0  0  0  0
 17 18  1  0  0  0  0
 17 19  1  0  0  0  0
 17 39  1  0  0  0  0
 18 40  1  0  0  0  0
 18 41  1  0  0  0  0
 18 42  1  0  0  0  0
 19 43  1  0  0  0  0
 19 44  1  0  0  0  0
 20 21  1  0  0  0  0
M  CHG  1   8  -1
M  CHG  1  12   1
M  END
> <s_m_source_file>
AV-unprocessed.smi

> <i_m_source_file_index>
2061

> <i_lp_mmshare_version>
43012

> <i_f3d_flags>
0

> <s_epik_input>
W0NIM11jMVtjSF1jKG5vMSlbTkhdQyg9TylbTkhdW0NIMl1bQ0BIXShbQ0gzXSlOMltDSDJdW0NAQEhdKFtDSDNdKU9bQ0BASF0oW0NIM10pW0NIMl0y

> <s_epik_cmdline>
J2VwaWtfcHl0aG9uJywgJy1waCcsICc3LjAnLCAnLXRuJywgJzgnLCAnLW1hJywgJzIwMCcsICctbWV0YWxfYmluZGluZycsICctaW1hZScsICc8aW5maWxlLm1hZT4nLCAnLW9tYWUnLCAnPG91dGZpbGUubWFlPic=

> <r_epik_Ionization_Penalty>
6.8073

> <r_epik_Ionization_Penalty_Charging>
6.80729

> <r_epik_Ionization_Penalty_Neutral>
5.65391e-06

> <r_epik_State_Penalty>
7.47323

> <r_epik_Charging_Adjusted_Penalty>
14.2805

> <i_epik_Tot_Q>
0

> <i_epik_Tot_abs_Q>
2

> <r_epik_Metal_State_Penalty>
3.40035

> <b_epik_Metal_Only>
1

> <s_lp_Force_Field>
OPLS_2005

> <r_lp_Energy>
21.662

> <b_lp_Chiralities_Consistent>
1

> <s_lp_Variant>
AV-unprocessed.smi:2061-35

> <Gold.Version>
5.8.1

> <Gold.Id.Protein>
6NUR|6NUR_protein|mol2

> <Gold.PLP.Fitness>
45.4510

> <Gold.PLP.PLP>
-33.9027

> <Gold.PLP.part.hbond>
-3.0000

> <Gold.PLP.part.metal>
0.0000

> <Gold.PLP.part.buried>
-3.0397

> <Gold.PLP.part.nonpolar>
-29.0494

> <Gold.PLP.part.repulsive>
0.1474

> <Gold.PLP.ligand.clash>
0.0000

> <Gold.PLP.ligand.torsion>
0.2831

> <Gold.PLP.Chemscore.Hbond>
4.0000

> <Gold.PLP.Chemscore.CHOScore>
0.0000

> <Gold.PLP.Chemscore.Metal>
0.0000

> <Gold.Chemscore.Hbonds>
donor molecule, donor type, donor heavy atom, donor atom, acceptor molecule, acceptor atom, score
      L1  H    12    45       P1  7948  2.00
      P1  H  6896  6909       L1     7  1.00
      P1  H  7989  7998       L1    16  1.00

> <Gold.PLP.Chemscore.Internal.Correction>
0.1146

> <Gold.Rescore>
     Score         DG    S(hbond)    S(metal)    S(lipo)     H(rot)  DE(clash)    DE(int)     intcor
     18.05     -20.10       2.86        0.00      77.20       1.56       0.16       1.89       ----

> <Gold.Chemscore.Fitness>
18.0470

> <Gold.Chemscore.DG>
-20.0997

> <Gold.Chemscore.ZeroCoef>
-5.4800

> <Gold.Chemscore.Hbond>
2.8648

> <Gold.Chemscore.Metal>
0.0000

> <Gold.Chemscore.Lipo>
77.1990

> <Gold.Chemscore.Internal_Hbond>
0.0000

> <Gold.Chemscore.DEClash>
0.1640

> <Gold.Chemscore.DEInternal>
1.8888

> <Gold.Chemscore.Rot>
1.5550

> <Gold.Chemscore.Internal.Correction>
   9.000000E+99

> <Gold.Chemscore.Hbonds>
donor molecule, donor type, donor heavy atom, donor atom, acceptor molecule, acceptor atom, score
      L1  H    12    45       P1  7948  0.99
      P1  H  6896  6909       L1     7  0.95
      P1  H  7989  7998       L1    16  0.88

> <Gold.Chemscore.Hbond.Weighted>
-9.5683

> <Gold.Chemscore.Metal.Weighted>
-0.0000

> <Gold.Chemscore.Lipo.Weighted>
-9.0323

> <Gold.Chemscore.Internal_Hbond.Weighted>
0.0000

> <Gold.Chemscore.DEClash.Weighted>
0.1640

> <Gold.Chemscore.DEInternal.Weighted>
1.8888

> <Gold.Chemscore.Rot.Weighted>
3.9809

> <Gold.Chemscore.Internal.Correction.Weighted>
   9.000000E+99

> <Gold.Protein.RotatedTorsions>
[ 6907 6896 6895 6894 ] final   55.04 input  -60.11 | X-H torsion
[ 7974 7965 7964 7962 ] final  -88.12 input  175.53 | X-H torsion
[ 8008 7997 7996 7995 ] final  104.05 input   59.86 | X-H torsion
[ 10167 10162 10161 10158 ] final   10.41 input  -65.29 | X-H torsion
[ 10718 10713 10712 10709 ] final   35.76 input   66.30 | X-H torsion
[ 10763 10752 10751 10750 ] final   31.43 input  -60.55 | X-H torsion
[ 11005 11000 10999 10996 ] final  -80.92 input  -57.11 | X-H torsion

> <Gold.Protein.ActiveResidues>
 VAL166  LYS551  ARG553  GLY616  TRP617  ASP618  TYR619  PRO620  LYS621  CYS622 
 ASP623  PHE694  ASN695  SER759  ASP760  ASP761  ALA762  ILE779  LEU786  VAL792 
 PHE793  MET794  SER795  GLU796  ALA797  LYS798  CYS799  TRP800  GLU811  SER814 

> <Gold.Protein.RotatedAtoms>
  152.3499  134.7019  160.0239 H   0  0  0  0  0  0  0  0  0  0  0  0  # atno 6907 bound_to 6896
  151.7377  133.3315  159.3365 H   0  0  0  0  0  0  0  0  0  0  0  0  # atno 6908 bound_to 6896
  150.7533  134.6240  159.6195 H   0  0  0  0  0  0  0  0  0  0  0  0  # atno 6909 bound_to 6896
  145.4574  140.9561  143.1988 H   0  0  0  0  0  0  0  0  0  0  0  0  # atno 7974 bound_to 7965
  156.1538  140.3154  155.8692 H   0  0  0  0  0  0  0  0  0  0  0  0  # atno 8008 bound_to 7997
  155.3918  140.0494  157.3057 H   0  0  0  0  0  0  0  0  0  0  0  0  # atno 8009 bound_to 7997
  154.5083  140.2155  155.9219 H   0  0  0  0  0  0  0  0  0  0  0  0  # atno 8010 bound_to 7997
  140.6196  143.8234  150.7159 H   0  0  0  0  0  0  0  0  0  0  0  0  # atno 10167 bound_to 10162
  157.3266  130.7476  149.6820 H   0  0  0  0  0  0  0  0  0  0  0  0  # atno 10718 bound_to 10713
  153.0316  135.6439  154.1198 H   0  0  0  0  0  0  0  0  0  0  0  0  # atno 10763 bound_to 10752
  154.0919  135.2865  155.3271 H   0  0  0  0  0  0  0  0  0  0  0  0  # atno 10764 bound_to 10752
  154.6458  135.5443  153.7907 H   0  0  0  0  0  0  0  0  0  0  0  0  # atno 10765 bound_to 10752
  141.1667  133.7172  156.8346 H   0  0  0  0  0  0  0  0  0  0  0  0  # atno 11005 bound_to 11000
  144.8024  139.6116  143.7066 LP  0  0  0  0  0  0  0  0  0  0  0  0  # atno 17320 bound_to 7965
  146.2470  139.6119  142.9453 LP  0  0  0  0  0  0  0  0  0  0  0  0  # atno 17321 bound_to 7965
  140.1821  143.4106  152.1925 LP  0  0  0  0  0  0  0  0  0  0  0  0  # atno 17342 bound_to 10162
  139.5427  144.7271  151.4682 LP  0  0  0  0  0  0  0  0  0  0  0  0  # atno 17343 bound_to 10162
  155.9691  130.4207  150.4436 LP  0  0  0  0  0  0  0  0  0  0  0  0  # atno 17370 bound_to 10713
  157.2461  131.0536  151.2407 LP  0  0  0  0  0  0  0  0  0  0  0  0  # atno 17371 bound_to 10713
  140.2027  134.8885  157.3187 LP  0  0  0  0  0  0  0  0  0  0  0  0  # atno 17394 bound_to 11000
  140.2170  134.4069  155.7584 LP  0  0  0  0  0  0  0  0  0  0  0  0  # atno 17395 bound_to 11000

$$$$
