AV-unprocessed.smi:2013|AV-procd|sdf|8159|dock1
  -GOLD-   2272010403D 1   1.00000     0.00000
 Structure written by MMmdl.
 50 51  0  0  0  0  0  0  0  0  1 V2000
  149.3040  140.5666  154.3503 C   0  0  0  0  0  0  0  0  0  0  0  0
  147.7804  140.7261  154.4950 C   0  0  0  0  0  0  0  0  0  0  0  0
  147.1110  140.9571  153.1237 C   0  0  0  0  0  0  0  0  0  0  0  0
  147.3840  141.7082  155.6450 C   0  0  2  0  0  0  0  0  0  0  0  0
  148.0579  141.3819  157.0048 C   0  0  0  0  0  0  0  0  0  0  0  0
  149.1583  142.2928  157.2952 N   0  0  0  0  0  0  0  0  0  0  0  0
  150.4160  141.9091  157.5515 C   0  0  0  0  0  0  0  0  0  0  0  0
  150.7646  140.7281  157.5886 O   0  0  0  0  0  0  0  0  0  0  0  0
  151.4178  143.0418  157.8156 C   0  0  0  0  0  0  0  0  0  0  0  0
  151.9090  143.0808  159.1994 N   0  0  0  0  0  0  0  0  0  0  0  0
  151.5139  144.1091  160.0351 C   0  0  0  0  0  0  0  0  0  0  0  0
  151.9051  144.2143  161.3236 C   0  0  0  0  0  0  0  0  0  0  0  0
  152.7932  143.2235  161.9192 C   0  0  0  0  0  0  0  0  0  0  0  0
  153.1574  143.2680  163.0948 O   0  0  0  0  0  0  0  0  0  0  0  0
  153.1961  142.1913  161.0384 N   0  0  0  0  0  0  0  0  0  0  0  0
  154.0610  141.1513  161.5562 C   0  0  0  0  0  0  0  0  0  0  0  0
  152.7681  142.0768  159.6963 C   0  0  0  0  0  0  0  0  0  0  0  0
  153.1161  141.1376  158.9762 O   0  0  0  0  0  0  0  0  0  0  0  0
  145.9438  142.0257  155.7268 N   0  0  0  0  0  0  0  0  0  0  0  0
  145.6406  143.0849  156.6876 C   0  0  0  0  0  0  0  0  0  0  0  0
  144.1571  143.4864  156.6451 C   0  0  0  0  0  0  0  0  0  0  0  0
  143.3501  142.3391  156.8882 O   0  0  0  0  0  0  0  0  0  0  0  0
  143.5779  141.2993  155.9429 C   0  0  0  0  0  0  0  0  0  0  0  0
  145.0602  140.8859  155.9639 C   0  0  0  0  0  0  0  0  0  0  0  0
  149.7673  141.4744  153.9629 H   0  0  0  0  0  0  0  0  0  0  0  0
  149.5493  139.7555  153.6643 H   0  0  0  0  0  0  0  0  0  0  0  0
  149.7689  140.3364  155.3094 H   0  0  0  0  0  0  0  0  0  0  0  0
  147.4237  139.7460  154.8145 H   0  0  0  0  0  0  0  0  0  0  0  0
  147.4569  141.8603  152.6276 H   0  0  0  0  0  0  0  0  0  0  0  0
  146.0254  141.0079  153.1972 H   0  0  0  0  0  0  0  0  0  0  0  0
  147.3378  140.1294  152.4510 H   0  0  0  0  0  0  0  0  0  0  0  0
  147.8546  142.6416  155.3309 H   0  0  0  0  0  0  0  0  0  0  0  0
  147.3382  141.4582  157.8197 H   0  0  0  0  0  0  0  0  0  0  0  0
  148.4343  140.3587  157.0171 H   0  0  0  0  0  0  0  0  0  0  0  0
  148.9506  143.2810  157.2880 H   0  0  0  0  0  0  0  0  0  0  0  0
  152.2565  142.9503  157.1233 H   0  0  0  0  0  0  0  0  0  0  0  0
  150.9352  143.9884  157.5685 H   0  0  0  0  0  0  0  0  0  0  0  0
  150.8521  144.8671  159.6416 H   0  0  0  0  0  0  0  0  0  0  0  0
  151.5536  145.0409  161.9232 H   0  0  0  0  0  0  0  0  0  0  0  0
  154.7388  140.8229  160.7668 H   0  0  0  0  0  0  0  0  0  0  0  0
  153.4137  140.3395  161.8910 H   0  0  0  0  0  0  0  0  0  0  0  0
  154.6651  141.5421  162.3759 H   0  0  0  0  0  0  0  0  0  0  0  0
  145.8808  142.7601  157.6997 H   0  0  0  0  0  0  0  0  0  0  0  0
  146.2555  143.9620  156.4836 H   0  0  0  0  0  0  0  0  0  0  0  0
  143.9457  144.2387  157.4051 H   0  0  0  0  0  0  0  0  0  0  0  0
  143.9014  143.9246  155.6790 H   0  0  0  0  0  0  0  0  0  0  0  0
  142.9437  140.4479  156.1893 H   0  0  0  0  0  0  0  0  0  0  0  0
  143.2874  141.6366  154.9469 H   0  0  0  0  0  0  0  0  0  0  0  0
  145.2041  140.1252  155.2034 H   0  0  0  0  0  0  0  0  0  0  0  0
  145.2884  140.4258  156.9257 H   0  0  0  0  0  0  0  0  0  0  0  0
  1  2  1  0  0  0  0
  1 25  1  0  0  0  0
  1 26  1  0  0  0  0
  1 27  1  0  0  0  0
  2  3  1  0  0  0  0
  2  4  1  0  0  0  0
  2 28  1  0  0  0  0
  3 29  1  0  0  0  0
  3 30  1  0  0  0  0
  3 31  1  0  0  0  0
  4  5  1  0  0  0  0
  4 19  1  0  0  0  0
  4 32  1  0  0  0  0
  5  6  1  0  0  0  0
  5 33  1  0  0  0  0
  5 34  1  0  0  0  0
  6  7  1  0  0  0  0
  6 35  1  0  0  0  0
  7  8  2  0  0  0  0
  7  9  1  0  0  0  0
  9 10  1  0  0  0  0
  9 36  1  0  0  0  0
  9 37  1  0  0  0  0
 10 17  1  0  0  0  0
 10 11  1  0  0  0  0
 11 12  2  0  0  0  0
 11 38  1  0  0  0  0
 12 13  1  0  0  0  0
 12 39  1  0  0  0  0
 13 14  2  0  0  0  0
 13 15  1  0  0  0  0
 15 16  1  0  0  0  0
 15 17  1  0  0  0  0
 16 40  1  0  0  0  0
 16 41  1  0  0  0  0
 16 42  1  0  0  0  0
 17 18  2  0  0  0  0
 19 24  1  0  0  0  0
 19 20  1  0  0  0  0
 20 21  1  0  0  0  0
 20 43  1  0  0  0  0
 20 44  1  0  0  0  0
 21 22  1  0  0  0  0
 21 45  1  0  0  0  0
 21 46  1  0  0  0  0
 22 23  1  0  0  0  0
 23 24  1  0  0  0  0
 23 47  1  0  0  0  0
 23 48  1  0  0  0  0
 24 49  1  0  0  0  0
 24 50  1  0  0  0  0
M  END
> <s_m_source_file>
AV-unprocessed.smi

> <i_m_source_file_index>
2013

> <i_lp_mmshare_version>
43012

> <i_f3d_flags>
0

> <s_epik_input>
W0NIMl0xW0NIMl1PW0NIMl1bQ0gyXU4xW0NASF0oW0NIXShbQ0gzXSlbQ0gzXSlbQ0gyXVtOSF1DKD1PKVtDSDJdbjJbY0hdW2NIXWMoPU8pbihbQ0gzXSljMj1P

> <s_epik_cmdline>
J2VwaWtfcHl0aG9uJywgJy1waCcsICc3LjAnLCAnLXRuJywgJzgnLCAnLW1hJywgJzIwMCcsICctbWV0YWxfYmluZGluZycsICctaW1hZScsICc8aW5maWxlLm1hZT4nLCAnLW9tYWUnLCAnPG91dGZpbGUubWFlPic=

> <r_lp_tautomer_probability>
1

> <r_epik_Ionization_Penalty>
0.45351

> <r_epik_Ionization_Penalty_Charging>
1.24653e-08

> <r_epik_Ionization_Penalty_Neutral>
0.45351

> <r_epik_State_Penalty>
0.456487

> <r_epik_Charging_Adjusted_Penalty>
0.456487

> <i_epik_Tot_Q>
0

> <i_epik_Tot_abs_Q>
0

> <r_epik_Metal_State_Penalty>
0.456449

> <b_epik_Metal_Only>
0

> <s_lp_Force_Field>
OPLS_2005

> <r_lp_Energy>
47.2128

> <b_lp_Chiralities_Consistent>
1

> <s_lp_Variant>
AV-unprocessed.smi:2013-3

> <Gold.Version>
5.8.1

> <Gold.Id.Protein>
6NUR|6NUR_protein|mol2

> <Gold.PLP.Fitness>
43.9934

> <Gold.PLP.PLP>
-43.8578

> <Gold.PLP.part.hbond>
-1.0000

> <Gold.PLP.part.metal>
0.0000

> <Gold.PLP.part.buried>
-5.6880

> <Gold.PLP.part.nonpolar>
-36.4037

> <Gold.PLP.part.repulsive>
0.3270

> <Gold.PLP.ligand.clash>
0.0000

> <Gold.PLP.ligand.torsion>
1.0204

> <Gold.PLP.Chemscore.Hbond>
0.5460

> <Gold.PLP.Chemscore.CHOScore>
0.0000

> <Gold.PLP.Chemscore.Metal>
0.0000

> <Gold.Chemscore.Hbonds>
donor molecule, donor type, donor heavy atom, donor atom, acceptor molecule, acceptor atom, score
      L1  H     6    35       P1  8028  0.44

> <Gold.PLP.Chemscore.Internal.Correction>
0.5384

> <Gold.Rescore>
     Score         DG    S(hbond)    S(metal)    S(lipo)     H(rot)  DE(clash)    DE(int)     intcor
      8.88     -11.61       0.77        0.00      78.79       2.20       0.28       2.46       ----

> <Gold.Chemscore.Fitness>
8.8758

> <Gold.Chemscore.DG>
-11.6134

> <Gold.Chemscore.ZeroCoef>
-5.4800

> <Gold.Chemscore.Hbond>
0.7655

> <Gold.Chemscore.Metal>
0.0000

> <Gold.Chemscore.Lipo>
78.7926

> <Gold.Chemscore.Internal_Hbond>
0.0000

> <Gold.Chemscore.DEClash>
0.2770

> <Gold.Chemscore.DEInternal>
2.4607

> <Gold.Chemscore.Rot>
2.2039

> <Gold.Chemscore.Internal.Correction>
   9.000000E+99

> <Gold.Chemscore.Hbonds>
donor molecule, donor type, donor heavy atom, donor atom, acceptor molecule, acceptor atom, score
      L1  H     6    35       P1  8028  0.24

> <Gold.Chemscore.Hbond.Weighted>
-2.5567

> <Gold.Chemscore.Metal.Weighted>
-0.0000

> <Gold.Chemscore.Lipo.Weighted>
-9.2187

> <Gold.Chemscore.Internal_Hbond.Weighted>
0.0000

> <Gold.Chemscore.DEClash.Weighted>
0.2770

> <Gold.Chemscore.DEInternal.Weighted>
2.4607

> <Gold.Chemscore.Rot.Weighted>
5.6420

> <Gold.Chemscore.Internal.Correction.Weighted>
   9.000000E+99

> <Gold.Protein.RotatedTorsions>
[ 6907 6896 6895 6894 ] final   69.22 input  -60.11 | X-H torsion
[ 7974 7965 7964 7962 ] final   45.03 input  175.53 | X-H torsion
[ 8008 7997 7996 7995 ] final  140.77 input   59.86 | X-H torsion
[ 10167 10162 10161 10158 ] final  -79.20 input  -65.29 | X-H torsion
[ 10718 10713 10712 10709 ] final  116.48 input   66.30 | X-H torsion
[ 10763 10752 10751 10750 ] final -143.47 input  -60.55 | X-H torsion
[ 11005 11000 10999 10996 ] final  -32.04 input  -57.11 | X-H torsion

> <Gold.Protein.ActiveResidues>
 VAL166  LYS551  ARG553  GLY616  TRP617  ASP618  TYR619  PRO620  LYS621  CYS622 
 ASP623  PHE694  ASN695  SER759  ASP760  ASP761  ALA762  ILE779  LEU786  VAL792 
 PHE793  MET794  SER795  GLU796  ALA797  LYS798  CYS799  TRP800  GLU811  SER814 

> <Gold.Protein.RotatedAtoms>
  152.4672  134.5048  159.9735 H   0  0  0  0  0  0  0  0  0  0  0  0  # atno 6907 bound_to 6896
  151.5083  133.3484  159.2888 H   0  0  0  0  0  0  0  0  0  0  0  0  # atno 6908 bound_to 6896
  150.8662  134.8054  159.7182 H   0  0  0  0  0  0  0  0  0  0  0  0  # atno 6909 bound_to 6896
  146.0516  139.5009  142.9715 H   0  0  0  0  0  0  0  0  0  0  0  0  # atno 7974 bound_to 7965
  156.2975  140.2332  156.4456 H   0  0  0  0  0  0  0  0  0  0  0  0  # atno 8008 bound_to 7997
  154.8147  140.0441  157.1389 H   0  0  0  0  0  0  0  0  0  0  0  0  # atno 8009 bound_to 7997
  154.9383  140.3026  155.5137 H   0  0  0  0  0  0  0  0  0  0  0  0  # atno 8010 bound_to 7997
  140.4614  143.2452  151.8343 H   0  0  0  0  0  0  0  0  0  0  0  0  # atno 10167 bound_to 10162
  157.6158  131.1026  150.7478 H   0  0  0  0  0  0  0  0  0  0  0  0  # atno 10718 bound_to 10713
  154.8468  135.3467  154.6193 H   0  0  0  0  0  0  0  0  0  0  0  0  # atno 10763 bound_to 10752
  153.6802  135.6980  153.5125 H   0  0  0  0  0  0  0  0  0  0  0  0  # atno 10764 bound_to 10752
  153.2674  135.4303  155.0910 H   0  0  0  0  0  0  0  0  0  0  0  0  # atno 10765 bound_to 10752
  140.9519  133.7216  156.1233 H   0  0  0  0  0  0  0  0  0  0  0  0  # atno 11005 bound_to 11000
  145.6714  141.0215  143.1655 LP  0  0  0  0  0  0  0  0  0  0  0  0  # atno 17320 bound_to 7965
  144.7126  139.8315  143.7409 LP  0  0  0  0  0  0  0  0  0  0  0  0  # atno 17321 bound_to 7965
  139.4807  144.5003  151.9069 LP  0  0  0  0  0  0  0  0  0  0  0  0  # atno 17342 bound_to 10162
  140.4089  144.2396  150.5889 LP  0  0  0  0  0  0  0  0  0  0  0  0  # atno 17343 bound_to 10162
  156.7846  130.4870  149.5395 LP  0  0  0  0  0  0  0  0  0  0  0  0  # atno 17370 bound_to 10713
  156.1279  130.6157  151.0291 LP  0  0  0  0  0  0  0  0  0  0  0  0  # atno 17371 bound_to 10713
  140.7591  134.3960  157.5529 LP  0  0  0  0  0  0  0  0  0  0  0  0  # atno 17394 bound_to 11000
  139.8850  134.8949  156.2669 LP  0  0  0  0  0  0  0  0  0  0  0  0  # atno 17395 bound_to 11000

$$$$
