#       Name:                AV-unprocessed.smi:44
#       Creating user name   scv26
#       Creation time:       Thu Mar 26 16:25:37 2020


#       File generated by GOLD software.
#

@<TRIPOS>MOLECULE
AV-unprocessed.smi:44
    37    39     1
SMALL
NO_CHARGES


@<TRIPOS>ATOM
      1 ****        -3.9503   2.6850  -2.4067 O.2            1 S1                 0.0000
      2 ****        -3.0439   1.8654  -2.2732 C.2            1 S1                 0.0000
      3 ****        -2.5244   1.0203  -3.2207 N.pl3          1 S1                -1.0000
      4 ****        -1.4905   0.1388  -2.9259 C.2            1 S1                 0.0000
      5 ****        -0.8957  -0.0183  -1.7971 N.2            1 S1                 0.0000
      6 ****        -1.3583   0.8043  -0.7586 C.2            1 S1                 0.0000
      7 ****        -2.3748   1.7136  -0.9386 C.2            1 S1                 0.0000
      8 ****        -2.6089   2.3797   0.2341 N.pl3          1 S1                 1.0000
      9 ****        -1.7224   1.8446   1.0736 C.2            1 S1                 0.0000
     10 ****        -0.9256   0.8704   0.5438 N.pl3          1 S1                 0.0000
     11 ****         0.1542   0.1300   1.2596 C.3            1 S1                 0.0000
     12 ****        -0.1802  -1.3628   1.3654 C.3            1 S1                 0.0000
     13 ****         1.1929  -1.9826   1.2314 C.3            1 S1                 0.0000
     14 ****         1.8240  -1.0474   0.1982 C.3            1 S1                 0.0000
     15 ****         3.3587  -1.0548   0.0950 C.3            1 S1                 0.0000
     16 ****         3.9721  -0.9632   1.3640 O.3            1 S1                 0.0000
     17 ****         1.3333   0.2504   0.5194 O.3            1 S1                 0.0000
     18 ****        -3.2874   3.1077   0.4181 H              1 S1                 0.0000
     19 ****         0.2641   0.6223   2.2268 H              1 S1                 0.0000
     20 ****         1.4180  -1.2959  -0.7834 H              1 S1                 0.0000
     21 ****        -1.2009  -0.4558  -3.7960 H              1 S1                 0.0000
     22 ****        -1.6359   2.1571   2.0987 H              1 S1                 0.0000
     23 ****        -0.6794  -1.5913   2.3072 H              1 S1                 0.0000
     24 ****        -0.8190  -1.6724   0.5369 H              1 S1                 0.0000
     25 ****         1.7120  -1.9367   2.1891 H              1 S1                 0.0000
     26 ****         1.1637  -3.0222   0.9039 H              1 S1                 0.0000
     27 ****         3.6913  -1.9830  -0.3705 H              1 S1                 0.0000
     28 ****         3.7040  -0.2378  -0.5392 H              1 S1                 0.0000
     29 ****         4.9095  -0.9655   1.2443 H              1 S1                 0.0000
     30 ****        -4.2368   3.2447  -1.6291 LP             1 S1                 0.0000
     31 ****        -4.4011   2.7920  -3.2929 LP             1 S1                 0.0000
     32 ****        -2.8992   1.0388  -4.1476 LP             1 S1                 0.0000
     33 ****        -0.1564  -0.6793  -1.6683 LP             1 S1                 0.0000
     34 ****         3.7018  -1.7445   1.9266 LP             1 S1                 0.0000
     35 ****         3.6915  -0.1154   1.8141 LP             1 S1                 0.0000
     36 ****         2.0172   0.7418   1.0587 LP             1 S1                 0.0000
     37 ****         1.1480   0.7553  -0.3237 LP             1 S1                 0.0000
@<TRIPOS>BOND
    1    1    2 2     
    2    2    7 1     
    3    2    3 1     
    4    3    4 1     
    5    4   21 1     
    6    4    5 2     
    7    5    6 1     
    8    6   10 1     
    9    6    7 2     
   10    7    8 1     
   11    8    9 2     
   12    8   18 1     
   13    9   10 1     
   14    9   22 1     
   15   10   11 1     
   16   11   19 1     
   17   11   17 1     
   18   11   12 1     
   19   12   13 1     
   20   12   23 1     
   21   12   24 1     
   22   13   14 1     
   23   13   25 1     
   24   13   26 1     
   25   14   20 1     
   26   14   15 1     
   27   14   17 1     
   28   15   16 1     
   29   15   27 1     
   30   15   28 1     
   31   16   29 1     
   32    1   30 1     
   33    1   31 1     
   34    3   32 1     
   35    5   33 1     
   36   16   34 1     
   37   16   35 1     
   38   17   36 1     
   39   17   37 1     
@<TRIPOS>SUBSTRUCTURE
      1 S1             1
@<TRIPOS>SET
LONE_PAIRS      STATIC     ATOMS    <user>   **** ""
8 30 31 32 33 34 35 36 37
DONOR_HYDROGENS      STATIC     ATOMS    <user>   **** ""
2 18 29
ATOM$BLUE        STATIC     ATOMS    COLORGROUP SYSTEM
8 30 31 32 33 34 35 36 37
ATOM$RED        STATIC     ATOMS    COLORGROUP SYSTEM
2 18 29
