AV-unprocessed.smi:702|AV-procd|sdf|3422|dock10
  -GOLD-   22720 0403D 1   1.00000     0.00000
 Structure written by MMmdl.
 50 52  0  0  0  0  0  0  0  0  2 V2000
  148.7529  126.7706  151.4029 C   0  0  0  0  0  0  0  0  0  0  0  0
  147.8625  127.6396  152.3204 C   0  0  2  0  0  0  0  0  0  0  0  0
  147.5815  128.9054  151.6327 N   0  0  0  0  0  0  0  0  0  0  0  0
  146.3767  129.4797  151.5005 C   0  0  0  0  0  0  0  0  0  0  0  0
  145.3389  129.0002  151.9567 O   0  0  0  0  0  0  0  0  0  0  0  0
  146.4557  130.6198  150.7928 N   0  0  0  0  0  0  0  0  0  0  0  0
  145.4034  131.5065  150.4376 C   0  0  0  0  0  0  0  0  0  0  0  0
  144.3798  131.7272  151.3857 C   0  0  0  0  0  0  0  0  0  0  0  0
  143.3105  132.5890  151.0666 C   0  0  0  0  0  0  0  0  0  0  0  0
  143.2661  133.1860  149.8562 N   0  3  0  0  0  0  0  0  0  0  0  0
  144.2118  132.9929  148.9118 C   0  0  0  0  0  0  0  0  0  0  0  0
  145.3055  132.1428  149.1740 C   0  0  0  0  0  0  0  0  0  0  0  0
  148.4524  127.8676  153.7637 C   0  0  0  0  0  0  0  0  0  0  0  0
  148.7217  126.5709  154.4614 N   0  0  0  0  0  0  0  0  0  0  0  0
  149.3471  126.6896  155.7887 C   0  0  0  0  0  0  0  0  0  0  0  0
  149.7281  125.3200  156.3736 C   0  0  0  0  0  0  0  0  0  0  0  0
  148.5669  124.5044  156.4625 O   0  0  0  0  0  0  0  0  0  0  0  0
  147.9416  124.3148  155.1997 C   0  0  0  0  0  0  0  0  0  0  0  0
  147.5609  125.6766  154.5924 C   0  0  0  0  0  0  0  0  0  0  0  0
  149.7479  128.7386  153.6254 C   0  0  0  0  0  0  0  0  0  0  0  0
  149.4603  130.1101  154.2427 C   0  0  0  0  0  0  0  0  0  0  0  0
  148.3379  129.8669  155.2392 C   0  0  0  0  0  0  0  0  0  0  0  0
  147.4855  128.7792  154.5860 C   0  0  0  0  0  0  0  0  0  0  0  0
  148.9500  125.7881  151.8305 H   0  0  0  0  0  0  0  0  0  0  0  0
  149.7167  127.2383  151.2050 H   0  0  0  0  0  0  0  0  0  0  0  0
  148.2708  126.6026  150.4393 H   0  0  0  0  0  0  0  0  0  0  0  0
  146.9042  127.1311  152.4301 H   0  0  0  0  0  0  0  0  0  0  0  0
  148.3760  129.3737  151.2219 H   0  0  0  0  0  0  0  0  0  0  0  0
  147.3611  130.8394  150.4036 H   0  0  0  0  0  0  0  0  0  0  0  0
  144.4144  131.2484  152.3538 H   0  0  0  0  0  0  0  0  0  0  0  0
  142.4949  132.8159  151.7377 H   0  0  0  0  0  0  0  0  0  0  0  0
  144.0634  133.5160  147.9784 H   0  0  0  0  0  0  0  0  0  0  0  0
  146.0408  131.9855  148.3995 H   0  0  0  0  0  0  0  0  0  0  0  0
  150.2447  127.3021  155.7635 H   0  0  0  0  0  0  0  0  0  0  0  0
  148.6644  127.1794  156.4831 H   0  0  0  0  0  0  0  0  0  0  0  0
  150.4830  124.8307  155.7561 H   0  0  0  0  0  0  0  0  0  0  0  0
  150.1556  125.4392  157.3691 H   0  0  0  0  0  0  0  0  0  0  0  0
  148.6111  123.7704  154.5321 H   0  0  0  0  0  0  0  0  0  0  0  0
  147.0527  123.6983  155.3330 H   0  0  0  0  0  0  0  0  0  0  0  0
  146.7914  126.1382  155.2105 H   0  0  0  0  0  0  0  0  0  0  0  0
  147.1043  125.4749  153.6263 H   0  0  0  0  0  0  0  0  0  0  0  0
  150.6088  128.2892  154.1153 H   0  0  0  0  0  0  0  0  0  0  0  0
  150.0805  128.8676  152.5961 H   0  0  0  0  0  0  0  0  0  0  0  0
  150.3419  130.5537  154.7062 H   0  0  0  0  0  0  0  0  0  0  0  0
  149.1145  130.7950  153.4676 H   0  0  0  0  0  0  0  0  0  0  0  0
  148.7524  129.5060  156.1807 H   0  0  0  0  0  0  0  0  0  0  0  0
  147.7677  130.7706  155.4556 H   0  0  0  0  0  0  0  0  0  0  0  0
  146.7526  129.2674  153.9439 H   0  0  0  0  0  0  0  0  0  0  0  0
  146.8966  128.2448  155.3301 H   0  0  0  0  0  0  0  0  0  0  0  0
  142.4830  133.8053  149.6445 H   0  0  0  0  0  0  0  0  0  0  0  0
  1  2  1  0  0  0  0
  1 24  1  0  0  0  0
  1 25  1  0  0  0  0
  1 26  1  0  0  0  0
  2  3  1  0  0  0  0
  2 13  1  0  0  0  0
  2 27  1  0  0  0  0
  3  4  1  0  0  0  0
  3 28  1  0  0  0  0
  4  5  2  0  0  0  0
  4  6  1  0  0  0  0
  6  7  1  0  0  0  0
  6 29  1  0  0  0  0
  7 12  1  0  0  0  0
  7  8  2  0  0  0  0
  8  9  1  0  0  0  0
  8 30  1  0  0  0  0
  9 10  2  0  0  0  0
  9 31  1  0  0  0  0
 10 11  1  0  0  0  0
 10 50  1  0  0  0  0
 11 12  2  0  0  0  0
 11 32  1  0  0  0  0
 12 33  1  0  0  0  0
 13 23  1  0  0  0  0
 13 14  1  0  0  0  0
 13 20  1  0  0  0  0
 14 19  1  0  0  0  0
 14 15  1  0  0  0  0
 15 16  1  0  0  0  0
 15 34  1  0  0  0  0
 15 35  1  0  0  0  0
 16 17  1  0  0  0  0
 16 36  1  0  0  0  0
 16 37  1  0  0  0  0
 17 18  1  0  0  0  0
 18 19  1  0  0  0  0
 18 38  1  0  0  0  0
 18 39  1  0  0  0  0
 19 40  1  0  0  0  0
 19 41  1  0  0  0  0
 20 21  1  0  0  0  0
 20 42  1  0  0  0  0
 20 43  1  0  0  0  0
 21 22  1  0  0  0  0
 21 44  1  0  0  0  0
 21 45  1  0  0  0  0
 22 23  1  0  0  0  0
 22 46  1  0  0  0  0
 22 47  1  0  0  0  0
 23 48  1  0  0  0  0
 23 49  1  0  0  0  0
M  CHG  1  10   1
M  END
> <s_m_source_file>
AV-unprocessed.smi

> <i_m_source_file_index>
702

> <i_lp_mmshare_version>
43012

> <i_f3d_flags>
0

> <s_epik_input>
W0NIMl0xW0NIMl1PW0NIMl1bQ0gyXU4xQzIoW0NIMl1bQ0gyXVtDSDJdW0NIMl0yKVtDQEhdKFtDSDNdKVtOSF1DKD1PKVtOSF1jM1tjSF1bY0hdbltjSF1bY0hdMw==

> <s_epik_cmdline>
J2VwaWtfcHl0aG9uJywgJy1waCcsICc3LjAnLCAnLXRuJywgJzgnLCAnLW1hJywgJzIwMCcsICctbWV0YWxfYmluZGluZycsICctaW1hZScsICc8aW5maWxlLm1hZT4nLCAnLW9tYWUnLCAnPG91dGZpbGUubWFlPic=

> <r_epik_Ionization_Penalty>
1.54019

> <r_epik_Ionization_Penalty_Charging>
1.02845

> <r_epik_Ionization_Penalty_Neutral>
0.511739

> <r_epik_State_Penalty>
1.62583

> <r_epik_Charging_Adjusted_Penalty>
2.65428

> <i_epik_Tot_Q>
1

> <i_epik_Tot_abs_Q>
1

> <r_epik_Metal_State_Penalty>
1.71803

> <b_epik_Metal_Only>
0

> <s_lp_Force_Field>
OPLS_2005

> <r_lp_Energy>
73.3397

> <b_lp_Chiralities_Consistent>
1

> <s_lp_Variant>
AV-unprocessed.smi:702-7

> <Gold.Version>
5.8.1

> <Gold.Id.Protein>
6NUR|6NUR_protein|mol2

> <Gold.PLP.Fitness>
45.1145

> <Gold.PLP.PLP>
-34.2774

> <Gold.PLP.part.hbond>
-3.0000

> <Gold.PLP.part.metal>
0.0000

> <Gold.PLP.part.buried>
-3.5658

> <Gold.PLP.part.nonpolar>
-27.8359

> <Gold.PLP.part.repulsive>
0.3891

> <Gold.PLP.ligand.clash>
0.0000

> <Gold.PLP.ligand.torsion>
0.5313

> <Gold.PLP.Chemscore.Hbond>
3.9272

> <Gold.PLP.Chemscore.CHOScore>
0.0000

> <Gold.PLP.Chemscore.Metal>
0.0000

> <Gold.Chemscore.Hbonds>
donor molecule, donor type, donor heavy atom, donor atom, acceptor molecule, acceptor atom, score
      L1  H     3    28       P1 10747  0.86
      L1  H     6    29       P1 10747  1.00
      L1  H    10    50       P1 10186  2.00

> <Gold.PLP.Chemscore.Internal.Correction>
0.1181

> <Gold.Rescore>
     Score         DG    S(hbond)    S(metal)    S(lipo)     H(rot)  DE(clash)    DE(int)     intcor
     18.68     -20.46       2.33        0.00      93.14       1.44       0.14       1.64       ----

> <Gold.Chemscore.Fitness>
18.6752

> <Gold.Chemscore.DG>
-20.4581

> <Gold.Chemscore.ZeroCoef>
-5.4800

> <Gold.Chemscore.Hbond>
2.3250

> <Gold.Chemscore.Metal>
0.0000

> <Gold.Chemscore.Lipo>
93.1405

> <Gold.Chemscore.Internal_Hbond>
0.0000

> <Gold.Chemscore.DEClash>
0.1386

> <Gold.Chemscore.DEInternal>
1.6443

> <Gold.Chemscore.Rot>
1.4394

> <Gold.Chemscore.Internal.Correction>
   9.000000E+99

> <Gold.Chemscore.Hbonds>
donor molecule, donor type, donor heavy atom, donor atom, acceptor molecule, acceptor atom, score
      L1  H     3    28       P1 10747  0.16
      L1  H     6    29       P1 10747  0.98
      L1  H    10    50       P1 10186  0.98

> <Gold.Chemscore.Hbond.Weighted>
-7.7655

> <Gold.Chemscore.Metal.Weighted>
-0.0000

> <Gold.Chemscore.Lipo.Weighted>
-10.8974

> <Gold.Chemscore.Internal_Hbond.Weighted>
0.0000

> <Gold.Chemscore.DEClash.Weighted>
0.1386

> <Gold.Chemscore.DEInternal.Weighted>
1.6443

> <Gold.Chemscore.Rot.Weighted>
3.6848

> <Gold.Chemscore.Internal.Correction.Weighted>
   9.000000E+99

> <Gold.Protein.RotatedTorsions>
[ 6907 6896 6895 6894 ] final   38.48 input  -60.11 | X-H torsion
[ 7974 7965 7964 7962 ] final -119.97 input  175.53 | X-H torsion
[ 8008 7997 7996 7995 ] final  119.58 input   59.86 | X-H torsion
[ 10167 10162 10161 10158 ] final   49.83 input  -65.29 | X-H torsion
[ 10718 10713 10712 10709 ] final  146.14 input   66.30 | X-H torsion
[ 10763 10752 10751 10750 ] final  -92.91 input  -60.55 | X-H torsion
[ 11005 11000 10999 10996 ] final  148.76 input  -57.11 | X-H torsion

> <Gold.Protein.ActiveResidues>
 VAL166  LYS551  ARG553  GLY616  TRP617  ASP618  TYR619  PRO620  LYS621  CYS622 
 ASP623  PHE694  ASN695  SER759  ASP760  ASP761  ALA762  ILE779  LEU786  VAL792 
 PHE793  MET794  SER795  GLU796  ALA797  LYS798  CYS799  TRP800  GLU811  SER814 

> <Gold.Protein.RotatedAtoms>
  152.1569  134.8943  160.0544 H   0  0  0  0  0  0  0  0  0  0  0  0  # atno 6907 bound_to 6896
  151.9953  133.3801  159.4169 H   0  0  0  0  0  0  0  0  0  0  0  0  # atno 6908 bound_to 6896
  150.6882  134.3814  159.5080 H   0  0  0  0  0  0  0  0  0  0  0  0  # atno 6909 bound_to 6896
  145.0565  140.8258  143.4178 H   0  0  0  0  0  0  0  0  0  0  0  0  # atno 7974 bound_to 7965
  156.2603  140.2849  156.1015 H   0  0  0  0  0  0  0  0  0  0  0  0  # atno 8008 bound_to 7997
  155.1355  140.0394  157.2803 H   0  0  0  0  0  0  0  0  0  0  0  0  # atno 8009 bound_to 7997
  154.6568  140.2557  155.7159 H   0  0  0  0  0  0  0  0  0  0  0  0  # atno 8010 bound_to 7997
  140.2787  144.3181  150.6270 H   0  0  0  0  0  0  0  0  0  0  0  0  # atno 10167 bound_to 10162
  157.3367  131.0929  151.1117 H   0  0  0  0  0  0  0  0  0  0  0  0  # atno 10718 bound_to 10713
  154.6907  135.5214  153.8389 H   0  0  0  0  0  0  0  0  0  0  0  0  # atno 10763 bound_to 10752
  153.0630  135.6575  154.0428 H   0  0  0  0  0  0  0  0  0  0  0  0  # atno 10764 bound_to 10752
  154.0302  135.2986  155.3349 H   0  0  0  0  0  0  0  0  0  0  0  0  # atno 10765 bound_to 10752
  140.0987  134.8996  157.1763 H   0  0  0  0  0  0  0  0  0  0  0  0  # atno 11005 bound_to 11000
  145.1461  139.2542  143.5465 LP  0  0  0  0  0  0  0  0  0  0  0  0  # atno 17320 bound_to 7965
  146.3521  140.1152  142.8602 LP  0  0  0  0  0  0  0  0  0  0  0  0  # atno 17321 bound_to 7965
  140.5829  143.2171  151.7394 LP  0  0  0  0  0  0  0  0  0  0  0  0  # atno 17342 bound_to 10162
  139.4968  144.4053  152.0138 LP  0  0  0  0  0  0  0  0  0  0  0  0  # atno 17343 bound_to 10162
  157.2344  130.6540  149.5863 LP  0  0  0  0  0  0  0  0  0  0  0  0  # atno 17370 bound_to 10713
  155.9702  130.4588  150.6014 LP  0  0  0  0  0  0  0  0  0  0  0  0  # atno 17371 bound_to 10713
  140.3250  134.2874  155.7239 LP  0  0  0  0  0  0  0  0  0  0  0  0  # atno 17394 bound_to 11000
  141.2099  133.7734  156.9964 LP  0  0  0  0  0  0  0  0  0  0  0  0  # atno 17395 bound_to 11000

$$$$
