AV-unprocessed.smi:1404|AV-procd|sdf|5705|dock10
  -GOLD-   22720 5333D 1   1.00000     0.00000
 Structure written by MMmdl.
 47 48  0  0  0  0  0  0  0  0  1 V2000
  151.5230  141.6201  156.0635 C   0  0  0  0  0  0  0  0  0  0  0  0
  151.0991  140.4778  155.2812 N   0  0  0  0  0  0  0  0  0  0  0  0
  152.0523  139.4957  154.9172 C   0  0  0  0  0  0  0  0  0  0  0  0
  153.2386  139.5681  155.2396 O   0  0  0  0  0  0  0  0  0  0  0  0
  151.5111  138.3926  154.1325 C   0  0  0  0  0  0  0  0  0  0  0  0
  150.2012  138.3499  153.8047 C   0  0  0  0  0  0  0  0  0  0  0  0
  149.2902  139.3215  154.1771 N   0  0  0  0  0  0  0  0  0  0  0  0
  147.8844  139.1978  153.7716 C   0  0  0  0  0  0  0  0  0  0  0  0
  147.2752  137.8386  154.1389 C   0  0  0  0  0  0  0  0  0  0  0  0
  147.1644  137.4962  155.3169 O   0  0  0  0  0  0  0  0  0  0  0  0
  146.8674  137.0803  153.1130 N   0  0  0  0  0  0  0  0  0  0  0  0
  146.2891  135.7469  153.2448 C   0  0  0  0  0  0  0  0  0  0  0  0
  145.1167  135.5135  152.2498 C   0  0  0  0  0  0  0  0  0  0  0  0
  143.9244  136.3681  152.7429 C   0  0  0  0  0  0  0  0  0  0  0  0
  145.5748  136.1015  150.8910 C   0  0  0  0  0  0  0  0  0  0  0  0
  144.7847  134.0664  152.1197 N   0  0  0  0  0  0  0  0  0  0  0  0
  143.7443  133.7567  151.1317 C   0  0  0  0  0  0  0  0  0  0  0  0
  143.3662  132.2658  151.1372 C   0  0  0  0  0  0  0  0  0  0  0  0
  144.5266  131.4763  150.9051 O   0  0  0  0  0  0  0  0  0  0  0  0
  145.5389  131.7016  151.8783 C   0  0  0  0  0  0  0  0  0  0  0  0
  145.9354  133.1878  151.8809 C   0  0  0  0  0  0  0  0  0  0  0  0
  149.7304  140.4260  154.9375 C   0  0  0  0  0  0  0  0  0  0  0  0
  148.9401  141.3081  155.2842 O   0  0  0  0  0  0  0  0  0  0  0  0
  152.5976  141.6043  156.2416 H   0  0  0  0  0  0  0  0  0  0  0  0
  150.9861  141.5762  157.0127 H   0  0  0  0  0  0  0  0  0  0  0  0
  151.2602  142.5164  155.4987 H   0  0  0  0  0  0  0  0  0  0  0  0
  152.1691  137.5995  153.8093 H   0  0  0  0  0  0  0  0  0  0  0  0
  149.8510  137.5124  153.2190 H   0  0  0  0  0  0  0  0  0  0  0  0
  147.2877  139.9766  154.2481 H   0  0  0  0  0  0  0  0  0  0  0  0
  147.7908  139.3698  152.6975 H   0  0  0  0  0  0  0  0  0  0  0  0
  146.9944  137.4322  152.1750 H   0  0  0  0  0  0  0  0  0  0  0  0
  147.0659  134.9927  153.1106 H   0  0  0  0  0  0  0  0  0  0  0  0
  145.9468  135.6245  154.2738 H   0  0  0  0  0  0  0  0  0  0  0  0
  144.2049  137.4190  152.8243 H   0  0  0  0  0  0  0  0  0  0  0  0
  143.5775  136.0589  153.7288 H   0  0  0  0  0  0  0  0  0  0  0  0
  143.0744  136.3232  152.0626 H   0  0  0  0  0  0  0  0  0  0  0  0
  145.9840  137.1058  151.0067 H   0  0  0  0  0  0  0  0  0  0  0  0
  144.7532  136.1900  150.1805 H   0  0  0  0  0  0  0  0  0  0  0  0
  146.3475  135.4878  150.4262 H   0  0  0  0  0  0  0  0  0  0  0  0
  142.8378  134.3258  151.3294 H   0  0  0  0  0  0  0  0  0  0  0  0
  144.0796  134.0310  150.1314 H   0  0  0  0  0  0  0  0  0  0  0  0
  142.9101  131.9864  152.0884 H   0  0  0  0  0  0  0  0  0  0  0  0
  142.6331  132.0585  150.3576 H   0  0  0  0  0  0  0  0  0  0  0  0
  145.1826  131.3949  152.8630 H   0  0  0  0  0  0  0  0  0  0  0  0
  146.4030  131.0803  151.6426 H   0  0  0  0  0  0  0  0  0  0  0  0
  146.4008  133.4273  150.9248 H   0  0  0  0  0  0  0  0  0  0  0  0
  146.6958  133.3256  152.6471 H   0  0  0  0  0  0  0  0  0  0  0  0
  1  2  1  0  0  0  0
  1 24  1  0  0  0  0
  1 25  1  0  0  0  0
  1 26  1  0  0  0  0
  2 22  1  0  0  0  0
  2  3  1  0  0  0  0
  3  4  2  0  0  0  0
  3  5  1  0  0  0  0
  5  6  2  0  0  0  0
  5 27  1  0  0  0  0
  6  7  1  0  0  0  0
  6 28  1  0  0  0  0
  7  8  1  0  0  0  0
  7 22  1  0  0  0  0
  8  9  1  0  0  0  0
  8 29  1  0  0  0  0
  8 30  1  0  0  0  0
  9 10  2  0  0  0  0
  9 11  1  0  0  0  0
 11 12  1  0  0  0  0
 11 31  1  0  0  0  0
 12 13  1  0  0  0  0
 12 32  1  0  0  0  0
 12 33  1  0  0  0  0
 13 14  1  0  0  0  0
 13 15  1  0  0  0  0
 13 16  1  0  0  0  0
 14 34  1  0  0  0  0
 14 35  1  0  0  0  0
 14 36  1  0  0  0  0
 15 37  1  0  0  0  0
 15 38  1  0  0  0  0
 15 39  1  0  0  0  0
 16 21  1  0  0  0  0
 16 17  1  0  0  0  0
 17 18  1  0  0  0  0
 17 40  1  0  0  0  0
 17 41  1  0  0  0  0
 18 19  1  0  0  0  0
 18 42  1  0  0  0  0
 18 43  1  0  0  0  0
 19 20  1  0  0  0  0
 20 21  1  0  0  0  0
 20 44  1  0  0  0  0
 20 45  1  0  0  0  0
 21 46  1  0  0  0  0
 21 47  1  0  0  0  0
 22 23  2  0  0  0  0
M  END
> <s_m_source_file>
AV-unprocessed.smi

> <i_m_source_file_index>
1404

> <i_lp_mmshare_version>
43012

> <i_f3d_flags>
0

> <s_epik_input>
W0NIM11uMWMoPU8pW2NIXVtjSF1uKGMxPU8pW0NIMl1DKD1PKVtOSF1bQ0gyXUMoW0NIM10pKFtDSDNdKU4yW0NIMl1bQ0gyXU9bQ0gyXVtDSDJdMg==

> <s_epik_cmdline>
J2VwaWtfcHl0aG9uJywgJy1waCcsICc3LjAnLCAnLXRuJywgJzgnLCAnLW1hJywgJzIwMCcsICctbWV0YWxfYmluZGluZycsICctaW1hZScsICc8aW5maWxlLm1hZT4nLCAnLW9tYWUnLCAnPG91dGZpbGUubWFlPic=

> <r_lp_tautomer_probability>
1

> <r_epik_Ionization_Penalty>
0.237382

> <r_epik_Ionization_Penalty_Charging>
1.16427e-08

> <r_epik_Ionization_Penalty_Neutral>
0.237382

> <r_epik_State_Penalty>
0.228245

> <r_epik_Charging_Adjusted_Penalty>
0.228245

> <i_epik_Tot_Q>
0

> <i_epik_Tot_abs_Q>
0

> <r_epik_Metal_State_Penalty>
0.22822

> <b_epik_Metal_Only>
0

> <s_lp_Force_Field>
OPLS_2005

> <r_lp_Energy>
49.615

> <b_lp_Chiralities_Consistent>
1

> <s_lp_Variant>
AV-unprocessed.smi:1404-1

> <Gold.Version>
5.8.1

> <Gold.Id.Protein>
6NUR|6NUR_protein|mol2

> <Gold.PLP.Fitness>
43.7492

> <Gold.PLP.PLP>
-38.5686

> <Gold.PLP.part.hbond>
-2.0000

> <Gold.PLP.part.metal>
0.0000

> <Gold.PLP.part.buried>
-4.1367

> <Gold.PLP.part.nonpolar>
-33.6092

> <Gold.PLP.part.repulsive>
0.3977

> <Gold.PLP.ligand.clash>
0.0000

> <Gold.PLP.ligand.torsion>
0.4646

> <Gold.PLP.Chemscore.Hbond>
1.0068

> <Gold.PLP.Chemscore.CHOScore>
1.0000

> <Gold.PLP.Chemscore.Metal>
0.0000

> <Gold.Chemscore.Hbonds>
donor molecule, donor type, donor heavy atom, donor atom, acceptor molecule, acceptor atom, score
      P1  H  7997  8009       L1     4  0.98
      L1  C     6    28       P1  7948  0.99

> <Gold.PLP.Chemscore.Internal.Correction>
0.0895

> <Gold.Rescore>
     Score         DG    S(hbond)    S(metal)    S(lipo)     H(rot)  DE(clash)    DE(int)     intcor
     12.05     -12.64       1.00        0.00      77.74       2.07       0.13       0.46       ----

> <Gold.Chemscore.Fitness>
12.0470

> <Gold.Chemscore.DG>
-12.6419

> <Gold.Chemscore.ZeroCoef>
-5.4800

> <Gold.Chemscore.Hbond>
1.0048

> <Gold.Chemscore.Metal>
0.0000

> <Gold.Chemscore.Lipo>
77.7426

> <Gold.Chemscore.Internal_Hbond>
0.0000

> <Gold.Chemscore.DEClash>
0.1317

> <Gold.Chemscore.DEInternal>
0.4631

> <Gold.Chemscore.Rot>
2.0664

> <Gold.Chemscore.Internal.Correction>
   9.000000E+99

> <Gold.Chemscore.Hbonds>
donor molecule, donor type, donor heavy atom, donor atom, acceptor molecule, acceptor atom, score
      P1  H  7997  8009       L1     4  0.91

> <Gold.Chemscore.Hbond.Weighted>
-3.3560

> <Gold.Chemscore.Metal.Weighted>
-0.0000

> <Gold.Chemscore.Lipo.Weighted>
-9.0959

> <Gold.Chemscore.Internal_Hbond.Weighted>
0.0000

> <Gold.Chemscore.DEClash.Weighted>
0.1317

> <Gold.Chemscore.DEInternal.Weighted>
0.4631

> <Gold.Chemscore.Rot.Weighted>
5.2899

> <Gold.Chemscore.Internal.Correction.Weighted>
   9.000000E+99

> <Gold.Protein.RotatedTorsions>
[ 6907 6896 6895 6894 ] final  134.34 input  -60.11 | X-H torsion
[ 7974 7965 7964 7962 ] final   25.47 input  175.53 | X-H torsion
[ 8008 7997 7996 7995 ] final -145.33 input   59.86 | X-H torsion
[ 10167 10162 10161 10158 ] final   61.82 input  -65.29 | X-H torsion
[ 10718 10713 10712 10709 ] final  -23.90 input   66.30 | X-H torsion
[ 10763 10752 10751 10750 ] final -145.69 input  -60.55 | X-H torsion
[ 11005 11000 10999 10996 ] final  -94.37 input  -57.11 | X-H torsion

> <Gold.Protein.ActiveResidues>
 VAL166  LYS551  ARG553  GLY616  TRP617  ASP618  TYR619  PRO620  LYS621  CYS622 
 ASP623  PHE694  ASN695  SER759  ASP760  ASP761  ALA762  ILE779  LEU786  VAL792 
 PHE793  MET794  SER795  GLU796  ALA797  LYS798  CYS799  TRP800  GLU811  SER814 

> <Gold.Protein.RotatedAtoms>
  152.3123  133.5765  159.5688 H   0  0  0  0  0  0  0  0  0  0  0  0  # atno 6907 bound_to 6896
  150.7329  134.0134  159.3686 H   0  0  0  0  0  0  0  0  0  0  0  0  # atno 6908 bound_to 6896
  151.8026  135.0705  160.0453 H   0  0  0  0  0  0  0  0  0  0  0  0  # atno 6909 bound_to 6896
  146.1887  139.7461  142.8848 H   0  0  0  0  0  0  0  0  0  0  0  0  # atno 7974 bound_to 7965
  155.5414  140.0608  157.2869 H   0  0  0  0  0  0  0  0  0  0  0  0  # atno 8008 bound_to 7997
  154.4451  140.1918  156.0639 H   0  0  0  0  0  0  0  0  0  0  0  0  # atno 8009 bound_to 7997
  156.0582  140.3276  155.7434 H   0  0  0  0  0  0  0  0  0  0  0  0  # atno 8010 bound_to 7997
  140.1507  144.4466  150.6761 H   0  0  0  0  0  0  0  0  0  0  0  0  # atno 10167 bound_to 10162
  156.4849  130.4553  149.6789 H   0  0  0  0  0  0  0  0  0  0  0  0  # atno 10718 bound_to 10713
  154.8372  135.3406  154.6543 H   0  0  0  0  0  0  0  0  0  0  0  0  # atno 10763 bound_to 10752
  153.7157  135.6961  153.5030 H   0  0  0  0  0  0  0  0  0  0  0  0  # atno 10764 bound_to 10752
  153.2418  135.4382  155.0659 H   0  0  0  0  0  0  0  0  0  0  0  0  # atno 10765 bound_to 10752
  141.1472  133.7951  157.0288 H   0  0  0  0  0  0  0  0  0  0  0  0  # atno 11005 bound_to 11000
  145.3860  141.0365  143.3150 LP  0  0  0  0  0  0  0  0  0  0  0  0  # atno 17320 bound_to 7965
  144.8445  139.5419  143.6885 LP  0  0  0  0  0  0  0  0  0  0  0  0  # atno 17321 bound_to 7965
  140.6704  143.2284  151.5638 LP  0  0  0  0  0  0  0  0  0  0  0  0  # atno 17342 bound_to 10162
  139.5427  144.2603  152.1383 LP  0  0  0  0  0  0  0  0  0  0  0  0  # atno 17343 bound_to 10162
  156.3484  130.7419  151.2375 LP  0  0  0  0  0  0  0  0  0  0  0  0  # atno 17370 bound_to 10713
  157.7479  131.0384  150.4500 LP  0  0  0  0  0  0  0  0  0  0  0  0  # atno 17371 bound_to 10713
  140.0767  134.9671  157.1558 LP  0  0  0  0  0  0  0  0  0  0  0  0  # atno 17394 bound_to 11000
  140.3633  134.2470  155.7185 LP  0  0  0  0  0  0  0  0  0  0  0  0  # atno 17395 bound_to 11000

$$$$
