AV-unprocessed.smi:2922|AV-procd|sdf|11199|dock3
  -GOLD-   2272016 93D 1   1.00000     0.00000
 Structure written by MMmdl.
 30 31  0  0  0  0  0  0  0  0  1 V2000
  146.8657  132.2918  150.2707 N   0  0  0  0  0  0  0  0  0  0  0  0
  146.6929  133.3118  151.1163 C   0  0  0  0  0  0  0  0  0  0  0  0
  147.3909  133.4469  152.1197 O   0  0  0  0  0  0  0  0  0  0  0  0
  145.5655  134.3090  150.8083 C   0  0  1  0  0  0  0  0  0  0  0  0
  144.1523  133.6950  150.8051 C   0  0  0  0  0  0  0  0  0  0  0  0
  143.4139  134.4708  151.8811 C   0  0  0  0  0  0  0  0  0  0  0  0
  144.1943  135.7806  151.9449 C   0  0  1  0  0  0  0  0  0  0  0  0
  144.0309  136.5552  153.2591 C   0  0  0  0  0  0  0  0  0  0  0  0
  143.1176  137.6785  153.1125 N   0  0  0  0  0  0  0  0  0  0  0  0
  141.7581  137.6095  153.3498 C   0  0  0  0  0  0  0  0  0  0  0  0
  141.2824  136.5425  154.0041 N   0  0  0  0  0  0  0  0  0  0  0  0
  139.9499  136.5005  154.2243 C   0  0  0  0  0  0  0  0  0  0  0  0
  139.0978  137.5337  153.7862 C   0  0  0  0  0  0  0  0  0  0  0  0
  137.3961  137.4871  154.0655 Cl  0  0  0  0  0  0  0  0  0  0  0  0
  139.7087  138.6073  153.1081 C   0  0  0  0  0  0  0  0  0  0  0  0
  141.0424  138.6403  152.8915 N   0  0  0  0  0  0  0  0  0  0  0  0
  145.5314  135.3298  151.8057 O   0  0  0  0  0  0  0  0  0  0  0  0
  147.5986  131.6178  150.4375 H   0  0  0  0  0  0  0  0  0  0  0  0
  146.2626  132.2032  149.4653 H   0  0  0  0  0  0  0  0  0  0  0  0
  145.7651  134.7752  149.8424 H   0  0  0  0  0  0  0  0  0  0  0  0
  143.6833  133.8549  149.8334 H   0  0  0  0  0  0  0  0  0  0  0  0
  144.1279  132.6234  151.0075 H   0  0  0  0  0  0  0  0  0  0  0  0
  142.3574  134.6145  151.6531 H   0  0  0  0  0  0  0  0  0  0  0  0
  143.4875  133.9414  152.8322 H   0  0  0  0  0  0  0  0  0  0  0  0
  143.9491  136.4141  151.0902 H   0  0  0  0  0  0  0  0  0  0  0  0
  143.6720  135.8914  154.0467 H   0  0  0  0  0  0  0  0  0  0  0  0
  145.0005  136.9374  153.5804 H   0  0  0  0  0  0  0  0  0  0  0  0
  143.4966  138.5742  152.8411 H   0  0  0  0  0  0  0  0  0  0  0  0
  139.5649  135.6403  154.7519 H   0  0  0  0  0  0  0  0  0  0  0  0
  139.1294  139.4405  152.7388 H   0  0  0  0  0  0  0  0  0  0  0  0
  1  2  1  0  0  0  0
  1 18  1  0  0  0  0
  1 19  1  0  0  0  0
  2  3  2  0  0  0  0
  2  4  1  0  0  0  0
  4 17  1  0  0  0  0
  4  5  1  0  0  0  0
  4 20  1  0  0  0  0
  5  6  1  0  0  0  0
  5 21  1  0  0  0  0
  5 22  1  0  0  0  0
  6  7  1  0  0  0  0
  6 23  1  0  0  0  0
  6 24  1  0  0  0  0
  7  8  1  0  0  0  0
  7 17  1  0  0  0  0
  7 25  1  0  0  0  0
  8  9  1  0  0  0  0
  8 26  1  0  0  0  0
  8 27  1  0  0  0  0
  9 10  1  0  0  0  0
  9 28  1  0  0  0  0
 10 16  1  0  0  0  0
 10 11  2  0  0  0  0
 11 12  1  0  0  0  0
 12 13  2  0  0  0  0
 12 29  1  0  0  0  0
 13 14  1  0  0  0  0
 13 15  1  0  0  0  0
 15 16  2  0  0  0  0
 15 30  1  0  0  0  0
M  END
> <s_m_source_file>
AV-unprocessed.smi

> <i_m_source_file_index>
2922

> <i_lp_mmshare_version>
43012

> <i_f3d_flags>
0

> <s_epik_input>
W05IMl1DKD1PKVtDQEBIXTFbQ0gyXVtDSDJdW0NASF0oTzEpW0NIMl1bTkhdYzJuW2NIXWMoQ2wpW2NIXW4y

> <s_epik_cmdline>
J2VwaWtfcHl0aG9uJywgJy1waCcsICc3LjAnLCAnLXRuJywgJzgnLCAnLW1hJywgJzIwMCcsICctbWV0YWxfYmluZGluZycsICctaW1hZScsICc8aW5maWxlLm1hZT4nLCAnLW9tYWUnLCAnPG91dGZpbGUubWFlPic=

> <r_lp_tautomer_probability>
1

> <r_epik_Ionization_Penalty>
6.13883e-06

> <r_epik_Ionization_Penalty_Charging>
0

> <r_epik_Ionization_Penalty_Neutral>
6.13883e-06

> <r_epik_State_Penalty>
-0

> <r_epik_Charging_Adjusted_Penalty>
0

> <i_epik_Tot_Q>
0

> <i_epik_Tot_abs_Q>
0

> <r_epik_Metal_State_Penalty>
-0

> <b_epik_Metal_Only>
0

> <s_lp_Force_Field>
OPLS_2005

> <r_lp_Energy>
9.86334

> <b_lp_Chiralities_Consistent>
1

> <s_lp_Variant>
AV-unprocessed.smi:2922-2

> <Gold.Version>
5.8.1

> <Gold.Id.Protein>
6NUR|6NUR_protein|mol2

> <Gold.PLP.Fitness>
37.0441

> <Gold.PLP.PLP>
-27.9579

> <Gold.PLP.part.hbond>
-2.0000

> <Gold.PLP.part.metal>
0.0000

> <Gold.PLP.part.buried>
-6.0460

> <Gold.PLP.part.nonpolar>
-22.7627

> <Gold.PLP.part.repulsive>
3.0145

> <Gold.PLP.ligand.clash>
0.0000

> <Gold.PLP.ligand.torsion>
0.7924

> <Gold.PLP.Chemscore.Hbond>
2.0000

> <Gold.PLP.Chemscore.CHOScore>
1.5411

> <Gold.PLP.Chemscore.Metal>
0.0000

> <Gold.Chemscore.Hbonds>
donor molecule, donor type, donor heavy atom, donor atom, acceptor molecule, acceptor atom, score
      L1  H     1    18       P1 10747  1.00
      L1  H     9    28       P1 10175  1.00
      L1  C    12    29       P1 11000  1.00
      L1  C    15    30       P1 10160  0.55

> <Gold.PLP.Chemscore.Internal.Correction>
0.0475

> <Gold.Rescore>
     Score         DG    S(hbond)    S(metal)    S(lipo)     H(rot)  DE(clash)    DE(int)     intcor
     12.52     -13.47       1.97        0.00      53.79       1.91       0.27       0.68       ----

> <Gold.Chemscore.Fitness>
12.5207

> <Gold.Chemscore.DG>
-13.4677

> <Gold.Chemscore.ZeroCoef>
-5.4800

> <Gold.Chemscore.Hbond>
1.9744

> <Gold.Chemscore.Metal>
0.0000

> <Gold.Chemscore.Lipo>
53.7894

> <Gold.Chemscore.Internal_Hbond>
0.0000

> <Gold.Chemscore.DEClash>
0.2684

> <Gold.Chemscore.DEInternal>
0.6786

> <Gold.Chemscore.Rot>
1.9142

> <Gold.Chemscore.Internal.Correction>
   9.000000E+99

> <Gold.Chemscore.Hbonds>
donor molecule, donor type, donor heavy atom, donor atom, acceptor molecule, acceptor atom, score
      L1  H     1    18       P1 10747  0.97
      L1  H     9    28       P1 10175  1.00

> <Gold.Chemscore.Hbond.Weighted>
-6.5946

> <Gold.Chemscore.Metal.Weighted>
-0.0000

> <Gold.Chemscore.Lipo.Weighted>
-6.2934

> <Gold.Chemscore.Internal_Hbond.Weighted>
0.0000

> <Gold.Chemscore.DEClash.Weighted>
0.2684

> <Gold.Chemscore.DEInternal.Weighted>
0.6786

> <Gold.Chemscore.Rot.Weighted>
4.9002

> <Gold.Chemscore.Internal.Correction.Weighted>
   9.000000E+99

> <Gold.Protein.RotatedTorsions>
[ 6907 6896 6895 6894 ] final   44.13 input  -60.11 | X-H torsion
[ 7974 7965 7964 7962 ] final   83.85 input  175.53 | X-H torsion
[ 8008 7997 7996 7995 ] final -147.10 input   59.86 | X-H torsion
[ 10167 10162 10161 10158 ] final   90.77 input  -65.29 | X-H torsion
[ 10718 10713 10712 10709 ] final  -30.76 input   66.30 | X-H torsion
[ 10763 10752 10751 10750 ] final   96.98 input  -60.55 | X-H torsion
[ 11005 11000 10999 10996 ] final  -93.05 input  -57.11 | X-H torsion

> <Gold.Protein.ActiveResidues>
 VAL166  LYS551  ARG553  GLY616  TRP617  ASP618  TYR619  PRO620  LYS621  CYS622 
 ASP623  PHE694  ASN695  SER759  ASP760  ASP761  ALA762  ILE779  LEU786  VAL792 
 PHE793  MET794  SER795  GLU796  ALA797  LYS798  CYS799  TRP800  GLU811  SER814 

> <Gold.Protein.RotatedAtoms>
  152.2287  134.8342  160.0476 H   0  0  0  0  0  0  0  0  0  0  0  0  # atno 6907 bound_to 6896
  151.9099  133.3553  159.3868 H   0  0  0  0  0  0  0  0  0  0  0  0  # atno 6908 bound_to 6896
  150.7020  134.4668  159.5450 H   0  0  0  0  0  0  0  0  0  0  0  0  # atno 6909 bound_to 6896
  145.6065  139.2361  143.2216 H   0  0  0  0  0  0  0  0  0  0  0  0  # atno 7974 bound_to 7965
  155.5701  140.0633  157.2808 H   0  0  0  0  0  0  0  0  0  0  0  0  # atno 8008 bound_to 7997
  154.4363  140.1870  156.0916 H   0  0  0  0  0  0  0  0  0  0  0  0  # atno 8009 bound_to 7997
  156.0383  140.3298  155.7219 H   0  0  0  0  0  0  0  0  0  0  0  0  # atno 8010 bound_to 7997
  139.8440  144.6627  150.9249 H   0  0  0  0  0  0  0  0  0  0  0  0  # atno 10167 bound_to 10162
  156.3958  130.4381  149.7360 H   0  0  0  0  0  0  0  0  0  0  0  0  # atno 10718 bound_to 10713
  153.2714  135.4199  155.0991 H   0  0  0  0  0  0  0  0  0  0  0  0  # atno 10763 bound_to 10752
  154.8457  135.3473  154.6239 H   0  0  0  0  0  0  0  0  0  0  0  0  # atno 10764 bound_to 10752
  153.6659  135.7046  153.5220 H   0  0  0  0  0  0  0  0  0  0  0  0  # atno 10765 bound_to 10752
  141.1507  133.7862  157.0106 H   0  0  0  0  0  0  0  0  0  0  0  0  # atno 11005 bound_to 11000
  146.1536  140.6889  142.9310 LP  0  0  0  0  0  0  0  0  0  0  0  0  # atno 17320 bound_to 7965
  144.7287  140.4607  143.6953 LP  0  0  0  0  0  0  0  0  0  0  0  0  # atno 17321 bound_to 7965
  140.7795  143.3887  151.1348 LP  0  0  0  0  0  0  0  0  0  0  0  0  # atno 17342 bound_to 10162
  139.7531  143.8749  152.3082 LP  0  0  0  0  0  0  0  0  0  0  0  0  # atno 17343 bound_to 10162
  156.4396  130.7854  151.2875 LP  0  0  0  0  0  0  0  0  0  0  0  0  # atno 17370 bound_to 10713
  157.7501  131.0129  150.3403 LP  0  0  0  0  0  0  0  0  0  0  0  0  # atno 17371 bound_to 10713
  140.0880  134.9609  157.1731 LP  0  0  0  0  0  0  0  0  0  0  0  0  # atno 17394 bound_to 11000
  140.3485  134.2625  155.7202 LP  0  0  0  0  0  0  0  0  0  0  0  0  # atno 17395 bound_to 11000

$$$$
