AV-unprocessed.smi:3349|AV-procd|sdf|12931|dock8
  -GOLD-   2272019363D 1   1.00000     0.00000
 Structure written by MMmdl.
 40 41  0  0  0  0  0  0  0  0  1 V2000
  146.9492  137.4871  156.5709 C   0  0  0  0  0  0  0  0  0  0  0  0
  147.0959  137.3042  155.0384 C   0  0  2  0  0  0  0  0  0  0  0  0
  147.2431  135.7894  154.7260 C   0  0  0  0  0  0  0  0  0  0  0  0
  147.0117  135.4871  153.3179 N   0  0  0  0  0  0  0  0  0  0  0  0
  145.8860  134.9466  152.8286 C   0  0  0  0  0  0  0  0  0  0  0  0
  144.9272  134.6346  153.5357 O   0  0  0  0  0  0  0  0  0  0  0  0
  145.8406  134.7115  151.3094 C   0  0  2  0  0  0  0  0  0  0  0  0
  145.1456  135.8976  150.6058 C   0  0  0  0  0  0  0  0  0  0  0  0
  145.2266  133.4197  150.9877 N   0  0  0  0  0  0  0  0  0  0  0  0
  145.7393  132.3232  150.4155 C   0  0  0  0  0  0  0  0  0  0  0  0
  144.8558  131.3601  150.1947 N   0  0  0  0  0  0  0  0  0  0  0  0
  143.7299  131.9758  150.6593 C   0  0  0  0  0  0  0  0  0  0  0  0
  143.8909  133.2160  151.1194 N   0  0  0  0  0  0  0  0  0  0  0  0
  148.1854  138.1302  154.4669 N   0  0  0  0  0  0  0  0  0  0  0  0
  148.0932  139.5427  154.8544 C   0  0  0  0  0  0  0  0  0  0  0  0
  149.2417  140.3947  154.2864 C   0  0  0  0  0  0  0  0  0  0  0  0
  150.4897  139.8554  154.6992 O   0  0  0  0  0  0  0  0  0  0  0  0
  150.6549  138.5094  154.2759 C   0  0  0  0  0  0  0  0  0  0  0  0
  149.5177  137.6441  154.8457 C   0  0  0  0  0  0  0  0  0  0  0  0
  146.1841  136.8407  156.9991 H   0  0  0  0  0  0  0  0  0  0  0  0
  146.6464  138.4980  156.8393 H   0  0  0  0  0  0  0  0  0  0  0  0
  147.8858  137.2676  157.0847 H   0  0  0  0  0  0  0  0  0  0  0  0
  146.1574  137.6305  154.5873 H   0  0  0  0  0  0  0  0  0  0  0  0
  148.2486  135.4311  154.9413 H   0  0  0  0  0  0  0  0  0  0  0  0
  146.5557  135.2137  155.3485 H   0  0  0  0  0  0  0  0  0  0  0  0
  147.7551  135.7125  152.6727 H   0  0  0  0  0  0  0  0  0  0  0  0
  146.8679  134.6678  150.9436 H   0  0  0  0  0  0  0  0  0  0  0  0
  145.5621  136.8513  150.9320 H   0  0  0  0  0  0  0  0  0  0  0  0
  144.0747  135.9158  150.8130 H   0  0  0  0  0  0  0  0  0  0  0  0
  145.2750  135.8480  149.5243 H   0  0  0  0  0  0  0  0  0  0  0  0
  146.7812  132.2236  150.1478 H   0  0  0  0  0  0  0  0  0  0  0  0
  142.7593  131.5020  150.6438 H   0  0  0  0  0  0  0  0  0  0  0  0
  147.1667  139.9832  154.4917 H   0  0  0  0  0  0  0  0  0  0  0  0
  148.0820  139.6282  155.9421 H   0  0  0  0  0  0  0  0  0  0  0  0
  149.1938  140.4309  153.1967 H   0  0  0  0  0  0  0  0  0  0  0  0
  149.1631  141.4214  154.6441 H   0  0  0  0  0  0  0  0  0  0  0  0
  150.6701  138.4599  153.1859 H   0  0  0  0  0  0  0  0  0  0  0  0
  151.6200  138.1434  154.6261 H   0  0  0  0  0  0  0  0  0  0  0  0
  149.6025  137.6067  155.9329 H   0  0  0  0  0  0  0  0  0  0  0  0
  149.6763  136.6312  154.4803 H   0  0  0  0  0  0  0  0  0  0  0  0
  1  2  1  0  0  0  0
  1 20  1  0  0  0  0
  1 21  1  0  0  0  0
  1 22  1  0  0  0  0
  2  3  1  0  0  0  0
  2 14  1  0  0  0  0
  2 23  1  0  0  0  0
  3  4  1  0  0  0  0
  3 24  1  0  0  0  0
  3 25  1  0  0  0  0
  4  5  1  0  0  0  0
  4 26  1  0  0  0  0
  5  6  2  0  0  0  0
  5  7  1  0  0  0  0
  7  8  1  0  0  0  0
  7  9  1  0  0  0  0
  7 27  1  0  0  0  0
  8 28  1  0  0  0  0
  8 29  1  0  0  0  0
  8 30  1  0  0  0  0
  9 13  1  0  0  0  0
  9 10  1  0  0  0  0
 10 11  2  0  0  0  0
 10 31  1  0  0  0  0
 11 12  1  0  0  0  0
 12 13  2  0  0  0  0
 12 32  1  0  0  0  0
 14 19  1  0  0  0  0
 14 15  1  0  0  0  0
 15 16  1  0  0  0  0
 15 33  1  0  0  0  0
 15 34  1  0  0  0  0
 16 17  1  0  0  0  0
 16 35  1  0  0  0  0
 16 36  1  0  0  0  0
 17 18  1  0  0  0  0
 18 19  1  0  0  0  0
 18 37  1  0  0  0  0
 18 38  1  0  0  0  0
 19 39  1  0  0  0  0
 19 40  1  0  0  0  0
M  END
> <s_m_source_file>
AV-unprocessed.smi

> <i_m_source_file_index>
3349

> <i_lp_mmshare_version>
43012

> <i_f3d_flags>
0

> <s_epik_input>
W0NIMl0xW0NIMl1PW0NIMl1bQ0gyXU4xW0NASF0oW0NIM10pW0NIMl1bTkhdQyg9TylbQ0BIXShbQ0gzXSluMltjSF1uW2NIXW4y

> <s_epik_cmdline>
J2VwaWtfcHl0aG9uJywgJy1waCcsICc3LjAnLCAnLXRuJywgJzgnLCAnLW1hJywgJzIwMCcsICctbWV0YWxfYmluZGluZycsICctaW1hZScsICc8aW5maWxlLm1hZT4nLCAnLW9tYWUnLCAnPG91dGZpbGUubWFlPic=

> <r_lp_tautomer_probability>
1

> <r_epik_Ionization_Penalty>
0.211373

> <r_epik_Ionization_Penalty_Charging>
0

> <r_epik_Ionization_Penalty_Neutral>
0.211373

> <r_epik_State_Penalty>
0.201459

> <r_epik_Charging_Adjusted_Penalty>
0.201459

> <i_epik_Tot_Q>
0

> <i_epik_Tot_abs_Q>
0

> <r_epik_Metal_State_Penalty>
0.201458

> <b_epik_Metal_Only>
0

> <s_lp_Force_Field>
OPLS_2005

> <r_lp_Energy>
36.462

> <b_lp_Chiralities_Consistent>
1

> <s_lp_Variant>
AV-unprocessed.smi:3349-1

> <Gold.Version>
5.8.1

> <Gold.Id.Protein>
6NUR|6NUR_protein|mol2

> <Gold.PLP.Fitness>
34.1853

> <Gold.PLP.PLP>
-24.0062

> <Gold.PLP.part.hbond>
-2.7610

> <Gold.PLP.part.metal>
0.0000

> <Gold.PLP.part.buried>
-2.9323

> <Gold.PLP.part.nonpolar>
-20.1040

> <Gold.PLP.part.repulsive>
0.5865

> <Gold.PLP.ligand.clash>
0.0000

> <Gold.PLP.ligand.torsion>
0.9899

> <Gold.PLP.Chemscore.Hbond>
1.9913

> <Gold.PLP.Chemscore.CHOScore>
2.0000

> <Gold.PLP.Chemscore.Metal>
0.0000

> <Gold.Chemscore.Hbonds>
donor molecule, donor type, donor heavy atom, donor atom, acceptor molecule, acceptor atom, score
      L1  H     4    26       P1  7948  0.99
      P1  H  7989  7998       L1    17  0.90
      L1  C    10    31       P1 10747  0.88
      L1  C    12    32       P1 10952  1.00

> <Gold.PLP.Chemscore.Internal.Correction>
0.1851

> <Gold.Rescore>
     Score         DG    S(hbond)    S(metal)    S(lipo)     H(rot)  DE(clash)    DE(int)     intcor
      5.09      -7.49       1.15        0.00      40.40       2.56       0.30       2.10       ----

> <Gold.Chemscore.Fitness>
5.0931

> <Gold.Chemscore.DG>
-7.4937

> <Gold.Chemscore.ZeroCoef>
-5.4800

> <Gold.Chemscore.Hbond>
1.1475

> <Gold.Chemscore.Metal>
0.0000

> <Gold.Chemscore.Lipo>
40.4000

> <Gold.Chemscore.Internal_Hbond>
0.0000

> <Gold.Chemscore.DEClash>
0.3018

> <Gold.Chemscore.DEInternal>
2.0988

> <Gold.Chemscore.Rot>
2.5570

> <Gold.Chemscore.Internal.Correction>
   9.000000E+99

> <Gold.Chemscore.Hbonds>
donor molecule, donor type, donor heavy atom, donor atom, acceptor molecule, acceptor atom, score
      L1  H     4    26       P1  7948  0.92
      P1  H  7989  7998       L1    17  0.08

> <Gold.Chemscore.Hbond.Weighted>
-3.8328

> <Gold.Chemscore.Metal.Weighted>
-0.0000

> <Gold.Chemscore.Lipo.Weighted>
-4.7268

> <Gold.Chemscore.Internal_Hbond.Weighted>
0.0000

> <Gold.Chemscore.DEClash.Weighted>
0.3018

> <Gold.Chemscore.DEInternal.Weighted>
2.0988

> <Gold.Chemscore.Rot.Weighted>
6.5459

> <Gold.Chemscore.Internal.Correction.Weighted>
   9.000000E+99

> <Gold.Protein.RotatedTorsions>
[ 6907 6896 6895 6894 ] final  -57.13 input  -60.11 | X-H torsion
[ 7974 7965 7964 7962 ] final  -33.55 input  175.53 | X-H torsion
[ 8008 7997 7996 7995 ] final   65.41 input   59.86 | X-H torsion
[ 10167 10162 10161 10158 ] final   71.90 input  -65.29 | X-H torsion
[ 10718 10713 10712 10709 ] final  -41.36 input   66.30 | X-H torsion
[ 10763 10752 10751 10750 ] final -176.91 input  -60.55 | X-H torsion
[ 11005 11000 10999 10996 ] final  113.19 input  -57.11 | X-H torsion

> <Gold.Protein.ActiveResidues>
 VAL166  LYS551  ARG553  GLY616  TRP617  ASP618  TYR619  PRO620  LYS621  CYS622 
 ASP623  PHE694  ASN695  SER759  ASP760  ASP761  ALA762  ILE779  LEU786  VAL792 
 PHE793  MET794  SER795  GLU796  ALA797  LYS798  CYS799  TRP800  GLU811  SER814 

> <Gold.Protein.RotatedAtoms>
  150.8111  134.7266  159.6688 H   0  0  0  0  0  0  0  0  0  0  0  0  # atno 6907 bound_to 6896
  152.4230  134.5916  159.9985 H   0  0  0  0  0  0  0  0  0  0  0  0  # atno 6908 bound_to 6896
  151.6126  133.3309  159.3106 H   0  0  0  0  0  0  0  0  0  0  0  0  # atno 6909 bound_to 6896
  146.0902  140.5929  142.8868 H   0  0  0  0  0  0  0  0  0  0  0  0  # atno 7974 bound_to 7965
  155.6613  140.3497  155.4784 H   0  0  0  0  0  0  0  0  0  0  0  0  # atno 8008 bound_to 7997
  155.9766  140.1166  157.0787 H   0  0  0  0  0  0  0  0  0  0  0  0  # atno 8009 bound_to 7997
  154.4180  140.1146  156.5365 H   0  0  0  0  0  0  0  0  0  0  0  0  # atno 8010 bound_to 7997
  140.0411  144.5388  150.7433 H   0  0  0  0  0  0  0  0  0  0  0  0  # atno 10167 bound_to 10162
  156.2712  130.4207  149.8436 H   0  0  0  0  0  0  0  0  0  0  0  0  # atno 10718 bound_to 10713
  154.5666  135.2824  155.0867 H   0  0  0  0  0  0  0  0  0  0  0  0  # atno 10763 bound_to 10752
  154.2256  135.6383  153.5162 H   0  0  0  0  0  0  0  0  0  0  0  0  # atno 10764 bound_to 10752
  153.0045  135.5525  154.6277 H   0  0  0  0  0  0  0  0  0  0  0  0  # atno 10765 bound_to 10752
  139.8946  134.9545  156.6701 H   0  0  0  0  0  0  0  0  0  0  0  0  # atno 11005 bound_to 11000
  144.7354  140.4794  143.6907 LP  0  0  0  0  0  0  0  0  0  0  0  0  # atno 17320 bound_to 7965
  145.6054  139.1508  143.3106 LP  0  0  0  0  0  0  0  0  0  0  0  0  # atno 17321 bound_to 7965
  140.7259  143.2636  151.4120 LP  0  0  0  0  0  0  0  0  0  0  0  0  # atno 17342 bound_to 10162
  139.6013  144.1289  152.2201 LP  0  0  0  0  0  0  0  0  0  0  0  0  # atno 17343 bound_to 10162
  156.5917  130.8509  151.3410 LP  0  0  0  0  0  0  0  0  0  0  0  0  # atno 17370 bound_to 10713
  157.7284  130.9657  150.1742 LP  0  0  0  0  0  0  0  0  0  0  0  0  # atno 17371 bound_to 10713
  140.7380  133.9002  155.8257 LP  0  0  0  0  0  0  0  0  0  0  0  0  # atno 17394 bound_to 11000
  141.0100  134.1033  157.4230 LP  0  0  0  0  0  0  0  0  0  0  0  0  # atno 17395 bound_to 11000

$$$$
