AV-unprocessed.smi:561|AV-procd|sdf|2937|dock8
  -GOLD-   2262023433D 1   1.00000     0.00000
 Structure written by MMmdl.
 37 38  0  0  0  0  0  0  0  0  2 V2000
  146.0815  129.4201  152.0739 C   0  0  0  0  0  0  0  0  0  0  0  0
  146.5562  130.8789  152.0376 C   0  0  1  0  0  0  0  0  0  0  0  0
  145.3789  131.8554  152.2441 C   0  0  0  0  0  0  0  0  0  0  0  0
  144.6385  132.1254  151.0072 N   0  0  0  0  0  0  0  0  0  0  0  0
  145.0500  131.8749  149.7234 C   0  0  0  0  0  0  0  0  0  0  0  0
  144.0409  132.3015  148.8993 C   0  0  0  0  0  0  0  0  0  0  0  0
  143.0545  132.7890  149.7143 N   0  3  0  0  0  0  0  0  0  0  0  0
  143.4179  132.6768  150.9960 C   0  0  0  0  0  0  0  0  0  0  0  0
  147.5807  131.0666  153.0638 N   0  0  0  0  0  0  0  0  0  0  0  0
  148.3490  132.1604  153.2244 C   0  0  0  0  0  0  0  0  0  0  0  0
  148.2590  133.1554  152.5046 O   0  0  0  0  0  0  0  0  0  0  0  0
  149.3218  132.1120  154.3480 C   0  0  0  0  0  0  0  0  0  0  0  0
  149.7917  133.2126  154.8457 N   0  0  0  0  0  0  0  0  0  0  0  0
  150.7082  133.2171  155.8772 N   0  0  0  0  0  0  0  0  0  0  0  0
  151.3351  134.5118  156.1354 C   0  0  0  0  0  0  0  0  0  0  0  0
  151.0133  132.1397  156.6426 C   0  0  0  0  0  0  0  0  0  0  0  0
  151.8439  132.1588  157.5507 O   0  0  0  0  0  0  0  0  0  0  0  0
  150.2366  130.8527  156.3495 C   0  0  0  0  0  0  0  0  0  0  0  0
  149.7807  130.7684  154.8791 C   0  0  0  0  0  0  0  0  0  0  0  0
  145.3368  129.2305  151.3003 H   0  0  0  0  0  0  0  0  0  0  0  0
  145.6324  129.1712  153.0359 H   0  0  0  0  0  0  0  0  0  0  0  0
  146.9111  128.7327  151.9050 H   0  0  0  0  0  0  0  0  0  0  0  0
  146.9887  131.0508  151.0502 H   0  0  0  0  0  0  0  0  0  0  0  0
  144.6646  131.4404  152.9564 H   0  0  0  0  0  0  0  0  0  0  0  0
  145.7248  132.8027  152.6611 H   0  0  0  0  0  0  0  0  0  0  0  0
  146.0083  131.4300  149.4980 H   0  0  0  0  0  0  0  0  0  0  0  0
  143.9535  132.2955  147.8226 H   0  0  0  0  0  0  0  0  0  0  0  0
  142.8430  132.9826  151.8519 H   0  0  0  0  0  0  0  0  0  0  0  0
  147.7277  130.2973  153.7020 H   0  0  0  0  0  0  0  0  0  0  0  0
  152.4192  134.4406  156.0361 H   0  0  0  0  0  0  0  0  0  0  0  0
  151.1065  134.8547  157.1456 H   0  0  0  0  0  0  0  0  0  0  0  0
  150.9911  135.2799  155.4408 H   0  0  0  0  0  0  0  0  0  0  0  0
  150.8396  129.9825  156.6108 H   0  0  0  0  0  0  0  0  0  0  0  0
  149.3652  130.8398  157.0052 H   0  0  0  0  0  0  0  0  0  0  0  0
  148.9792  130.0321  154.8082 H   0  0  0  0  0  0  0  0  0  0  0  0
  150.5960  130.3960  154.2579 H   0  0  0  0  0  0  0  0  0  0  0  0
  142.1770  133.1799  149.3954 H   0  0  0  0  0  0  0  0  0  0  0  0
  1  2  1  0  0  0  0
  1 20  1  0  0  0  0
  1 21  1  0  0  0  0
  1 22  1  0  0  0  0
  2  3  1  0  0  0  0
  2  9  1  0  0  0  0
  2 23  1  0  0  0  0
  3  4  1  0  0  0  0
  3 24  1  0  0  0  0
  3 25  1  0  0  0  0
  4  8  1  0  0  0  0
  4  5  1  0  0  0  0
  5  6  2  0  0  0  0
  5 26  1  0  0  0  0
  6  7  1  0  0  0  0
  6 27  1  0  0  0  0
  7  8  2  0  0  0  0
  7 37  1  0  0  0  0
  8 28  1  0  0  0  0
  9 10  1  0  0  0  0
  9 29  1  0  0  0  0
 10 11  2  0  0  0  0
 10 12  1  0  0  0  0
 12 19  1  0  0  0  0
 12 13  2  0  0  0  0
 13 14  1  0  0  0  0
 14 15  1  0  0  0  0
 14 16  1  0  0  0  0
 15 30  1  0  0  0  0
 15 31  1  0  0  0  0
 15 32  1  0  0  0  0
 16 17  2  0  0  0  0
 16 18  1  0  0  0  0
 18 19  1  0  0  0  0
 18 33  1  0  0  0  0
 18 34  1  0  0  0  0
 19 35  1  0  0  0  0
 19 36  1  0  0  0  0
M  CHG  1   7   1
M  END
> <s_m_source_file>
AV-unprocessed.smi

> <i_m_source_file_index>
561

> <i_lp_mmshare_version>
43012

> <i_f3d_flags>
0

> <s_epik_input>
W2NIXTFuW2NIXVtjSF1uMVtDSDJdW0NAQEhdKFtDSDNdKVtOSF1DKD1PKUMyPU5OKFtDSDNdKUMoPU8pW0NIMl1bQ0gyXTI=

> <s_epik_cmdline>
J2VwaWtfcHl0aG9uJywgJy1waCcsICc3LjAnLCAnLXRuJywgJzgnLCAnLW1hJywgJzIwMCcsICctbWV0YWxfYmluZGluZycsICctaW1hZScsICc8aW5maWxlLm1hZT4nLCAnLW9tYWUnLCAnPG91dGZpbGUubWFlPic=

> <r_lp_tautomer_probability>
1

> <r_epik_Ionization_Penalty>
0.358595

> <r_epik_Ionization_Penalty_Charging>
0

> <r_epik_Ionization_Penalty_Neutral>
0.358595

> <r_epik_State_Penalty>
0.355181

> <r_epik_Charging_Adjusted_Penalty>
0.355181

> <i_epik_Tot_Q>
1

> <i_epik_Tot_abs_Q>
1

> <r_epik_Metal_State_Penalty>
0.718565

> <b_epik_Metal_Only>
0

> <s_epik_Chemistry_Notes>
This compound has an imine and may undergo hydrolysis.

> <s_lp_Force_Field>
OPLS_2005

> <r_lp_Energy>
19.4288

> <b_lp_Chiralities_Consistent>
1

> <s_lp_Variant>
AV-unprocessed.smi:561-2

> <Gold.Version>
5.8.1

> <Gold.Id.Protein>
6NUR|6NUR_protein|mol2

> <Gold.PLP.Fitness>
43.5992

> <Gold.PLP.PLP>
-36.0518

> <Gold.PLP.part.hbond>
-2.9151

> <Gold.PLP.part.metal>
0.0000

> <Gold.PLP.part.buried>
-4.5640

> <Gold.PLP.part.nonpolar>
-30.4884

> <Gold.PLP.part.repulsive>
0.8880

> <Gold.PLP.ligand.clash>
0.0000

> <Gold.PLP.ligand.torsion>
0.7345

> <Gold.PLP.Chemscore.Hbond>
3.0000

> <Gold.PLP.Chemscore.CHOScore>
0.0000

> <Gold.PLP.Chemscore.Metal>
0.0000

> <Gold.Chemscore.Hbonds>
donor molecule, donor type, donor heavy atom, donor atom, acceptor molecule, acceptor atom, score
      L1  H     7    37       P1 10186  1.95
      P1  H  6896  6907       L1    17  0.93

> <Gold.PLP.Chemscore.Internal.Correction>
0.0163

> <Gold.Rescore>
     Score         DG    S(hbond)    S(metal)    S(lipo)     H(rot)  DE(clash)    DE(int)     intcor
     14.38     -15.19       1.97        0.00      65.10       1.76       0.37       0.44       ----

> <Gold.Chemscore.Fitness>
14.3769

> <Gold.Chemscore.DG>
-15.1865

> <Gold.Chemscore.ZeroCoef>
-5.4800

> <Gold.Chemscore.Hbond>
1.9738

> <Gold.Chemscore.Metal>
0.0000

> <Gold.Chemscore.Lipo>
65.1004

> <Gold.Chemscore.Internal_Hbond>
0.0000

> <Gold.Chemscore.DEClash>
0.3668

> <Gold.Chemscore.DEInternal>
0.4429

> <Gold.Chemscore.Rot>
1.7589

> <Gold.Chemscore.Internal.Correction>
   9.000000E+99

> <Gold.Chemscore.Hbonds>
donor molecule, donor type, donor heavy atom, donor atom, acceptor molecule, acceptor atom, score
      L1  H     7    37       P1 10186  0.93
      P1  H  6896  6907       L1    17  0.88

> <Gold.Chemscore.Hbond.Weighted>
-6.5926

> <Gold.Chemscore.Metal.Weighted>
-0.0000

> <Gold.Chemscore.Lipo.Weighted>
-7.6167

> <Gold.Chemscore.Internal_Hbond.Weighted>
0.0000

> <Gold.Chemscore.DEClash.Weighted>
0.3668

> <Gold.Chemscore.DEInternal.Weighted>
0.4429

> <Gold.Chemscore.Rot.Weighted>
4.5028

> <Gold.Chemscore.Internal.Correction.Weighted>
   9.000000E+99

> <Gold.Protein.RotatedTorsions>
[ 6907 6896 6895 6894 ] final  177.66 input  -60.11 | X-H torsion
[ 7974 7965 7964 7962 ] final -126.79 input  175.53 | X-H torsion
[ 8008 7997 7996 7995 ] final  -47.64 input   59.86 | X-H torsion
[ 10167 10162 10161 10158 ] final  -40.70 input  -65.29 | X-H torsion
[ 10718 10713 10712 10709 ] final  -53.99 input   66.30 | X-H torsion
[ 10763 10752 10751 10750 ] final    2.92 input  -60.55 | X-H torsion
[ 11005 11000 10999 10996 ] final    5.14 input  -57.11 | X-H torsion

> <Gold.Protein.ActiveResidues>
 VAL166  LYS551  ARG553  GLY616  TRP617  ASP618  TYR619  PRO620  LYS621  CYS622 
 ASP623  PHE694  ASN695  SER759  ASP760  ASP761  ALA762  ILE779  LEU786  VAL792 
 PHE793  MET794  SER795  GLU796  ALA797  LYS798  CYS799  TRP800  GLU811  SER814 

> <Gold.Protein.RotatedAtoms>
  151.7004  133.3311  159.3264 H   0  0  0  0  0  0  0  0  0  0  0  0  # atno 6907 bound_to 6896
  150.7738  134.6621  159.6354 H   0  0  0  0  0  0  0  0  0  0  0  0  # atno 6908 bound_to 6896
  152.3773  134.6647  160.0207 H   0  0  0  0  0  0  0  0  0  0  0  0  # atno 6909 bound_to 6896
  144.9837  140.7665  143.4597 H   0  0  0  0  0  0  0  0  0  0  0  0  # atno 7974 bound_to 7965
  154.4019  140.1341  156.4209 H   0  0  0  0  0  0  0  0  0  0  0  0  # atno 8008 bound_to 7997
  155.7644  140.3485  155.5194 H   0  0  0  0  0  0  0  0  0  0  0  0  # atno 8009 bound_to 7997
  155.8828  140.0990  157.1464 H   0  0  0  0  0  0  0  0  0  0  0  0  # atno 8010 bound_to 7997
  140.7026  143.3138  151.2961 H   0  0  0  0  0  0  0  0  0  0  0  0  # atno 10167 bound_to 10162
  156.1489  130.4152  149.9978 H   0  0  0  0  0  0  0  0  0  0  0  0  # atno 10718 bound_to 10713
  153.2896  135.6947  153.7306 H   0  0  0  0  0  0  0  0  0  0  0  0  # atno 10763 bound_to 10752
  153.6261  135.3418  155.3027 H   0  0  0  0  0  0  0  0  0  0  0  0  # atno 10764 bound_to 10752
  154.8520  135.4398  154.1975 H   0  0  0  0  0  0  0  0  0  0  0  0  # atno 10765 bound_to 10752
  140.5740  134.0075  155.8020 H   0  0  0  0  0  0  0  0  0  0  0  0  # atno 11005 bound_to 11000
  145.2385  139.2083  143.5005 LP  0  0  0  0  0  0  0  0  0  0  0  0  # atno 17320 bound_to 7965
  146.3414  140.2275  142.8592 LP  0  0  0  0  0  0  0  0  0  0  0  0  # atno 17321 bound_to 7965
  139.6570  144.0258  152.2666 LP  0  0  0  0  0  0  0  0  0  0  0  0  # atno 17342 bound_to 10162
  139.9813  144.6426  150.7898 LP  0  0  0  0  0  0  0  0  0  0  0  0  # atno 17343 bound_to 10162
  156.7842  130.9232  151.3646 LP  0  0  0  0  0  0  0  0  0  0  0  0  # atno 17370 bound_to 10713
  157.6640  130.8991  149.9891 LP  0  0  0  0  0  0  0  0  0  0  0  0  # atno 17371 bound_to 10713
  141.1038  133.9726  157.3033 LP  0  0  0  0  0  0  0  0  0  0  0  0  # atno 17394 bound_to 11000
  139.9348  135.0197  156.8520 LP  0  0  0  0  0  0  0  0  0  0  0  0  # atno 17395 bound_to 11000

$$$$
