#       Name:                AV-unprocessed.smi:1836
#       Creating user name   scv26
#       Creation time:       Fri Mar 27 09:17:47 2020


#       File generated by GOLD software.
#

@<TRIPOS>MOLECULE
AV-unprocessed.smi:1836
    39    40     1
SMALL
NO_CHARGES


@<TRIPOS>ATOM
      1 ****        -0.6450   3.4376  -0.9206 C.3            1 S1                 0.0000
      2 ****        -0.2435   1.9726  -0.7031 C.3            1 S1                 0.0000
      3 ****         1.2669   1.8507  -0.3994 C.3            1 S1                 0.0000
      4 ****         1.7395   0.4680  -0.4631 N.am           1 S1                 0.0000
      5 ****         2.1576  -0.1145  -1.7273 C.3            1 S1                 0.0000
      6 ****         2.3500  -1.6077  -1.4288 C.3            1 S1                 0.0000
      7 ****         2.4153  -1.7196   0.0978 C.3            1 S1                 0.0000
      8 ****         1.9110  -0.3667   0.5700 C.2            1 S1                 0.0000
      9 ****         1.6989  -0.1122   1.7546 O.2            1 S1                 0.0000
     10 ****        -1.0475   1.4316   0.3927 N.am           1 S1                 0.0000
     11 ****        -1.6021   0.2109   0.4447 C.2            1 S1                 0.0000
     12 ****        -1.4634  -0.5714  -0.4989 O.2            1 S1                 0.0000
     13 ****        -2.2676  -0.0362   1.5955 N.pl3          1 S1                -1.0000
     14 ****        -2.8057  -1.2480   1.8091 C.2            1 S1                 0.0000
     15 ****        -4.1183  -1.4884   1.6610 N.2            1 S1                 0.0000
     16 ****        -4.4662  -2.8044   1.9345 N.2            1 S1                 0.0000
     17 ****        -3.4023  -3.5245   2.2897 C.2            1 S1                 0.0000
     18 ****        -1.8799  -2.6602   2.3272 S.3            1 S1                 0.0000
     19 ****        -0.0956   3.8756  -1.7542 H              1 S1                 0.0000
     20 ****        -0.4432   4.0409  -0.0348 H              1 S1                 0.0000
     21 ****        -1.7083   3.5236  -1.1477 H              1 S1                 0.0000
     22 ****        -0.4637   1.4423  -1.6312 H              1 S1                 0.0000
     23 ****         1.8344   2.4289  -1.1298 H              1 S1                 0.0000
     24 ****         1.4974   2.2903   0.5727 H              1 S1                 0.0000
     25 ****         1.4141   0.0483  -2.5083 H              1 S1                 0.0000
     26 ****         3.0943   0.3462  -2.0437 H              1 S1                 0.0000
     27 ****         1.4965  -2.1750  -1.8029 H              1 S1                 0.0000
     28 ****         3.2449  -2.0047  -1.9086 H              1 S1                 0.0000
     29 ****         1.7932  -2.5299   0.4794 H              1 S1                 0.0000
     30 ****         3.4386  -1.8666   0.4445 H              1 S1                 0.0000
     31 ****        -1.1842   2.0311   1.1933 H              1 S1                 0.0000
     32 ****        -3.5151  -4.5698   2.5350 H              1 S1                 0.0000
     33 ****         1.3654   0.7926   2.0197 LP             1 S1                 0.0000
     34 ****         1.8599  -0.8100   2.4526 LP             1 S1                 0.0000
     35 ****        -0.9373  -0.2960  -1.3035 LP             1 S1                 0.0000
     36 ****        -1.8771  -1.4809  -0.4592 LP             1 S1                 0.0000
     37 ****        -2.3589   0.6816   2.2858 LP             1 S1                 0.0000
     38 ****        -4.7782  -0.7906   1.3821 LP             1 S1                 0.0000
     39 ****        -5.3965  -3.1659   1.8729 LP             1 S1                 0.0000
@<TRIPOS>BOND
    1    1    2 1     
    2    1   19 1     
    3    1   20 1     
    4    1   21 1     
    5    2    3 1     
    6    2   10 1     
    7    2   22 1     
    8    3    4 1     
    9    3   23 1     
   10    3   24 1     
   11    4    8 am    
   12    4    5 1     
   13    5    6 1     
   14    5   25 1     
   15    5   26 1     
   16    6    7 1     
   17    6   27 1     
   18    6   28 1     
   19    7    8 1     
   20    7   29 1     
   21    7   30 1     
   22    8    9 2     
   23   10   11 am    
   24   10   31 1     
   25   11   12 2     
   26   11   13 1     
   27   13   14 1     
   28   14   18 1     
   29   14   15 2     
   30   15   16 1     
   31   16   17 2     
   32   17   18 1     
   33   17   32 1     
   34    9   33 1     
   35    9   34 1     
   36   12   35 1     
   37   12   36 1     
   38   13   37 1     
   39   15   38 1     
   40   16   39 1     
@<TRIPOS>SUBSTRUCTURE
      1 S1             1
@<TRIPOS>SET
LONE_PAIRS      STATIC     ATOMS    <user>   **** ""
7 33 34 35 36 37 38 39
DONOR_HYDROGENS      STATIC     ATOMS    <user>   **** ""
1 31
ATOM$BLUE        STATIC     ATOMS    COLORGROUP SYSTEM
7 33 34 35 36 37 38 39
ATOM$RED        STATIC     ATOMS    COLORGROUP SYSTEM
1 31
