AV-unprocessed.smi:3056|AV-procd|sdf|11648|dock10
  -GOLD-   2272017 43D 1   1.00000     0.00000
 Structure written by MMmdl.
 48 49  0  0  0  0  0  0  0  0  2 V2000
  146.1161  143.2985  153.9262 C   0  0  0  0  0  0  0  0  0  0  0  0
  146.9071  142.0229  153.9700 C   0  0  0  0  0  0  0  0  0  0  0  0
  148.1917  141.8103  154.5436 C   0  0  0  0  0  0  0  0  0  0  0  0
  148.6074  140.5614  154.4168 N   0  0  0  0  0  0  0  0  0  0  0  0
  147.6133  139.9303  153.7514 N   0  0  0  0  0  0  0  0  0  0  0  0
  147.6955  138.5050  153.4405 C   0  0  1  0  0  0  0  0  0  0  0  0
  147.8426  137.6240  154.7019 C   0  0  0  0  0  0  0  0  0  0  0  0
  146.5575  138.0524  152.4834 C   0  0  1  0  0  0  0  0  0  0  0  0
  146.5768  138.8268  151.1557 C   0  0  0  0  0  0  0  0  0  0  0  0
  146.5838  136.5971  152.2016 N   0  3  0  0  0  0  0  0  0  0  0  0
  145.8267  135.7466  153.1449 C   0  0  0  0  0  0  0  0  0  0  0  0
  146.3986  134.3263  153.2050 C   0  0  0  0  0  0  0  0  0  0  0  0
  146.9617  133.9819  154.2437 O   0  0  0  0  0  0  0  0  0  0  0  0
  146.2815  133.5035  152.1349 N   0  0  0  0  0  0  0  0  0  0  0  0
  145.5095  133.8490  150.9392 C   0  0  0  0  0  0  0  0  0  0  0  0
  144.3133  132.8836  150.8497 C   0  0  0  0  0  0  0  0  0  0  0  0
  144.7807  131.5359  150.8208 O   0  0  0  0  0  0  0  0  0  0  0  0
  145.5714  131.1794  151.9542 C   0  0  1  0  0  0  0  0  0  0  0  0
  145.9954  129.7146  151.8011 C   0  0  0  0  0  0  0  0  0  0  0  0
  146.7813  132.1301  152.0346 C   0  0  0  0  0  0  0  0  0  0  0  0
  146.5726  140.7940  153.4762 C   0  0  0  0  0  0  0  0  0  0  0  0
  146.7125  144.1569  154.2362 H   0  0  0  0  0  0  0  0  0  0  0  0
  145.2483  143.2556  154.5844 H   0  0  0  0  0  0  0  0  0  0  0  0
  145.7491  143.5102  152.9217 H   0  0  0  0  0  0  0  0  0  0  0  0
  148.8288  142.5210  155.0493 H   0  0  0  0  0  0  0  0  0  0  0  0
  148.6299  138.3937  152.8882 H   0  0  0  0  0  0  0  0  0  0  0  0
  148.0517  136.5863  154.4443 H   0  0  0  0  0  0  0  0  0  0  0  0
  146.9430  137.6360  155.3181 H   0  0  0  0  0  0  0  0  0  0  0  0
  148.6715  137.9680  155.3215 H   0  0  0  0  0  0  0  0  0  0  0  0
  145.6010  138.2930  152.9505 H   0  0  0  0  0  0  0  0  0  0  0  0
  146.5383  139.9032  151.3263 H   0  0  0  0  0  0  0  0  0  0  0  0
  145.7154  138.5650  150.5403 H   0  0  0  0  0  0  0  0  0  0  0  0
  147.4710  138.6130  150.5701 H   0  0  0  0  0  0  0  0  0  0  0  0
  146.1634  136.4610  151.2933 H   0  0  0  0  0  0  0  0  0  0  0  0
  145.7964  136.1769  154.1439 H   0  0  0  0  0  0  0  0  0  0  0  0
  144.7902  135.6852  152.8098 H   0  0  0  0  0  0  0  0  0  0  0  0
  145.1512  134.8792  150.9451 H   0  0  0  0  0  0  0  0  0  0  0  0
  146.1408  133.7520  150.0548 H   0  0  0  0  0  0  0  0  0  0  0  0
  143.6376  133.0236  151.6951 H   0  0  0  0  0  0  0  0  0  0  0  0
  143.7374  133.0771  149.9447 H   0  0  0  0  0  0  0  0  0  0  0  0
  144.9663  131.2762  152.8575 H   0  0  0  0  0  0  0  0  0  0  0  0
  146.6012  129.3890  152.6463 H   0  0  0  0  0  0  0  0  0  0  0  0
  146.5810  129.5663  150.8936 H   0  0  0  0  0  0  0  0  0  0  0  0
  145.1244  129.0611  151.7459 H   0  0  0  0  0  0  0  0  0  0  0  0
  147.3923  132.0372  151.1354 H   0  0  0  0  0  0  0  0  0  0  0  0
  147.4309  131.8433  152.8570 H   0  0  0  0  0  0  0  0  0  0  0  0
  145.6847  140.4653  152.9564 H   0  0  0  0  0  0  0  0  0  0  0  0
  147.5434  136.2848  152.1572 H   0  0  0  0  0  0  0  0  0  0  0  0
  1  2  1  0  0  0  0
  1 22  1  0  0  0  0
  1 23  1  0  0  0  0
  1 24  1  0  0  0  0
  2 21  2  0  0  0  0
  2  3  1  0  0  0  0
  3  4  2  0  0  0  0
  3 25  1  0  0  0  0
  4  5  1  0  0  0  0
  5  6  1  0  0  0  0
  5 21  1  0  0  0  0
  6  7  1  0  0  0  0
  6  8  1  0  0  0  0
  6 26  1  0  0  0  0
  7 27  1  0  0  0  0
  7 28  1  0  0  0  0
  7 29  1  0  0  0  0
  8  9  1  0  0  0  0
  8 10  1  0  0  0  0
  8 30  1  0  0  0  0
  9 31  1  0  0  0  0
  9 32  1  0  0  0  0
  9 33  1  0  0  0  0
 10 11  1  0  0  0  0
 10 34  1  0  0  0  0
 10 48  1  0  0  0  0
 11 12  1  0  0  0  0
 11 35  1  0  0  0  0
 11 36  1  0  0  0  0
 12 13  2  0  0  0  0
 12 14  1  0  0  0  0
 14 20  1  0  0  0  0
 14 15  1  0  0  0  0
 15 16  1  0  0  0  0
 15 37  1  0  0  0  0
 15 38  1  0  0  0  0
 16 17  1  0  0  0  0
 16 39  1  0  0  0  0
 16 40  1  0  0  0  0
 17 18  1  0  0  0  0
 18 19  1  0  0  0  0
 18 20  1  0  0  0  0
 18 41  1  0  0  0  0
 19 42  1  0  0  0  0
 19 43  1  0  0  0  0
 19 44  1  0  0  0  0
 20 45  1  0  0  0  0
 20 46  1  0  0  0  0
 21 47  1  0  0  0  0
M  CHG  1  10   1
M  END
> <s_m_source_file>
AV-unprocessed.smi

> <i_m_source_file_index>
3056

> <i_lp_mmshare_version>
43012

> <i_f3d_flags>
0

> <s_epik_input>
W0NIM11jMVtjSF1ubihbY0hdMSlbQ0BIXShbQ0gzXSlbQ0BIXShbQ0gzXSlbTkhdW0NIMl1DKD1PKU4yW0NIMl1bQ0gyXU9bQ0BASF0oW0NIM10pW0NIMl0y

> <s_epik_cmdline>
J2VwaWtfcHl0aG9uJywgJy1waCcsICc3LjAnLCAnLXRuJywgJzgnLCAnLW1hJywgJzIwMCcsICctbWV0YWxfYmluZGluZycsICctaW1hZScsICc8aW5maWxlLm1hZT4nLCAnLW9tYWUnLCAnPG91dGZpbGUubWFlPic=

> <r_lp_tautomer_probability>
1

> <r_epik_Ionization_Penalty>
0.233715

> <r_epik_Ionization_Penalty_Charging>
0.233698

> <r_epik_Ionization_Penalty_Neutral>
1.68157e-05

> <r_epik_State_Penalty>
0.225221

> <r_epik_Charging_Adjusted_Penalty>
0.458919

> <i_epik_Tot_Q>
1

> <i_epik_Tot_abs_Q>
1

> <r_epik_Metal_State_Penalty>
0.225535

> <b_epik_Metal_Only>
0

> <s_lp_Force_Field>
OPLS_2005

> <r_lp_Energy>
30.0079

> <b_lp_Chiralities_Consistent>
1

> <s_lp_Variant>
AV-unprocessed.smi:3056-4

> <Gold.Version>
5.8.1

> <Gold.Id.Protein>
6NUR|6NUR_protein|mol2

> <Gold.PLP.Fitness>
45.4376

> <Gold.PLP.PLP>
-34.7646

> <Gold.PLP.part.hbond>
-1.0000

> <Gold.PLP.part.metal>
0.0000

> <Gold.PLP.part.buried>
0.2650

> <Gold.PLP.part.nonpolar>
-35.4010

> <Gold.PLP.part.repulsive>
0.3708

> <Gold.PLP.ligand.clash>
0.0000

> <Gold.PLP.ligand.torsion>
0.7935

> <Gold.PLP.Chemscore.Hbond>
2.0000

> <Gold.PLP.Chemscore.CHOScore>
2.0000

> <Gold.PLP.Chemscore.Metal>
0.0000

> <Gold.Chemscore.Hbonds>
donor molecule, donor type, donor heavy atom, donor atom, acceptor molecule, acceptor atom, score
      L1  H    10    48       P1  7948  1.46
      L1  C     3    25       P1  8028  1.00
      L1  C    21    47       P1 10175  1.00

> <Gold.PLP.Chemscore.Internal.Correction>
0.2600

> <Gold.Rescore>
     Score         DG    S(hbond)    S(metal)    S(lipo)     H(rot)  DE(clash)    DE(int)     intcor
     13.65     -14.64       0.98        0.00      88.16       1.74       0.17       0.83       ----

> <Gold.Chemscore.Fitness>
13.6453

> <Gold.Chemscore.DG>
-14.6360

> <Gold.Chemscore.ZeroCoef>
-5.4800

> <Gold.Chemscore.Hbond>
0.9831

> <Gold.Chemscore.Metal>
0.0000

> <Gold.Chemscore.Lipo>
88.1620

> <Gold.Chemscore.Internal_Hbond>
0.0000

> <Gold.Chemscore.DEClash>
0.1656

> <Gold.Chemscore.DEInternal>
0.8251

> <Gold.Chemscore.Rot>
1.7354

> <Gold.Chemscore.Internal.Correction>
   9.000000E+99

> <Gold.Chemscore.Hbonds>
donor molecule, donor type, donor heavy atom, donor atom, acceptor molecule, acceptor atom, score
      L1  H    10    48       P1  7948  0.73

> <Gold.Chemscore.Hbond.Weighted>
-3.2836

> <Gold.Chemscore.Metal.Weighted>
-0.0000

> <Gold.Chemscore.Lipo.Weighted>
-10.3150

> <Gold.Chemscore.Internal_Hbond.Weighted>
0.0000

> <Gold.Chemscore.DEClash.Weighted>
0.1656

> <Gold.Chemscore.DEInternal.Weighted>
0.8251

> <Gold.Chemscore.Rot.Weighted>
4.4426

> <Gold.Chemscore.Internal.Correction.Weighted>
   9.000000E+99

> <Gold.Protein.RotatedTorsions>
[ 6907 6896 6895 6894 ] final    3.17 input  -60.11 | X-H torsion
[ 7974 7965 7964 7962 ] final  117.93 input  175.53 | X-H torsion
[ 8008 7997 7996 7995 ] final   94.19 input   59.86 | X-H torsion
[ 10167 10162 10161 10158 ] final   65.78 input  -65.29 | X-H torsion
[ 10718 10713 10712 10709 ] final  147.86 input   66.30 | X-H torsion
[ 10763 10752 10751 10750 ] final -158.45 input  -60.55 | X-H torsion
[ 11005 11000 10999 10996 ] final -129.66 input  -57.11 | X-H torsion

> <Gold.Protein.ActiveResidues>
 VAL166  LYS551  ARG553  GLY616  TRP617  ASP618  TYR619  PRO620  LYS621  CYS622 
 ASP623  PHE694  ASN695  SER759  ASP760  ASP761  ALA762  ILE779  LEU786  VAL792 
 PHE793  MET794  SER795  GLU796  ALA797  LYS798  CYS799  TRP800  GLU811  SER814 

> <Gold.Protein.RotatedAtoms>
  151.6208  135.1032  160.0100 H   0  0  0  0  0  0  0  0  0  0  0  0  # atno 6907 bound_to 6896
  152.4159  133.7033  159.6447 H   0  0  0  0  0  0  0  0  0  0  0  0  # atno 6908 bound_to 6896
  150.8047  133.8458  159.3232 H   0  0  0  0  0  0  0  0  0  0  0  0  # atno 6909 bound_to 6896
  145.1614  139.3153  143.4515 H   0  0  0  0  0  0  0  0  0  0  0  0  # atno 7974 bound_to 7965
  156.0551  140.3303  155.7396 H   0  0  0  0  0  0  0  0  0  0  0  0  # atno 8008 bound_to 7997
  155.5541  140.0613  157.2861 H   0  0  0  0  0  0  0  0  0  0  0  0  # atno 8009 bound_to 7997
  154.4454  140.1889  156.0704 H   0  0  0  0  0  0  0  0  0  0  0  0  # atno 8010 bound_to 7997
  140.1076  144.4848  150.6998 H   0  0  0  0  0  0  0  0  0  0  0  0  # atno 10167 bound_to 10162
  157.3158  131.0895  151.1280 H   0  0  0  0  0  0  0  0  0  0  0  0  # atno 10718 bound_to 10713
  154.7555  135.3103  154.8477 H   0  0  0  0  0  0  0  0  0  0  0  0  # atno 10763 bound_to 10752
  153.9252  135.6791  153.4751 H   0  0  0  0  0  0  0  0  0  0  0  0  # atno 10764 bound_to 10752
  153.1153  135.4847  154.9034 H   0  0  0  0  0  0  0  0  0  0  0  0  # atno 10765 bound_to 10752
  140.9413  134.1189  157.4148 H   0  0  0  0  0  0  0  0  0  0  0  0  # atno 11005 bound_to 11000
  146.3482  140.1726  142.8589 LP  0  0  0  0  0  0  0  0  0  0  0  0  # atno 17320 bound_to 7965
  145.0327  140.8883  143.5100 LP  0  0  0  0  0  0  0  0  0  0  0  0  # atno 17321 bound_to 7965
  140.6944  143.2395  151.5043 LP  0  0  0  0  0  0  0  0  0  0  0  0  # atno 17342 bound_to 10162
  139.5637  144.2094  152.1731 LP  0  0  0  0  0  0  0  0  0  0  0  0  # atno 17343 bound_to 10162
  157.2585  130.6647  149.5963 LP  0  0  0  0  0  0  0  0  0  0  0  0  # atno 17370 bound_to 10713
  155.9681  130.4516  150.5742 LP  0  0  0  0  0  0  0  0  0  0  0  0  # atno 17371 bound_to 10713
  139.8821  135.0037  156.6205 LP  0  0  0  0  0  0  0  0  0  0  0  0  # atno 17394 bound_to 11000
  140.7730  133.8722  155.8507 LP  0  0  0  0  0  0  0  0  0  0  0  0  # atno 17395 bound_to 11000

$$$$
