AV-unprocessed.smi:1897|AV-procd|sdf|7695|dock2
  -GOLD-   22720 9433D 1   1.00000     0.00000
 Structure written by MMmdl.
 38 40  0  0  0  0  0  0  0  0  3 V2000
  152.9369  140.0580  160.0833 C   0  0  0  0  0  0  0  0  0  0  0  0
  152.5107  139.8580  158.6693 C   0  0  0  0  0  0  0  0  0  0  0  0
  153.1782  139.0752  157.8183 N   0  0  0  0  0  0  0  0  0  0  0  0
  152.5899  139.0472  156.5623 N   0  0  0  0  0  0  0  0  0  0  0  0
  151.4796  139.7950  156.4852 C   0  0  0  0  0  0  0  0  0  0  0  0
  150.7405  139.8818  155.3628 N   0  5  0  0  0  0  0  0  0  0  0  0
  149.4145  139.5863  155.3421 C   0  0  0  0  0  0  0  0  0  0  0  0
  148.7551  139.3396  156.3507 O   0  0  0  0  0  0  0  0  0  0  0  0
  148.8025  139.5694  154.1440 N   0  0  0  0  0  0  0  0  0  0  0  0
  147.3986  139.2721  153.8846 C   0  0  1  0  0  0  0  0  0  0  0  0
  146.9773  139.5084  152.4178 C   0  0  0  0  0  0  0  0  0  0  0  0
  146.1924  138.2535  152.0224 C   0  0  0  0  0  0  0  0  0  0  0  0
  146.8089  137.2016  152.8396 N   0  3  2  0  0  0  0  0  0  0  0  0
  146.1320  135.8906  152.9191 C   0  0  0  0  0  0  0  0  0  0  0  0
  147.0354  134.9139  153.7022 C   0  0  0  0  0  0  0  0  0  0  0  0
  147.4660  135.4865  155.0713 C   0  0  0  0  0  0  0  0  0  0  0  0
  148.0600  136.9036  154.9316 C   0  0  0  0  0  0  0  0  0  0  0  0
  147.0625  137.7923  154.1643 C   0  0  1  0  0  0  0  0  0  0  0  0
  151.0864  140.6267  157.9894 S   0  0  0  0  0  0  0  0  0  0  0  0
  152.7013  139.1717  160.6724 H   0  0  0  0  0  0  0  0  0  0  0  0
  152.4207  140.9147  160.5173 H   0  0  0  0  0  0  0  0  0  0  0  0
  154.0112  140.2377  160.1315 H   0  0  0  0  0  0  0  0  0  0  0  0
  149.3739  139.7807  153.3392 H   0  0  0  0  0  0  0  0  0  0  0  0
  146.7914  139.8933  154.5459 H   0  0  0  0  0  0  0  0  0  0  0  0
  146.3913  140.4194  152.2936 H   0  0  0  0  0  0  0  0  0  0  0  0
  147.8579  139.5975  151.7793 H   0  0  0  0  0  0  0  0  0  0  0  0
  145.1402  138.3598  152.2911 H   0  0  0  0  0  0  0  0  0  0  0  0
  146.2582  138.0342  150.9563 H   0  0  0  0  0  0  0  0  0  0  0  0
  145.1621  135.9981  153.4070 H   0  0  0  0  0  0  0  0  0  0  0  0
  145.9491  135.5101  151.9137 H   0  0  0  0  0  0  0  0  0  0  0  0
  146.5243  133.9606  153.8393 H   0  0  0  0  0  0  0  0  0  0  0  0
  147.9270  134.7006  153.1109 H   0  0  0  0  0  0  0  0  0  0  0  0
  146.6007  135.5220  155.7346 H   0  0  0  0  0  0  0  0  0  0  0  0
  148.1893  134.8223  155.5456 H   0  0  0  0  0  0  0  0  0  0  0  0
  148.2656  137.3232  155.9171 H   0  0  0  0  0  0  0  0  0  0  0  0
  149.0136  136.8531  154.4035 H   0  0  0  0  0  0  0  0  0  0  0  0
  146.1164  137.7877  154.7102 H   0  0  0  0  0  0  0  0  0  0  0  0
  147.7171  137.0368  152.4294 H   0  0  0  0  0  0  0  0  0  0  0  0
  1  2  1  0  0  0  0
  1 20  1  0  0  0  0
  1 21  1  0  0  0  0
  1 22  1  0  0  0  0
  2 19  1  0  0  0  0
  2  3  2  0  0  0  0
  3  4  1  0  0  0  0
  4  5  2  0  0  0  0
  5  6  1  0  0  0  0
  5 19  1  0  0  0  0
  6  7  1  0  0  0  0
  7  8  2  0  0  0  0
  7  9  1  0  0  0  0
  9 10  1  0  0  0  0
  9 23  1  0  0  0  0
 10 18  1  0  0  0  0
 10 11  1  0  0  0  0
 10 24  1  0  0  0  0
 11 12  1  0  0  0  0
 11 25  1  0  0  0  0
 11 26  1  0  0  0  0
 12 13  1  0  0  0  0
 12 27  1  0  0  0  0
 12 28  1  0  0  0  0
 13 18  1  0  0  0  0
 13 14  1  0  0  0  0
 13 38  1  0  0  0  0
 14 15  1  0  0  0  0
 14 29  1  0  0  0  0
 14 30  1  0  0  0  0
 15 16  1  0  0  0  0
 15 31  1  0  0  0  0
 15 32  1  0  0  0  0
 16 17  1  0  0  0  0
 16 33  1  0  0  0  0
 16 34  1  0  0  0  0
 17 18  1  0  0  0  0
 17 35  1  0  0  0  0
 17 36  1  0  0  0  0
 18 37  1  0  0  0  0
M  CHG  1   6  -1
M  CHG  1  13   1
M  END
> <s_m_source_file>
AV-unprocessed.smi

> <i_m_source_file_index>
1897

> <i_lp_mmshare_version>
43012

> <i_f3d_flags>
0

> <s_epik_input>
W0NIM11jMW5uYyhzMSlbTkhdQyg9TylbTkhdW0NASF0oW0NIMl1bQ0gyXTIpW0NAQEhdKE4yMylbQ0gyXVtDSDJdW0NIMl1bQ0gyXTM=

> <s_epik_cmdline>
J2VwaWtfcHl0aG9uJywgJy1waCcsICc3LjAnLCAnLXRuJywgJzgnLCAnLW1hJywgJzIwMCcsICctbWV0YWxfYmluZGluZycsICctaW1hZScsICc8aW5maWxlLm1hZT4nLCAnLW9tYWUnLCAnPG91dGZpbGUubWFlPic=

> <r_lp_tautomer_probability>
1

> <r_epik_Ionization_Penalty>
3.77712

> <r_epik_Ionization_Penalty_Charging>
3.67739

> <r_epik_Ionization_Penalty_Neutral>
0.0997294

> <r_epik_State_Penalty>
3.67514

> <r_epik_Charging_Adjusted_Penalty>
7.35254

> <i_epik_Tot_Q>
0

> <i_epik_Tot_abs_Q>
2

> <r_epik_Metal_State_Penalty>
0.540795

> <b_epik_Metal_Only>
1

> <s_lp_Force_Field>
OPLS_2005

> <r_lp_Energy>
34.5765

> <b_lp_Chiralities_Consistent>
1

> <s_lp_Variant>
AV-unprocessed.smi:1897-12

> <Gold.Version>
5.8.1

> <Gold.Id.Protein>
6NUR|6NUR_protein|mol2

> <Gold.PLP.Fitness>
41.2043

> <Gold.PLP.PLP>
-27.3500

> <Gold.PLP.part.hbond>
-4.7292

> <Gold.PLP.part.metal>
0.0000

> <Gold.PLP.part.buried>
1.9508

> <Gold.PLP.part.nonpolar>
-24.8293

> <Gold.PLP.part.repulsive>
0.2578

> <Gold.PLP.ligand.clash>
0.0000

> <Gold.PLP.ligand.torsion>
0.5776

> <Gold.PLP.Chemscore.Hbond>
5.0000

> <Gold.PLP.Chemscore.CHOScore>
0.0000

> <Gold.PLP.Chemscore.Metal>
0.0000

> <Gold.Chemscore.Hbonds>
donor molecule, donor type, donor heavy atom, donor atom, acceptor molecule, acceptor atom, score
      L1  H     9    23       P1  7957  0.55
      L1  H    13    38       P1  7948  2.00
      P1  H  7989  7998       L1     6  0.36
      P1  H  7997  8009       L1     3  0.30

> <Gold.PLP.Chemscore.Internal.Correction>
0.0095

> <Gold.Rescore>
     Score         DG    S(hbond)    S(metal)    S(lipo)     H(rot)  DE(clash)    DE(int)     intcor
     15.72     -19.51       2.52        0.00      69.80       1.00       2.89       0.90       ----

> <Gold.Chemscore.Fitness>
15.7169

> <Gold.Chemscore.DG>
-19.5085

> <Gold.Chemscore.ZeroCoef>
-5.4800

> <Gold.Chemscore.Hbond>
2.5215

> <Gold.Chemscore.Metal>
0.0000

> <Gold.Chemscore.Lipo>
69.8020

> <Gold.Chemscore.Internal_Hbond>
0.0000

> <Gold.Chemscore.DEClash>
2.8931

> <Gold.Chemscore.DEInternal>
0.8985

> <Gold.Chemscore.Rot>
1.0000

> <Gold.Chemscore.Internal.Correction>
   9.000000E+99

> <Gold.Chemscore.Hbonds>
donor molecule, donor type, donor heavy atom, donor atom, acceptor molecule, acceptor atom, score
      L1  H     9    23       P1  7957  0.54
      L1  H    13    38       P1  7948  0.96
      P1  H  7989  7998       L1     6  0.33

> <Gold.Chemscore.Hbond.Weighted>
-8.4217

> <Gold.Chemscore.Metal.Weighted>
-0.0000

> <Gold.Chemscore.Lipo.Weighted>
-8.1668

> <Gold.Chemscore.Internal_Hbond.Weighted>
0.0000

> <Gold.Chemscore.DEClash.Weighted>
2.8931

> <Gold.Chemscore.DEInternal.Weighted>
0.8985

> <Gold.Chemscore.Rot.Weighted>
2.5600

> <Gold.Chemscore.Internal.Correction.Weighted>
   9.000000E+99

> <Gold.Protein.RotatedTorsions>
[ 6907 6896 6895 6894 ] final -116.02 input  -60.11 | X-H torsion
[ 7974 7965 7964 7962 ] final  127.79 input  175.53 | X-H torsion
[ 8008 7997 7996 7995 ] final  157.02 input   59.86 | X-H torsion
[ 10167 10162 10161 10158 ] final -106.19 input  -65.29 | X-H torsion
[ 10718 10713 10712 10709 ] final -161.31 input   66.30 | X-H torsion
[ 10763 10752 10751 10750 ] final -177.33 input  -60.55 | X-H torsion
[ 11005 11000 10999 10996 ] final  146.94 input  -57.11 | X-H torsion

> <Gold.Protein.ActiveResidues>
 VAL166  LYS551  ARG553  GLY616  TRP617  ASP618  TYR619  PRO620  LYS621  CYS622 
 ASP623  PHE694  ASN695  SER759  ASP760  ASP761  ALA762  ILE779  LEU786  VAL792 
 PHE793  MET794  SER795  GLU796  ALA797  LYS798  CYS799  TRP800  GLU811  SER814 

> <Gold.Protein.RotatedAtoms>
  150.8023  133.8576  159.3222 H   0  0  0  0  0  0  0  0  0  0  0  0  # atno 6907 bound_to 6896
  151.6384  135.1013  160.0146 H   0  0  0  0  0  0  0  0  0  0  0  0  # atno 6908 bound_to 6896
  152.4111  133.6926  159.6434 H   0  0  0  0  0  0  0  0  0  0  0  0  # atno 6909 bound_to 6896
  145.0467  139.3917  143.5074 H   0  0  0  0  0  0  0  0  0  0  0  0  # atno 7974 bound_to 7965
  156.2389  140.1897  156.7044 H   0  0  0  0  0  0  0  0  0  0  0  0  # atno 8008 bound_to 7997
  154.6158  140.0615  156.9579 H   0  0  0  0  0  0  0  0  0  0  0  0  # atno 8009 bound_to 7997
  155.1941  140.3287  155.4356 H   0  0  0  0  0  0  0  0  0  0  0  0  # atno 8010 bound_to 7997
  140.1904  143.3896  152.1210 H   0  0  0  0  0  0  0  0  0  0  0  0  # atno 10167 bound_to 10162
  156.5944  130.8784  151.2898 H   0  0  0  0  0  0  0  0  0  0  0  0  # atno 10718 bound_to 10713
  154.5614  135.2820  155.0915 H   0  0  0  0  0  0  0  0  0  0  0  0  # atno 10763 bound_to 10752
  154.2322  135.6372  153.5183 H   0  0  0  0  0  0  0  0  0  0  0  0  # atno 10764 bound_to 10752
  153.0030  135.5540  154.6210 H   0  0  0  0  0  0  0  0  0  0  0  0  # atno 10765 bound_to 10752
  140.0834  134.9083  157.1538 H   0  0  0  0  0  0  0  0  0  0  0  0  # atno 11005 bound_to 11000
  146.3514  140.0096  142.8668 LP  0  0  0  0  0  0  0  0  0  0  0  0  # atno 17320 bound_to 7965
  145.1579  140.9657  143.4394 LP  0  0  0  0  0  0  0  0  0  0  0  0  # atno 17321 bound_to 7965
  139.5258  144.7100  151.5235 LP  0  0  0  0  0  0  0  0  0  0  0  0  # atno 17342 bound_to 10162
  140.6459  143.8795  150.6737 LP  0  0  0  0  0  0  0  0  0  0  0  0  # atno 17343 bound_to 10162
  157.7295  130.9672  150.1792 LP  0  0  0  0  0  0  0  0  0  0  0  0  # atno 17370 bound_to 10713
  156.2522  130.3702  149.8220 LP  0  0  0  0  0  0  0  0  0  0  0  0  # atno 17371 bound_to 10713
  140.3454  134.2657  155.7206 LP  0  0  0  0  0  0  0  0  0  0  0  0  # atno 17394 bound_to 11000
  141.2054  133.7860  157.0232 LP  0  0  0  0  0  0  0  0  0  0  0  0  # atno 17395 bound_to 11000

$$$$
