AV-unprocessed.smi:102|AV-procd|sdf|967|dock2
  -GOLD-   2262017513D 1   1.00000     0.00000
 Structure written by MMmdl.
 43 44  0  0  0  0  0  0  0  0  2 V2000
  154.9817  133.1532  158.2910 C   0  0  0  0  0  0  0  0  0  0  0  0
  155.0028  134.5226  157.6249 C   0  0  0  0  0  0  0  0  0  0  0  0
  155.8337  134.8062  156.7617 O   0  0  0  0  0  0  0  0  0  0  0  0
  154.0412  135.3308  158.0905 O   0  0  0  0  0  0  0  0  0  0  0  0
  154.0766  136.7175  157.7930 C   0  0  0  0  0  0  0  0  0  0  0  0
  153.0588  137.4699  158.6610 C   0  0  2  0  0  0  0  0  0  0  0  0
  151.8102  137.5789  157.9952 O   0  0  0  0  0  0  0  0  0  0  0  0
  151.1227  138.6966  158.4716 C   0  0  2  0  0  0  0  0  0  0  0  0
  150.5867  139.4588  157.2772 N   0  0  0  0  0  0  0  0  0  0  0  0
  149.2467  139.8020  157.2204 C   0  0  0  0  0  0  0  0  0  0  0  0
  148.7383  140.4657  156.1630 C   0  0  0  0  0  0  0  0  0  0  0  0
  147.4320  140.7812  156.1361 F   0  0  0  0  0  0  0  0  0  0  0  0
  149.6140  140.8311  155.0512 C   0  0  0  0  0  0  0  0  0  0  0  0
  149.1476  141.4452  154.0931 O   0  0  0  0  0  0  0  0  0  0  0  0
  150.9271  140.4664  155.1267 N   0  5  0  0  0  0  0  0  0  0  0  0
  151.4443  139.7851  156.1911 C   0  0  0  0  0  0  0  0  0  0  0  0
  152.6204  139.4265  156.2503 O   0  0  0  0  0  0  0  0  0  0  0  0
  152.0950  139.5426  159.3257 C   0  0  2  0  0  0  0  0  0  0  0  0
  152.0895  140.9175  158.9530 O   0  0  0  0  0  0  0  0  0  0  0  0
  152.7255  141.8300  159.7036 C   0  0  0  0  0  0  0  0  0  0  0  0
  152.4929  143.2498  159.2051 C   0  0  0  0  0  0  0  0  0  0  0  0
  153.4307  141.5996  160.6862 O   0  0  0  0  0  0  0  0  0  0  0  0
  153.4428  138.9051  159.0262 C   0  0  1  0  0  0  0  0  0  0  0  0
  154.2610  138.9441  160.1879 O   0  0  0  0  0  0  0  0  0  0  0  0
  155.5347  139.3637  160.1047 C   0  0  0  0  0  0  0  0  0  0  0  0
  156.1987  139.4742  161.4706 C   0  0  0  0  0  0  0  0  0  0  0  0
  156.1439  139.6366  159.0704 O   0  0  0  0  0  0  0  0  0  0  0  0
  153.9572  132.8435  158.4994 H   0  0  0  0  0  0  0  0  0  0  0  0
  155.5319  133.1837  159.2315 H   0  0  0  0  0  0  0  0  0  0  0  0
  155.4423  132.4069  157.6436 H   0  0  0  0  0  0  0  0  0  0  0  0
  155.0810  137.1069  157.9629 H   0  0  0  0  0  0  0  0  0  0  0  0
  153.8407  136.8730  156.7393 H   0  0  0  0  0  0  0  0  0  0  0  0
  152.8773  136.9029  159.5756 H   0  0  0  0  0  0  0  0  0  0  0  0
  150.2622  138.3437  159.0403 H   0  0  0  0  0  0  0  0  0  0  0  0
  148.5888  139.5282  158.0310 H   0  0  0  0  0  0  0  0  0  0  0  0
  151.8171  139.3977  160.3711 H   0  0  0  0  0  0  0  0  0  0  0  0
  152.9827  143.3965  158.2425 H   0  0  0  0  0  0  0  0  0  0  0  0
  152.8941  143.9756  159.9128 H   0  0  0  0  0  0  0  0  0  0  0  0
  151.4259  143.4387  159.0838 H   0  0  0  0  0  0  0  0  0  0  0  0
  153.8943  139.4147  158.1733 H   0  0  0  0  0  0  0  0  0  0  0  0
  156.4556  138.4837  161.8464 H   0  0  0  0  0  0  0  0  0  0  0  0
  155.5268  139.9528  162.1834 H   0  0  0  0  0  0  0  0  0  0  0  0
  157.1114  140.0671  161.4052 H   0  0  0  0  0  0  0  0  0  0  0  0
  1  2  1  0  0  0  0
  1 28  1  0  0  0  0
  1 29  1  0  0  0  0
  1 30  1  0  0  0  0
  2  3  2  0  0  0  0
  2  4  1  0  0  0  0
  4  5  1  0  0  0  0
  5  6  1  0  0  0  0
  5 31  1  0  0  0  0
  5 32  1  0  0  0  0
  6 23  1  0  0  0  0
  6  7  1  0  0  0  0
  6 33  1  0  0  0  0
  7  8  1  0  0  0  0
  8  9  1  0  0  0  0
  8 18  1  0  0  0  0
  8 34  1  0  0  0  0
  9 16  1  0  0  0  0
  9 10  1  0  0  0  0
 10 11  2  0  0  0  0
 10 35  1  0  0  0  0
 11 12  1  0  0  0  0
 11 13  1  0  0  0  0
 13 14  2  0  0  0  0
 13 15  1  0  0  0  0
 15 16  1  0  0  0  0
 16 17  2  0  0  0  0
 18 19  1  0  0  0  0
 18 23  1  0  0  0  0
 18 36  1  0  0  0  0
 19 20  1  0  0  0  0
 20 21  1  0  0  0  0
 20 22  2  0  0  0  0
 21 37  1  0  0  0  0
 21 38  1  0  0  0  0
 21 39  1  0  0  0  0
 23 24  1  0  0  0  0
 23 40  1  0  0  0  0
 24 25  1  0  0  0  0
 25 26  1  0  0  0  0
 25 27  2  0  0  0  0
 26 41  1  0  0  0  0
 26 42  1  0  0  0  0
 26 43  1  0  0  0  0
M  CHG  1  15  -1
M  END
> <s_m_source_file>
AV-unprocessed.smi

> <i_m_source_file_index>
102

> <i_lp_mmshare_version>
43012

> <i_f3d_flags>
0

> <s_epik_input>
W0NIM11DKD1PKU9bQ0gyXVtDQEBIXTFPW0NASF0oW0NAQEhdKE9DKD1PKVtDSDNdKVtDQEhdMU9DKD1PKVtDSDNdKW4yW2NIXWMoRiljKD1PKVtuSF1jMj1P

> <s_epik_cmdline>
J2VwaWtfcHl0aG9uJywgJy1waCcsICc3LjAnLCAnLXRuJywgJzgnLCAnLW1hJywgJzIwMCcsICctbWV0YWxfYmluZGluZycsICctaW1hZScsICc8aW5maWxlLm1hZT4nLCAnLW9tYWUnLCAnPG91dGZpbGUubWFlPic=

> <r_epik_Ionization_Penalty>
1.40304

> <r_epik_Ionization_Penalty_Charging>
1.43915e-08

> <r_epik_Ionization_Penalty_Neutral>
1.40304

> <r_epik_State_Penalty>
1.48536

> <r_epik_Charging_Adjusted_Penalty>
1.48536

> <i_epik_Tot_Q>
-1

> <i_epik_Tot_abs_Q>
1

> <r_epik_Metal_State_Penalty>
0.00663881

> <b_epik_Metal_Only>
0

> <s_epik_Chemistry_Notes>
This compound has an ester and may undergo hydrolysis at high or low pH. This compound contains an acetal/aminal-like group ( X-CH(R)-Y where X, Y are N, S, or O) that may be acid/base labile, releasing an aldehyde.

> <s_lp_Force_Field>
OPLS_2005

> <r_lp_Energy>
21.6407

> <b_lp_Chiralities_Consistent>
1

> <s_lp_Variant>
AV-unprocessed.smi:102-23

> <Gold.Version>
5.8.1

> <Gold.Id.Protein>
6NUR|6NUR_protein|mol2

> <Gold.PLP.Fitness>
45.7213

> <Gold.PLP.PLP>
-34.6109

> <Gold.PLP.part.hbond>
-6.8272

> <Gold.PLP.part.metal>
0.0000

> <Gold.PLP.part.buried>
-6.5836

> <Gold.PLP.part.nonpolar>
-21.9240

> <Gold.PLP.part.repulsive>
0.2987

> <Gold.PLP.ligand.clash>
0.0000

> <Gold.PLP.ligand.torsion>
1.5826

> <Gold.PLP.Chemscore.Hbond>
4.6720

> <Gold.PLP.Chemscore.CHOScore>
0.0000

> <Gold.PLP.Chemscore.Metal>
0.0000

> <Gold.Chemscore.Hbonds>
donor molecule, donor type, donor heavy atom, donor atom, acceptor molecule, acceptor atom, score
      P1  H  7989  7998       L1    15  1.00
      P1  H  7997  8008       L1    17  1.00
      P1  H  7997  8010       L1    27  1.00
      P1  H  8011  8017       L1    14  0.55
      P1  H 10752 10765       L1     3  0.66

> <Gold.PLP.Chemscore.Internal.Correction>
0.2595

> <Gold.Rescore>
     Score         DG    S(hbond)    S(metal)    S(lipo)     H(rot)  DE(clash)    DE(int)     intcor
      7.85     -14.29       4.14        0.00      44.44       4.00       0.17       6.27       ----

> <Gold.Chemscore.Fitness>
7.8500

> <Gold.Chemscore.DG>
-14.2949

> <Gold.Chemscore.ZeroCoef>
-5.4800

> <Gold.Chemscore.Hbond>
4.1444

> <Gold.Chemscore.Metal>
0.0000

> <Gold.Chemscore.Lipo>
44.4447

> <Gold.Chemscore.Internal_Hbond>
0.0000

> <Gold.Chemscore.DEClash>
0.1743

> <Gold.Chemscore.DEInternal>
6.2707

> <Gold.Chemscore.Rot>
3.9951

> <Gold.Chemscore.Internal.Correction>
   9.000000E+99

> <Gold.Chemscore.Hbonds>
donor molecule, donor type, donor heavy atom, donor atom, acceptor molecule, acceptor atom, score
      P1  H  7989  7998       L1    15  0.48
      P1  H  7997  8008       L1    17  1.00
      P1  H  7997  8010       L1    27  1.00
      P1  H  8011  8017       L1    14  0.53
      P1  H 10752 10765       L1     3  0.09

> <Gold.Chemscore.Hbond.Weighted>
-13.8423

> <Gold.Chemscore.Metal.Weighted>
-0.0000

> <Gold.Chemscore.Lipo.Weighted>
-5.2000

> <Gold.Chemscore.Internal_Hbond.Weighted>
0.0000

> <Gold.Chemscore.DEClash.Weighted>
0.1743

> <Gold.Chemscore.DEInternal.Weighted>
6.2707

> <Gold.Chemscore.Rot.Weighted>
10.2274

> <Gold.Chemscore.Internal.Correction.Weighted>
   9.000000E+99

> <Gold.Protein.RotatedTorsions>
[ 6907 6896 6895 6894 ] final -150.04 input  -60.11 | X-H torsion
[ 7974 7965 7964 7962 ] final  128.56 input  175.53 | X-H torsion
[ 8008 7997 7996 7995 ] final  -37.06 input   59.86 | X-H torsion
[ 10167 10162 10161 10158 ] final -128.36 input  -65.29 | X-H torsion
[ 10718 10713 10712 10709 ] final   36.38 input   66.30 | X-H torsion
[ 10763 10752 10751 10750 ] final  -69.73 input  -60.55 | X-H torsion
[ 11005 11000 10999 10996 ] final  -43.94 input  -57.11 | X-H torsion

> <Gold.Protein.ActiveResidues>
 VAL166  LYS551  ARG553  GLY616  TRP617  ASP618  TYR619  PRO620  LYS621  CYS622 
 ASP623  PHE694  ASN695  SER759  ASP760  ASP761  ALA762  ILE779  LEU786  VAL792 
 PHE793  MET794  SER795  GLU796  ALA797  LYS798  CYS799  TRP800  GLU811  SER814 

> <Gold.Protein.RotatedAtoms>
  151.1928  133.4657  159.2594 H   0  0  0  0  0  0  0  0  0  0  0  0  # atno 6907 bound_to 6896
  151.1146  135.0046  159.8520 H   0  0  0  0  0  0  0  0  0  0  0  0  # atno 6908 bound_to 6896
  152.5452  134.1845  159.8702 H   0  0  0  0  0  0  0  0  0  0  0  0  # atno 6909 bound_to 6896
  145.0382  139.3986  143.5115 H   0  0  0  0  0  0  0  0  0  0  0  0  # atno 7974 bound_to 7965
  154.4060  140.1614  156.2475 H   0  0  0  0  0  0  0  0  0  0  0  0  # atno 8008 bound_to 7997
  155.9148  140.3425  155.6104 H   0  0  0  0  0  0  0  0  0  0  0  0  # atno 8009 bound_to 7997
  155.7293  140.0778  157.2286 H   0  0  0  0  0  0  0  0  0  0  0  0  # atno 8010 bound_to 7997
  139.9511  143.6054  152.2475 H   0  0  0  0  0  0  0  0  0  0  0  0  # atno 10167 bound_to 10162
  157.3342  130.7513  149.6867 H   0  0  0  0  0  0  0  0  0  0  0  0  # atno 10718 bound_to 10713
  154.4076  135.6016  153.5934 H   0  0  0  0  0  0  0  0  0  0  0  0  # atno 10763 bound_to 10752
  152.9789  135.5921  154.4108 H   0  0  0  0  0  0  0  0  0  0  0  0  # atno 10764 bound_to 10752
  154.3916  135.2842  155.2129 H   0  0  0  0  0  0  0  0  0  0  0  0  # atno 10765 bound_to 10752
  141.0417  133.6777  156.2802 H   0  0  0  0  0  0  0  0  0  0  0  0  # atno 11005 bound_to 11000
  146.3506  139.9969  142.8680 LP  0  0  0  0  0  0  0  0  0  0  0  0  # atno 17320 bound_to 7965
  145.1682  140.9707  143.4337 LP  0  0  0  0  0  0  0  0  0  0  0  0  # atno 17321 bound_to 7965
  139.6627  144.7662  151.1931 LP  0  0  0  0  0  0  0  0  0  0  0  0  # atno 17342 bound_to 10162
  140.7582  143.5985  150.8724 LP  0  0  0  0  0  0  0  0  0  0  0  0  # atno 17343 bound_to 10162
  155.9699  130.4186  150.4337 LP  0  0  0  0  0  0  0  0  0  0  0  0  # atno 17370 bound_to 10713
  157.2374  131.0518  151.2457 LP  0  0  0  0  0  0  0  0  0  0  0  0  # atno 17371 bound_to 10713
  140.6222  134.5350  157.5549 LP  0  0  0  0  0  0  0  0  0  0  0  0  # atno 17394 bound_to 11000
  139.9281  134.8017  156.1010 LP  0  0  0  0  0  0  0  0  0  0  0  0  # atno 17395 bound_to 11000

$$$$
