#       Name:                AV-unprocessed.smi:1880
#       Creating user name   scv26
#       Creation time:       Fri Mar 27 09:36:01 2020


#       File generated by GOLD software.
#

@<TRIPOS>MOLECULE
AV-unprocessed.smi:1880
    43    45     1
SMALL
NO_CHARGES


@<TRIPOS>ATOM
      1 ****        -0.3415  -0.2069   0.9995 O.3            1 S1                 0.0000
      2 ****         0.1468   0.3035  -0.2258 C.3            1 S1                 0.0000
      3 ****         1.6813   0.3330  -0.1601 C.3            1 S1                 0.0000
      4 ****         2.1712  -0.9723  -0.4162 O.3            1 S1                 0.0000
      5 ****         3.5845  -1.0515  -0.3588 C.3            1 S1                 0.0000
      6 ****         3.9387  -2.4705  -0.6456 C.2            1 S1                 0.0000
      7 ****         4.2941  -3.5294   0.1435 C.2            1 S1                 0.0000
      8 ****         4.5000  -4.6306  -0.7328 C.2            1 S1                 0.0000
      9 ****         4.2563  -4.1604  -1.9919 C.2            1 S1                 0.0000
     10 ****         3.9130  -2.8440  -1.9563 O.3            1 S1                 0.0000
     11 ****        -0.4507   1.7045  -0.4594 C.3            1 S1                 0.0000
     12 ****        -1.8991   1.6766  -0.5632 N.pl3          1 S1                 0.0000
     13 ****        -2.6247   1.3958  -1.6624 C.2            1 S1                 0.0000
     14 ****        -3.9489   1.4184  -1.5411 N.2            1 S1                 0.0000
     15 ****        -4.1013   1.7513  -0.2062 C.ar           1 S1                 0.0000
     16 ****        -5.2713   1.9338   0.5649 C.ar           1 S1                 0.0000
     17 ****        -5.1815   2.2745   1.9306 C.ar           1 S1                 0.0000
     18 ****        -6.3128   2.4444   2.6552 F              1 S1                 0.0000
     19 ****        -3.9221   2.4385   2.5449 C.ar           1 S1                 0.0000
     20 ****        -3.8452   2.7653   3.8567 F              1 S1                 0.0000
     21 ****        -2.7423   2.2619   1.7967 C.ar           1 S1                 0.0000
     22 ****        -2.8368   1.9218   0.4344 C.ar           1 S1                 0.0000
     23 ****         0.0120  -1.0751   1.1224 H              1 S1                 0.0000
     24 ****        -0.1700  -0.3557  -1.0354 H              1 S1                 0.0000
     25 ****         2.0715   1.0014  -0.9295 H              1 S1                 0.0000
     26 ****         2.0289   0.7100   0.8037 H              1 S1                 0.0000
     27 ****         4.0409  -0.3886  -1.0955 H              1 S1                 0.0000
     28 ****         3.9465  -0.7618   0.6288 H              1 S1                 0.0000
     29 ****         4.3901  -3.5133   1.2191 H              1 S1                 0.0000
     30 ****         4.7888  -5.6387  -0.4746 H              1 S1                 0.0000
     31 ****         4.2784  -4.6046  -2.9762 H              1 S1                 0.0000
     32 ****        -0.1685   2.3832   0.3465 H              1 S1                 0.0000
     33 ****        -0.0539   2.1337  -1.3802 H              1 S1                 0.0000
     34 ****        -2.1532   1.1583  -2.6050 H              1 S1                 0.0000
     35 ****        -6.2408   1.8102   0.1057 H              1 S1                 0.0000
     36 ****        -1.7768   2.3822   2.2650 H              1 S1                 0.0000
     37 ****        -1.3403  -0.2492   0.9738 LP             1 S1                 0.0000
     38 ****        -0.0522   0.3854   1.7515 LP             1 S1                 0.0000
     39 ****         1.8727  -1.2518  -1.3288 LP             1 S1                 0.0000
     40 ****         1.7886  -1.5961   0.2653 LP             1 S1                 0.0000
     41 ****         4.5683  -2.3021  -2.4825 LP             1 S1                 0.0000
     42 ****         2.9957  -2.7162  -2.3337 LP             1 S1                 0.0000
     43 ****        -4.6498   1.2415  -2.2322 LP             1 S1                 0.0000
@<TRIPOS>BOND
    1    1    2 1     
    2    1   23 1     
    3    2    3 1     
    4    2   11 1     
    5    2   24 1     
    6    3    4 1     
    7    3   25 1     
    8    3   26 1     
    9    4    5 1     
   10    5    6 1     
   11    5   27 1     
   12    5   28 1     
   13    6   10 1     
   14    6    7 2     
   15    7    8 1     
   16    7   29 1     
   17    8    9 2     
   18    8   30 1     
   19    9   10 1     
   20    9   31 1     
   21   11   12 1     
   22   11   32 1     
   23   11   33 1     
   24   12   22 1     
   25   12   13 1     
   26   13   14 2     
   27   13   34 1     
   28   14   15 1     
   29   15   22 ar    
   30   15   16 ar    
   31   16   17 ar    
   32   16   35 1     
   33   17   18 1     
   34   17   19 ar    
   35   19   20 1     
   36   19   21 ar    
   37   21   22 ar    
   38   21   36 1     
   39    1   37 1     
   40    1   38 1     
   41    4   39 1     
   42    4   40 1     
   43   10   41 1     
   44   10   42 1     
   45   14   43 1     
@<TRIPOS>SUBSTRUCTURE
      1 S1             1
@<TRIPOS>SET
LONE_PAIRS      STATIC     ATOMS    <user>   **** ""
7 37 38 39 40 41 42 43
DONOR_HYDROGENS      STATIC     ATOMS    <user>   **** ""
1 23
ATOM$BLUE        STATIC     ATOMS    COLORGROUP SYSTEM
7 37 38 39 40 41 42 43
ATOM$RED        STATIC     ATOMS    COLORGROUP SYSTEM
1 23
