#       Name:                AV-unprocessed.smi:3101
#       Creating user name   scv26
#       Creation time:       Fri Mar 27 17:18:17 2020


#       File generated by GOLD software.
#

@<TRIPOS>MOLECULE
AV-unprocessed.smi:3101
    34    35     1
SMALL
NO_CHARGES


@<TRIPOS>ATOM
      1 ****        -1.6929  -0.9830   2.2029 C.3            1 S1                 0.0000
      2 ****        -2.3186   0.0075   1.2053 C.3            1 S1                 0.0000
      3 ****        -2.3948   1.4436   1.6982 C.3            1 S1                 0.0000
      4 ****        -2.4354   2.2615   0.4030 C.3            1 S1                 0.0000
      5 ****        -2.1738   1.3513  -0.6667 O.3            1 S1                 0.0000
      6 ****        -1.6306   0.1343  -0.1654 C.3            1 S1                 0.0000
      7 ****        -0.0911   0.2352  -0.1563 C.2            1 S1                 0.0000
      8 ****         0.4837   0.9718   0.6463 O.2            1 S1                 0.0000
      9 ****         0.5389  -0.5130  -1.0808 N.am           1 S1                 0.0000
     10 ****         1.9352  -0.6442  -1.3012 C.ar           1 S1                 0.0000
     11 ****         2.3113  -1.4786  -2.3804 C.ar           1 S1                 0.0000
     12 ****         3.6018  -1.7060  -2.7119 N.ar           1 S1                 0.0000
     13 ****         4.5364  -1.0926  -1.9551 C.ar           1 S1                 0.0000
     14 ****         4.1810  -0.2587  -0.8760 C.ar           1 S1                 0.0000
     15 ****         2.8891  -0.0356  -0.5505 N.ar           1 S1                 0.0000
     16 ****        -0.6886  -0.6846   2.5034 H              1 S1                 0.0000
     17 ****        -1.6300  -1.9821   1.7716 H              1 S1                 0.0000
     18 ****        -2.2963  -1.0512   3.1082 H              1 S1                 0.0000
     19 ****        -3.3399  -0.3258   1.0139 H              1 S1                 0.0000
     20 ****        -3.2666   1.6181   2.3295 H              1 S1                 0.0000
     21 ****        -1.5091   1.7055   2.2783 H              1 S1                 0.0000
     22 ****        -3.4107   2.7247   0.2513 H              1 S1                 0.0000
     23 ****        -1.6856   3.0532   0.4162 H              1 S1                 0.0000
     24 ****        -1.9331  -0.6882  -0.8155 H              1 S1                 0.0000
     25 ****        -0.0518  -1.0542  -1.6953 H              1 S1                 0.0000
     26 ****         1.5673  -1.9721  -2.9888 H              1 S1                 0.0000
     27 ****         5.5711  -1.2675  -2.2103 H              1 S1                 0.0000
     28 ****         4.9328   0.2294  -0.2737 H              1 S1                 0.0000
     29 ****        -1.5208   1.7669  -1.2999 LP             1 S1                 0.0000
     30 ****        -3.0278   1.1564  -1.1490 LP             1 S1                 0.0000
     31 ****        -0.0479   1.5110   1.2995 LP             1 S1                 0.0000
     32 ****         1.4820   1.0307   0.6447 LP             1 S1                 0.0000
     33 ****         3.8514  -2.2980  -3.4782 LP             1 S1                 0.0000
     34 ****         2.6438   0.5572   0.2166 LP             1 S1                 0.0000
@<TRIPOS>BOND
    1    1    2 1     
    2    1   16 1     
    3    1   17 1     
    4    1   18 1     
    5    2    6 1     
    6    2    3 1     
    7    2   19 1     
    8    3    4 1     
    9    3   20 1     
   10    3   21 1     
   11    4    5 1     
   12    4   22 1     
   13    4   23 1     
   14    5    6 1     
   15    6    7 1     
   16    6   24 1     
   17    7    8 2     
   18    7    9 am    
   19    9   10 1     
   20    9   25 1     
   21   10   15 ar    
   22   10   11 ar    
   23   11   12 ar    
   24   11   26 1     
   25   12   13 ar    
   26   13   14 ar    
   27   13   27 1     
   28   14   15 ar    
   29   14   28 1     
   30    5   29 1     
   31    5   30 1     
   32    8   31 1     
   33    8   32 1     
   34   12   33 1     
   35   15   34 1     
@<TRIPOS>SUBSTRUCTURE
      1 S1             1
@<TRIPOS>SET
LONE_PAIRS      STATIC     ATOMS    <user>   **** ""
6 29 30 31 32 33 34
DONOR_HYDROGENS      STATIC     ATOMS    <user>   **** ""
1 25
ATOM$BLUE        STATIC     ATOMS    COLORGROUP SYSTEM
6 29 30 31 32 33 34
ATOM$RED        STATIC     ATOMS    COLORGROUP SYSTEM
1 25
