#       Name:                AV-unprocessed.smi:1978
#       Creating user name   scv26
#       Creation time:       Fri Mar 27 10:19:48 2020


#       File generated by GOLD software.
#

@<TRIPOS>MOLECULE
AV-unprocessed.smi:1978
    50    51     1
SMALL
NO_CHARGES


@<TRIPOS>ATOM
      1 ****        -6.5524   5.4616   0.2210 C.3            1 S1                 0.0000
      2 ****        -5.6291   4.2985   0.3459 C.2            1 S1                 0.0000
      3 ****        -4.2696   4.1798   0.2799 C.2            1 S1                 0.0000
      4 ****        -4.0580   2.7893   0.4795 C.2            1 S1                 0.0000
      5 ****        -2.7444   2.2498   0.4762 N.am           1 S1                 0.0000
      6 ****        -2.3572   0.9718   0.6416 C.2            1 S1                 0.0000
      7 ****        -3.1954   0.0875   0.8535 O.2            1 S1                 0.0000
      8 ****        -1.0072   0.8275   0.5458 N.pl3          1 S1                -1.0000
      9 ****        -0.2971  -0.4445   0.6766 C.3            1 S1                 0.0000
     10 ****         1.1913  -0.2862   0.2321 C.3            1 S1                 0.0000
     11 ****         1.9570   0.5582   1.2973 C.3            1 S1                 0.0000
     12 ****         1.8113  -1.6328  -0.0526 N.4            1 S1                 1.0000
     13 ****         1.4315  -2.2366  -1.3718 C.3            1 S1                 0.0000
     14 ****         1.7684  -3.7370  -1.4015 C.3            1 S1                 0.0000
     15 ****         3.2534  -3.9845  -1.1136 C.3            1 S1                 0.0000
     16 ****         3.6683  -3.2773   0.1858 C.3            1 S1                 0.0000
     17 ****         3.2849  -1.7814   0.1893 C.3            1 S1                 0.0000
     18 ****         4.1626  -0.9669  -0.7925 C.3            1 S1                 0.0000
     19 ****        -5.1885   2.1204   0.6517 N.2            1 S1                 0.0000
     20 ****        -6.2006   3.0838   0.5670 O.3            1 S1                 0.0000
     21 ****        -6.0162   6.4005   0.3590 H              1 S1                 0.0000
     22 ****        -7.3436   5.4117   0.9693 H              1 S1                 0.0000
     23 ****        -7.0183   5.4795  -0.7641 H              1 S1                 0.0000
     24 ****        -3.5447   4.9624   0.1137 H              1 S1                 0.0000
     25 ****        -2.0017   2.9145   0.3190 H              1 S1                 0.0000
     26 ****        -0.3254  -0.8268   1.6977 H              1 S1                 0.0000
     27 ****        -0.7783  -1.2144   0.0745 H              1 S1                 0.0000
     28 ****         1.2244   0.2716  -0.7056 H              1 S1                 0.0000
     29 ****         1.4888   1.5281   1.4788 H              1 S1                 0.0000
     30 ****         2.9721   0.8005   0.9923 H              1 S1                 0.0000
     31 ****         2.0234   0.0486   2.2608 H              1 S1                 0.0000
     32 ****         0.3675  -2.1378  -1.5799 H              1 S1                 0.0000
     33 ****         1.9302  -1.7125  -2.1867 H              1 S1                 0.0000
     34 ****         1.1615  -4.2582  -0.6599 H              1 S1                 0.0000
     35 ****         1.5021  -4.1606  -2.3703 H              1 S1                 0.0000
     36 ****         3.4458  -5.0549  -1.0348 H              1 S1                 0.0000
     37 ****         3.8567  -3.6280  -1.9486 H              1 S1                 0.0000
     38 ****         3.1825  -3.7716   1.0284 H              1 S1                 0.0000
     39 ****         4.7408  -3.3932   0.3460 H              1 S1                 0.0000
     40 ****         3.5099  -1.4395   1.1984 H              1 S1                 0.0000
     41 ****         5.2066  -0.9912  -0.4794 H              1 S1                 0.0000
     42 ****         3.8687   0.0793  -0.8517 H              1 S1                 0.0000
     43 ****         4.1291  -1.3575  -1.8083 H              1 S1                 0.0000
     44 ****         1.3874  -2.2313   0.6419 H              1 S1                 0.0000
     45 ****        -4.1666   0.3206   0.9026 LP             1 S1                 0.0000
     46 ****        -2.9019  -0.8606   0.9756 LP             1 S1                 0.0000
     47 ****        -0.4627   1.6485   0.3739 LP             1 S1                 0.0000
     48 ****        -5.2957   1.1386   0.8084 LP             1 S1                 0.0000
     49 ****        -6.8166   2.8593  -0.1881 LP             1 S1                 0.0000
     50 ****        -6.7169   3.1056   1.4231 LP             1 S1                 0.0000
@<TRIPOS>BOND
    1    1    2 1     
    2    1   21 1     
    3    1   22 1     
    4    1   23 1     
    5    2   20 1     
    6    2    3 2     
    7    3    4 1     
    8    3   24 1     
    9    4    5 1     
   10    4   19 2     
   11    5    6 am    
   12    5   25 1     
   13    6    7 2     
   14    6    8 1     
   15    8    9 1     
   16    9   10 1     
   17    9   26 1     
   18    9   27 1     
   19   10   11 1     
   20   10   12 1     
   21   10   28 1     
   22   11   29 1     
   23   11   30 1     
   24   11   31 1     
   25   12   17 1     
   26   12   13 1     
   27   12   44 1     
   28   13   14 1     
   29   13   32 1     
   30   13   33 1     
   31   14   15 1     
   32   14   34 1     
   33   14   35 1     
   34   15   16 1     
   35   15   36 1     
   36   15   37 1     
   37   16   17 1     
   38   16   38 1     
   39   16   39 1     
   40   17   18 1     
   41   17   40 1     
   42   18   41 1     
   43   18   42 1     
   44   18   43 1     
   45   19   20 1     
   46    7   45 1     
   47    7   46 1     
   48    8   47 1     
   49   19   48 1     
   50   20   49 1     
   51   20   50 1     
@<TRIPOS>SUBSTRUCTURE
      1 S1             1
@<TRIPOS>SET
LONE_PAIRS      STATIC     ATOMS    <user>   **** ""
6 45 46 47 48 49 50
DONOR_HYDROGENS      STATIC     ATOMS    <user>   **** ""
2 25 44
ATOM$BLUE        STATIC     ATOMS    COLORGROUP SYSTEM
6 45 46 47 48 49 50
ATOM$RED        STATIC     ATOMS    COLORGROUP SYSTEM
2 25 44
