#       Name:                AV-unprocessed.smi:3208
#       Creating user name   scv26
#       Creation time:       Fri Mar 27 18:09:40 2020


#       File generated by GOLD software.
#

@<TRIPOS>MOLECULE
AV-unprocessed.smi:3208
    37    37     1
SMALL
NO_CHARGES


@<TRIPOS>ATOM
      1 ****        -4.2018  -1.9514  -1.5351 C.2            1 S1                 0.0000
      2 ****        -3.6385  -0.7426  -1.3809 C.2            1 S1                 0.0000
      3 ****        -2.1524  -0.4729  -1.2511 C.3            1 S1                 0.0000
      4 ****        -1.3882  -1.6734  -1.3161 O.3            1 S1                 0.0000
      5 ****         0.0268  -1.5024  -1.3433 C.3            1 S1                 0.0000
      6 ****         0.6495  -2.8530  -1.7276 C.3            1 S1                 0.0000
      7 ****         0.5362  -1.0126   0.0225 C.2            1 S1                 0.0000
      8 ****         0.5578  -1.7859   0.9807 O.2            1 S1                 0.0000
      9 ****         0.9196   0.2768   0.0709 N.am           1 S1                 0.0000
     10 ****         1.4214   1.0133   1.1790 C.ar           1 S1                 0.0000
     11 ****         1.6324   0.4621   2.4008 N.ar           1 S1                 0.0000
     12 ****         2.1127   1.2306   3.4004 C.ar           1 S1                 0.0000
     13 ****         2.4131   2.5955   3.2448 C.ar           1 S1                 0.0000
     14 ****         2.2000   3.1808   1.9847 C.ar           1 S1                 0.0000
     15 ****         1.6982   2.3831   0.9366 C.ar           1 S1                 0.0000
     16 ****         1.4869   2.9466  -0.2916 O.3            1 S1                 0.0000
     17 ****        -3.6095  -2.8535  -1.5794 H              1 S1                 0.0000
     18 ****        -5.2736  -2.0527  -1.6198 H              1 S1                 0.0000
     19 ****        -4.2775   0.1274  -1.3430 H              1 S1                 0.0000
     20 ****        -1.8575   0.2027  -2.0550 H              1 S1                 0.0000
     21 ****        -1.9855   0.0453  -0.3066 H              1 S1                 0.0000
     22 ****         0.2878  -0.7769  -2.1163 H              1 S1                 0.0000
     23 ****         1.7385  -2.7974  -1.7445 H              1 S1                 0.0000
     24 ****         0.3204  -3.1604  -2.7205 H              1 S1                 0.0000
     25 ****         0.3642  -3.6409  -1.0294 H              1 S1                 0.0000
     26 ****         0.8351   0.8001  -0.7885 H              1 S1                 0.0000
     27 ****         2.2618   0.7424   4.3520 H              1 S1                 0.0000
     28 ****         2.7962   3.1770   4.0703 H              1 S1                 0.0000
     29 ****         2.4181   4.2268   1.8258 H              1 S1                 0.0000
     30 ****         1.7073   3.8652  -0.3208 H              1 S1                 0.0000
     31 ****        -1.6549  -2.1632  -2.1461 LP             1 S1                 0.0000
     32 ****        -1.6158  -2.2267  -0.5148 LP             1 S1                 0.0000
     33 ****         0.2447  -2.7290   0.8692 LP             1 S1                 0.0000
     34 ****         0.8885  -1.4707   1.8703 LP             1 S1                 0.0000
     35 ****         1.4337  -0.5051   2.5590 LP             1 S1                 0.0000
     36 ****         0.5205   2.8435  -0.5271 LP             1 S1                 0.0000
     37 ****         2.0473   2.4633  -0.9642 LP             1 S1                 0.0000
@<TRIPOS>BOND
    1    1    2 2     
    2    1   17 1     
    3    1   18 1     
    4    2    3 1     
    5    2   19 1     
    6    3    4 1     
    7    3   20 1     
    8    3   21 1     
    9    4    5 1     
   10    5    6 1     
   11    5    7 1     
   12    5   22 1     
   13    6   23 1     
   14    6   24 1     
   15    6   25 1     
   16    7    8 2     
   17    7    9 am    
   18    9   10 1     
   19    9   26 1     
   20   10   15 ar    
   21   10   11 ar    
   22   11   12 ar    
   23   12   13 ar    
   24   12   27 1     
   25   13   14 ar    
   26   13   28 1     
   27   14   15 ar    
   28   14   29 1     
   29   15   16 1     
   30   16   30 1     
   31    4   31 1     
   32    4   32 1     
   33    8   33 1     
   34    8   34 1     
   35   11   35 1     
   36   16   36 1     
   37   16   37 1     
@<TRIPOS>SUBSTRUCTURE
      1 S1             1
@<TRIPOS>SET
LONE_PAIRS      STATIC     ATOMS    <user>   **** ""
7 31 32 33 34 35 36 37
DONOR_HYDROGENS      STATIC     ATOMS    <user>   **** ""
2 26 30
ATOM$BLUE        STATIC     ATOMS    COLORGROUP SYSTEM
7 31 32 33 34 35 36 37
ATOM$RED        STATIC     ATOMS    COLORGROUP SYSTEM
2 26 30
