AV-unprocessed.smi:1033|AV-procd|sdf|4496|dock7
  -GOLD-   22720 2483D 1   1.00000     0.00000
 Structure written by MMmdl.
 56 58  0  0  0  0  0  0  0  0  2 V2000
  152.8174  143.3894  161.8839 C   0  0  0  0  0  0  0  0  0  0  0  0
  152.3225  142.9481  160.5179 C   0  0  0  0  0  0  0  0  0  0  0  0
  152.7988  141.7342  159.9732 C   0  0  0  0  0  0  0  0  0  0  0  0
  152.3674  141.2910  158.7038 C   0  0  0  0  0  0  0  0  0  0  0  0
  152.7002  140.1538  157.9887 N   0  0  0  0  0  0  0  0  0  0  0  0
  151.9778  140.3117  156.8835 C   0  0  0  0  0  0  0  0  0  0  0  0
  151.2204  141.4221  156.7932 N   0  0  0  0  0  0  0  0  0  0  0  0
  150.3601  141.8106  155.6865 C   0  0  0  0  0  0  0  0  0  0  0  0
  148.9777  141.1179  155.6978 C   0  0  2  0  0  0  0  0  0  0  0  0
  148.9654  140.1239  156.7022 O   0  0  0  0  0  0  0  0  0  0  0  0
  148.5886  140.4341  154.3687 C   0  0  0  0  0  0  0  0  0  0  0  0
  147.3429  140.9086  153.7562 N   0  0  0  0  0  0  0  0  0  0  0  0
  147.0092  140.1933  152.5253 C   0  0  0  0  0  0  0  0  0  0  0  0
  146.5278  138.7483  152.7715 C   0  0  0  0  0  0  0  0  0  0  0  0
  145.3539  138.7438  153.6854 N   0  3  0  0  0  0  0  0  0  0  0  0
  144.7908  137.3914  153.9310 C   0  0  0  0  0  0  0  0  0  0  0  0
  144.0217  136.8358  152.7158 C   0  0  1  0  0  0  0  0  0  0  0  0
  143.2742  135.5387  153.0514 C   0  0  0  0  0  0  0  0  0  0  0  0
  143.0727  137.7916  152.2866 O   0  0  0  0  0  0  0  0  0  0  0  0
  145.6700  139.4631  154.9466 C   0  0  0  0  0  0  0  0  0  0  0  0
  146.1760  140.8867  154.6403 C   0  0  0  0  0  0  0  0  0  0  0  0
  151.4381  142.1011  157.9881 C   0  0  0  0  0  0  0  0  0  0  0  0
  150.9505  143.3061  158.5244 C   0  0  0  0  0  0  0  0  0  0  0  0
  151.3949  143.7367  159.7914 C   0  0  0  0  0  0  0  0  0  0  0  0
  150.8696  145.0453  160.3538 C   0  0  0  0  0  0  0  0  0  0  0  0
  153.5257  142.6734  162.3012 H   0  0  0  0  0  0  0  0  0  0  0  0
  151.9842  143.4814  162.5809 H   0  0  0  0  0  0  0  0  0  0  0  0
  153.3201  144.3543  161.8144 H   0  0  0  0  0  0  0  0  0  0  0  0
  153.5037  141.1317  160.5270 H   0  0  0  0  0  0  0  0  0  0  0  0
  152.0057  139.5805  156.0889 H   0  0  0  0  0  0  0  0  0  0  0  0
  150.2416  142.8948  155.7051 H   0  0  0  0  0  0  0  0  0  0  0  0
  150.8779  141.5810  154.7548 H   0  0  0  0  0  0  0  0  0  0  0  0
  148.2189  141.8464  155.9810 H   0  0  0  0  0  0  0  0  0  0  0  0
  148.3177  139.4741  156.4752 H   0  0  0  0  0  0  0  0  0  0  0  0
  149.4054  140.5787  153.6602 H   0  0  0  0  0  0  0  0  0  0  0  0
  148.5382  139.3574  154.5293 H   0  0  0  0  0  0  0  0  0  0  0  0
  146.2269  140.7411  151.9979 H   0  0  0  0  0  0  0  0  0  0  0  0
  147.8694  140.1894  151.8544 H   0  0  0  0  0  0  0  0  0  0  0  0
  146.2635  138.2999  151.8149 H   0  0  0  0  0  0  0  0  0  0  0  0
  147.3300  138.1389  153.1899 H   0  0  0  0  0  0  0  0  0  0  0  0
  145.5976  136.7141  154.2156 H   0  0  0  0  0  0  0  0  0  0  0  0
  144.1107  137.4272  154.7840 H   0  0  0  0  0  0  0  0  0  0  0  0
  144.7014  136.6336  151.8887 H   0  0  0  0  0  0  0  0  0  0  0  0
  143.9676  134.7592  153.3686 H   0  0  0  0  0  0  0  0  0  0  0  0
  142.7314  135.1609  152.1840 H   0  0  0  0  0  0  0  0  0  0  0  0
  142.5530  135.6894  153.8555 H   0  0  0  0  0  0  0  0  0  0  0  0
  143.4958  138.6349  152.2254 H   0  0  0  0  0  0  0  0  0  0  0  0
  144.7722  139.5294  155.5622 H   0  0  0  0  0  0  0  0  0  0  0  0
  146.4057  138.9016  155.5240 H   0  0  0  0  0  0  0  0  0  0  0  0
  146.3877  141.4165  155.5681 H   0  0  0  0  0  0  0  0  0  0  0  0
  145.3684  141.4477  154.1678 H   0  0  0  0  0  0  0  0  0  0  0  0
  150.2441  143.8982  157.9621 H   0  0  0  0  0  0  0  0  0  0  0  0
  150.1685  145.5204  159.6668 H   0  0  0  0  0  0  0  0  0  0  0  0
  151.6898  145.7416  160.5286 H   0  0  0  0  0  0  0  0  0  0  0  0
  150.3506  144.8751  161.2973 H   0  0  0  0  0  0  0  0  0  0  0  0
  144.6266  139.2785  153.2319 H   0  0  0  0  0  0  0  0  0  0  0  0
  1  2  1  0  0  0  0
  1 26  1  0  0  0  0
  1 27  1  0  0  0  0
  1 28  1  0  0  0  0
  2 24  1  0  0  0  0
  2  3  2  0  0  0  0
  3  4  1  0  0  0  0
  3 29  1  0  0  0  0
  4 22  2  0  0  0  0
  4  5  1  0  0  0  0
  5  6  2  0  0  0  0
  6  7  1  0  0  0  0
  6 30  1  0  0  0  0
  7  8  1  0  0  0  0
  7 22  1  0  0  0  0
  8  9  1  0  0  0  0
  8 31  1  0  0  0  0
  8 32  1  0  0  0  0
  9 10  1  0  0  0  0
  9 11  1  0  0  0  0
  9 33  1  0  0  0  0
 10 34  1  0  0  0  0
 11 12  1  0  0  0  0
 11 35  1  0  0  0  0
 11 36  1  0  0  0  0
 12 21  1  0  0  0  0
 12 13  1  0  0  0  0
 13 14  1  0  0  0  0
 13 37  1  0  0  0  0
 13 38  1  0  0  0  0
 14 15  1  0  0  0  0
 14 39  1  0  0  0  0
 14 40  1  0  0  0  0
 15 16  1  0  0  0  0
 15 20  1  0  0  0  0
 15 56  1  0  0  0  0
 16 17  1  0  0  0  0
 16 41  1  0  0  0  0
 16 42  1  0  0  0  0
 17 18  1  0  0  0  0
 17 19  1  0  0  0  0
 17 43  1  0  0  0  0
 18 44  1  0  0  0  0
 18 45  1  0  0  0  0
 18 46  1  0  0  0  0
 19 47  1  0  0  0  0
 20 21  1  0  0  0  0
 20 48  1  0  0  0  0
 20 49  1  0  0  0  0
 21 50  1  0  0  0  0
 21 51  1  0  0  0  0
 22 23  1  0  0  0  0
 23 24  2  0  0  0  0
 23 52  1  0  0  0  0
 24 25  1  0  0  0  0
 25 53  1  0  0  0  0
 25 54  1  0  0  0  0
 25 55  1  0  0  0  0
M  CHG  1  15   1
M  END
> <s_m_source_file>
AV-unprocessed.smi

> <i_m_source_file_index>
1033

> <i_lp_mmshare_version>
43012

> <i_f3d_flags>
0

> <s_epik_input>
W0NIM11jKFtjSF0xKWMoW0NIM10pW2NIXWMoYzEyKW4oW2NIXW4yKVtDSDJdW0NASF0oW09IXSlbQ0gyXU4zW0NIMl1bQ0gyXU4oW0NIMl1bQ0gyXTMpW0NIMl1bQ0BIXShbQ0gzXSlbT0hd

> <s_epik_cmdline>
J2VwaWtfcHl0aG9uJywgJy1waCcsICc3LjAnLCAnLXRuJywgJzgnLCAnLW1hJywgJzIwMCcsICctbWV0YWxfYmluZGluZycsICctaW1hZScsICc8aW5maWxlLm1hZT4nLCAnLW9tYWUnLCAnPG91dGZpbGUubWFlPic=

> <r_epik_Ionization_Penalty>
0.129152

> <r_epik_Ionization_Penalty_Charging>
0.00083231

> <r_epik_Ionization_Penalty_Neutral>
0.128319

> <r_epik_State_Penalty>
0.556973

> <r_epik_Charging_Adjusted_Penalty>
0.557805

> <i_epik_Tot_Q>
1

> <i_epik_Tot_abs_Q>
1

> <r_epik_Metal_State_Penalty>
0.490047

> <b_epik_Metal_Only>
0

> <s_lp_Force_Field>
OPLS_2005

> <r_lp_Energy>
31.9095

> <b_lp_Chiralities_Consistent>
1

> <s_lp_Variant>
AV-unprocessed.smi:1033-7

> <Gold.Version>
5.8.1

> <Gold.Id.Protein>
6NUR|6NUR_protein|mol2

> <Gold.PLP.Fitness>
54.3260

> <Gold.PLP.PLP>
-45.9869

> <Gold.PLP.part.hbond>
-4.0000

> <Gold.PLP.part.metal>
0.0000

> <Gold.PLP.part.buried>
-3.9628

> <Gold.PLP.part.nonpolar>
-37.9418

> <Gold.PLP.part.repulsive>
0.1561

> <Gold.PLP.ligand.clash>
0.0000

> <Gold.PLP.ligand.torsion>
1.9516

> <Gold.PLP.Chemscore.Hbond>
3.9920

> <Gold.PLP.Chemscore.CHOScore>
0.0000

> <Gold.PLP.Chemscore.Metal>
0.0000

> <Gold.Chemscore.Hbonds>
donor molecule, donor type, donor heavy atom, donor atom, acceptor molecule, acceptor atom, score
      L1  H    15    56       P1 10175  2.00
      L1  H    19    47       P1 10175  1.00
      P1  H  7997  8010       L1     5  0.57

> <Gold.PLP.Chemscore.Internal.Correction>
0.2664

> <Gold.Rescore>
     Score         DG    S(hbond)    S(metal)    S(lipo)     H(rot)  DE(clash)    DE(int)     intcor
     17.33     -20.54       2.28        0.00     130.66       3.07       0.45       2.76       ----

> <Gold.Chemscore.Fitness>
17.3332

> <Gold.Chemscore.DG>
-20.5446

> <Gold.Chemscore.ZeroCoef>
-5.4800

> <Gold.Chemscore.Hbond>
2.2825

> <Gold.Chemscore.Metal>
0.0000

> <Gold.Chemscore.Lipo>
130.6642

> <Gold.Chemscore.Internal_Hbond>
0.0000

> <Gold.Chemscore.DEClash>
0.4537

> <Gold.Chemscore.DEInternal>
2.7577

> <Gold.Chemscore.Rot>
3.0650

> <Gold.Chemscore.Internal.Correction>
   9.000000E+99

> <Gold.Chemscore.Hbonds>
donor molecule, donor type, donor heavy atom, donor atom, acceptor molecule, acceptor atom, score
      L1  H    15    56       P1 10175  1.00
      L1  H    19    47       P1 10175  0.98
      P1  H  7997  8010       L1     5  0.12

> <Gold.Chemscore.Hbond.Weighted>
-7.6234

> <Gold.Chemscore.Metal.Weighted>
-0.0000

> <Gold.Chemscore.Lipo.Weighted>
-15.2877

> <Gold.Chemscore.Internal_Hbond.Weighted>
0.0000

> <Gold.Chemscore.DEClash.Weighted>
0.4537

> <Gold.Chemscore.DEInternal.Weighted>
2.7577

> <Gold.Chemscore.Rot.Weighted>
7.8465

> <Gold.Chemscore.Internal.Correction.Weighted>
   9.000000E+99

> <Gold.Protein.RotatedTorsions>
[ 6907 6896 6895 6894 ] final   51.95 input  -60.11 | X-H torsion
[ 7974 7965 7964 7962 ] final  -38.48 input  175.53 | X-H torsion
[ 8008 7997 7996 7995 ] final   28.63 input   59.86 | X-H torsion
[ 10167 10162 10161 10158 ] final   78.03 input  -65.29 | X-H torsion
[ 10718 10713 10712 10709 ] final -128.47 input   66.30 | X-H torsion
[ 10763 10752 10751 10750 ] final   77.02 input  -60.55 | X-H torsion
[ 11005 11000 10999 10996 ] final -106.91 input  -57.11 | X-H torsion

> <Gold.Protein.ActiveResidues>
 VAL166  LYS551  ARG553  GLY616  TRP617  ASP618  TYR619  PRO620  LYS621  CYS622 
 ASP623  PHE694  ASN695  SER759  ASP760  ASP761  ALA762  ILE779  LEU786  VAL792 
 PHE793  MET794  SER795  GLU796  ALA797  LYS798  CYS799  TRP800  GLU811  SER814 

> <Gold.Protein.RotatedAtoms>
  152.3181  134.7414  160.0320 H   0  0  0  0  0  0  0  0  0  0  0  0  # atno 6907 bound_to 6896
  151.7872  133.3350  159.3496 H   0  0  0  0  0  0  0  0  0  0  0  0  # atno 6908 bound_to 6896
  150.7355  134.5807  159.5982 H   0  0  0  0  0  0  0  0  0  0  0  0  # atno 6909 bound_to 6896
  146.0483  140.6516  142.9054 H   0  0  0  0  0  0  0  0  0  0  0  0  # atno 7974 bound_to 7965
  155.0618  140.3191  155.4658 H   0  0  0  0  0  0  0  0  0  0  0  0  # atno 8008 bound_to 7997
  156.2811  140.2127  156.5689 H   0  0  0  0  0  0  0  0  0  0  0  0  # atno 8009 bound_to 7997
  154.7126  140.0497  157.0552 H   0  0  0  0  0  0  0  0  0  0  0  0  # atno 8010 bound_to 7997
  139.9752  144.5866  150.7949 H   0  0  0  0  0  0  0  0  0  0  0  0  # atno 10167 bound_to 10162
  156.1954  130.6822  151.0475 H   0  0  0  0  0  0  0  0  0  0  0  0  # atno 10718 bound_to 10713
  153.0767  135.4930  154.8420 H   0  0  0  0  0  0  0  0  0  0  0  0  # atno 10763 bound_to 10752
  154.7097  135.3017  154.9218 H   0  0  0  0  0  0  0  0  0  0  0  0  # atno 10764 bound_to 10752
  153.9916  135.6777  153.4807 H   0  0  0  0  0  0  0  0  0  0  0  0  # atno 10765 bound_to 10752
  141.0981  133.8935  157.1913 H   0  0  0  0  0  0  0  0  0  0  0  0  # atno 11005 bound_to 11000
  144.7109  140.4035  143.7081 LP  0  0  0  0  0  0  0  0  0  0  0  0  # atno 17320 bound_to 7965
  145.6768  139.1610  143.2723 LP  0  0  0  0  0  0  0  0  0  0  0  0  # atno 17321 bound_to 7965
  140.7508  143.2962  151.3199 LP  0  0  0  0  0  0  0  0  0  0  0  0  # atno 17342 bound_to 10162
  139.6451  144.0466  152.2584 LP  0  0  0  0  0  0  0  0  0  0  0  0  # atno 17343 bound_to 10162
  157.6954  131.0796  150.6984 LP  0  0  0  0  0  0  0  0  0  0  0  0  # atno 17370 bound_to 10713
  156.7041  130.4632  149.5565 LP  0  0  0  0  0  0  0  0  0  0  0  0  # atno 17371 bound_to 10713
  139.9823  135.0094  156.9780 LP  0  0  0  0  0  0  0  0  0  0  0  0  # atno 17394 bound_to 11000
  140.5091  134.1020  155.7266 LP  0  0  0  0  0  0  0  0  0  0  0  0  # atno 17395 bound_to 11000

$$$$
