#       Name:                AV-unprocessed.smi:1137
#       Creating user name   scv26
#       Creation time:       Fri Mar 27 03:43:43 2020


#       File generated by GOLD software.
#

@<TRIPOS>MOLECULE
AV-unprocessed.smi:1137
    24    24     1
SMALL
NO_CHARGES


@<TRIPOS>ATOM
      1 ****        -2.6321   1.6991  -0.8328 O.co2          1 S1                 0.0000
      2 ****        -2.0021   0.7867  -1.4112 C.2            1 S1                 0.0000
      3 ****        -2.5150  -0.2318  -1.9271 O.co2          1 S1                -1.0000
      4 ****        -0.4734   0.9230  -1.4479 C.3            1 S1                 0.0000
      5 ****         0.0502   0.3991  -2.6552 O.3            1 S1                 0.0000
      6 ****         0.0627   0.2176  -0.2102 C.ar           1 S1                 0.0000
      7 ****         0.3759   0.9574   0.9524 C.ar           1 S1                 0.0000
      8 ****         0.8587   0.2850   2.0944 C.ar           1 S1                 0.0000
      9 ****         1.0146  -1.1154   2.0516 C.ar           1 S1                 0.0000
     10 ****         0.7021  -1.7923   0.9251 N.pl3          1 S1                 1.0000
     11 ****         0.2393  -1.1851  -0.1893 C.ar           1 S1                 0.0000
     12 ****        -0.2099   1.9810  -1.4077 H              1 S1                 0.0000
     13 ****         0.9802   0.5622  -2.6754 H              1 S1                 0.0000
     14 ****         0.2424   2.0294   0.9715 H              1 S1                 0.0000
     15 ****         1.1012   0.8363   2.9910 H              1 S1                 0.0000
     16 ****         1.3732  -1.7104   2.8788 H              1 S1                 0.0000
     17 ****         0.0156  -1.8353  -1.0229 H              1 S1                 0.0000
     18 ****         0.8161  -2.8060   0.9153 H              1 S1                 0.0000
     19 ****        -3.6278   1.6478  -0.7553 LP             1 S1                 0.0000
     20 ****        -2.1402   2.4800  -0.4478 LP             1 S1                 0.0000
     21 ****        -3.5058  -0.3635  -1.8952 LP             1 S1                 0.0000
     22 ****        -1.9340  -0.9139  -2.3712 LP             1 S1                 0.0000
     23 ****        -0.3875   0.8469  -3.4348 LP             1 S1                 0.0000
     24 ****        -0.1203  -0.5854  -2.6974 LP             1 S1                 0.0000
@<TRIPOS>BOND
    1    1    2 ar    
    2    2    3 ar    
    3    2    4 1     
    4    4    5 1     
    5    4    6 1     
    6    4   12 1     
    7    5   13 1     
    8    6   11 ar    
    9    6    7 ar    
   10    7    8 ar    
   11    7   14 1     
   12    8    9 ar    
   13    8   15 1     
   14    9   10 ar    
   15    9   16 1     
   16   10   11 ar    
   17   10   18 1     
   18   11   17 1     
   19    1   19 1     
   20    1   20 1     
   21    3   21 1     
   22    3   22 1     
   23    5   23 1     
   24    5   24 1     
@<TRIPOS>SUBSTRUCTURE
      1 S1             1
@<TRIPOS>SET
LONE_PAIRS      STATIC     ATOMS    <user>   **** ""
6 19 20 21 22 23 24
DONOR_HYDROGENS      STATIC     ATOMS    <user>   **** ""
2 13 18
ATOM$BLUE        STATIC     ATOMS    COLORGROUP SYSTEM
6 19 20 21 22 23 24
ATOM$RED        STATIC     ATOMS    COLORGROUP SYSTEM
2 13 18
