AV-unprocessed.smi:1871|AV-procd|sdf|7602|dock5
  -GOLD-   22720 9323D 1   1.00000     0.00000
 Structure written by MMmdl.
 41 43  0  0  0  0  0  0  0  0  2 V2000
  148.9064  142.0793  154.1021 O   0  0  0  0  0  0  0  0  0  0  0  0
  149.7449  141.0455  154.5738 C   0  0  0  0  0  0  0  0  0  0  0  0
  150.4619  141.3984  155.8388 C   0  0  0  0  0  0  0  0  0  0  0  0
  150.2472  142.5077  156.6028 N   0  3  0  0  0  0  0  0  0  0  0  0
  151.1090  142.5036  157.6996 C   0  0  0  0  0  0  0  0  0  0  0  0
  151.2624  143.4118  158.7423 C   0  0  0  0  0  0  0  0  0  0  0  0
  152.2433  143.1058  159.7085 C   0  0  0  0  0  0  0  0  0  0  0  0
  153.0247  141.9356  159.6165 C   0  0  0  0  0  0  0  0  0  0  0  0
  152.8604  141.0227  158.5538 C   0  0  0  0  0  0  0  0  0  0  0  0
  151.8892  141.3339  157.6025 C   0  0  0  0  0  0  0  0  0  0  0  0
  151.4609  140.6866  156.4384 N   0  0  0  0  0  0  0  0  0  0  0  0
  152.1057  139.4239  156.0442 C   0  0  0  0  0  0  0  0  0  0  0  0
  151.0987  138.2673  155.8784 C   0  0  1  0  0  0  0  0  0  0  0  0
  151.8122  137.1184  155.4710 O   0  0  0  0  0  0  0  0  0  0  0  0
  150.2855  138.0269  157.1425 C   0  0  0  0  0  0  0  0  0  0  0  0
  148.8897  138.2353  157.1544 C   0  0  0  0  0  0  0  0  0  0  0  0
  148.1449  137.9828  158.3222 C   0  0  0  0  0  0  0  0  0  0  0  0
  148.7801  137.5265  159.4947 C   0  0  0  0  0  0  0  0  0  0  0  0
  147.9940  137.2805  160.5975 O   0  0  0  0  0  0  0  0  0  0  0  0
  148.0982  136.0853  161.2375 C   0  0  0  0  0  0  0  0  0  0  0  0
  147.4552  136.1461  162.4286 F   0  0  0  0  0  0  0  0  0  0  0  0
  147.5134  135.1043  160.5070 F   0  0  0  0  0  0  0  0  0  0  0  0
  150.1786  137.3078  159.4774 C   0  0  0  0  0  0  0  0  0  0  0  0
  150.9243  137.5604  158.3102 C   0  0  0  0  0  0  0  0  0  0  0  0
  149.1275  142.8771  154.5587 H   0  0  0  0  0  0  0  0  0  0  0  0
  149.1413  140.1522  154.7356 H   0  0  0  0  0  0  0  0  0  0  0  0
  150.4775  140.8101  153.8022 H   0  0  0  0  0  0  0  0  0  0  0  0
  150.6646  144.3087  158.8139 H   0  0  0  0  0  0  0  0  0  0  0  0
  152.3992  143.7817  160.5369 H   0  0  0  0  0  0  0  0  0  0  0  0
  153.7658  141.7336  160.3764 H   0  0  0  0  0  0  0  0  0  0  0  0
  153.4646  140.1297  158.4913 H   0  0  0  0  0  0  0  0  0  0  0  0
  152.6519  139.6006  155.1165 H   0  0  0  0  0  0  0  0  0  0  0  0
  152.8550  139.1748  156.7961 H   0  0  0  0  0  0  0  0  0  0  0  0
  150.4101  138.5021  155.0661 H   0  0  0  0  0  0  0  0  0  0  0  0
  151.9156  136.5483  156.2179 H   0  0  0  0  0  0  0  0  0  0  0  0
  148.3823  138.5801  156.2652 H   0  0  0  0  0  0  0  0  0  0  0  0
  147.0763  138.1409  158.3180 H   0  0  0  0  0  0  0  0  0  0  0  0
  149.1379  135.8222  161.4335 H   0  0  0  0  0  0  0  0  0  0  0  0
  150.6926  136.9373  160.3518 H   0  0  0  0  0  0  0  0  0  0  0  0
  151.9897  137.3814  158.3113 H   0  0  0  0  0  0  0  0  0  0  0  0
  149.5562  143.2134  156.3821 H   0  0  0  0  0  0  0  0  0  0  0  0
  1  2  1  0  0  0  0
  1 25  1  0  0  0  0
  2  3  1  0  0  0  0
  2 26  1  0  0  0  0
  2 27  1  0  0  0  0
  3 11  1  0  0  0  0
  3  4  2  0  0  0  0
  4  5  1  0  0  0  0
  4 41  1  0  0  0  0
  5 10  2  0  0  0  0
  5  6  1  0  0  0  0
  6  7  2  0  0  0  0
  6 28  1  0  0  0  0
  7  8  1  0  0  0  0
  7 29  1  0  0  0  0
  8  9  2  0  0  0  0
  8 30  1  0  0  0  0
  9 10  1  0  0  0  0
  9 31  1  0  0  0  0
 10 11  1  0  0  0  0
 11 12  1  0  0  0  0
 12 13  1  0  0  0  0
 12 32  1  0  0  0  0
 12 33  1  0  0  0  0
 13 14  1  0  0  0  0
 13 15  1  0  0  0  0
 13 34  1  0  0  0  0
 14 35  1  0  0  0  0
 15 24  1  0  0  0  0
 15 16  2  0  0  0  0
 16 17  1  0  0  0  0
 16 36  1  0  0  0  0
 17 18  2  0  0  0  0
 17 37  1  0  0  0  0
 18 19  1  0  0  0  0
 18 23  1  0  0  0  0
 19 20  1  0  0  0  0
 20 21  1  0  0  0  0
 20 22  1  0  0  0  0
 20 38  1  0  0  0  0
 23 24  2  0  0  0  0
 23 39  1  0  0  0  0
 24 40  1  0  0  0  0
M  CHG  1   4   1
M  END
> <s_m_source_file>
AV-unprocessed.smi

> <i_m_source_file_index>
1871

> <i_lp_mmshare_version>
43012

> <i_f3d_flags>
0

> <s_epik_input>
W2NIXTFbY0hdW2NIXVtjSF1jKGMxMiluKGMobjIpW0NIMl1bT0hdKVtDSDJdW0NASF0oW09IXSljM1tjSF1bY0hdYyhPW0NIXShGKUYpW2NIXVtjSF0z

> <s_epik_cmdline>
J2VwaWtfcHl0aG9uJywgJy1waCcsICc3LjAnLCAnLXRuJywgJzgnLCAnLW1hJywgJzIwMCcsICctbWV0YWxfYmluZGluZycsICctaW1hZScsICc8aW5maWxlLm1hZT4nLCAnLW9tYWUnLCAnPG91dGZpbGUubWFlPic=

> <r_lp_tautomer_probability>
1

> <r_epik_Ionization_Penalty>
1.35642

> <r_epik_Ionization_Penalty_Charging>
1.35557

> <r_epik_Ionization_Penalty_Neutral>
0.000856035

> <r_epik_State_Penalty>
1.43401

> <r_epik_Charging_Adjusted_Penalty>
2.78958

> <i_epik_Tot_Q>
1

> <i_epik_Tot_abs_Q>
1

> <r_epik_Metal_State_Penalty>
5.47166

> <b_epik_Metal_Only>
0

> <s_lp_Force_Field>
OPLS_2005

> <r_lp_Energy>
14.8195

> <b_lp_Chiralities_Consistent>
1

> <s_lp_Variant>
AV-unprocessed.smi:1871-4

> <Gold.Version>
5.8.1

> <Gold.Id.Protein>
6NUR|6NUR_protein|mol2

> <Gold.PLP.Fitness>
57.4950

> <Gold.PLP.PLP>
-44.6023

> <Gold.PLP.part.hbond>
-5.7150

> <Gold.PLP.part.metal>
0.0000

> <Gold.PLP.part.buried>
-3.9014

> <Gold.PLP.part.nonpolar>
-34.5708

> <Gold.PLP.part.repulsive>
0.0440

> <Gold.PLP.ligand.clash>
0.0000

> <Gold.PLP.ligand.torsion>
0.3024

> <Gold.PLP.Chemscore.Hbond>
4.4750

> <Gold.PLP.Chemscore.CHOScore>
0.0000

> <Gold.PLP.Chemscore.Metal>
0.0000

> <Gold.Chemscore.Hbonds>
donor molecule, donor type, donor heavy atom, donor atom, acceptor molecule, acceptor atom, score
      L1  H     1    25       P1  8028  0.73
      L1  H     4    41       P1  8028  2.00
      P1  H  6931  6943       L1    19  0.51
      P1  H  6934  6947       L1    19  0.75
      P1  H  8011  8017       L1     1  0.37
      P1  H 10752 10765       L1    14  0.06

> <Gold.PLP.Chemscore.Internal.Correction>
0.0727

> <Gold.Rescore>
     Score         DG    S(hbond)    S(metal)    S(lipo)     H(rot)  DE(clash)    DE(int)     intcor
     15.56     -16.14       2.32        0.00      98.46       3.37       0.18       0.40       ----

> <Gold.Chemscore.Fitness>
15.5606

> <Gold.Chemscore.DG>
-16.1400

> <Gold.Chemscore.ZeroCoef>
-5.4800

> <Gold.Chemscore.Hbond>
2.3223

> <Gold.Chemscore.Metal>
0.0000

> <Gold.Chemscore.Lipo>
98.4621

> <Gold.Chemscore.Internal_Hbond>
0.0000

> <Gold.Chemscore.DEClash>
0.1773

> <Gold.Chemscore.DEInternal>
0.4022

> <Gold.Chemscore.Rot>
3.3659

> <Gold.Chemscore.Internal.Correction>
   9.000000E+99

> <Gold.Chemscore.Hbonds>
donor molecule, donor type, donor heavy atom, donor atom, acceptor molecule, acceptor atom, score
      L1  H     1    25       P1  8028  0.72
      L1  H     4    41       P1  8028  0.99
      P1  H  6931  6943       L1    19  0.01
      P1  H  6934  6947       L1    19  0.25
      P1  H  8011  8017       L1     1  0.02
      P1  H 10752 10765       L1    14  0.01

> <Gold.Chemscore.Hbond.Weighted>
-7.7566

> <Gold.Chemscore.Metal.Weighted>
-0.0000

> <Gold.Chemscore.Lipo.Weighted>
-11.5201

> <Gold.Chemscore.Internal_Hbond.Weighted>
0.0000

> <Gold.Chemscore.DEClash.Weighted>
0.1773

> <Gold.Chemscore.DEInternal.Weighted>
0.4022

> <Gold.Chemscore.Rot.Weighted>
8.6167

> <Gold.Chemscore.Internal.Correction.Weighted>
   9.000000E+99

> <Gold.Protein.RotatedTorsions>
[ 6907 6896 6895 6894 ] final  170.29 input  -60.11 | X-H torsion
[ 7974 7965 7964 7962 ] final -156.48 input  175.53 | X-H torsion
[ 8008 7997 7996 7995 ] final  137.79 input   59.86 | X-H torsion
[ 10167 10162 10161 10158 ] final  -93.00 input  -65.29 | X-H torsion
[ 10718 10713 10712 10709 ] final   70.35 input   66.30 | X-H torsion
[ 10763 10752 10751 10750 ] final  144.33 input  -60.55 | X-H torsion
[ 11005 11000 10999 10996 ] final  -96.85 input  -57.11 | X-H torsion

> <Gold.Protein.ActiveResidues>
 VAL166  LYS551  ARG553  GLY616  TRP617  ASP618  TYR619  PRO620  LYS621  CYS622 
 ASP623  PHE694  ASN695  SER759  ASP760  ASP761  ALA762  ILE779  LEU786  VAL792 
 PHE793  MET794  SER795  GLU796  ALA797  LYS798  CYS799  TRP800  GLU811  SER814 

> <Gold.Protein.RotatedAtoms>
  151.8184  133.3391  159.3576 H   0  0  0  0  0  0  0  0  0  0  0  0  # atno 6907 bound_to 6896
  150.7303  134.5597  159.5845 H   0  0  0  0  0  0  0  0  0  0  0  0  # atno 6908 bound_to 6896
  152.3024  134.7596  160.0406 H   0  0  0  0  0  0  0  0  0  0  0  0  # atno 6909 bound_to 6896
  144.7591  140.4103  143.5990 H   0  0  0  0  0  0  0  0  0  0  0  0  # atno 7974 bound_to 7965
  156.3000  140.2410  156.3967 H   0  0  0  0  0  0  0  0  0  0  0  0  # atno 8008 bound_to 7997
  154.8564  140.0422  157.1657 H   0  0  0  0  0  0  0  0  0  0  0  0  # atno 8009 bound_to 7997
  154.8943  140.2968  155.5357 H   0  0  0  0  0  0  0  0  0  0  0  0  # atno 8010 bound_to 7997
  140.3291  143.3005  151.9962 H   0  0  0  0  0  0  0  0  0  0  0  0  # atno 10167 bound_to 10162
  157.6395  130.9472  150.0638 H   0  0  0  0  0  0  0  0  0  0  0  0  # atno 10718 bound_to 10713
  153.9871  135.2935  155.3415 H   0  0  0  0  0  0  0  0  0  0  0  0  # atno 10763 bound_to 10752
  154.7236  135.5098  153.8854 H   0  0  0  0  0  0  0  0  0  0  0  0  # atno 10764 bound_to 10752
  153.0827  135.6684  154.0127 H   0  0  0  0  0  0  0  0  0  0  0  0  # atno 10765 bound_to 10752
  141.1398  133.8127  157.0626 H   0  0  0  0  0  0  0  0  0  0  0  0  # atno 11005 bound_to 11000
  145.6679  139.1593  143.2771 LP  0  0  0  0  0  0  0  0  0  0  0  0  # atno 17320 bound_to 7965
  146.1635  140.6753  142.9266 LP  0  0  0  0  0  0  0  0  0  0  0  0  # atno 17321 bound_to 7965
  139.4860  144.6249  151.7183 LP  0  0  0  0  0  0  0  0  0  0  0  0  # atno 17342 bound_to 10162
  140.5413  144.0574  150.6089 LP  0  0  0  0  0  0  0  0  0  0  0  0  # atno 17343 bound_to 10162
  156.1663  130.3645  149.9228 LP  0  0  0  0  0  0  0  0  0  0  0  0  # atno 17370 bound_to 10713
  156.7214  130.9008  151.3618 LP  0  0  0  0  0  0  0  0  0  0  0  0  # atno 17371 bound_to 10713
  140.0561  134.9779  157.1223 LP  0  0  0  0  0  0  0  0  0  0  0  0  # atno 17394 bound_to 11000
  140.3917  134.2178  155.7166 LP  0  0  0  0  0  0  0  0  0  0  0  0  # atno 17395 bound_to 11000

$$$$
