AV-unprocessed.smi:1487|AV-procd|sdf|6007|dock1
  -GOLD-   22720 6103D 1   1.00000     0.00000
 Structure written by MMmdl.
 48 50  0  0  0  0  0  0  0  0  2 V2000
  152.3692  142.9547  160.5227 C   0  0  0  0  0  0  0  0  0  0  0  0
  151.8571  142.3120  159.2454 C   0  0  0  0  0  0  0  0  0  0  0  0
  152.5369  141.1897  158.7209 C   0  0  0  0  0  0  0  0  0  0  0  0
  152.0948  140.5643  157.5348 C   0  0  0  0  0  0  0  0  0  0  0  0
  152.5980  139.4683  156.8552 N   0  0  0  0  0  0  0  0  0  0  0  0
  151.7542  139.3762  155.8319 C   0  0  0  0  0  0  0  0  0  0  0  0
  150.7572  140.2795  155.7721 N   0  0  0  0  0  0  0  0  0  0  0  0
  149.7177  140.3649  154.7631 C   0  0  0  0  0  0  0  0  0  0  0  0
  149.1201  138.9877  154.4139 C   0  0  2  0  0  0  0  0  0  0  0  0
  150.0550  138.3180  153.5920 O   0  0  0  0  0  0  0  0  0  0  0  0
  147.7657  139.0791  153.6734 C   0  0  0  0  0  0  0  0  0  0  0  0
  147.1459  137.7526  153.4229 N   0  3  1  0  0  0  0  0  0  0  0  0
  146.6326  137.0987  154.6579 C   0  0  0  0  0  0  0  0  0  0  0  0
  146.1068  135.6837  154.3630 C   0  0  0  0  0  0  0  0  0  0  0  0
  145.0248  135.7148  153.2763 C   0  0  0  0  0  0  0  0  0  0  0  0
  145.5675  136.4170  152.0233 C   0  0  1  0  0  0  0  0  0  0  0  0
  144.5383  136.5325  151.0647 O   0  0  0  0  0  0  0  0  0  0  0  0
  146.1017  137.8191  152.3673 C   0  0  0  0  0  0  0  0  0  0  0  0
  150.9445  141.0964  156.8824 C   0  0  0  0  0  0  0  0  0  0  0  0
  150.2580  142.2112  157.3956 C   0  0  0  0  0  0  0  0  0  0  0  0
  150.7131  142.8238  158.5820 C   0  0  0  0  0  0  0  0  0  0  0  0
  149.9649  144.0267  159.1286 C   0  0  0  0  0  0  0  0  0  0  0  0
  153.2810  142.4707  160.8742 H   0  0  0  0  0  0  0  0  0  0  0  0
  151.6232  142.8780  161.3139 H   0  0  0  0  0  0  0  0  0  0  0  0
  152.5939  144.0087  160.3590 H   0  0  0  0  0  0  0  0  0  0  0  0
  153.4074  140.7986  159.2269 H   0  0  0  0  0  0  0  0  0  0  0  0
  151.8621  138.6028  155.0851 H   0  0  0  0  0  0  0  0  0  0  0  0
  148.9400  141.0409  155.1210 H   0  0  0  0  0  0  0  0  0  0  0  0
  150.1455  140.8283  153.8728 H   0  0  0  0  0  0  0  0  0  0  0  0
  149.0168  138.4210  155.3384 H   0  0  0  0  0  0  0  0  0  0  0  0
  149.5977  137.6930  153.0510 H   0  0  0  0  0  0  0  0  0  0  0  0
  147.0525  139.6886  154.2292 H   0  0  0  0  0  0  0  0  0  0  0  0
  147.9297  139.5961  152.7263 H   0  0  0  0  0  0  0  0  0  0  0  0
  147.4180  137.0293  155.4092 H   0  0  0  0  0  0  0  0  0  0  0  0
  145.8380  137.7090  155.0905 H   0  0  0  0  0  0  0  0  0  0  0  0
  146.9311  135.0445  154.0435 H   0  0  0  0  0  0  0  0  0  0  0  0
  145.7049  135.2385  155.2737 H   0  0  0  0  0  0  0  0  0  0  0  0
  144.7028  134.7004  153.0370 H   0  0  0  0  0  0  0  0  0  0  0  0
  144.1467  136.2428  153.6518 H   0  0  0  0  0  0  0  0  0  0  0  0
  146.3694  135.8191  151.5879 H   0  0  0  0  0  0  0  0  0  0  0  0
  144.5197  137.4221  150.7450 H   0  0  0  0  0  0  0  0  0  0  0  0
  145.2895  138.4660  152.7041 H   0  0  0  0  0  0  0  0  0  0  0  0
  146.5185  138.2746  151.4679 H   0  0  0  0  0  0  0  0  0  0  0  0
  149.3880  142.5919  156.8817 H   0  0  0  0  0  0  0  0  0  0  0  0
  149.0851  144.2558  158.5266 H   0  0  0  0  0  0  0  0  0  0  0  0
  150.6081  144.9072  159.1304 H   0  0  0  0  0  0  0  0  0  0  0  0
  149.6307  143.8389  160.1492 H   0  0  0  0  0  0  0  0  0  0  0  0
  147.8766  137.1611  153.0543 H   0  0  0  0  0  0  0  0  0  0  0  0
  1  2  1  0  0  0  0
  1 23  1  0  0  0  0
  1 24  1  0  0  0  0
  1 25  1  0  0  0  0
  2 21  1  0  0  0  0
  2  3  2  0  0  0  0
  3  4  1  0  0  0  0
  3 26  1  0  0  0  0
  4 19  2  0  0  0  0
  4  5  1  0  0  0  0
  5  6  2  0  0  0  0
  6  7  1  0  0  0  0
  6 27  1  0  0  0  0
  7  8  1  0  0  0  0
  7 19  1  0  0  0  0
  8  9  1  0  0  0  0
  8 28  1  0  0  0  0
  8 29  1  0  0  0  0
  9 10  1  0  0  0  0
  9 11  1  0  0  0  0
  9 30  1  0  0  0  0
 10 31  1  0  0  0  0
 11 12  1  0  0  0  0
 11 32  1  0  0  0  0
 11 33  1  0  0  0  0
 12 18  1  0  0  0  0
 12 13  1  0  0  0  0
 12 48  1  0  0  0  0
 13 14  1  0  0  0  0
 13 34  1  0  0  0  0
 13 35  1  0  0  0  0
 14 15  1  0  0  0  0
 14 36  1  0  0  0  0
 14 37  1  0  0  0  0
 15 16  1  0  0  0  0
 15 38  1  0  0  0  0
 15 39  1  0  0  0  0
 16 17  1  0  0  0  0
 16 18  1  0  0  0  0
 16 40  1  0  0  0  0
 17 41  1  0  0  0  0
 18 42  1  0  0  0  0
 18 43  1  0  0  0  0
 19 20  1  0  0  0  0
 20 21  2  0  0  0  0
 20 44  1  0  0  0  0
 21 22  1  0  0  0  0
 22 45  1  0  0  0  0
 22 46  1  0  0  0  0
 22 47  1  0  0  0  0
M  CHG  1  12   1
M  END
> <s_m_source_file>
AV-unprocessed.smi

> <i_m_source_file_index>
1487

> <i_lp_mmshare_version>
43012

> <i_f3d_flags>
0

> <s_epik_input>
W0NIM11jKFtjSF0xKWMoW0NIM10pW2NIXWMoYzEyKW4oW2NIXW4yKVtDSDJdW0NASF0oW09IXSlbQ0gyXU4zW0NIMl1bQ0gyXVtDSDJdW0NAQEhdKFtPSF0pW0NIMl0z

> <s_epik_cmdline>
J2VwaWtfcHl0aG9uJywgJy1waCcsICc3LjAnLCAnLXRuJywgJzgnLCAnLW1hJywgJzIwMCcsICctbWV0YWxfYmluZGluZycsICctaW1hZScsICc8aW5maWxlLm1hZT4nLCAnLW9tYWUnLCAnPG91dGZpbGUubWFlPic=

> <r_epik_Ionization_Penalty>
0.0940186

> <r_epik_Ionization_Penalty_Charging>
0.00679686

> <r_epik_Ionization_Penalty_Neutral>
0.0872218

> <r_epik_State_Penalty>
0.0799311

> <r_epik_Charging_Adjusted_Penalty>
0.086728

> <i_epik_Tot_Q>
1

> <i_epik_Tot_abs_Q>
1

> <r_epik_Metal_State_Penalty>
7.95545e-05

> <b_epik_Metal_Only>
0

> <s_lp_Force_Field>
OPLS_2005

> <r_lp_Energy>
20.897

> <b_lp_Chiralities_Consistent>
1

> <s_lp_Variant>
AV-unprocessed.smi:1487-1

> <Gold.Version>
5.8.1

> <Gold.Id.Protein>
6NUR|6NUR_protein|mol2

> <Gold.PLP.Fitness>
54.5811

> <Gold.PLP.PLP>
-40.5136

> <Gold.PLP.part.hbond>
-4.7756

> <Gold.PLP.part.metal>
0.0000

> <Gold.PLP.part.buried>
-3.6763

> <Gold.PLP.part.nonpolar>
-31.2820

> <Gold.PLP.part.repulsive>
0.0207

> <Gold.PLP.ligand.clash>
0.0000

> <Gold.PLP.ligand.torsion>
0.4499

> <Gold.PLP.Chemscore.Hbond>
4.9760

> <Gold.PLP.Chemscore.CHOScore>
0.0000

> <Gold.PLP.Chemscore.Metal>
0.0000

> <Gold.Chemscore.Hbonds>
donor molecule, donor type, donor heavy atom, donor atom, acceptor molecule, acceptor atom, score
      L1  H    10    31       P1  7948  1.00
      L1  H    12    48       P1  7948  2.00
      L1  H    17    41       P1 10171  1.00
      P1  H  7997  8008       L1     5  1.00

> <Gold.PLP.Chemscore.Internal.Correction>
0.0393

> <Gold.Rescore>
     Score         DG    S(hbond)    S(metal)    S(lipo)     H(rot)  DE(clash)    DE(int)     intcor
     21.17     -21.52       3.66        0.00      91.09       2.67       0.00       0.35       ----

> <Gold.Chemscore.Fitness>
21.1677

> <Gold.Chemscore.DG>
-21.5238

> <Gold.Chemscore.ZeroCoef>
-5.4800

> <Gold.Chemscore.Hbond>
3.6601

> <Gold.Chemscore.Metal>
0.0000

> <Gold.Chemscore.Lipo>
91.0893

> <Gold.Chemscore.Internal_Hbond>
0.0000

> <Gold.Chemscore.DEClash>
0.0048

> <Gold.Chemscore.DEInternal>
0.3513

> <Gold.Chemscore.Rot>
2.6712

> <Gold.Chemscore.Internal.Correction>
   9.000000E+99

> <Gold.Chemscore.Hbonds>
donor molecule, donor type, donor heavy atom, donor atom, acceptor molecule, acceptor atom, score
      L1  H    10    31       P1  7948  0.78
      L1  H    12    48       P1  7948  1.00
      L1  H    17    41       P1 10171  0.95
      P1  H  7997  8008       L1     5  0.24

> <Gold.Chemscore.Hbond.Weighted>
-12.2247

> <Gold.Chemscore.Metal.Weighted>
-0.0000

> <Gold.Chemscore.Lipo.Weighted>
-10.6574

> <Gold.Chemscore.Internal_Hbond.Weighted>
0.0000

> <Gold.Chemscore.DEClash.Weighted>
0.0048

> <Gold.Chemscore.DEInternal.Weighted>
0.3513

> <Gold.Chemscore.Rot.Weighted>
6.8383

> <Gold.Chemscore.Internal.Correction.Weighted>
   9.000000E+99

> <Gold.Protein.RotatedTorsions>
[ 6907 6896 6895 6894 ] final  -21.64 input  -60.11 | X-H torsion
[ 7974 7965 7964 7962 ] final   31.71 input  175.53 | X-H torsion
[ 8008 7997 7996 7995 ] final  -38.23 input   59.86 | X-H torsion
[ 10167 10162 10161 10158 ] final   -9.09 input  -65.29 | X-H torsion
[ 10718 10713 10712 10709 ] final   28.14 input   66.30 | X-H torsion
[ 10763 10752 10751 10750 ] final   16.08 input  -60.55 | X-H torsion
[ 11005 11000 10999 10996 ] final  -54.65 input  -57.11 | X-H torsion

> <Gold.Protein.ActiveResidues>
 VAL166  LYS551  ARG553  GLY616  TRP617  ASP618  TYR619  PRO620  LYS621  CYS622 
 ASP623  PHE694  ASN695  SER759  ASP760  ASP761  ALA762  ILE779  LEU786  VAL792 
 PHE793  MET794  SER795  GLU796  ALA797  LYS798  CYS799  TRP800  GLU811  SER814 

> <Gold.Protein.RotatedAtoms>
  151.2303  135.0552  159.8984 H   0  0  0  0  0  0  0  0  0  0  0  0  # atno 6907 bound_to 6896
  152.5405  134.0544  159.8134 H   0  0  0  0  0  0  0  0  0  0  0  0  # atno 6908 bound_to 6896
  151.0723  133.5408  159.2658 H   0  0  0  0  0  0  0  0  0  0  0  0  # atno 6909 bound_to 6896
  146.1533  139.6621  142.9084 H   0  0  0  0  0  0  0  0  0  0  0  0  # atno 7974 bound_to 7965
  154.4040  140.1583  156.2667 H   0  0  0  0  0  0  0  0  0  0  0  0  # atno 8008 bound_to 7997
  155.8989  140.3434  155.5989 H   0  0  0  0  0  0  0  0  0  0  0  0  # atno 8009 bound_to 7997
  155.7471  140.0800  157.2209 H   0  0  0  0  0  0  0  0  0  0  0  0  # atno 8010 bound_to 7997
  140.7077  143.5896  150.8907 H   0  0  0  0  0  0  0  0  0  0  0  0  # atno 10167 bound_to 10162
  157.2295  130.7017  149.6307 H   0  0  0  0  0  0  0  0  0  0  0  0  # atno 10718 bound_to 10713
  153.1465  135.6770  153.8947 H   0  0  0  0  0  0  0  0  0  0  0  0  # atno 10763 bound_to 10752
  153.8388  135.3108  155.3425 H   0  0  0  0  0  0  0  0  0  0  0  0  # atno 10764 bound_to 10752
  154.7829  135.4878  153.9968 H   0  0  0  0  0  0  0  0  0  0  0  0  # atno 10765 bound_to 10752
  141.1036  133.6615  156.4352 H   0  0  0  0  0  0  0  0  0  0  0  0  # atno 11005 bound_to 11000
  145.4770  141.0437  143.2667 LP  0  0  0  0  0  0  0  0  0  0  0  0  # atno 17320 bound_to 7965
  144.7931  139.6288  143.7104 LP  0  0  0  0  0  0  0  0  0  0  0  0  # atno 17321 bound_to 7965
  139.9622  143.6151  152.2999 LP  0  0  0  0  0  0  0  0  0  0  0  0  # atno 17342 bound_to 10162
  139.6708  144.7661  151.1787 LP  0  0  0  0  0  0  0  0  0  0  0  0  # atno 17343 bound_to 10162
  155.9676  130.4493  150.5655 LP  0  0  0  0  0  0  0  0  0  0  0  0  # atno 17370 bound_to 10713
  157.3493  131.0730  151.1726 LP  0  0  0  0  0  0  0  0  0  0  0  0  # atno 17371 bound_to 10713
  140.4959  134.6531  157.5229 LP  0  0  0  0  0  0  0  0  0  0  0  0  # atno 17394 bound_to 11000
  139.9897  134.7005  155.9711 LP  0  0  0  0  0  0  0  0  0  0  0  0  # atno 17395 bound_to 11000

$$$$
