AV-unprocessed.smi:670|AV-procd|sdf|3270|dock6
  -GOLD-   22720 0223D 1   1.00000     0.00000
 Structure written by MMmdl.
 45 46  0  0  0  0  0  0  0  0  1 V2000
  150.0118  141.7552  157.3171 C   0  0  0  0  0  0  0  0  0  0  0  0
  151.1381  142.4157  158.1274 C   0  0  1  0  0  0  0  0  0  0  0  0
  150.5869  143.2333  159.3134 C   0  0  0  0  0  0  0  0  0  0  0  0
  151.7153  143.9208  160.0985 C   0  0  0  0  0  0  0  0  0  0  0  0
  152.7687  142.9061  160.5660 C   0  0  0  0  0  0  0  0  0  0  0  0
  153.3217  142.0941  159.3841 C   0  0  0  0  0  0  0  0  0  0  0  0
  152.1927  141.3893  158.6002 C   0  0  1  0  0  0  0  0  0  0  0  0
  151.5438  140.4271  159.4237 O   0  0  0  0  0  0  0  0  0  0  0  0
  151.6910  139.0809  158.9966 C   0  0  0  0  0  0  0  0  0  0  0  0
  150.4900  138.7148  158.1134 C   0  0  0  0  0  0  0  0  0  0  0  0
  149.3693  138.2293  158.9113 N   0  0  0  0  0  0  0  0  0  0  0  0
  149.2073  136.9655  159.3298 C   0  0  0  0  0  0  0  0  0  0  0  0
  149.9906  136.0573  159.0476 O   0  0  0  0  0  0  0  0  0  0  0  0
  147.9607  136.6991  160.1864 C   0  0  0  0  0  0  0  0  0  0  0  0
  148.1297  135.5945  161.1419 N   0  0  0  0  0  0  0  0  0  0  0  0
  148.2470  134.3467  160.5484 N   0  0  0  0  0  0  0  0  0  0  0  0
  148.4154  133.2978  161.2804 C   0  0  0  0  0  0  0  0  0  0  0  0
  148.5311  132.0822  160.6519 O   0  0  0  0  0  0  0  0  0  0  0  0
  148.4807  133.3937  162.7224 C   0  0  0  0  0  0  0  0  0  0  0  0
  148.3601  134.6130  163.2913 C   0  0  0  0  0  0  0  0  0  0  0  0
  148.1702  135.8238  162.4905 C   0  0  0  0  0  0  0  0  0  0  0  0
  148.0588  136.9460  162.9831 O   0  0  0  0  0  0  0  0  0  0  0  0
  147.7453  131.6076  160.8748 H   0  0  0  0  0  0  0  0  0  0  0  0
  149.4398  141.0545  157.9261 H   0  0  0  0  0  0  0  0  0  0  0  0
  150.4117  141.2064  156.4643 H   0  0  0  0  0  0  0  0  0  0  0  0
  149.3171  142.5021  156.9318 H   0  0  0  0  0  0  0  0  0  0  0  0
  151.6416  143.1136  157.4569 H   0  0  0  0  0  0  0  0  0  0  0  0
  149.8852  143.9862  158.9534 H   0  0  0  0  0  0  0  0  0  0  0  0
  150.0225  142.5829  159.9827 H   0  0  0  0  0  0  0  0  0  0  0  0
  152.1898  144.6754  159.4701 H   0  0  0  0  0  0  0  0  0  0  0  0
  151.3018  144.4495  160.9576 H   0  0  0  0  0  0  0  0  0  0  0  0
  153.5828  143.4233  161.0743 H   0  0  0  0  0  0  0  0  0  0  0  0
  152.3264  142.2308  161.2995 H   0  0  0  0  0  0  0  0  0  0  0  0
  153.8599  142.7631  158.7116 H   0  0  0  0  0  0  0  0  0  0  0  0
  154.0601  141.3778  159.7423 H   0  0  0  0  0  0  0  0  0  0  0  0
  152.6124  140.8950  157.7221 H   0  0  0  0  0  0  0  0  0  0  0  0
  152.6161  138.9784  158.4282 H   0  0  0  0  0  0  0  0  0  0  0  0
  151.7557  138.3966  159.8420 H   0  0  0  0  0  0  0  0  0  0  0  0
  150.1608  139.5900  157.5529 H   0  0  0  0  0  0  0  0  0  0  0  0
  150.7768  137.9626  157.3768 H   0  0  0  0  0  0  0  0  0  0  0  0
  148.6788  138.9126  159.1869 H   0  0  0  0  0  0  0  0  0  0  0  0
  147.6858  137.6128  160.7169 H   0  0  0  0  0  0  0  0  0  0  0  0
  147.1266  136.4896  159.5144 H   0  0  0  0  0  0  0  0  0  0  0  0
  148.6213  132.5067  163.3224 H   0  0  0  0  0  0  0  0  0  0  0  0
  148.4057  134.6992  164.3670 H   0  0  0  0  0  0  0  0  0  0  0  0
  1  2  1  0  0  0  0
  1 24  1  0  0  0  0
  1 25  1  0  0  0  0
  1 26  1  0  0  0  0
  2  7  1  0  0  0  0
  2  3  1  0  0  0  0
  2 27  1  0  0  0  0
  3  4  1  0  0  0  0
  3 28  1  0  0  0  0
  3 29  1  0  0  0  0
  4  5  1  0  0  0  0
  4 30  1  0  0  0  0
  4 31  1  0  0  0  0
  5  6  1  0  0  0  0
  5 32  1  0  0  0  0
  5 33  1  0  0  0  0
  6  7  1  0  0  0  0
  6 34  1  0  0  0  0
  6 35  1  0  0  0  0
  7  8  1  0  0  0  0
  7 36  1  0  0  0  0
  8  9  1  0  0  0  0
  9 10  1  0  0  0  0
  9 37  1  0  0  0  0
  9 38  1  0  0  0  0
 10 11  1  0  0  0  0
 10 39  1  0  0  0  0
 10 40  1  0  0  0  0
 11 12  1  0  0  0  0
 11 41  1  0  0  0  0
 12 13  2  0  0  0  0
 12 14  1  0  0  0  0
 14 42  1  0  0  0  0
 14 43  1  0  0  0  0
 14 15  1  0  0  0  0
 15 16  1  0  0  0  0
 15 21  1  0  0  0  0
 16 17  2  0  0  0  0
 17 18  1  0  0  0  0
 17 19  1  0  0  0  0
 18 23  1  0  0  0  0
 19 44  1  0  0  0  0
 19 20  2  0  0  0  0
 20 45  1  0  0  0  0
 20 21  1  0  0  0  0
 21 22  2  0  0  0  0
M  END
> <s_m_source_file>
AV-unprocessed.smi

> <i_m_source_file_index>
670

> <i_lp_mmshare_version>
43012

> <i_f3d_flags>
0

> <s_epik_input>
W0NIM11bQ0BASF0xW0NIMl1bQ0gyXVtDSDJdW0NIMl1bQ0BIXTFPW0NIMl1bQ0gyXVtOSF1DKD1PKVtDSDJdbjJbbkhdYyg9TylbY0hdW2NIXWMyPU8=

> <s_epik_cmdline>
J2VwaWtfcHl0aG9uJywgJy1waCcsICc3LjAnLCAnLXRuJywgJzgnLCAnLW1hJywgJzIwMCcsICctbWV0YWxfYmluZGluZycsICctaW1hZScsICc8aW5maWxlLm1hZT4nLCAnLW9tYWUnLCAnPG91dGZpbGUubWFlPic=

> <r_lp_tautomer_probability>
0.9996

> <r_epik_Ionization_Penalty>
2.12726

> <r_epik_Ionization_Penalty_Charging>
3.83395e-08

> <r_epik_Ionization_Penalty_Neutral>
2.12726

> <r_epik_State_Penalty>
1.70432

> <r_epik_Charging_Adjusted_Penalty>
1.70432

> <i_epik_Tot_Q>
0

> <i_epik_Tot_abs_Q>
0

> <r_epik_Metal_State_Penalty>
1.70432

> <b_epik_Metal_Only>
0

> <s_lp_Force_Field>
OPLS_2005

> <r_lp_Energy>
19.8416

> <b_lp_Chiralities_Consistent>
1

> <s_lp_Variant>
AV-unprocessed.smi:670-6

> <Gold.Version>
5.8.1

> <Gold.Id.Protein>
6NUR|6NUR_protein|mol2

> <Gold.PLP.Fitness>
47.9301

> <Gold.PLP.PLP>
-44.4934

> <Gold.PLP.part.hbond>
-3.0000

> <Gold.PLP.part.metal>
0.0000

> <Gold.PLP.part.buried>
-6.2158

> <Gold.PLP.part.nonpolar>
-35.3650

> <Gold.PLP.part.repulsive>
0.1825

> <Gold.PLP.ligand.clash>
0.0000

> <Gold.PLP.ligand.torsion>
1.7327

> <Gold.PLP.Chemscore.Hbond>
2.2800

> <Gold.PLP.Chemscore.CHOScore>
0.0000

> <Gold.PLP.Chemscore.Metal>
0.0000

> <Gold.Chemscore.Hbonds>
donor molecule, donor type, donor heavy atom, donor atom, acceptor molecule, acceptor atom, score
      P1  H  6896  6908       L1    13  1.00
      P1  H  6931  6943       L1    22  0.80

> <Gold.PLP.Chemscore.Internal.Correction>
0.0621

> <Gold.Rescore>
     Score         DG    S(hbond)    S(metal)    S(lipo)     H(rot)  DE(clash)    DE(int)     intcor
     14.85     -16.79       2.55        0.00      91.55       3.09       0.01       1.94       ----

> <Gold.Chemscore.Fitness>
14.8453

> <Gold.Chemscore.DG>
-16.7949

> <Gold.Chemscore.ZeroCoef>
-5.4800

> <Gold.Chemscore.Hbond>
2.5491

> <Gold.Chemscore.Metal>
0.0000

> <Gold.Chemscore.Lipo>
91.5518

> <Gold.Chemscore.Internal_Hbond>
0.0000

> <Gold.Chemscore.DEClash>
0.0126

> <Gold.Chemscore.DEInternal>
1.9369

> <Gold.Chemscore.Rot>
3.0901

> <Gold.Chemscore.Internal.Correction>
   9.000000E+99

> <Gold.Chemscore.Hbonds>
donor molecule, donor type, donor heavy atom, donor atom, acceptor molecule, acceptor atom, score
      P1  H  6896  6908       L1    13  0.99
      P1  H  6931  6943       L1    22  0.62

> <Gold.Chemscore.Hbond.Weighted>
-8.5139

> <Gold.Chemscore.Metal.Weighted>
-0.0000

> <Gold.Chemscore.Lipo.Weighted>
-10.7116

> <Gold.Chemscore.Internal_Hbond.Weighted>
0.0000

> <Gold.Chemscore.DEClash.Weighted>
0.0126

> <Gold.Chemscore.DEInternal.Weighted>
1.9369

> <Gold.Chemscore.Rot.Weighted>
7.9106

> <Gold.Chemscore.Internal.Correction.Weighted>
   9.000000E+99

> <Gold.Protein.RotatedTorsions>
[ 6907 6896 6895 6894 ] final  178.50 input  -60.11 | X-H torsion
[ 7974 7965 7964 7962 ] final -177.99 input  175.53 | X-H torsion
[ 8008 7997 7996 7995 ] final  157.64 input   59.86 | X-H torsion
[ 10167 10162 10161 10158 ] final -126.92 input  -65.29 | X-H torsion
[ 10718 10713 10712 10709 ] final  -28.09 input   66.30 | X-H torsion
[ 10763 10752 10751 10750 ] final -155.22 input  -60.55 | X-H torsion
[ 11005 11000 10999 10996 ] final   23.89 input  -57.11 | X-H torsion

> <Gold.Protein.ActiveResidues>
 VAL166  LYS551  ARG553  GLY616  TRP617  ASP618  TYR619  PRO620  LYS621  CYS622 
 ASP623  PHE694  ASN695  SER759  ASP760  ASP761  ALA762  ILE779  LEU786  VAL792 
 PHE793  MET794  SER795  GLU796  ALA797  LYS798  CYS799  TRP800  GLU811  SER814 

> <Gold.Protein.RotatedAtoms>
  151.6868  133.3311  159.3232 H   0  0  0  0  0  0  0  0  0  0  0  0  # atno 6907 bound_to 6896
  150.7797  134.6733  159.6413 H   0  0  0  0  0  0  0  0  0  0  0  0  # atno 6908 bound_to 6896
  152.3851  134.6534  160.0181 H   0  0  0  0  0  0  0  0  0  0  0  0  # atno 6909 bound_to 6896
  144.7129  140.0936  143.6420 H   0  0  0  0  0  0  0  0  0  0  0  0  # atno 7974 bound_to 7965
  156.2352  140.1880  156.7139 H   0  0  0  0  0  0  0  0  0  0  0  0  # atno 8008 bound_to 7997
  154.6093  140.0624  156.9500 H   0  0  0  0  0  0  0  0  0  0  0  0  # atno 8009 bound_to 7997
  155.2043  140.3295  155.4341 H   0  0  0  0  0  0  0  0  0  0  0  0  # atno 8010 bound_to 7997
  139.9663  143.5894  152.2428 H   0  0  0  0  0  0  0  0  0  0  0  0  # atno 10167 bound_to 10162
  156.4297  130.4442  149.7126 H   0  0  0  0  0  0  0  0  0  0  0  0  # atno 10718 bound_to 10713
  154.7803  135.3172  154.8004 H   0  0  0  0  0  0  0  0  0  0  0  0  # atno 10763 bound_to 10752
  153.8717  135.6843  153.4778 H   0  0  0  0  0  0  0  0  0  0  0  0  # atno 10764 bound_to 10752
  153.1438  135.4728  154.9472 H   0  0  0  0  0  0  0  0  0  0  0  0  # atno 10765 bound_to 10752
  140.3647  134.2087  155.7670 H   0  0  0  0  0  0  0  0  0  0  0  0  # atno 11005 bound_to 11000
  145.9598  139.2793  143.1162 LP  0  0  0  0  0  0  0  0  0  0  0  0  # atno 17320 bound_to 7965
  145.9232  140.9100  143.0394 LP  0  0  0  0  0  0  0  0  0  0  0  0  # atno 17321 bound_to 7965
  139.6515  144.7661  151.2139 LP  0  0  0  0  0  0  0  0  0  0  0  0  # atno 17342 bound_to 10162
  140.7537  143.6153  150.8565 LP  0  0  0  0  0  0  0  0  0  0  0  0  # atno 17343 bound_to 10162
  156.4034  130.7686  151.2695 LP  0  0  0  0  0  0  0  0  0  0  0  0  # atno 17370 bound_to 10713
  157.7508  131.0233  150.3828 LP  0  0  0  0  0  0  0  0  0  0  0  0  # atno 17371 bound_to 10713
  141.1973  133.8062  157.0633 LP  0  0  0  0  0  0  0  0  0  0  0  0  # atno 17394 bound_to 11000
  140.0599  134.9760  157.1286 LP  0  0  0  0  0  0  0  0  0  0  0  0  # atno 17395 bound_to 11000

$$$$
