AV-unprocessed.smi:2245|AV-procd|sdf|9080|dock3
  -GOLD-   2272012283D 1   1.00000     0.00000
 Structure written by MMmdl.
 45 46  0  0  0  0  0  0  0  0  2 V2000
  153.9541  140.1175  159.4412 C   0  0  0  0  0  0  0  0  0  0  0  0
  153.0006  141.2835  159.2866 C   0  0  0  0  0  0  0  0  0  0  0  0
  152.9001  142.2684  160.2875 C   0  0  0  0  0  0  0  0  0  0  0  0
  151.9924  143.3273  160.0895 C   0  0  0  0  0  0  0  0  0  0  0  0
  151.8356  144.4227  161.1230 C   0  0  0  0  0  0  0  0  0  0  0  0
  151.2183  143.4381  158.9887 N   0  0  0  0  0  0  0  0  0  0  0  0
  151.3057  142.4944  158.0188 C   0  0  0  0  0  0  0  0  0  0  0  0
  150.5344  142.5170  156.8264 N   0  0  0  0  0  0  0  0  0  0  0  0
  150.3473  141.5240  155.9394 C   0  0  0  0  0  0  0  0  0  0  0  0
  150.8200  140.3902  156.0262 O   0  0  0  0  0  0  0  0  0  0  0  0
  149.5738  141.9227  154.9193 N   0  0  0  0  0  0  0  0  0  0  0  0
  149.1974  141.0911  153.7808 C   0  0  0  0  0  0  0  0  0  0  0  0
  148.3524  139.8742  154.2050 C   0  0  2  0  0  0  0  0  0  0  0  0
  149.1568  138.6642  154.6724 C   0  0  0  0  0  0  0  0  0  0  0  0
  148.1454  137.5294  154.5440 C   0  0  0  0  0  0  0  0  0  0  0  0
  147.3437  137.8462  153.3404 N   0  3  1  0  0  0  0  0  0  0  0  0
  145.9428  137.3572  153.3678 C   0  0  0  0  0  0  0  0  0  0  0  0
  145.6501  136.3117  152.2766 C   0  0  0  0  0  0  0  0  0  0  0  0
  144.3322  136.1441  152.1799 F   0  0  0  0  0  0  0  0  0  0  0  0
  146.1142  136.7347  151.1006 F   0  0  0  0  0  0  0  0  0  0  0  0
  146.2026  135.1353  152.5709 F   0  0  0  0  0  0  0  0  0  0  0  0
  147.4749  139.3016  153.0839 C   0  0  0  0  0  0  0  0  0  0  0  0
  152.1914  141.3999  158.1384 C   0  0  0  0  0  0  0  0  0  0  0  0
  154.7594  140.3599  160.1352 H   0  0  0  0  0  0  0  0  0  0  0  0
  154.4016  139.8562  158.4818 H   0  0  0  0  0  0  0  0  0  0  0  0
  153.4225  139.2453  159.8223 H   0  0  0  0  0  0  0  0  0  0  0  0
  153.5026  142.2136  161.1823 H   0  0  0  0  0  0  0  0  0  0  0  0
  152.4066  144.2007  162.0250 H   0  0  0  0  0  0  0  0  0  0  0  0
  150.7878  144.5347  161.4036 H   0  0  0  0  0  0  0  0  0  0  0  0
  152.1877  145.3732  160.7214 H   0  0  0  0  0  0  0  0  0  0  0  0
  150.0811  143.3949  156.6210 H   0  0  0  0  0  0  0  0  0  0  0  0
  149.2225  142.8694  154.9293 H   0  0  0  0  0  0  0  0  0  0  0  0
  148.6551  141.6918  153.0486 H   0  0  0  0  0  0  0  0  0  0  0  0
  150.1125  140.7595  153.2895 H   0  0  0  0  0  0  0  0  0  0  0  0
  147.6899  140.1675  155.0214 H   0  0  0  0  0  0  0  0  0  0  0  0
  150.0036  138.4884  154.0071 H   0  0  0  0  0  0  0  0  0  0  0  0
  149.5393  138.7740  155.6878 H   0  0  0  0  0  0  0  0  0  0  0  0
  148.6259  136.5542  154.4622 H   0  0  0  0  0  0  0  0  0  0  0  0
  147.5045  137.5175  155.4274 H   0  0  0  0  0  0  0  0  0  0  0  0
  145.7005  136.9637  154.3562 H   0  0  0  0  0  0  0  0  0  0  0  0
  145.2838  138.2113  153.2039 H   0  0  0  0  0  0  0  0  0  0  0  0
  146.5122  139.8134  153.0425 H   0  0  0  0  0  0  0  0  0  0  0  0
  147.9528  139.4271  152.1115 H   0  0  0  0  0  0  0  0  0  0  0  0
  152.2503  140.6542  157.3587 H   0  0  0  0  0  0  0  0  0  0  0  0
  147.7977  137.3898  152.5619 H   0  0  0  0  0  0  0  0  0  0  0  0
  1  2  1  0  0  0  0
  1 24  1  0  0  0  0
  1 25  1  0  0  0  0
  1 26  1  0  0  0  0
  2 23  1  0  0  0  0
  2  3  2  0  0  0  0
  3  4  1  0  0  0  0
  3 27  1  0  0  0  0
  4  5  1  0  0  0  0
  4  6  2  0  0  0  0
  5 28  1  0  0  0  0
  5 29  1  0  0  0  0
  5 30  1  0  0  0  0
  6  7  1  0  0  0  0
  7  8  1  0  0  0  0
  7 23  2  0  0  0  0
  8  9  1  0  0  0  0
  8 31  1  0  0  0  0
  9 10  2  0  0  0  0
  9 11  1  0  0  0  0
 11 12  1  0  0  0  0
 11 32  1  0  0  0  0
 12 13  1  0  0  0  0
 12 33  1  0  0  0  0
 12 34  1  0  0  0  0
 13 22  1  0  0  0  0
 13 14  1  0  0  0  0
 13 35  1  0  0  0  0
 14 15  1  0  0  0  0
 14 36  1  0  0  0  0
 14 37  1  0  0  0  0
 15 16  1  0  0  0  0
 15 38  1  0  0  0  0
 15 39  1  0  0  0  0
 16 17  1  0  0  0  0
 16 22  1  0  0  0  0
 16 45  1  0  0  0  0
 17 18  1  0  0  0  0
 17 40  1  0  0  0  0
 17 41  1  0  0  0  0
 18 19  1  0  0  0  0
 18 20  1  0  0  0  0
 18 21  1  0  0  0  0
 22 42  1  0  0  0  0
 22 43  1  0  0  0  0
 23 44  1  0  0  0  0
M  CHG  1  16   1
M  END
> <s_m_source_file>
AV-unprocessed.smi

> <i_m_source_file_index>
2245

> <i_lp_mmshare_version>
43012

> <i_f3d_flags>
0

> <s_epik_input>
W0NIM11jMVtjSF1jKFtDSDNdKW5jKFtjSF0xKVtOSF1DKD1PKVtOSF1bQ0gyXVtDQEBIXTJbQ0gyXVtDSDJdTihbQ0gyXTIpW0NIMl1DKEYpKEYpRg==

> <s_epik_cmdline>
J2VwaWtfcHl0aG9uJywgJy1waCcsICc3LjAnLCAnLXRuJywgJzgnLCAnLW1hJywgJzIwMCcsICctbWV0YWxfYmluZGluZycsICctaW1hZScsICc8aW5maWxlLm1hZT4nLCAnLW9tYWUnLCAnPG91dGZpbGUubWFlPic=

> <r_epik_Ionization_Penalty>
0.628315

> <r_epik_Ionization_Penalty_Charging>
0.628113

> <r_epik_Ionization_Penalty_Neutral>
0.000202271

> <r_epik_State_Penalty>
0.644725

> <r_epik_Charging_Adjusted_Penalty>
1.27284

> <i_epik_Tot_Q>
1

> <i_epik_Tot_abs_Q>
1

> <r_epik_Metal_State_Penalty>
0.644752

> <b_epik_Metal_Only>
0

> <s_lp_Force_Field>
OPLS_2005

> <r_lp_Energy>
28.8046

> <b_lp_Chiralities_Consistent>
1

> <s_lp_Variant>
AV-unprocessed.smi:2245-5

> <Gold.Version>
5.8.1

> <Gold.Id.Protein>
6NUR|6NUR_protein|mol2

> <Gold.PLP.Fitness>
46.5018

> <Gold.PLP.PLP>
-37.6559

> <Gold.PLP.part.hbond>
-3.0000

> <Gold.PLP.part.metal>
0.0000

> <Gold.PLP.part.buried>
0.9877

> <Gold.PLP.part.nonpolar>
-35.5404

> <Gold.PLP.part.repulsive>
0.3404

> <Gold.PLP.ligand.clash>
1.3274

> <Gold.PLP.ligand.torsion>
1.1838

> <Gold.PLP.Chemscore.Hbond>
4.0000

> <Gold.PLP.Chemscore.CHOScore>
0.0000

> <Gold.PLP.Chemscore.Metal>
0.0000

> <Gold.Chemscore.Hbonds>
donor molecule, donor type, donor heavy atom, donor atom, acceptor molecule, acceptor atom, score
      L1  H     8    31       P1  8028  1.00
      L1  H    11    32       P1  8028  1.00
      L1  H    16    45       P1  7948  2.00

> <Gold.PLP.Chemscore.Internal.Correction>
0.5409

> <Gold.Rescore>
     Score         DG    S(hbond)    S(metal)    S(lipo)     H(rot)  DE(clash)    DE(int)     intcor
     17.56     -21.83       2.92        0.00      91.89       1.61       0.17       4.10       ----

> <Gold.Chemscore.Fitness>
17.5588

> <Gold.Chemscore.DG>
-21.8350

> <Gold.Chemscore.ZeroCoef>
-5.4800

> <Gold.Chemscore.Hbond>
2.9150

> <Gold.Chemscore.Metal>
0.0000

> <Gold.Chemscore.Lipo>
91.8909

> <Gold.Chemscore.Internal_Hbond>
0.0000

> <Gold.Chemscore.DEClash>
0.1732

> <Gold.Chemscore.DEInternal>
4.1030

> <Gold.Chemscore.Rot>
1.6143

> <Gold.Chemscore.Internal.Correction>
   9.000000E+99

> <Gold.Chemscore.Hbonds>
donor molecule, donor type, donor heavy atom, donor atom, acceptor molecule, acceptor atom, score
      L1  H     8    31       P1  8028  0.94
      L1  H    11    32       P1  8028  0.95
      L1  H    16    45       P1  7948  0.98

> <Gold.Chemscore.Hbond.Weighted>
-9.7362

> <Gold.Chemscore.Metal.Weighted>
-0.0000

> <Gold.Chemscore.Lipo.Weighted>
-10.7512

> <Gold.Chemscore.Internal_Hbond.Weighted>
0.0000

> <Gold.Chemscore.DEClash.Weighted>
0.1732

> <Gold.Chemscore.DEInternal.Weighted>
4.1030

> <Gold.Chemscore.Rot.Weighted>
4.1325

> <Gold.Chemscore.Internal.Correction.Weighted>
   9.000000E+99

> <Gold.Protein.RotatedTorsions>
[ 6907 6896 6895 6894 ] final -144.52 input  -60.11 | X-H torsion
[ 7974 7965 7964 7962 ] final   84.06 input  175.53 | X-H torsion
[ 8008 7997 7996 7995 ] final  -31.32 input   59.86 | X-H torsion
[ 10167 10162 10161 10158 ] final  -50.14 input  -65.29 | X-H torsion
[ 10718 10713 10712 10709 ] final  -83.59 input   66.30 | X-H torsion
[ 10763 10752 10751 10750 ] final   12.61 input  -60.55 | X-H torsion
[ 11005 11000 10999 10996 ] final   25.85 input  -57.11 | X-H torsion

> <Gold.Protein.ActiveResidues>
 VAL166  LYS551  ARG553  GLY616  TRP617  ASP618  TYR619  PRO620  LYS621  CYS622 
 ASP623  PHE694  ASN695  SER759  ASP760  ASP761  ALA762  ILE779  LEU786  VAL792 
 PHE793  MET794  SER795  GLU796  ALA797  LYS798  CYS799  TRP800  GLU811  SER814 

> <Gold.Protein.RotatedAtoms>
  151.1152  133.5144  159.2603 H   0  0  0  0  0  0  0  0  0  0  0  0  # atno 6907 bound_to 6896
  151.1923  135.0407  159.8847 H   0  0  0  0  0  0  0  0  0  0  0  0  # atno 6908 bound_to 6896
  152.5452  134.0990  159.8363 H   0  0  0  0  0  0  0  0  0  0  0  0  # atno 6909 bound_to 6896
  145.6038  139.2356  143.2231 H   0  0  0  0  0  0  0  0  0  0  0  0  # atno 7974 bound_to 7965
  154.4218  140.1767  156.1547 H   0  0  0  0  0  0  0  0  0  0  0  0  # atno 8008 bound_to 7997
  155.9886  140.3371  155.6707 H   0  0  0  0  0  0  0  0  0  0  0  0  # atno 8009 bound_to 7997
  155.6403  140.0679  157.2611 H   0  0  0  0  0  0  0  0  0  0  0  0  # atno 8010 bound_to 7997
  140.6651  143.2669  151.4317 H   0  0  0  0  0  0  0  0  0  0  0  0  # atno 10167 bound_to 10162
  156.0016  130.4670  150.4280 H   0  0  0  0  0  0  0  0  0  0  0  0  # atno 10718 bound_to 10713
  153.1805  135.6827  153.8485 H   0  0  0  0  0  0  0  0  0  0  0  0  # atno 10763 bound_to 10752
  153.7819  135.3181  155.3368 H   0  0  0  0  0  0  0  0  0  0  0  0  # atno 10764 bound_to 10752
  154.8056  135.4750  154.0479 H   0  0  0  0  0  0  0  0  0  0  0  0  # atno 10765 bound_to 10752
  140.3434  134.2308  155.7687 H   0  0  0  0  0  0  0  0  0  0  0  0  # atno 11005 bound_to 11000
  146.1556  140.6862  142.9301 LP  0  0  0  0  0  0  0  0  0  0  0  0  # atno 17320 bound_to 7965
  144.7299  140.4639  143.6946 LP  0  0  0  0  0  0  0  0  0  0  0  0  # atno 17321 bound_to 7965
  139.5898  144.1524  152.2074 LP  0  0  0  0  0  0  0  0  0  0  0  0  # atno 17342 bound_to 10162
  140.0875  144.5648  150.7078 LP  0  0  0  0  0  0  0  0  0  0  0  0  # atno 17343 bound_to 10162
  157.2331  131.0508  151.2481 LP  0  0  0  0  0  0  0  0  0  0  0  0  # atno 17370 bound_to 10713
  157.3692  130.7172  149.6553 LP  0  0  0  0  0  0  0  0  0  0  0  0  # atno 17371 bound_to 10713
  141.2032  133.7917  157.0350 LP  0  0  0  0  0  0  0  0  0  0  0  0  # atno 17394 bound_to 11000
  140.0762  134.9674  157.1550 LP  0  0  0  0  0  0  0  0  0  0  0  0  # atno 17395 bound_to 11000

$$$$
