AV-unprocessed.smi:3316|AV-procd|sdf|12753|dock6
  -GOLD-   2272019 93D 1   1.00000     0.00000
 Structure written by MMmdl.
 41 43  0  0  0  0  0  0  0  0  2 V2000
  148.1843  139.7232  153.9765 C   0  0  0  0  0  0  0  0  0  0  0  0
  149.1284  140.1524  155.1106 C   0  0  2  0  0  0  0  0  0  0  0  0
  149.4731  141.6513  155.0191 C   0  0  0  0  0  0  0  0  0  0  0  0
  149.3984  142.3107  156.3389 N   0  3  0  0  0  0  0  0  0  0  0  0
  150.6738  142.3134  157.0808 C   0  0  0  0  0  0  0  0  0  0  0  0
  150.6812  143.3981  158.1737 C   0  0  2  0  0  0  0  0  0  0  0  0
  151.6794  144.5709  157.9204 C   0  0  0  0  0  0  0  0  0  0  0  0
  152.5027  144.6153  159.2284 C   0  0  2  0  0  0  0  0  0  0  0  0
  153.3485  143.3614  159.2792 C   0  0  0  0  0  0  0  0  0  0  0  0
  152.5229  142.3348  159.4877 C   0  0  0  0  0  0  0  0  0  0  0  0
  151.1170  142.8957  159.5756 C   0  0  1  0  0  0  0  0  0  0  0  0
  151.4155  144.2440  160.2423 C   0  0  0  0  0  0  0  0  0  0  0  0
  150.3745  139.2762  155.1545 C   0  0  0  0  0  0  0  0  0  0  0  0
  151.3856  139.5167  156.1090 C   0  0  0  0  0  0  0  0  0  0  0  0
  152.5230  138.6842  156.1124 C   0  0  0  0  0  0  0  0  0  0  0  0
  152.6986  137.6660  155.2439 N   0  0  0  0  0  0  0  0  0  0  0  0
  151.7287  137.4388  154.3328 C   0  0  0  0  0  0  0  0  0  0  0  0
  150.5536  138.2117  154.2444 C   0  0  0  0  0  0  0  0  0  0  0  0
  147.8973  138.6765  154.0817 H   0  0  0  0  0  0  0  0  0  0  0  0
  148.6480  139.8447  152.9970 H   0  0  0  0  0  0  0  0  0  0  0  0
  147.2689  140.3153  153.9828 H   0  0  0  0  0  0  0  0  0  0  0  0
  148.5860  140.0006  156.0452 H   0  0  0  0  0  0  0  0  0  0  0  0
  150.4719  141.7902  154.6032 H   0  0  0  0  0  0  0  0  0  0  0  0
  148.7764  142.1469  154.3415 H   0  0  0  0  0  0  0  0  0  0  0  0
  149.1045  143.2677  156.2049 H   0  0  0  0  0  0  0  0  0  0  0  0
  150.8140  141.3336  157.5389 H   0  0  0  0  0  0  0  0  0  0  0  0
  151.4962  142.4615  156.3797 H   0  0  0  0  0  0  0  0  0  0  0  0
  149.6720  143.8055  158.2608 H   0  0  0  0  0  0  0  0  0  0  0  0
  152.3179  144.4072  157.0509 H   0  0  0  0  0  0  0  0  0  0  0  0
  151.1405  145.5064  157.7645 H   0  0  0  0  0  0  0  0  0  0  0  0
  153.0416  145.5410  159.4318 H   0  0  0  0  0  0  0  0  0  0  0  0
  154.4185  143.3323  159.1357 H   0  0  0  0  0  0  0  0  0  0  0  0
  152.7742  141.2861  159.5491 H   0  0  0  0  0  0  0  0  0  0  0  0
  150.4036  142.2645  160.1060 H   0  0  0  0  0  0  0  0  0  0  0  0
  151.7988  144.1412  161.2598 H   0  0  0  0  0  0  0  0  0  0  0  0
  150.5680  144.9325  160.2546 H   0  0  0  0  0  0  0  0  0  0  0  0
  151.2971  140.3180  156.8280 H   0  0  0  0  0  0  0  0  0  0  0  0
  153.3131  138.8425  156.8316 H   0  0  0  0  0  0  0  0  0  0  0  0
  151.8944  136.6168  153.6522 H   0  0  0  0  0  0  0  0  0  0  0  0
  149.8100  137.9846  153.4948 H   0  0  0  0  0  0  0  0  0  0  0  0
  148.7030  141.8343  156.8957 H   0  0  0  0  0  0  0  0  0  0  0  0
  1  2  1  0  0  0  0
  1 19  1  0  0  0  0
  1 20  1  0  0  0  0
  1 21  1  0  0  0  0
  2  3  1  0  0  0  0
  2 13  1  0  0  0  0
  2 22  1  0  0  0  0
  3  4  1  0  0  0  0
  3 23  1  0  0  0  0
  3 24  1  0  0  0  0
  4  5  1  0  0  0  0
  4 25  1  0  0  0  0
  4 41  1  0  0  0  0
  5  6  1  0  0  0  0
  5 26  1  0  0  0  0
  5 27  1  0  0  0  0
  6 11  1  0  0  0  0
  6  7  1  0  0  0  0
  6 28  1  0  0  0  0
  7  8  1  0  0  0  0
  7 29  1  0  0  0  0
  7 30  1  0  0  0  0
  8 12  1  0  0  0  0
  8  9  1  0  0  0  0
  8 31  1  0  0  0  0
  9 10  2  0  0  0  0
  9 32  1  0  0  0  0
 10 11  1  0  0  0  0
 10 33  1  0  0  0  0
 11 12  1  0  0  0  0
 11 34  1  0  0  0  0
 12 35  1  0  0  0  0
 12 36  1  0  0  0  0
 13 18  1  0  0  0  0
 13 14  2  0  0  0  0
 14 15  1  0  0  0  0
 14 37  1  0  0  0  0
 15 16  2  0  0  0  0
 15 38  1  0  0  0  0
 16 17  1  0  0  0  0
 17 18  2  0  0  0  0
 17 39  1  0  0  0  0
 18 40  1  0  0  0  0
M  CHG  1   4   1
M  END
> <s_m_source_file>
AV-unprocessed.smi

> <i_m_source_file_index>
3316

> <i_lp_mmshare_version>
43012

> <i_f3d_flags>
0

> <s_epik_input>
W2NIXTFbY0hdbltjSF1bY0hdYzFbQ0BIXShbQ0gzXSlbQ0gyXVtOSF1bQ0gyXVtDQEhdKFtDSDJdW0NASF0yMylbQ0BIXShbQ0gyXTMpW0NIXT1bQ0hdMg==

> <s_epik_cmdline>
J2VwaWtfcHl0aG9uJywgJy1waCcsICc3LjAnLCAnLXRuJywgJzgnLCAnLW1hJywgJzIwMCcsICctbWV0YWxfYmluZGluZycsICctaW1hZScsICc8aW5maWxlLm1hZT4nLCAnLW9tYWUnLCAnPG91dGZpbGUubWFlPic=

> <r_lp_tautomer_probability>
1

> <r_epik_Ionization_Penalty>
0.00280406

> <r_epik_Ionization_Penalty_Charging>
0.000446589

> <r_epik_Ionization_Penalty_Neutral>
0.00235747

> <r_epik_State_Penalty>
-0

> <r_epik_Charging_Adjusted_Penalty>
0.000446589

> <i_epik_Tot_Q>
1

> <i_epik_Tot_abs_Q>
1

> <r_epik_Metal_State_Penalty>
-0

> <b_epik_Metal_Only>
0

> <s_lp_Force_Field>
OPLS_2005

> <r_lp_Energy>
65.4585

> <b_lp_Chiralities_Consistent>
1

> <s_lp_Variant>
AV-unprocessed.smi:3316-1

> <Gold.Version>
5.8.1

> <Gold.Id.Protein>
6NUR|6NUR_protein|mol2

> <Gold.PLP.Fitness>
48.1412

> <Gold.PLP.PLP>
-42.2974

> <Gold.PLP.part.hbond>
-2.0000

> <Gold.PLP.part.metal>
0.0000

> <Gold.PLP.part.buried>
0.0377

> <Gold.PLP.part.nonpolar>
-40.6478

> <Gold.PLP.part.repulsive>
0.1018

> <Gold.PLP.ligand.clash>
0.0000

> <Gold.PLP.ligand.torsion>
1.6308

> <Gold.PLP.Chemscore.Hbond>
2.0094

> <Gold.PLP.Chemscore.CHOScore>
1.0000

> <Gold.PLP.Chemscore.Metal>
0.0000

> <Gold.Chemscore.Hbonds>
donor molecule, donor type, donor heavy atom, donor atom, acceptor molecule, acceptor atom, score
      L1  H     4    25       P1  8028  2.00
      P1  H 10752 10765       L1    16  0.06
      L1  C    17    39       P1  7949  1.00

> <Gold.PLP.Chemscore.Internal.Correction>
0.0774

> <Gold.Rescore>
     Score         DG    S(hbond)    S(metal)    S(lipo)     H(rot)  DE(clash)    DE(int)     intcor
     20.73     -22.54       1.00        0.00     147.17       1.36       0.16       1.65       ----

> <Gold.Chemscore.Fitness>
20.7255

> <Gold.Chemscore.DG>
-22.5398

> <Gold.Chemscore.ZeroCoef>
-5.4800

> <Gold.Chemscore.Hbond>
0.9979

> <Gold.Chemscore.Metal>
0.0000

> <Gold.Chemscore.Lipo>
147.1696

> <Gold.Chemscore.Internal_Hbond>
0.0000

> <Gold.Chemscore.DEClash>
0.1625

> <Gold.Chemscore.DEInternal>
1.6518

> <Gold.Chemscore.Rot>
1.3640

> <Gold.Chemscore.Internal.Correction>
   9.000000E+99

> <Gold.Chemscore.Hbonds>
donor molecule, donor type, donor heavy atom, donor atom, acceptor molecule, acceptor atom, score
      L1  H     4    25       P1  8028  0.97

> <Gold.Chemscore.Hbond.Weighted>
-3.3329

> <Gold.Chemscore.Metal.Weighted>
-0.0000

> <Gold.Chemscore.Lipo.Weighted>
-17.2188

> <Gold.Chemscore.Internal_Hbond.Weighted>
0.0000

> <Gold.Chemscore.DEClash.Weighted>
0.1625

> <Gold.Chemscore.DEInternal.Weighted>
1.6518

> <Gold.Chemscore.Rot.Weighted>
3.4919

> <Gold.Chemscore.Internal.Correction.Weighted>
   9.000000E+99

> <Gold.Protein.RotatedTorsions>
[ 6907 6896 6895 6894 ] final  -96.04 input  -60.11 | X-H torsion
[ 7974 7965 7964 7962 ] final  142.99 input  175.53 | X-H torsion
[ 8008 7997 7996 7995 ] final   29.16 input   59.86 | X-H torsion
[ 10167 10162 10161 10158 ] final  -77.30 input  -65.29 | X-H torsion
[ 10718 10713 10712 10709 ] final -163.87 input   66.30 | X-H torsion
[ 10763 10752 10751 10750 ] final -152.70 input  -60.55 | X-H torsion
[ 11005 11000 10999 10996 ] final -132.64 input  -57.11 | X-H torsion

> <Gold.Protein.ActiveResidues>
 VAL166  LYS551  ARG553  GLY616  TRP617  ASP618  TYR619  PRO620  LYS621  CYS622 
 ASP623  PHE694  ASN695  SER759  ASP760  ASP761  ALA762  ILE779  LEU786  VAL792 
 PHE793  MET794  SER795  GLU796  ALA797  LYS798  CYS799  TRP800  GLU811  SER814 

> <Gold.Protein.RotatedAtoms>
  150.6978  134.1565  159.4159 H   0  0  0  0  0  0  0  0  0  0  0  0  # atno 6907 bound_to 6896
  151.9546  135.0150  160.0553 H   0  0  0  0  0  0  0  0  0  0  0  0  # atno 6908 bound_to 6896
  152.1980  133.4785  159.5080 H   0  0  0  0  0  0  0  0  0  0  0  0  # atno 6909 bound_to 6896
  144.8959  139.5491  143.5776 H   0  0  0  0  0  0  0  0  0  0  0  0  # atno 7974 bound_to 7965
  155.0701  140.3199  155.4633 H   0  0  0  0  0  0  0  0  0  0  0  0  # atno 8008 bound_to 7997
  156.2792  140.2113  156.5774 H   0  0  0  0  0  0  0  0  0  0  0  0  # atno 8009 bound_to 7997
  154.7062  140.0502  157.0493 H   0  0  0  0  0  0  0  0  0  0  0  0  # atno 8010 bound_to 7997
  140.4782  143.2409  151.8099 H   0  0  0  0  0  0  0  0  0  0  0  0  # atno 10167 bound_to 10162
  156.6309  130.8929  151.2977 H   0  0  0  0  0  0  0  0  0  0  0  0  # atno 10718 bound_to 10713
  154.7976  135.3230  154.7628 H   0  0  0  0  0  0  0  0  0  0  0  0  # atno 10763 bound_to 10752
  153.8303  135.6880  153.4820 H   0  0  0  0  0  0  0  0  0  0  0  0  # atno 10764 bound_to 10752
  153.1676  135.4636  154.9801 H   0  0  0  0  0  0  0  0  0  0  0  0  # atno 10765 bound_to 10752
  140.9152  134.1516  157.4358 H   0  0  0  0  0  0  0  0  0  0  0  0  # atno 11005 bound_to 11000
  146.3081  139.7650  142.9041 LP  0  0  0  0  0  0  0  0  0  0  0  0  # atno 17320 bound_to 7965
  145.3700  141.0341  143.3236 LP  0  0  0  0  0  0  0  0  0  0  0  0  # atno 17321 bound_to 7965
  139.4829  144.4806  151.9311 LP  0  0  0  0  0  0  0  0  0  0  0  0  # atno 17342 bound_to 10162
  140.3891  144.2638  150.5901 LP  0  0  0  0  0  0  0  0  0  0  0  0  # atno 17343 bound_to 10162
  157.7200  130.9546  150.1401 LP  0  0  0  0  0  0  0  0  0  0  0  0  # atno 17370 bound_to 10713
  156.2235  130.3676  149.8528 LP  0  0  0  0  0  0  0  0  0  0  0  0  # atno 17371 bound_to 10713
  139.8764  134.9951  156.5725 LP  0  0  0  0  0  0  0  0  0  0  0  0  # atno 17394 bound_to 11000
  140.8059  133.8467  155.8767 LP  0  0  0  0  0  0  0  0  0  0  0  0  # atno 17395 bound_to 11000

$$$$
