AV-unprocessed.smi:1579|AV-procd|sdf|6357|dock1
  -GOLD-   22720 6583D 1   1.00000     0.00000
 Structure written by MMmdl.
 47 48  0  0  0  0  0  0  0  0  2 V2000
  148.1844  131.5182  159.2350 C   0  0  0  0  0  0  0  0  0  0  0  0
  148.2945  133.0083  159.0538 C   0  0  0  0  0  0  0  0  0  0  0  0
  148.7586  133.4229  157.9207 N   0  0  0  0  0  0  0  0  0  0  0  0
  148.8968  134.7694  157.6503 N   0  0  0  0  0  0  0  0  0  0  0  0
  149.4323  135.0572  156.3143 C   0  0  0  0  0  0  0  0  0  0  0  0
  148.3146  135.3667  155.2938 C   0  0  1  0  0  0  0  0  0  0  0  0
  148.7869  136.3639  154.4090 O   0  0  0  0  0  0  0  0  0  0  0  0
  147.9649  134.1257  154.4471 C   0  0  0  0  0  0  0  0  0  0  0  0
  147.3107  134.4753  153.1597 N   0  3  2  0  0  0  0  0  0  0  0  0
  146.0996  135.3228  153.3256 C   0  0  0  0  0  0  0  0  0  0  0  0
  145.5386  135.7637  151.9618 C   0  0  0  0  0  0  0  0  0  0  0  0
  145.2369  134.5674  151.0411 C   0  0  2  0  0  0  0  0  0  0  0  0
  143.9776  133.7914  151.4655 C   0  0  0  0  0  0  0  0  0  0  0  0
  146.4846  133.6711  150.9436 C   0  0  0  0  0  0  0  0  0  0  0  0
  147.0288  133.2766  152.3287 C   0  0  0  0  0  0  0  0  0  0  0  0
  148.5780  135.7732  158.5168 C   0  0  0  0  0  0  0  0  0  0  0  0
  148.7306  136.9630  158.2349 O   0  0  0  0  0  0  0  0  0  0  0  0
  148.0524  135.2973  159.7982 C   0  0  0  0  0  0  0  0  0  0  0  0
  147.7018  136.3161  160.7344 C   0  0  0  0  0  0  0  0  0  0  0  0
  147.3994  137.1440  161.4848 N   0  0  0  0  0  0  0  0  0  0  0  0
  147.9104  133.9770  160.0758 C   0  0  0  0  0  0  0  0  0  0  0  0
  147.3713  133.4306  161.3908 C   0  0  0  0  0  0  0  0  0  0  0  0
  147.1598  131.2307  159.4717 H   0  0  0  0  0  0  0  0  0  0  0  0
  148.8279  131.1791  160.0471 H   0  0  0  0  0  0  0  0  0  0  0  0
  148.4776  130.9757  158.3350 H   0  0  0  0  0  0  0  0  0  0  0  0
  150.1591  135.8719  156.3485 H   0  0  0  0  0  0  0  0  0  0  0  0
  150.0066  134.1901  155.9824 H   0  0  0  0  0  0  0  0  0  0  0  0
  147.4289  135.7368  155.8083 H   0  0  0  0  0  0  0  0  0  0  0  0
  148.7669  136.0188  153.5288 H   0  0  0  0  0  0  0  0  0  0  0  0
  148.8833  133.5670  154.2587 H   0  0  0  0  0  0  0  0  0  0  0  0
  147.3115  133.4523  155.0042 H   0  0  0  0  0  0  0  0  0  0  0  0
  145.3432  134.7757  153.8897 H   0  0  0  0  0  0  0  0  0  0  0  0
  146.3349  136.2123  153.9084 H   0  0  0  0  0  0  0  0  0  0  0  0
  144.6418  136.3681  152.1028 H   0  0  0  0  0  0  0  0  0  0  0  0
  146.2665  136.4143  151.4747 H   0  0  0  0  0  0  0  0  0  0  0  0
  145.0343  134.9611  150.0440 H   0  0  0  0  0  0  0  0  0  0  0  0
  144.0776  133.3527  152.4580 H   0  0  0  0  0  0  0  0  0  0  0  0
  143.7657  132.9808  150.7680 H   0  0  0  0  0  0  0  0  0  0  0  0
  143.1044  134.4440  151.4812 H   0  0  0  0  0  0  0  0  0  0  0  0
  146.2640  132.7774  150.3589 H   0  0  0  0  0  0  0  0  0  0  0  0
  147.2644  134.2036  150.3969 H   0  0  0  0  0  0  0  0  0  0  0  0
  147.9451  132.6999  152.1955 H   0  0  0  0  0  0  0  0  0  0  0  0
  146.3228  132.6275  152.8486 H   0  0  0  0  0  0  0  0  0  0  0  0
  147.1605  134.2207  162.1108 H   0  0  0  0  0  0  0  0  0  0  0  0
  148.0923  132.7548  161.8511 H   0  0  0  0  0  0  0  0  0  0  0  0
  146.4437  132.8823  161.2238 H   0  0  0  0  0  0  0  0  0  0  0  0
  147.9862  135.0208  152.6428 H   0  0  0  0  0  0  0  0  0  0  0  0
  1  2  1  0  0  0  0
  1 23  1  0  0  0  0
  1 24  1  0  0  0  0
  1 25  1  0  0  0  0
  2 21  1  0  0  0  0
  2  3  2  0  0  0  0
  3  4  1  0  0  0  0
  4  5  1  0  0  0  0
  4 16  1  0  0  0  0
  5  6  1  0  0  0  0
  5 26  1  0  0  0  0
  5 27  1  0  0  0  0
  6  7  1  0  0  0  0
  6  8  1  0  0  0  0
  6 28  1  0  0  0  0
  7 29  1  0  0  0  0
  8  9  1  0  0  0  0
  8 30  1  0  0  0  0
  8 31  1  0  0  0  0
  9 15  1  0  0  0  0
  9 10  1  0  0  0  0
  9 47  1  0  0  0  0
 10 11  1  0  0  0  0
 10 32  1  0  0  0  0
 10 33  1  0  0  0  0
 11 12  1  0  0  0  0
 11 34  1  0  0  0  0
 11 35  1  0  0  0  0
 12 13  1  0  0  0  0
 12 14  1  0  0  0  0
 12 36  1  0  0  0  0
 13 37  1  0  0  0  0
 13 38  1  0  0  0  0
 13 39  1  0  0  0  0
 14 15  1  0  0  0  0
 14 40  1  0  0  0  0
 14 41  1  0  0  0  0
 15 42  1  0  0  0  0
 15 43  1  0  0  0  0
 16 17  2  0  0  0  0
 16 18  1  0  0  0  0
 18 19  1  0  0  0  0
 18 21  2  0  0  0  0
 19 20  3  0  0  0  0
 21 22  1  0  0  0  0
 22 44  1  0  0  0  0
 22 45  1  0  0  0  0
 22 46  1  0  0  0  0
M  CHG  1   9   1
M  END
> <s_m_source_file>
AV-unprocessed.smi

> <i_m_source_file_index>
1579

> <i_lp_mmshare_version>
43012

> <i_f3d_flags>
0

> <s_epik_input>
TiNDYyhjMVtDSDNdKWMoPU8pbihuYzFbQ0gzXSlbQ0gyXVtDQEhdKFtPSF0pW0NIMl1OMltDSDJdW0NIMl1bQ0hdKFtDSDNdKVtDSDJdW0NIMl0y

> <s_epik_cmdline>
J2VwaWtfcHl0aG9uJywgJy1waCcsICc3LjAnLCAnLXRuJywgJzgnLCAnLW1hJywgJzIwMCcsICctbWV0YWxfYmluZGluZycsICctaW1hZScsICc8aW5maWxlLm1hZT4nLCAnLW9tYWUnLCAnPG91dGZpbGUubWFlPic=

> <r_epik_Ionization_Penalty>
0.00136816

> <r_epik_Ionization_Penalty_Charging>
0.00136813

> <r_epik_Ionization_Penalty_Neutral>
3.19884e-08

> <r_epik_State_Penalty>
0.000910892

> <r_epik_Charging_Adjusted_Penalty>
0.00227902

> <i_epik_Tot_Q>
1

> <i_epik_Tot_abs_Q>
1

> <r_epik_Metal_State_Penalty>
-0

> <b_epik_Metal_Only>
0

> <s_lp_Force_Field>
OPLS_2005

> <r_lp_Energy>
39.3397

> <b_lp_Chiralities_Consistent>
1

> <s_lp_Variant>
AV-unprocessed.smi:1579-4

> <Gold.Version>
5.8.1

> <Gold.Id.Protein>
6NUR|6NUR_protein|mol2

> <Gold.PLP.Fitness>
42.2340

> <Gold.PLP.PLP>
-29.8315

> <Gold.PLP.part.hbond>
-4.0000

> <Gold.PLP.part.metal>
0.0000

> <Gold.PLP.part.buried>
-4.6839

> <Gold.PLP.part.nonpolar>
-21.1225

> <Gold.PLP.part.repulsive>
0.0000

> <Gold.PLP.ligand.clash>
0.0000

> <Gold.PLP.ligand.torsion>
1.0518

> <Gold.PLP.Chemscore.Hbond>
4.8240

> <Gold.PLP.Chemscore.CHOScore>
0.0000

> <Gold.PLP.Chemscore.Metal>
0.0000

> <Gold.Chemscore.Hbonds>
donor molecule, donor type, donor heavy atom, donor atom, acceptor molecule, acceptor atom, score
      L1  H     7    29       P1  7948  1.00
      L1  H     9    47       P1  7948  2.00
      P1  H  6931  6943       L1    20  0.93
      P1  H  6934  6947       L1    20  0.91

> <Gold.PLP.Chemscore.Internal.Correction>
0.0340

> <Gold.Rescore>
     Score         DG    S(hbond)    S(metal)    S(lipo)     H(rot)  DE(clash)    DE(int)     intcor
     17.92     -19.06       3.59        0.00      61.16       2.17       0.06       1.08       ----

> <Gold.Chemscore.Fitness>
17.9232

> <Gold.Chemscore.DG>
-19.0614

> <Gold.Chemscore.ZeroCoef>
-5.4800

> <Gold.Chemscore.Hbond>
3.5882

> <Gold.Chemscore.Metal>
0.0000

> <Gold.Chemscore.Lipo>
61.1606

> <Gold.Chemscore.Internal_Hbond>
0.0000

> <Gold.Chemscore.DEClash>
0.0589

> <Gold.Chemscore.DEInternal>
1.0793

> <Gold.Chemscore.Rot>
2.1715

> <Gold.Chemscore.Internal.Correction>
   9.000000E+99

> <Gold.Chemscore.Hbonds>
donor molecule, donor type, donor heavy atom, donor atom, acceptor molecule, acceptor atom, score
      L1  H     7    29       P1  7948  0.95
      L1  H     9    47       P1  7948  0.93
      P1  H  6931  6943       L1    20  0.61
      P1  H  6934  6947       L1    20  0.87

> <Gold.Chemscore.Hbond.Weighted>
-11.9847

> <Gold.Chemscore.Metal.Weighted>
-0.0000

> <Gold.Chemscore.Lipo.Weighted>
-7.1558

> <Gold.Chemscore.Internal_Hbond.Weighted>
0.0000

> <Gold.Chemscore.DEClash.Weighted>
0.0589

> <Gold.Chemscore.DEInternal.Weighted>
1.0793

> <Gold.Chemscore.Rot.Weighted>
5.5591

> <Gold.Chemscore.Internal.Correction.Weighted>
   9.000000E+99

> <Gold.Protein.RotatedTorsions>
[ 6907 6896 6895 6894 ] final  104.85 input  -60.11 | X-H torsion
[ 7974 7965 7964 7962 ] final  159.77 input  175.53 | X-H torsion
[ 8008 7997 7996 7995 ] final   35.06 input   59.86 | X-H torsion
[ 10167 10162 10161 10158 ] final    2.34 input  -65.29 | X-H torsion
[ 10718 10713 10712 10709 ] final  -46.16 input   66.30 | X-H torsion
[ 10763 10752 10751 10750 ] final  140.90 input  -60.55 | X-H torsion
[ 11005 11000 10999 10996 ] final  177.65 input  -57.11 | X-H torsion

> <Gold.Protein.ActiveResidues>
 VAL166  LYS551  ARG553  GLY616  TRP617  ASP618  TYR619  PRO620  LYS621  CYS622 
 ASP623  PHE694  ASN695  SER759  ASP760  ASP761  ALA762  ILE779  LEU786  VAL792 
 PHE793  MET794  SER795  GLU796  ALA797  LYS798  CYS799  TRP800  GLU811  SER814 

> <Gold.Protein.RotatedAtoms>
  152.5251  133.9616  159.7719 H   0  0  0  0  0  0  0  0  0  0  0  0  # atno 6907 bound_to 6896
  150.9906  133.6146  159.2716 H   0  0  0  0  0  0  0  0  0  0  0  0  # atno 6908 bound_to 6896
  151.3290  135.0843  159.9385 H   0  0  0  0  0  0  0  0  0  0  0  0  # atno 6909 bound_to 6896
  144.7772  139.7663  143.6274 H   0  0  0  0  0  0  0  0  0  0  0  0  # atno 7974 bound_to 7965
  155.1649  140.3286  155.4404 H   0  0  0  0  0  0  0  0  0  0  0  0  # atno 8008 bound_to 7997
  156.2530  140.1954  156.6705 H   0  0  0  0  0  0  0  0  0  0  0  0  # atno 8009 bound_to 7997
  154.6379  140.0574  156.9797 H   0  0  0  0  0  0  0  0  0  0  0  0  # atno 8010 bound_to 7997
  140.6640  143.7229  150.7791 H   0  0  0  0  0  0  0  0  0  0  0  0  # atno 10167 bound_to 10162
  156.2210  130.4166  149.8992 H   0  0  0  0  0  0  0  0  0  0  0  0  # atno 10718 bound_to 10713
  153.9303  135.2991  155.3446 H   0  0  0  0  0  0  0  0  0  0  0  0  # atno 10763 bound_to 10752
  154.7530  135.4971  153.9326 H   0  0  0  0  0  0  0  0  0  0  0  0  # atno 10764 bound_to 10752
  153.1095  135.6755  153.9631 H   0  0  0  0  0  0  0  0  0  0  0  0  # atno 10765 bound_to 10752
  140.3864  134.6901  157.4482 H   0  0  0  0  0  0  0  0  0  0  0  0  # atno 11005 bound_to 11000
  146.1959  139.5226  142.9774 LP  0  0  0  0  0  0  0  0  0  0  0  0  # atno 17320 bound_to 7965
  145.6151  141.0333  143.1945 LP  0  0  0  0  0  0  0  0  0  0  0  0  # atno 17321 bound_to 7965
  140.0903  143.4884  152.2482 LP  0  0  0  0  0  0  0  0  0  0  0  0  # atno 17342 bound_to 10162
  139.5882  144.7540  151.3466 LP  0  0  0  0  0  0  0  0  0  0  0  0  # atno 17343 bound_to 10162
  156.6639  130.8793  151.3551 LP  0  0  0  0  0  0  0  0  0  0  0  0  # atno 17370 bound_to 10713
  157.7087  130.9415  150.1018 LP  0  0  0  0  0  0  0  0  0  0  0  0  # atno 17371 bound_to 10713
  140.0439  134.6227  155.8945 LP  0  0  0  0  0  0  0  0  0  0  0  0  # atno 17394 bound_to 11000
  141.1906  133.6569  156.5418 LP  0  0  0  0  0  0  0  0  0  0  0  0  # atno 17395 bound_to 11000

$$$$
