#       Name:                AV-unprocessed.smi:3078
#       Creating user name   scv26
#       Creation time:       Fri Mar 27 17:12:54 2020


#       File generated by GOLD software.
#

@<TRIPOS>MOLECULE
AV-unprocessed.smi:3078
    25    25     1
SMALL
NO_CHARGES


@<TRIPOS>ATOM
      1 ****        -3.7677  -0.7668  -0.1910 C.3            1 S1                 0.0000
      2 ****        -2.4968  -0.0744  -0.1912 N.pl3          1 S1                 0.0000
      3 ****        -1.2278  -0.6030  -0.2871 C.2            1 S1                 0.0000
      4 ****        -0.3428   0.4397  -0.2454 C.2            1 S1                 0.0000
      5 ****         1.1621   0.4186  -0.2999 C.3            1 S1                 0.0000
      6 ****         1.6190  -0.3905  -1.4159 N.3            1 S1                 0.0000
      7 ****         1.7463  -0.1556   1.0034 C.3            1 S1                 0.0000
      8 ****         3.2103  -0.0024   1.0613 N.4            1 S1                 1.0000
      9 ****        -1.1872   1.5798  -0.1157 C.2            1 S1                 0.0000
     10 ****        -2.4726   1.2696  -0.0859 N.2            1 S1                 0.0000
     11 ****        -3.6069  -1.8452  -0.2003 H              1 S1                 0.0000
     12 ****        -4.3401  -0.4853  -1.0751 H              1 S1                 0.0000
     13 ****        -4.3339  -0.5010   0.7024 H              1 S1                 0.0000
     14 ****        -1.0598  -1.6665  -0.3750 H              1 S1                 0.0000
     15 ****         1.5430   1.4301  -0.4481 H              1 S1                 0.0000
     16 ****         0.8238  -0.6937  -1.9609 H              1 S1                 0.0000
     17 ****         2.1898   0.1694  -2.0337 H              1 S1                 0.0000
     18 ****         1.3275   0.3715   1.8615 H              1 S1                 0.0000
     19 ****         1.4857  -1.2087   1.1205 H              1 S1                 0.0000
     20 ****         3.5559  -0.3850   1.9296 H              1 S1                 0.0000
     21 ****         3.4500   0.9769   1.0036 H              1 S1                 0.0000
     22 ****        -0.9043   2.6196  -0.0428 H              1 S1                 0.0000
     23 ****         3.6256  -0.4977   0.2849 H              1 S1                 0.0000
     24 ****         2.1325  -1.1668  -1.0501 LP             1 S1                 0.0000
     25 ****        -3.2511   1.8918  -0.0037 LP             1 S1                 0.0000
@<TRIPOS>BOND
    1    1    2 1     
    2    1   11 1     
    3    1   12 1     
    4    1   13 1     
    5    2   10 1     
    6    2    3 1     
    7    3    4 2     
    8    3   14 1     
    9    4    5 1     
   10    4    9 1     
   11    5    6 1     
   12    5    7 1     
   13    5   15 1     
   14    6   16 1     
   15    6   17 1     
   16    7    8 1     
   17    7   18 1     
   18    7   19 1     
   19    8   20 1     
   20    8   21 1     
   21    8   23 1     
   22    9   10 2     
   23    9   22 1     
   24    6   24 1     
   25   10   25 1     
@<TRIPOS>SUBSTRUCTURE
      1 S1             1
@<TRIPOS>SET
LONE_PAIRS      STATIC     ATOMS    <user>   **** ""
2 24 25
DONOR_HYDROGENS      STATIC     ATOMS    <user>   **** ""
5 16 17 20 21 23
ATOM$BLUE        STATIC     ATOMS    COLORGROUP SYSTEM
2 24 25
ATOM$RED        STATIC     ATOMS    COLORGROUP SYSTEM
5 16 17 20 21 23
