AV-unprocessed.smi:34|AV-procd|sdf|220|dock1
  -GOLD-   2262015533D 1   1.00000     0.00000
 Structure written by MMmdl.
 55 59  0  0  0  0  0  0  0  0  1 V2000
  153.6034  140.3064  159.0144 O   0  0  0  0  0  0  0  0  0  0  0  0
  152.7472  141.0595  158.5495 C   0  0  0  0  0  0  0  0  0  0  0  0
  151.9367  140.6941  157.4011 N   0  0  0  0  0  0  0  0  0  0  0  0
  152.0126  139.5712  156.6486 C   0  0  0  0  0  0  0  0  0  0  0  0
  152.6927  139.5272  155.4730 N   0  0  0  0  0  0  0  0  0  0  0  0
  152.7432  138.3937  154.7681 C   0  0  0  0  0  0  0  0  0  0  0  0
  152.1928  137.2124  155.0525 N   0  0  0  0  0  0  0  0  0  0  0  0
  151.5018  137.2463  156.2277 C   0  0  0  0  0  0  0  0  0  0  0  0
  151.3647  138.3821  157.0744 C   0  0  0  0  0  0  0  0  0  0  0  0
  150.5949  138.0528  158.1821 N   0  0  0  0  0  0  0  0  0  0  0  0
  150.2996  136.7942  157.9985 C   0  0  0  0  0  0  0  0  0  0  0  0
  150.8090  136.2263  156.8520 N   0  0  0  0  0  0  0  0  0  0  0  0
  150.6440  134.8061  156.4019 C   0  0  1  0  0  0  0  0  0  0  0  0
  149.8688  134.0974  157.3205 O   0  0  0  0  0  0  0  0  0  0  0  0
  148.9097  133.2713  156.6553 C   0  0  1  0  0  0  0  0  0  0  0  0
  147.5004  133.8002  156.9592 C   0  0  0  0  0  0  0  0  0  0  0  0
  147.4969  134.4106  158.2396 O   0  0  0  0  0  0  0  0  0  0  0  0
  147.4547  133.6518  159.3525 C   0  0  0  0  0  0  0  0  0  0  0  0
  147.4485  132.4191  159.3397 O   0  0  0  0  0  0  0  0  0  0  0  0
  147.4088  134.4606  160.6043 C   0  0  0  0  0  0  0  0  0  0  0  0
  147.5681  135.8641  160.5288 C   0  0  0  0  0  0  0  0  0  0  0  0
  147.5301  136.6543  161.6941 C   0  0  0  0  0  0  0  0  0  0  0  0
  147.3316  136.0503  162.9494 C   0  0  0  0  0  0  0  0  0  0  0  0
  147.1723  134.6552  163.0380 C   0  0  0  0  0  0  0  0  0  0  0  0
  147.2114  133.8632  161.8739 C   0  0  0  0  0  0  0  0  0  0  0  0
  149.2546  133.3566  155.1641 C   0  0  2  0  0  0  0  0  0  0  0  0
  150.0997  132.3738  154.8473 F   0  0  0  0  0  0  0  0  0  0  0  0
  149.9666  134.6891  155.0309 C   0  0  1  0  0  0  0  0  0  0  0  0
  149.0613  135.7382  154.7373 O   0  0  0  0  0  0  0  0  0  0  0  0
  152.4189  142.3735  159.1962 C   0  0  0  0  0  0  0  0  0  0  0  0
  152.4661  142.4996  160.6028 C   0  0  0  0  0  0  0  0  0  0  0  0
  152.1720  143.7316  161.2188 C   0  0  0  0  0  0  0  0  0  0  0  0
  151.8372  144.8504  160.4328 C   0  0  0  0  0  0  0  0  0  0  0  0
  151.8004  144.7371  159.0302 C   0  0  0  0  0  0  0  0  0  0  0  0
  152.0932  143.5052  158.4131 C   0  0  0  0  0  0  0  0  0  0  0  0
  151.2253  141.3586  157.1333 H   0  0  0  0  0  0  0  0  0  0  0  0
  153.3051  138.4387  153.8466 H   0  0  0  0  0  0  0  0  0  0  0  0
  149.7024  136.2368  158.7053 H   0  0  0  0  0  0  0  0  0  0  0  0
  151.6540  134.3936  156.4041 H   0  0  0  0  0  0  0  0  0  0  0  0
  148.9935  132.2425  157.0083 H   0  0  0  0  0  0  0  0  0  0  0  0
  147.1836  134.5004  156.1861 H   0  0  0  0  0  0  0  0  0  0  0  0
  146.7833  132.9788  156.9641 H   0  0  0  0  0  0  0  0  0  0  0  0
  147.7211  136.3502  159.5760 H   0  0  0  0  0  0  0  0  0  0  0  0
  147.6531  137.7251  161.6240 H   0  0  0  0  0  0  0  0  0  0  0  0
  147.3020  136.6562  163.8429 H   0  0  0  0  0  0  0  0  0  0  0  0
  147.0193  134.1905  164.0010 H   0  0  0  0  0  0  0  0  0  0  0  0
  147.0878  132.7950  161.9775 H   0  0  0  0  0  0  0  0  0  0  0  0
  148.3909  133.2518  154.5059 H   0  0  0  0  0  0  0  0  0  0  0  0
  150.7270  134.6735  154.2492 H   0  0  0  0  0  0  0  0  0  0  0  0
  148.9121  135.7521  153.8039 H   0  0  0  0  0  0  0  0  0  0  0  0
  152.7226  141.6505  161.2200 H   0  0  0  0  0  0  0  0  0  0  0  0
  152.2044  143.8179  162.2948 H   0  0  0  0  0  0  0  0  0  0  0  0
  151.6123  145.7952  160.9054 H   0  0  0  0  0  0  0  0  0  0  0  0
  151.5500  145.5969  158.4264 H   0  0  0  0  0  0  0  0  0  0  0  0
  152.0680  143.4423  157.3349 H   0  0  0  0  0  0  0  0  0  0  0  0
  1  2  2  0  0  0  0
  2  3  1  0  0  0  0
  2 30  1  0  0  0  0
  3  4  1  0  0  0  0
  3 36  1  0  0  0  0
  4  9  1  0  0  0  0
  4  5  2  0  0  0  0
  5  6  1  0  0  0  0
  6  7  2  0  0  0  0
  6 37  1  0  0  0  0
  7  8  1  0  0  0  0
  8 12  1  0  0  0  0
  8  9  2  0  0  0  0
  9 10  1  0  0  0  0
 10 11  2  0  0  0  0
 11 12  1  0  0  0  0
 11 38  1  0  0  0  0
 12 13  1  0  0  0  0
 13 28  1  0  0  0  0
 13 14  1  0  0  0  0
 13 39  1  0  0  0  0
 14 15  1  0  0  0  0
 15 16  1  0  0  0  0
 15 26  1  0  0  0  0
 15 40  1  0  0  0  0
 16 17  1  0  0  0  0
 16 41  1  0  0  0  0
 16 42  1  0  0  0  0
 17 18  1  0  0  0  0
 18 19  2  0  0  0  0
 18 20  1  0  0  0  0
 20 25  1  0  0  0  0
 20 21  2  0  0  0  0
 21 22  1  0  0  0  0
 21 43  1  0  0  0  0
 22 23  2  0  0  0  0
 22 44  1  0  0  0  0
 23 24  1  0  0  0  0
 23 45  1  0  0  0  0
 24 25  2  0  0  0  0
 24 46  1  0  0  0  0
 25 47  1  0  0  0  0
 26 27  1  0  0  0  0
 26 28  1  0  0  0  0
 26 48  1  0  0  0  0
 28 29  1  0  0  0  0
 28 49  1  0  0  0  0
 29 50  1  0  0  0  0
 30 35  1  0  0  0  0
 30 31  2  0  0  0  0
 31 32  1  0  0  0  0
 31 51  1  0  0  0  0
 32 33  2  0  0  0  0
 32 52  1  0  0  0  0
 33 34  1  0  0  0  0
 33 53  1  0  0  0  0
 34 35  2  0  0  0  0
 34 54  1  0  0  0  0
 35 55  1  0  0  0  0
M  END
> <s_m_source_file>
AV-unprocessed.smi

> <i_m_source_file_index>
34

> <i_lp_mmshare_version>
43012

> <i_f3d_flags>
0

> <s_epik_input>
W2NIXTFbY0hdW2NIXVtjSF1bY0hdYzFDKD1PKVtOSF1jKG5bY0hdbjIpYyhjMjMpbltjSF1uM1tDQEBIXTRPW0NASF0oW0NAQEhdKEYpW0NASF00W09IXSlbQ0gyXU9DKD1PKWM1W2NIXVtjSF1bY0hdW2NIXVtjSF01

> <s_epik_cmdline>
J2VwaWtfcHl0aG9uJywgJy1waCcsICc3LjAnLCAnLXRuJywgJzgnLCAnLW1hJywgJzIwMCcsICctbWV0YWxfYmluZGluZycsICctaW1hZScsICc8aW5maWxlLm1hZT4nLCAnLW9tYWUnLCAnPG91dGZpbGUubWFlPic=

> <r_lp_tautomer_probability>
1

> <r_epik_Ionization_Penalty>
0.00257489

> <r_epik_Ionization_Penalty_Charging>
0

> <r_epik_Ionization_Penalty_Neutral>
0.00257489

> <r_epik_State_Penalty>
0.00519398

> <r_epik_Charging_Adjusted_Penalty>
0.00519398

> <i_epik_Tot_Q>
0

> <i_epik_Tot_abs_Q>
0

> <r_epik_Metal_State_Penalty>
0.335891

> <b_epik_Metal_Only>
0

> <s_epik_Chemistry_Notes>
This compound has an ester and may undergo hydrolysis at high or low pH. This compound contains an acetal/aminal-like group ( X-CH(R)-Y where X, Y are N, S, or O) that may be acid/base labile, releasing an aldehyde.

> <s_lp_Force_Field>
OPLS_2005

> <r_lp_Energy>
51.6643

> <b_lp_Chiralities_Consistent>
1

> <s_lp_Variant>
AV-unprocessed.smi:34-6

> <Gold.Version>
5.8.1

> <Gold.Id.Protein>
6NUR|6NUR_protein|mol2

> <Gold.PLP.Fitness>
73.4851

> <Gold.PLP.PLP>
-64.9836

> <Gold.PLP.part.hbond>
-5.1593

> <Gold.PLP.part.metal>
0.0000

> <Gold.PLP.part.buried>
-6.5319

> <Gold.PLP.part.nonpolar>
-53.7204

> <Gold.PLP.part.repulsive>
0.1855

> <Gold.PLP.ligand.clash>
0.0000

> <Gold.PLP.ligand.torsion>
1.8059

> <Gold.PLP.Chemscore.Hbond>
3.9296

> <Gold.PLP.Chemscore.CHOScore>
0.0000

> <Gold.PLP.Chemscore.Metal>
0.0000

> <Gold.Chemscore.Hbonds>
donor molecule, donor type, donor heavy atom, donor atom, acceptor molecule, acceptor atom, score
      L1  H    29    50       P1  7948  1.00
      P1  H  6896  6907       L1    14  0.68
      P1  H  7997  8008       L1     1  0.23
      P1  H  7997  8009       L1     5  0.94
      P1  H 10752 10765       L1     7  0.82

> <Gold.PLP.Chemscore.Internal.Correction>
0.3244

> <Gold.Rescore>
     Score         DG    S(hbond)    S(metal)    S(lipo)     H(rot)  DE(clash)    DE(int)     intcor
     23.67     -25.21       3.08        0.00     140.18       2.72       0.07       1.47       ----

> <Gold.Chemscore.Fitness>
23.6717

> <Gold.Chemscore.DG>
-25.2135

> <Gold.Chemscore.ZeroCoef>
-5.4800

> <Gold.Chemscore.Hbond>
3.0836

> <Gold.Chemscore.Metal>
0.0000

> <Gold.Chemscore.Lipo>
140.1823

> <Gold.Chemscore.Internal_Hbond>
0.0000

> <Gold.Chemscore.DEClash>
0.0729

> <Gold.Chemscore.DEInternal>
1.4689

> <Gold.Chemscore.Rot>
2.7215

> <Gold.Chemscore.Internal.Correction>
   9.000000E+99

> <Gold.Chemscore.Hbonds>
donor molecule, donor type, donor heavy atom, donor atom, acceptor molecule, acceptor atom, score
      L1  H    29    50       P1  7948  0.92
      P1  H  6896  6907       L1    14  0.57
      P1  H  7997  8008       L1     1  0.11
      P1  H  7997  8009       L1     5  0.43
      P1  H 10752 10765       L1     7  0.76

> <Gold.Chemscore.Hbond.Weighted>
-10.2992

> <Gold.Chemscore.Metal.Weighted>
-0.0000

> <Gold.Chemscore.Lipo.Weighted>
-16.4013

> <Gold.Chemscore.Internal_Hbond.Weighted>
0.0000

> <Gold.Chemscore.DEClash.Weighted>
0.0729

> <Gold.Chemscore.DEInternal.Weighted>
1.4689

> <Gold.Chemscore.Rot.Weighted>
6.9670

> <Gold.Chemscore.Internal.Correction.Weighted>
   9.000000E+99

> <Gold.Protein.RotatedTorsions>
[ 6907 6896 6895 6894 ] final -115.91 input  -60.11 | X-H torsion
[ 7974 7965 7964 7962 ] final   37.17 input  175.53 | X-H torsion
[ 8008 7997 7996 7995 ] final -123.95 input   59.86 | X-H torsion
[ 10167 10162 10161 10158 ] final   23.34 input  -65.29 | X-H torsion
[ 10718 10713 10712 10709 ] final   95.99 input   66.30 | X-H torsion
[ 10763 10752 10751 10750 ] final  179.74 input  -60.55 | X-H torsion
[ 11005 11000 10999 10996 ] final  -83.74 input  -57.11 | X-H torsion

> <Gold.Protein.ActiveResidues>
 VAL166  LYS551  ARG553  GLY616  TRP617  ASP618  TYR619  PRO620  LYS621  CYS622 
 ASP623  PHE694  ASN695  SER759  ASP760  ASP761  ALA762  ILE779  LEU786  VAL792 
 PHE793  MET794  SER795  GLU796  ALA797  LYS798  CYS799  TRP800  GLU811  SER814 

> <Gold.Protein.RotatedAtoms>
  150.8015  133.8591  159.3226 H   0  0  0  0  0  0  0  0  0  0  0  0  # atno 6907 bound_to 6896
  151.6402  135.1012  160.0149 H   0  0  0  0  0  0  0  0  0  0  0  0  # atno 6908 bound_to 6896
  152.4102  133.6912  159.6426 H   0  0  0  0  0  0  0  0  0  0  0  0  # atno 6909 bound_to 6896
  146.1157  139.5927  142.9323 H   0  0  0  0  0  0  0  0  0  0  0  0  # atno 7974 bound_to 7965
  155.1888  140.0412  157.2896 H   0  0  0  0  0  0  0  0  0  0  0  0  # atno 8008 bound_to 7997
  154.6153  140.2487  155.7589 H   0  0  0  0  0  0  0  0  0  0  0  0  # atno 8009 bound_to 7997
  156.2402  140.2906  156.0434 H   0  0  0  0  0  0  0  0  0  0  0  0  # atno 8010 bound_to 7997
  140.5276  143.9896  150.6449 H   0  0  0  0  0  0  0  0  0  0  0  0  # atno 10167 bound_to 10162
  157.6932  131.0563  150.4422 H   0  0  0  0  0  0  0  0  0  0  0  0  # atno 10718 bound_to 10713
  154.5246  135.2796  155.1233 H   0  0  0  0  0  0  0  0  0  0  0  0  # atno 10763 bound_to 10752
  154.2777  135.6291  153.5338 H   0  0  0  0  0  0  0  0  0  0  0  0  # atno 10764 bound_to 10752
  152.9944  135.5643  154.5744 H   0  0  0  0  0  0  0  0  0  0  0  0  # atno 10765 bound_to 10752
  141.1655  133.7310  156.8766 H   0  0  0  0  0  0  0  0  0  0  0  0  # atno 11005 bound_to 11000
  145.5571  141.0408  143.2246 LP  0  0  0  0  0  0  0  0  0  0  0  0  # atno 17320 bound_to 7965
  144.7551  139.7095  143.7257 LP  0  0  0  0  0  0  0  0  0  0  0  0  # atno 17321 bound_to 7965
  140.3262  143.3106  152.0734 LP  0  0  0  0  0  0  0  0  0  0  0  0  # atno 17342 bound_to 10162
  139.4943  144.6540  151.6613 LP  0  0  0  0  0  0  0  0  0  0  0  0  # atno 17343 bound_to 10162
  156.4780  130.4067  149.6478 LP  0  0  0  0  0  0  0  0  0  0  0  0  # atno 17370 bound_to 10713
  156.3534  130.7444  151.2406 LP  0  0  0  0  0  0  0  0  0  0  0  0  # atno 17371 bound_to 10713
  140.1744  134.9077  157.2873 LP  0  0  0  0  0  0  0  0  0  0  0  0  # atno 17394 bound_to 11000
  140.2465  134.3734  155.7459 LP  0  0  0  0  0  0  0  0  0  0  0  0  # atno 17395 bound_to 11000

$$$$
