AV-unprocessed.smi:1218|AV-procd|sdf|5108|dock5
  -GOLD-   22720 4163D 1   1.00000     0.00000
 Structure written by MMmdl.
 45 46  0  0  0  0  0  0  0  0  2 V2000
  145.4276  129.1219  151.8007 C   0  0  0  0  0  0  0  0  0  0  0  0
  146.5324  130.0060  152.4032 C   0  0  0  0  0  0  0  0  0  0  0  0
  146.8039  129.6050  153.8608 C   0  0  0  0  0  0  0  0  0  0  0  0
  146.1848  131.5077  152.3107 C   0  0  0  0  0  0  0  0  0  0  0  0
  146.5024  132.1017  150.9831 N   0  3  1  0  0  0  0  0  0  0  0  0
  145.6227  131.6172  149.8915 C   0  0  0  0  0  0  0  0  0  0  0  0
  144.2505  132.3133  149.9332 C   0  0  0  0  0  0  0  0  0  0  0  0
  144.4333  133.7220  149.8617 O   0  0  0  0  0  0  0  0  0  0  0  0
  145.1767  134.2326  150.9646 C   0  0  2  0  0  0  0  0  0  0  0  0
  145.2586  135.7636  150.8290 C   0  0  0  0  0  0  0  0  0  0  0  0
  146.0801  136.3635  151.8749 N   0  0  0  0  0  0  0  0  0  0  0  0
  145.6226  137.1675  152.8469 C   0  0  0  0  0  0  0  0  0  0  0  0
  144.4398  137.4983  152.9434 O   0  0  0  0  0  0  0  0  0  0  0  0
  146.6629  137.6609  153.8588 C   0  0  0  0  0  0  0  0  0  0  0  0
  146.7052  139.1112  153.9481 N   0  0  0  0  0  0  0  0  0  0  0  0
  147.1143  140.0184  152.9923 C   0  0  0  0  0  0  0  0  0  0  0  0
  146.9792  141.2659  153.5309 C   0  0  0  0  0  0  0  0  0  0  0  0
  146.4753  141.0166  154.8383 C   0  0  0  0  0  0  0  0  0  0  0  0
  146.3138  139.7267  155.0855 N   0  0  0  0  0  0  0  0  0  0  0  0
  146.5795  133.5855  150.9623 C   0  0  0  0  0  0  0  0  0  0  0  0
  144.4781  129.2650  152.3175 H   0  0  0  0  0  0  0  0  0  0  0  0
  145.6884  128.0656  151.8742 H   0  0  0  0  0  0  0  0  0  0  0  0
  145.2692  129.3424  150.7448 H   0  0  0  0  0  0  0  0  0  0  0  0
  147.4522  129.8143  151.8520 H   0  0  0  0  0  0  0  0  0  0  0  0
  145.9246  129.7605  154.4867 H   0  0  0  0  0  0  0  0  0  0  0  0
  147.6214  130.1895  154.2842 H   0  0  0  0  0  0  0  0  0  0  0  0
  147.0829  128.5535  153.9342 H   0  0  0  0  0  0  0  0  0  0  0  0
  145.1178  131.6191  152.5090 H   0  0  0  0  0  0  0  0  0  0  0  0
  146.6921  132.0628  153.0995 H   0  0  0  0  0  0  0  0  0  0  0  0
  146.1074  131.8347  148.9387 H   0  0  0  0  0  0  0  0  0  0  0  0
  145.5118  130.5333  149.9358 H   0  0  0  0  0  0  0  0  0  0  0  0
  143.6443  131.9959  149.0847 H   0  0  0  0  0  0  0  0  0  0  0  0
  143.6962  132.0479  150.8348 H   0  0  0  0  0  0  0  0  0  0  0  0
  144.6591  133.9880  151.8927 H   0  0  0  0  0  0  0  0  0  0  0  0
  145.6622  136.0362  149.8523 H   0  0  0  0  0  0  0  0  0  0  0  0
  144.2603  136.1993  150.8825 H   0  0  0  0  0  0  0  0  0  0  0  0
  147.0650  136.1402  151.8665 H   0  0  0  0  0  0  0  0  0  0  0  0
  146.4356  137.2422  154.8405 H   0  0  0  0  0  0  0  0  0  0  0  0
  147.6566  137.3067  153.5803 H   0  0  0  0  0  0  0  0  0  0  0  0
  147.4629  139.7035  152.0198 H   0  0  0  0  0  0  0  0  0  0  0  0
  147.2060  142.2125  153.0632 H   0  0  0  0  0  0  0  0  0  0  0  0
  146.2246  141.7292  155.6100 H   0  0  0  0  0  0  0  0  0  0  0  0
  147.1754  133.9600  151.7933 H   0  0  0  0  0  0  0  0  0  0  0  0
  147.1098  133.8800  150.0555 H   0  0  0  0  0  0  0  0  0  0  0  0
  147.4274  131.7614  150.7613 H   0  0  0  0  0  0  0  0  0  0  0  0
  1  2  1  0  0  0  0
  1 21  1  0  0  0  0
  1 22  1  0  0  0  0
  1 23  1  0  0  0  0
  2  3  1  0  0  0  0
  2  4  1  0  0  0  0
  2 24  1  0  0  0  0
  3 25  1  0  0  0  0
  3 26  1  0  0  0  0
  3 27  1  0  0  0  0
  4  5  1  0  0  0  0
  4 28  1  0  0  0  0
  4 29  1  0  0  0  0
  5 20  1  0  0  0  0
  5  6  1  0  0  0  0
  5 45  1  0  0  0  0
  6  7  1  0  0  0  0
  6 30  1  0  0  0  0
  6 31  1  0  0  0  0
  7  8  1  0  0  0  0
  7 32  1  0  0  0  0
  7 33  1  0  0  0  0
  8  9  1  0  0  0  0
  9 10  1  0  0  0  0
  9 20  1  0  0  0  0
  9 34  1  0  0  0  0
 10 11  1  0  0  0  0
 10 35  1  0  0  0  0
 10 36  1  0  0  0  0
 11 12  1  0  0  0  0
 11 37  1  0  0  0  0
 12 13  2  0  0  0  0
 12 14  1  0  0  0  0
 14 15  1  0  0  0  0
 14 38  1  0  0  0  0
 14 39  1  0  0  0  0
 15 19  1  0  0  0  0
 15 16  1  0  0  0  0
 16 17  2  0  0  0  0
 16 40  1  0  0  0  0
 17 18  1  0  0  0  0
 17 41  1  0  0  0  0
 18 19  2  0  0  0  0
 18 42  1  0  0  0  0
 20 43  1  0  0  0  0
 20 44  1  0  0  0  0
M  CHG  1   5   1
M  END
> <s_m_source_file>
AV-unprocessed.smi

> <i_m_source_file_index>
1218

> <i_lp_mmshare_version>
43012

> <i_f3d_flags>
0

> <s_epik_input>
W0NIM11bQ0hdKFtDSDNdKVtDSDJdTjFbQ0gyXVtDSDJdT1tDQEhdKFtDSDJdMSlbQ0gyXVtOSF1DKD1PKVtDSDJdbjJbY0hdW2NIXVtjSF1uMg==

> <s_epik_cmdline>
J2VwaWtfcHl0aG9uJywgJy1waCcsICc3LjAnLCAnLXRuJywgJzgnLCAnLW1hJywgJzIwMCcsICctbWV0YWxfYmluZGluZycsICctaW1hZScsICc8aW5maWxlLm1hZT4nLCAnLW9tYWUnLCAnPG91dGZpbGUubWFlPic=

> <r_lp_tautomer_probability>
1

> <r_epik_Ionization_Penalty>
0.0995066

> <r_epik_Ionization_Penalty_Charging>
0.0994921

> <r_epik_Ionization_Penalty_Neutral>
1.44634e-05

> <r_epik_State_Penalty>
0.0895432

> <r_epik_Charging_Adjusted_Penalty>
0.189035

> <i_epik_Tot_Q>
1

> <i_epik_Tot_abs_Q>
1

> <r_epik_Metal_State_Penalty>
0.0895432

> <b_epik_Metal_Only>
0

> <s_lp_Force_Field>
OPLS_2005

> <r_lp_Energy>
21.49

> <b_lp_Chiralities_Consistent>
1

> <s_lp_Variant>
AV-unprocessed.smi:1218-3

> <Gold.Version>
5.8.1

> <Gold.Id.Protein>
6NUR|6NUR_protein|mol2

> <Gold.PLP.Fitness>
42.7226

> <Gold.PLP.PLP>
-34.6977

> <Gold.PLP.part.hbond>
-2.0000

> <Gold.PLP.part.metal>
0.0000

> <Gold.PLP.part.buried>
-7.0607

> <Gold.PLP.part.nonpolar>
-27.7877

> <Gold.PLP.part.repulsive>
1.7109

> <Gold.PLP.ligand.clash>
0.0000

> <Gold.PLP.ligand.torsion>
0.4506

> <Gold.PLP.Chemscore.Hbond>
2.0000

> <Gold.PLP.Chemscore.CHOScore>
0.9346

> <Gold.PLP.Chemscore.Metal>
0.0000

> <Gold.Chemscore.Hbonds>
donor molecule, donor type, donor heavy atom, donor atom, acceptor molecule, acceptor atom, score
      L1  H     5    45       P1 10747  1.00
      L1  H    11    37       P1  7948  1.00
      L1  C    16    40       P1  7957  0.94

> <Gold.PLP.Chemscore.Internal.Correction>
0.1225

> <Gold.Rescore>
     Score         DG    S(hbond)    S(metal)    S(lipo)     H(rot)  DE(clash)    DE(int)     intcor
     17.84     -18.30       2.00        0.00      95.49       1.96       0.07       0.40       ----

> <Gold.Chemscore.Fitness>
17.8358

> <Gold.Chemscore.DG>
-18.3047

> <Gold.Chemscore.ZeroCoef>
-5.4800

> <Gold.Chemscore.Hbond>
1.9988

> <Gold.Chemscore.Metal>
0.0000

> <Gold.Chemscore.Lipo>
95.4913

> <Gold.Chemscore.Internal_Hbond>
0.0000

> <Gold.Chemscore.DEClash>
0.0738

> <Gold.Chemscore.DEInternal>
0.3951

> <Gold.Chemscore.Rot>
1.9624

> <Gold.Chemscore.Internal.Correction>
   9.000000E+99

> <Gold.Chemscore.Hbonds>
donor molecule, donor type, donor heavy atom, donor atom, acceptor molecule, acceptor atom, score
      L1  H     5    45       P1 10747  1.00
      L1  H    11    37       P1  7948  1.00

> <Gold.Chemscore.Hbond.Weighted>
-6.6760

> <Gold.Chemscore.Metal.Weighted>
-0.0000

> <Gold.Chemscore.Lipo.Weighted>
-11.1725

> <Gold.Chemscore.Internal_Hbond.Weighted>
0.0000

> <Gold.Chemscore.DEClash.Weighted>
0.0738

> <Gold.Chemscore.DEInternal.Weighted>
0.3951

> <Gold.Chemscore.Rot.Weighted>
5.0237

> <Gold.Chemscore.Internal.Correction.Weighted>
   9.000000E+99

> <Gold.Protein.RotatedTorsions>
[ 6907 6896 6895 6894 ] final  -19.34 input  -60.11 | X-H torsion
[ 7974 7965 7964 7962 ] final -134.20 input  175.53 | X-H torsion
[ 8008 7997 7996 7995 ] final  116.33 input   59.86 | X-H torsion
[ 10167 10162 10161 10158 ] final  -93.78 input  -65.29 | X-H torsion
[ 10718 10713 10712 10709 ] final   80.88 input   66.30 | X-H torsion
[ 10763 10752 10751 10750 ] final  -83.10 input  -60.55 | X-H torsion
[ 11005 11000 10999 10996 ] final   65.77 input  -57.11 | X-H torsion

> <Gold.Protein.ActiveResidues>
 VAL166  LYS551  ARG553  GLY616  TRP617  ASP618  TYR619  PRO620  LYS621  CYS622 
 ASP623  PHE694  ASN695  SER759  ASP760  ASP761  ALA762  ILE779  LEU786  VAL792 
 PHE793  MET794  SER795  GLU796  ALA797  LYS798  CYS799  TRP800  GLU811  SER814 

> <Gold.Protein.RotatedAtoms>
  151.2646  135.0665  159.9110 H   0  0  0  0  0  0  0  0  0  0  0  0  # atno 6907 bound_to 6896
  152.5360  134.0194  159.7985 H   0  0  0  0  0  0  0  0  0  0  0  0  # atno 6908 bound_to 6896
  151.0423  133.5646  159.2681 H   0  0  0  0  0  0  0  0  0  0  0  0  # atno 6909 bound_to 6896
  144.9124  140.6912  143.5016 H   0  0  0  0  0  0  0  0  0  0  0  0  # atno 7974 bound_to 7965
  156.2433  140.2920  156.0506 H   0  0  0  0  0  0  0  0  0  0  0  0  # atno 8008 bound_to 7997
  155.1885  140.0406  157.2913 H   0  0  0  0  0  0  0  0  0  0  0  0  # atno 8009 bound_to 7997
  154.6211  140.2476  155.7556 H   0  0  0  0  0  0  0  0  0  0  0  0  # atno 8010 bound_to 7997
  140.3212  143.3048  152.0044 H   0  0  0  0  0  0  0  0  0  0  0  0  # atno 10167 bound_to 10162
  157.6818  130.9979  150.2144 H   0  0  0  0  0  0  0  0  0  0  0  0  # atno 10718 bound_to 10713
  154.5837  135.5568  153.7210 H   0  0  0  0  0  0  0  0  0  0  0  0  # atno 10763 bound_to 10752
  153.0091  135.6326  154.1946 H   0  0  0  0  0  0  0  0  0  0  0  0  # atno 10764 bound_to 10752
  154.1887  135.2883  155.3009 H   0  0  0  0  0  0  0  0  0  0  0  0  # atno 10765 bound_to 10752
  139.9873  134.6647  156.0153 H   0  0  0  0  0  0  0  0  0  0  0  0  # atno 11005 bound_to 11000
  145.3431  139.1726  143.4475 LP  0  0  0  0  0  0  0  0  0  0  0  0  # atno 17320 bound_to 7965
  146.3165  140.3475  142.8653 LP  0  0  0  0  0  0  0  0  0  0  0  0  # atno 17321 bound_to 7965
  139.4874  144.6309  151.7071 LP  0  0  0  0  0  0  0  0  0  0  0  0  # atno 17342 bound_to 10162
  140.5482  144.0469  150.6116 LP  0  0  0  0  0  0  0  0  0  0  0  0  # atno 17343 bound_to 10162
  156.2808  130.3733  149.7937 LP  0  0  0  0  0  0  0  0  0  0  0  0  # atno 17370 bound_to 10713
  156.5626  130.8390  151.3333 LP  0  0  0  0  0  0  0  0  0  0  0  0  # atno 17371 bound_to 10713
  141.1536  133.6545  156.4090 LP  0  0  0  0  0  0  0  0  0  0  0  0  # atno 17394 bound_to 11000
  140.4977  134.6515  157.5236 LP  0  0  0  0  0  0  0  0  0  0  0  0  # atno 17395 bound_to 11000

$$$$
