#       Name:                AV-unprocessed.smi:1460
#       Creating user name   scv26
#       Creation time:       Fri Mar 27 06:01:06 2020


#       File generated by GOLD software.
#

@<TRIPOS>MOLECULE
AV-unprocessed.smi:1460
    46    47     1
SMALL
NO_CHARGES


@<TRIPOS>ATOM
      1 ****        -3.2516  -0.7138   1.2378 C.3            1 S1                 0.0000
      2 ****        -2.3492  -0.0601   0.1782 C.3            1 S1                 0.0000
      3 ****        -2.7158  -0.4640  -1.2673 C.3            1 S1                 0.0000
      4 ****        -4.1055  -0.2041  -1.5970 N.pl3          1 S1                 0.0000
      5 ****        -5.1129  -1.1141  -1.8396 C.2            1 S1                 0.0000
      6 ****        -6.2456  -0.4027  -2.1140 C.2            1 S1                 0.0000
      7 ****        -5.8239   0.9531  -2.0207 C.2            1 S1                 0.0000
      8 ****        -4.5418   1.0687  -1.7147 N.2            1 S1                 0.0000
      9 ****        -0.9588  -0.4078   0.4565 N.am           1 S1                 0.0000
     10 ****         0.1111   0.3351   0.1323 C.2            1 S1                 0.0000
     11 ****         0.0313   1.4177  -0.4488 O.2            1 S1                 0.0000
     12 ****         1.4808  -0.2354   0.5227 C.3            1 S1                 0.0000
     13 ****         2.1779   0.6645   1.5693 C.3            1 S1                 0.0000
     14 ****         3.6027   0.1643   1.8677 C.3            1 S1                 0.0000
     15 ****         4.3615   0.1163   0.6066 N.am           1 S1                 0.0000
     16 ****         5.3345   0.9804   0.2217 C.2            1 S1                 0.0000
     17 ****         5.7500   1.8309   1.1655 N.am           1 S1                 0.0000
     18 ****         5.8358   0.9901  -0.9013 O.2            1 S1                 0.0000
     19 ****         3.7970  -0.8771  -0.3155 C.3            1 S1                 0.0000
     20 ****         2.3798  -0.4325  -0.7207 C.3            1 S1                 0.0000
     21 ****        -4.2920  -0.4106   1.1199 H              1 S1                 0.0000
     22 ****        -2.9452  -0.4265   2.2442 H              1 S1                 0.0000
     23 ****        -3.2124  -1.8018   1.1754 H              1 S1                 0.0000
     24 ****        -2.4640   1.0210   0.2780 H              1 S1                 0.0000
     25 ****        -2.0905   0.0704  -1.9842 H              1 S1                 0.0000
     26 ****        -2.5229  -1.5271  -1.4194 H              1 S1                 0.0000
     27 ****        -4.9422  -2.1796  -1.7944 H              1 S1                 0.0000
     28 ****        -7.2254  -0.7913  -2.3477 H              1 S1                 0.0000
     29 ****        -6.4068   1.8504  -2.1671 H              1 S1                 0.0000
     30 ****        -0.7971  -1.2832   0.9327 H              1 S1                 0.0000
     31 ****         1.3295  -1.2160   0.9779 H              1 S1                 0.0000
     32 ****         2.2279   1.6947   1.2124 H              1 S1                 0.0000
     33 ****         1.5957   0.6848   2.4914 H              1 S1                 0.0000
     34 ****         4.0592   0.7885   2.6355 H              1 S1                 0.0000
     35 ****         3.5625  -0.8373   2.2985 H              1 S1                 0.0000
     36 ****         6.4745   2.5015   0.9555 H              1 S1                 0.0000
     37 ****         5.3383   1.7948   2.0866 H              1 S1                 0.0000
     38 ****         4.4105  -1.0216  -1.2059 H              1 S1                 0.0000
     39 ****         3.7602  -1.8498   0.1772 H              1 S1                 0.0000
     40 ****         1.9384  -1.1742  -1.3875 H              1 S1                 0.0000
     41 ****         2.4485   0.4943  -1.2929 H              1 S1                 0.0000
     42 ****        -4.0142   1.9100  -1.5969 LP             1 S1                 0.0000
     43 ****        -0.8639   1.7840  -0.7029 LP             1 S1                 0.0000
     44 ****         0.8616   1.9307  -0.6666 LP             1 S1                 0.0000
     45 ****         5.5286   0.3351  -1.5916 LP             1 S1                 0.0000
     46 ****         6.5505   1.6531  -1.1241 LP             1 S1                 0.0000
@<TRIPOS>BOND
    1    1    2 1     
    2    1   21 1     
    3    1   22 1     
    4    1   23 1     
    5    2    3 1     
    6    2    9 1     
    7    2   24 1     
    8    3    4 1     
    9    3   25 1     
   10    3   26 1     
   11    4    8 1     
   12    4    5 1     
   13    5    6 2     
   14    5   27 1     
   15    6    7 1     
   16    6   28 1     
   17    7    8 2     
   18    7   29 1     
   19    9   10 am    
   20    9   30 1     
   21   10   11 2     
   22   10   12 1     
   23   12   20 1     
   24   12   13 1     
   25   12   31 1     
   26   13   14 1     
   27   13   32 1     
   28   13   33 1     
   29   14   15 1     
   30   14   34 1     
   31   14   35 1     
   32   15   16 am    
   33   15   19 1     
   34   16   17 am    
   35   16   18 2     
   36   17   36 1     
   37   17   37 1     
   38   19   20 1     
   39   19   38 1     
   40   19   39 1     
   41   20   40 1     
   42   20   41 1     
   43    8   42 1     
   44   11   43 1     
   45   11   44 1     
   46   18   45 1     
   47   18   46 1     
@<TRIPOS>SUBSTRUCTURE
      1 S1             1
@<TRIPOS>SET
LONE_PAIRS      STATIC     ATOMS    <user>   **** ""
5 42 43 44 45 46
DONOR_HYDROGENS      STATIC     ATOMS    <user>   **** ""
3 30 36 37
ATOM$BLUE        STATIC     ATOMS    COLORGROUP SYSTEM
5 42 43 44 45 46
ATOM$RED        STATIC     ATOMS    COLORGROUP SYSTEM
3 30 36 37
