#       Name:                AV-unprocessed.smi:787
#       Creating user name   scv26
#       Creation time:       Fri Mar 27 01:16:18 2020


#       File generated by GOLD software.
#

@<TRIPOS>MOLECULE
AV-unprocessed.smi:787
    52    54     1
SMALL
NO_CHARGES


@<TRIPOS>ATOM
      1 ****        -3.9851  -0.0159   0.1484 C.3            1 S1                 0.0000
      2 ****        -2.7671   0.7788   0.1545 N.pl3          1 S1                 0.0000
      3 ****        -2.1869   1.1970  -1.0514 C.ar           1 S1                 0.0000
      4 ****        -2.8362   0.9933  -2.2214 N.ar           1 S1                 0.0000
      5 ****        -2.2368   1.3988  -3.3486 C.ar           1 S1                 0.0000
      6 ****        -1.0458   1.9974  -3.5056 N.ar           1 S1                 0.0000
      7 ****        -0.3979   2.2091  -2.3519 C.ar           1 S1                 0.0000
      8 ****         0.8426   2.8080  -2.2137 N.2            1 S1                 0.0000
      9 ****         1.0145   2.7731  -0.8945 C.2            1 S1                 0.0000
     10 ****         0.0366   2.2142  -0.1548 N.pl3          1 S1                 0.0000
     11 ****         0.0122   2.0626   1.2890 C.3            1 S1                 0.0000
     12 ****         0.4525   0.6546   1.7303 C.3            1 S1                 0.0000
     13 ****         0.1136   0.5077   3.0940 O.3            1 S1                 0.0000
     14 ****         1.9741   0.4311   1.5836 C.3            1 S1                 0.0000
     15 ****         2.4255  -0.9632   1.6714 N.3            1 S1                 0.0000
     16 ****         3.7633  -1.0157   2.2483 C.3            1 S1                 0.0000
     17 ****         2.4455  -1.6443   0.3712 C.3            1 S1                 0.0000
     18 ****         1.0926  -1.8928  -0.2699 C.ar           1 S1                 0.0000
     19 ****         0.1341  -2.6985   0.3811 C.ar           1 S1                 0.0000
     20 ****        -1.1145  -2.9407  -0.2241 C.ar           1 S1                 0.0000
     21 ****        -1.4033  -2.3907  -1.4879 C.ar           1 S1                 0.0000
     22 ****        -0.4444  -1.5960  -2.1448 C.ar           1 S1                 0.0000
     23 ****         0.7990  -1.3421  -1.5350 C.ar           1 S1                 0.0000
     24 ****        -0.9270   1.8272  -1.0828 C.ar           1 S1                 0.0000
     25 ****        -4.2768  -0.2561   1.1707 H              1 S1                 0.0000
     26 ****        -3.8342  -0.9509  -0.3918 H              1 S1                 0.0000
     27 ****        -4.8037   0.5318  -0.3197 H              1 S1                 0.0000
     28 ****        -2.2545   0.8804   1.0189 H              1 S1                 0.0000
     29 ****        -2.7867   1.2134  -4.2592 H              1 S1                 0.0000
     30 ****         1.9083   3.1730  -0.4380 H              1 S1                 0.0000
     31 ****         0.6499   2.8255   1.7380 H              1 S1                 0.0000
     32 ****        -1.0018   2.2734   1.6307 H              1 S1                 0.0000
     33 ****        -0.1220  -0.0790   1.1707 H              1 S1                 0.0000
     34 ****         0.6216   1.1240   3.5989 H              1 S1                 0.0000
     35 ****         2.3252   0.8540   0.6422 H              1 S1                 0.0000
     36 ****         2.4612   1.0299   2.3551 H              1 S1                 0.0000
     37 ****         4.1015  -2.0471   2.3532 H              1 S1                 0.0000
     38 ****         3.7753  -0.5681   3.2427 H              1 S1                 0.0000
     39 ****         4.4832  -0.4821   1.6259 H              1 S1                 0.0000
     40 ****         3.0814  -1.0964  -0.3260 H              1 S1                 0.0000
     41 ****         2.9090  -2.6250   0.4863 H              1 S1                 0.0000
     42 ****         0.3537  -3.1266   1.3483 H              1 S1                 0.0000
     43 ****        -1.8492  -3.5515   0.2796 H              1 S1                 0.0000
     44 ****        -2.3603  -2.5768  -1.9527 H              1 S1                 0.0000
     45 ****        -0.6661  -1.1733  -3.1136 H              1 S1                 0.0000
     46 ****         1.5259  -0.7258  -2.0436 H              1 S1                 0.0000
     47 ****        -3.7344   0.5543  -2.2436 LP             1 S1                 0.0000
     48 ****        -0.6775   2.2601  -4.3975 LP             1 S1                 0.0000
     49 ****         1.4501   3.1715  -2.9200 LP             1 S1                 0.0000
     50 ****         0.3191  -0.4239   3.3937 LP             1 S1                 0.0000
     51 ****        -0.8613   0.6911   3.2205 LP             1 S1                 0.0000
     52 ****         1.7656  -1.4389   2.2530 LP             1 S1                 0.0000
@<TRIPOS>BOND
    1    1    2 1     
    2    1   25 1     
    3    1   26 1     
    4    1   27 1     
    5    2    3 1     
    6    2   28 1     
    7    3   24 ar    
    8    3    4 ar    
    9    4    5 ar    
   10    5    6 ar    
   11    5   29 1     
   12    6    7 ar    
   13    7   24 ar    
   14    7    8 1     
   15    8    9 2     
   16    9   10 1     
   17    9   30 1     
   18   10   11 1     
   19   10   24 1     
   20   11   12 1     
   21   11   31 1     
   22   11   32 1     
   23   12   13 1     
   24   12   14 1     
   25   12   33 1     
   26   13   34 1     
   27   14   15 1     
   28   14   35 1     
   29   14   36 1     
   30   15   16 1     
   31   15   17 1     
   32   16   37 1     
   33   16   38 1     
   34   16   39 1     
   35   17   18 1     
   36   17   40 1     
   37   17   41 1     
   38   18   23 ar    
   39   18   19 ar    
   40   19   20 ar    
   41   19   42 1     
   42   20   21 ar    
   43   20   43 1     
   44   21   22 ar    
   45   21   44 1     
   46   22   23 ar    
   47   22   45 1     
   48   23   46 1     
   49    4   47 1     
   50    6   48 1     
   51    8   49 1     
   52   13   50 1     
   53   13   51 1     
   54   15   52 1     
@<TRIPOS>SUBSTRUCTURE
      1 S1             1
@<TRIPOS>SET
LONE_PAIRS      STATIC     ATOMS    <user>   **** ""
6 47 48 49 50 51 52
DONOR_HYDROGENS      STATIC     ATOMS    <user>   **** ""
2 28 34
ATOM$BLUE        STATIC     ATOMS    COLORGROUP SYSTEM
6 47 48 49 50 51 52
ATOM$RED        STATIC     ATOMS    COLORGROUP SYSTEM
2 28 34
