AV-unprocessed.smi:938|AV-procd|sdf|4217|dock5
  -GOLD-   22720 2123D 1   1.00000     0.00000
 Structure written by MMmdl.
 42 43  0  0  0  0  0  0  0  0  1 V2000
  146.5018  132.3747  161.9213 C   0  0  0  0  0  0  0  0  0  0  0  0
  146.1982  133.8548  162.1871 C   0  0  0  0  0  0  0  0  0  0  0  0
  144.6895  134.1369  162.2004 C   0  0  0  0  0  0  0  0  0  0  0  0
  146.8424  134.6749  161.1651 N   0  0  0  0  0  0  0  0  0  0  0  0
  147.6954  135.6915  161.3830 C   0  0  0  0  0  0  0  0  0  0  0  0
  148.0328  136.0653  162.5071 O   0  0  0  0  0  0  0  0  0  0  0  0
  148.2053  136.3937  160.1521 C   0  0  0  0  0  0  0  0  0  0  0  0
  147.5458  136.2234  158.9149 C   0  0  0  0  0  0  0  0  0  0  0  0
  148.0563  136.9071  157.7985 C   0  0  0  0  0  0  0  0  0  0  0  0
  149.1913  137.7168  157.9918 C   0  0  0  0  0  0  0  0  0  0  0  0
  149.7325  138.4108  156.9011 N   0  0  0  0  0  0  0  0  0  0  0  0
  151.0356  137.9122  156.4856 C   0  0  0  0  0  0  0  0  0  0  0  0
  151.4725  138.6127  155.1906 C   0  0  0  0  0  0  0  0  0  0  0  0
  151.4495  140.0288  155.3690 O   0  0  0  0  0  0  0  0  0  0  0  0
  150.1910  140.5746  155.7831 C   0  0  0  0  0  0  0  0  0  0  0  0
  150.4631  142.0570  156.0822 C   0  0  0  0  0  0  0  0  0  0  0  0
  149.1444  140.4688  154.6530 C   0  0  0  0  0  0  0  0  0  0  0  0
  149.7260  139.8583  157.0733 C   0  0  0  0  0  0  0  0  0  0  0  0
  149.7820  137.8468  159.2053 N   0  0  0  0  0  0  0  0  0  0  0  0
  149.2940  137.1971  160.2673 N   0  0  0  0  0  0  0  0  0  0  0  0
  146.0509  131.7389  162.6838 H   0  0  0  0  0  0  0  0  0  0  0  0
  147.5762  132.1875  161.9309 H   0  0  0  0  0  0  0  0  0  0  0  0
  146.1164  132.0572  160.9518 H   0  0  0  0  0  0  0  0  0  0  0  0
  146.5933  134.1012  163.1739 H   0  0  0  0  0  0  0  0  0  0  0  0
  144.1876  133.5491  162.9695 H   0  0  0  0  0  0  0  0  0  0  0  0
  144.2305  133.8921  161.2418 H   0  0  0  0  0  0  0  0  0  0  0  0
  144.4885  135.1888  162.4072 H   0  0  0  0  0  0  0  0  0  0  0  0
  146.6240  134.4538  160.2040 H   0  0  0  0  0  0  0  0  0  0  0  0
  146.6768  135.5894  158.8156 H   0  0  0  0  0  0  0  0  0  0  0  0
  147.5925  136.8114  156.8277 H   0  0  0  0  0  0  0  0  0  0  0  0
  151.7693  138.0969  157.2716 H   0  0  0  0  0  0  0  0  0  0  0  0
  150.9901  136.8334  156.3322 H   0  0  0  0  0  0  0  0  0  0  0  0
  152.4865  138.3106  154.9292 H   0  0  0  0  0  0  0  0  0  0  0  0
  150.8383  138.3186  154.3542 H   0  0  0  0  0  0  0  0  0  0  0  0
  149.5600  142.5657  156.4212 H   0  0  0  0  0  0  0  0  0  0  0  0
  150.8248  142.5789  155.1955 H   0  0  0  0  0  0  0  0  0  0  0  0
  151.2188  142.1717  156.8600 H   0  0  0  0  0  0  0  0  0  0  0  0
  148.2238  140.9860  154.9250 H   0  0  0  0  0  0  0  0  0  0  0  0
  148.8734  139.4370  154.4312 H   0  0  0  0  0  0  0  0  0  0  0  0
  149.5144  140.9182  153.7311 H   0  0  0  0  0  0  0  0  0  0  0  0
  148.7272  140.1955  157.3546 H   0  0  0  0  0  0  0  0  0  0  0  0
  150.3911  140.1176  157.8990 H   0  0  0  0  0  0  0  0  0  0  0  0
  1  2  1  0  0  0  0
  1 21  1  0  0  0  0
  1 22  1  0  0  0  0
  1 23  1  0  0  0  0
  2  3  1  0  0  0  0
  2  4  1  0  0  0  0
  2 24  1  0  0  0  0
  3 25  1  0  0  0  0
  3 26  1  0  0  0  0
  3 27  1  0  0  0  0
  4  5  1  0  0  0  0
  4 28  1  0  0  0  0
  5  6  2  0  0  0  0
  5  7  1  0  0  0  0
  7 20  1  0  0  0  0
  7  8  2  0  0  0  0
  8  9  1  0  0  0  0
  8 29  1  0  0  0  0
  9 10  2  0  0  0  0
  9 30  1  0  0  0  0
 10 11  1  0  0  0  0
 10 19  1  0  0  0  0
 11 18  1  0  0  0  0
 11 12  1  0  0  0  0
 12 13  1  0  0  0  0
 12 31  1  0  0  0  0
 12 32  1  0  0  0  0
 13 14  1  0  0  0  0
 13 33  1  0  0  0  0
 13 34  1  0  0  0  0
 14 15  1  0  0  0  0
 15 16  1  0  0  0  0
 15 17  1  0  0  0  0
 15 18  1  0  0  0  0
 16 35  1  0  0  0  0
 16 36  1  0  0  0  0
 16 37  1  0  0  0  0
 17 38  1  0  0  0  0
 17 39  1  0  0  0  0
 17 40  1  0  0  0  0
 18 41  1  0  0  0  0
 18 42  1  0  0  0  0
 19 20  2  0  0  0  0
M  END
> <s_m_source_file>
AV-unprocessed.smi

> <i_m_source_file_index>
938

> <i_lp_mmshare_version>
43012

> <i_f3d_flags>
0

> <s_epik_input>
W0NIM11bQ0hdKFtDSDNdKVtOSF1DKD1PKWMxW2NIXVtjSF1jKG5uMSlOKFtDSDJdMilbQ0gyXVtDSDJdT0MyKFtDSDNdKVtDSDNd

> <s_epik_cmdline>
J2VwaWtfcHl0aG9uJywgJy1waCcsICc3LjAnLCAnLXRuJywgJzgnLCAnLW1hJywgJzIwMCcsICctbWV0YWxfYmluZGluZycsICctaW1hZScsICc8aW5maWxlLm1hZT4nLCAnLW9tYWUnLCAnPG91dGZpbGUubWFlPic=

> <r_lp_tautomer_probability>
1

> <r_epik_Ionization_Penalty>
1.44833e-06

> <r_epik_Ionization_Penalty_Charging>
0

> <r_epik_Ionization_Penalty_Neutral>
1.44833e-06

> <r_epik_State_Penalty>
-0

> <r_epik_Charging_Adjusted_Penalty>
0

> <i_epik_Tot_Q>
0

> <i_epik_Tot_abs_Q>
0

> <r_epik_Metal_State_Penalty>
-0

> <b_epik_Metal_Only>
0

> <s_lp_Force_Field>
OPLS_2005

> <r_lp_Energy>
32.4644

> <b_lp_Chiralities_Consistent>
1

> <s_lp_Variant>
AV-unprocessed.smi:938-1

> <Gold.Version>
5.8.1

> <Gold.Id.Protein>
6NUR|6NUR_protein|mol2

> <Gold.PLP.Fitness>
33.3881

> <Gold.PLP.PLP>
-29.3769

> <Gold.PLP.part.hbond>
-2.6591

> <Gold.PLP.part.metal>
0.0000

> <Gold.PLP.part.buried>
-6.6574

> <Gold.PLP.part.nonpolar>
-20.7507

> <Gold.PLP.part.repulsive>
0.0224

> <Gold.PLP.ligand.clash>
0.0000

> <Gold.PLP.ligand.torsion>
0.2402

> <Gold.PLP.Chemscore.Hbond>
1.4640

> <Gold.PLP.Chemscore.CHOScore>
0.0000

> <Gold.PLP.Chemscore.Metal>
0.0000

> <Gold.Chemscore.Hbonds>
donor molecule, donor type, donor heavy atom, donor atom, acceptor molecule, acceptor atom, score
      P1  H  6931  6943       L1    20  0.46
      P1  H  7989  7998       L1    14  0.94

> <Gold.PLP.Chemscore.Internal.Correction>
0.0997

> <Gold.Rescore>
     Score         DG    S(hbond)    S(metal)    S(lipo)     H(rot)  DE(clash)    DE(int)     intcor
     11.76     -12.08       0.61        0.00      64.81       1.17       0.21       0.11       ----

> <Gold.Chemscore.Fitness>
11.7625

> <Gold.Chemscore.DG>
-12.0816

> <Gold.Chemscore.ZeroCoef>
-5.4800

> <Gold.Chemscore.Hbond>
0.6067

> <Gold.Chemscore.Metal>
0.0000

> <Gold.Chemscore.Lipo>
64.8104

> <Gold.Chemscore.Internal_Hbond>
0.0000

> <Gold.Chemscore.DEClash>
0.2128

> <Gold.Chemscore.DEInternal>
0.1063

> <Gold.Chemscore.Rot>
1.1749

> <Gold.Chemscore.Internal.Correction>
   9.000000E+99

> <Gold.Chemscore.Hbonds>
donor molecule, donor type, donor heavy atom, donor atom, acceptor molecule, acceptor atom, score
      P1  H  6931  6943       L1    20  0.27
      P1  H  7989  7998       L1    14  0.16

> <Gold.Chemscore.Hbond.Weighted>
-2.0264

> <Gold.Chemscore.Metal.Weighted>
-0.0000

> <Gold.Chemscore.Lipo.Weighted>
-7.5828

> <Gold.Chemscore.Internal_Hbond.Weighted>
0.0000

> <Gold.Chemscore.DEClash.Weighted>
0.2128

> <Gold.Chemscore.DEInternal.Weighted>
0.1063

> <Gold.Chemscore.Rot.Weighted>
3.0076

> <Gold.Chemscore.Internal.Correction.Weighted>
   9.000000E+99

> <Gold.Protein.RotatedTorsions>
[ 6907 6896 6895 6894 ] final   25.55 input  -60.11 | X-H torsion
[ 7974 7965 7964 7962 ] final -145.06 input  175.53 | X-H torsion
[ 8008 7997 7996 7995 ] final  -47.95 input   59.86 | X-H torsion
[ 10167 10162 10161 10158 ] final  136.27 input  -65.29 | X-H torsion
[ 10718 10713 10712 10709 ] final -121.01 input   66.30 | X-H torsion
[ 10763 10752 10751 10750 ] final  104.00 input  -60.55 | X-H torsion
[ 11005 11000 10999 10996 ] final   51.66 input  -57.11 | X-H torsion

> <Gold.Protein.ActiveResidues>
 VAL166  LYS551  ARG553  GLY616  TRP617  ASP618  TYR619  PRO620  LYS621  CYS622 
 ASP623  PHE694  ASN695  SER759  ASP760  ASP761  ALA762  ILE779  LEU786  VAL792 
 PHE793  MET794  SER795  GLU796  ALA797  LYS798  CYS799  TRP800  GLU811  SER814 

> <Gold.Protein.RotatedAtoms>
  151.9741  135.0062  160.0554 H   0  0  0  0  0  0  0  0  0  0  0  0  # atno 6907 bound_to 6896
  152.1756  133.4668  159.4940 H   0  0  0  0  0  0  0  0  0  0  0  0  # atno 6908 bound_to 6896
  150.6909  134.1816  159.4293 H   0  0  0  0  0  0  0  0  0  0  0  0  # atno 6909 bound_to 6896
  144.8254  140.5631  143.5551 H   0  0  0  0  0  0  0  0  0  0  0  0  # atno 7974 bound_to 7965
  154.4023  140.1333  156.4259 H   0  0  0  0  0  0  0  0  0  0  0  0  # atno 8008 bound_to 7997
  155.7598  140.3486  155.5172 H   0  0  0  0  0  0  0  0  0  0  0  0  # atno 8009 bound_to 7997
  155.8870  140.0997  157.1436 H   0  0  0  0  0  0  0  0  0  0  0  0  # atno 8010 bound_to 7997
  139.5186  144.6473  151.5403 H   0  0  0  0  0  0  0  0  0  0  0  0  # atno 10167 bound_to 10162
  156.1303  130.6391  150.9611 H   0  0  0  0  0  0  0  0  0  0  0  0  # atno 10718 bound_to 10713
  153.3601  135.3958  155.1712 H   0  0  0  0  0  0  0  0  0  0  0  0  # atno 10763 bound_to 10752
  154.8677  135.3677  154.5110 H   0  0  0  0  0  0  0  0  0  0  0  0  # atno 10764 bound_to 10752
  153.5569  135.7082  153.5625 H   0  0  0  0  0  0  0  0  0  0  0  0  # atno 10765 bound_to 10752
  140.0914  134.5204  155.8849 H   0  0  0  0  0  0  0  0  0  0  0  0  # atno 11005 bound_to 11000
  145.5013  139.1483  143.3656 LP  0  0  0  0  0  0  0  0  0  0  0  0  # atno 17320 bound_to 7965
  146.2559  140.5153  142.8874 LP  0  0  0  0  0  0  0  0  0  0  0  0  # atno 17321 bound_to 7965
  140.6263  143.9162  150.6567 LP  0  0  0  0  0  0  0  0  0  0  0  0  # atno 17342 bound_to 10162
  140.2451  143.3634  152.1453 LP  0  0  0  0  0  0  0  0  0  0  0  0  # atno 17343 bound_to 10162
  157.6482  131.0901  150.8108 LP  0  0  0  0  0  0  0  0  0  0  0  0  # atno 17370 bound_to 10713
  156.8194  130.4979  149.5345 LP  0  0  0  0  0  0  0  0  0  0  0  0  # atno 17371 bound_to 10713
  141.2079  133.6668  156.6335 LP  0  0  0  0  0  0  0  0  0  0  0  0  # atno 17394 bound_to 11000
  140.3347  134.7899  157.4353 LP  0  0  0  0  0  0  0  0  0  0  0  0  # atno 17395 bound_to 11000

$$$$
