AV-unprocessed.smi:2816|AV-procd|sdf|10842|dock2
  -GOLD-   2272015283D 1   1.00000     0.00000
 Structure written by MMmdl.
 43 45  0  0  0  0  0  0  0  0  1 V2000
  155.4388  139.2160  164.8880 C   0  0  0  0  0  0  0  0  0  0  0  0
  155.6103  137.8185  164.2674 C   0  0  0  0  0  0  0  0  0  0  0  0
  156.4535  136.9402  165.2100 C   0  0  0  0  0  0  0  0  0  0  0  0
  154.2267  137.1843  164.0367 C   0  0  0  0  0  0  0  0  0  0  0  0
  156.4824  138.0244  162.6353 S   0  0  0  0  0  0  0  0  0  0  0  0
  157.7048  138.8082  162.8744 O   0  0  0  0  0  0  0  0  0  0  0  0
  156.5921  136.7025  161.9978 O   0  0  0  0  0  0  0  0  0  0  0  0
  155.3932  139.0239  161.6183 C   0  0  0  0  0  0  0  0  0  0  0  0
  154.8812  140.2386  162.1174 C   0  0  0  0  0  0  0  0  0  0  0  0
  153.9931  140.9682  161.3052 C   0  0  0  0  0  0  0  0  0  0  0  0
  153.6438  140.4537  160.0340 C   0  0  0  0  0  0  0  0  0  0  0  0
  152.7615  141.0993  159.1550 N   0  0  0  0  0  0  0  0  0  0  0  0
  152.0269  142.2930  159.5571 C   0  0  2  0  0  0  0  0  0  0  0  0
  151.2131  142.9151  158.4138 C   0  0  0  0  0  0  0  0  0  0  0  0
  151.7545  144.3494  158.3814 C   0  0  1  0  0  0  0  0  0  0  0  0
  151.3391  145.1563  159.6191 C   0  0  0  0  0  0  0  0  0  0  0  0
  152.2266  144.5441  160.7024 C   0  0  0  0  0  0  0  0  0  0  0  0
  152.9711  143.4517  159.9223 C   0  0  2  0  0  0  0  0  0  0  0  0
  153.1189  144.1042  158.6714 O   0  0  0  0  0  0  0  0  0  0  0  0
  154.2157  139.2236  159.6423 C   0  0  0  0  0  0  0  0  0  0  0  0
  155.0667  138.5131  160.4119 N   0  0  0  0  0  0  0  0  0  0  0  0
  154.9308  139.1637  165.8517 H   0  0  0  0  0  0  0  0  0  0  0  0
  154.8500  139.8675  164.2415 H   0  0  0  0  0  0  0  0  0  0  0  0
  156.4031  139.6990  165.0495 H   0  0  0  0  0  0  0  0  0  0  0  0
  157.4590  137.3421  165.3371 H   0  0  0  0  0  0  0  0  0  0  0  0
  156.5482  135.9214  164.8365 H   0  0  0  0  0  0  0  0  0  0  0  0
  155.9991  136.8770  166.1992 H   0  0  0  0  0  0  0  0  0  0  0  0
  153.6687  137.1067  164.9705 H   0  0  0  0  0  0  0  0  0  0  0  0
  154.3093  136.1786  163.6247 H   0  0  0  0  0  0  0  0  0  0  0  0
  153.6271  137.7767  163.3451 H   0  0  0  0  0  0  0  0  0  0  0  0
  155.1555  140.6021  163.0964 H   0  0  0  0  0  0  0  0  0  0  0  0
  153.5933  141.9023  161.6701 H   0  0  0  0  0  0  0  0  0  0  0  0
  152.4499  140.6094  158.3282 H   0  0  0  0  0  0  0  0  0  0  0  0
  151.3985  142.0522  160.4154 H   0  0  0  0  0  0  0  0  0  0  0  0
  151.4102  142.4202  157.4616 H   0  0  0  0  0  0  0  0  0  0  0  0
  150.1387  142.8799  158.5955 H   0  0  0  0  0  0  0  0  0  0  0  0
  151.5819  144.8655  157.4365 H   0  0  0  0  0  0  0  0  0  0  0  0
  151.5681  146.2147  159.4901 H   0  0  0  0  0  0  0  0  0  0  0  0
  150.2750  145.0603  159.8370 H   0  0  0  0  0  0  0  0  0  0  0  0
  152.9258  145.2873  161.0871 H   0  0  0  0  0  0  0  0  0  0  0  0
  151.6576  144.1445  161.5425 H   0  0  0  0  0  0  0  0  0  0  0  0
  153.9081  143.1449  160.3895 H   0  0  0  0  0  0  0  0  0  0  0  0
  153.9769  138.7897  158.6822 H   0  0  0  0  0  0  0  0  0  0  0  0
  1  2  1  0  0  0  0
  1 22  1  0  0  0  0
  1 23  1  0  0  0  0
  1 24  1  0  0  0  0
  2  3  1  0  0  0  0
  2  4  1  0  0  0  0
  2  5  1  0  0  0  0
  3 25  1  0  0  0  0
  3 26  1  0  0  0  0
  3 27  1  0  0  0  0
  4 28  1  0  0  0  0
  4 29  1  0  0  0  0
  4 30  1  0  0  0  0
  5  6  2  0  0  0  0
  5  7  2  0  0  0  0
  5  8  1  0  0  0  0
  8 21  1  0  0  0  0
  8  9  2  0  0  0  0
  9 10  1  0  0  0  0
  9 31  1  0  0  0  0
 10 11  2  0  0  0  0
 10 32  1  0  0  0  0
 11 12  1  0  0  0  0
 11 20  1  0  0  0  0
 12 13  1  0  0  0  0
 12 33  1  0  0  0  0
 13 18  1  0  0  0  0
 13 14  1  0  0  0  0
 13 34  1  0  0  0  0
 14 15  1  0  0  0  0
 14 35  1  0  0  0  0
 14 36  1  0  0  0  0
 15 19  1  0  0  0  0
 15 16  1  0  0  0  0
 15 37  1  0  0  0  0
 16 17  1  0  0  0  0
 16 38  1  0  0  0  0
 16 39  1  0  0  0  0
 17 18  1  0  0  0  0
 17 40  1  0  0  0  0
 17 41  1  0  0  0  0
 18 19  1  0  0  0  0
 18 42  1  0  0  0  0
 20 21  2  0  0  0  0
 20 43  1  0  0  0  0
M  END
> <s_m_source_file>
AV-unprocessed.smi

> <i_m_source_file_index>
2816

> <i_lp_mmshare_version>
43012

> <i_f3d_flags>
0

> <s_epik_input>
W0NIM11DKFtDSDNdKShbQ0gzXSlTKD1PKSg9TyljMVtjSF1bY0hdYyhbY0hdbjEpW05IXVtDQEhdKFtDSDJdW0NAQEhdMjMpW0NAQEhdKE8zKVtDSDJdW0NIMl0y

> <s_epik_cmdline>
J2VwaWtfcHl0aG9uJywgJy1waCcsICc3LjAnLCAnLXRuJywgJzgnLCAnLW1hJywgJzIwMCcsICctbWV0YWxfYmluZGluZycsICctaW1hZScsICc8aW5maWxlLm1hZT4nLCAnLW9tYWUnLCAnPG91dGZpbGUubWFlPic=

> <r_lp_tautomer_probability>
1

> <r_epik_Ionization_Penalty>
1.94439e-07

> <r_epik_Ionization_Penalty_Charging>
0

> <r_epik_Ionization_Penalty_Neutral>
1.94439e-07

> <r_epik_State_Penalty>
-0

> <r_epik_Charging_Adjusted_Penalty>
0

> <i_epik_Tot_Q>
0

> <i_epik_Tot_abs_Q>
0

> <r_epik_Metal_State_Penalty>
-0

> <b_epik_Metal_Only>
0

> <s_lp_Force_Field>
OPLS_2005

> <r_lp_Energy>
42.0373

> <b_lp_Chiralities_Consistent>
1

> <s_lp_Variant>
AV-unprocessed.smi:2816-1

> <Gold.Version>
5.8.1

> <Gold.Id.Protein>
6NUR|6NUR_protein|mol2

> <Gold.PLP.Fitness>
39.0854

> <Gold.PLP.PLP>
-39.2850

> <Gold.PLP.part.hbond>
0.0000

> <Gold.PLP.part.metal>
0.0000

> <Gold.PLP.part.buried>
-5.5687

> <Gold.PLP.part.nonpolar>
-33.5366

> <Gold.PLP.part.repulsive>
0.1062

> <Gold.PLP.ligand.clash>
0.0000

> <Gold.PLP.ligand.torsion>
1.2172

> <Gold.PLP.Chemscore.Hbond>
0.0000

> <Gold.PLP.Chemscore.CHOScore>
0.0000

> <Gold.PLP.Chemscore.Metal>
0.0000

> <Gold.PLP.Chemscore.Internal.Correction>
2.2348

> <Gold.Rescore>
     Score         DG    S(hbond)    S(metal)    S(lipo)     H(rot)  DE(clash)    DE(int)     intcor
     15.77     -17.08       0.00        0.00     124.27       1.15       0.03       1.28       ----

> <Gold.Chemscore.Fitness>
15.7731

> <Gold.Chemscore.DG>
-17.0833

> <Gold.Chemscore.ZeroCoef>
-5.4800

> <Gold.Chemscore.Hbond>
0.0000

> <Gold.Chemscore.Metal>
0.0000

> <Gold.Chemscore.Lipo>
124.2723

> <Gold.Chemscore.Internal_Hbond>
0.0000

> <Gold.Chemscore.DEClash>
0.0339

> <Gold.Chemscore.DEInternal>
1.2763

> <Gold.Chemscore.Rot>
1.1471

> <Gold.Chemscore.Internal.Correction>
   9.000000E+99

> <Gold.Chemscore.Hbond.Weighted>
-0.0000

> <Gold.Chemscore.Metal.Weighted>
-0.0000

> <Gold.Chemscore.Lipo.Weighted>
-14.5399

> <Gold.Chemscore.Internal_Hbond.Weighted>
0.0000

> <Gold.Chemscore.DEClash.Weighted>
0.0339

> <Gold.Chemscore.DEInternal.Weighted>
1.2763

> <Gold.Chemscore.Rot.Weighted>
2.9366

> <Gold.Chemscore.Internal.Correction.Weighted>
   9.000000E+99

> <Gold.Protein.RotatedTorsions>
[ 6907 6896 6895 6894 ] final   62.05 input  -60.11 | X-H torsion
[ 7974 7965 7964 7962 ] final  -72.75 input  175.53 | X-H torsion
[ 8008 7997 7996 7995 ] final  163.84 input   59.86 | X-H torsion
[ 10167 10162 10161 10158 ] final   99.17 input  -65.29 | X-H torsion
[ 10718 10713 10712 10709 ] final  -13.40 input   66.30 | X-H torsion
[ 10763 10752 10751 10750 ] final  101.75 input  -60.55 | X-H torsion
[ 11005 11000 10999 10996 ] final   60.65 input  -57.11 | X-H torsion

> <Gold.Protein.ActiveResidues>
 VAL166  LYS551  ARG553  GLY616  TRP617  ASP618  TYR619  PRO620  LYS621  CYS622 
 ASP623  PHE694  ASN695  SER759  ASP760  ASP761  ALA762  ILE779  LEU786  VAL792 
 PHE793  MET794  SER795  GLU796  ALA797  LYS798  CYS799  TRP800  GLU811  SER814 

> <Gold.Protein.RotatedAtoms>
  152.4140  134.6075  160.0016 H   0  0  0  0  0  0  0  0  0  0  0  0  # atno 6907 bound_to 6896
  151.6244  133.3331  159.3103 H   0  0  0  0  0  0  0  0  0  0  0  0  # atno 6908 bound_to 6896
  150.8029  134.7175  159.6683 H   0  0  0  0  0  0  0  0  0  0  0  0  # atno 6909 bound_to 6896
  145.6611  140.9252  143.0933 H   0  0  0  0  0  0  0  0  0  0  0  0  # atno 7974 bound_to 7965
  156.1926  140.1713  156.8061 H   0  0  0  0  0  0  0  0  0  0  0  0  # atno 8008 bound_to 7997
  154.5490  140.0721  156.8668 H   0  0  0  0  0  0  0  0  0  0  0  0  # atno 8009 bound_to 7997
  155.3065  140.3365  155.4248 H   0  0  0  0  0  0  0  0  0  0  0  0  # atno 8010 bound_to 7997
  139.7641  144.6944  151.0249 H   0  0  0  0  0  0  0  0  0  0  0  0  # atno 10167 bound_to 10162
  156.6308  130.4901  149.6130 H   0  0  0  0  0  0  0  0  0  0  0  0  # atno 10718 bound_to 10713
  153.3307  135.4034  155.1493 H   0  0  0  0  0  0  0  0  0  0  0  0  # atno 10763 bound_to 10752
  154.8622  135.3610  154.5474 H   0  0  0  0  0  0  0  0  0  0  0  0  # atno 10764 bound_to 10752
  153.5912  135.7074  153.5481 H   0  0  0  0  0  0  0  0  0  0  0  0  # atno 10765 bound_to 10752
  140.0217  134.6143  155.9630 H   0  0  0  0  0  0  0  0  0  0  0  0  # atno 11005 bound_to 11000
  144.7089  139.8449  143.7421 LP  0  0  0  0  0  0  0  0  0  0  0  0  # atno 17320 bound_to 7965
  146.1125  139.4131  143.0279 LP  0  0  0  0  0  0  0  0  0  0  0  0  # atno 17321 bound_to 7965
  140.7809  143.4663  151.0208 LP  0  0  0  0  0  0  0  0  0  0  0  0  # atno 17342 bound_to 10162
  139.8348  143.7643  152.3180 LP  0  0  0  0  0  0  0  0  0  0  0  0  # atno 17343 bound_to 10162
  156.2236  130.6752  151.1393 LP  0  0  0  0  0  0  0  0  0  0  0  0  # atno 17370 bound_to 10713
  157.7200  131.0687  150.6173 LP  0  0  0  0  0  0  0  0  0  0  0  0  # atno 17371 bound_to 10713
  141.1778  133.6542  156.4896 LP  0  0  0  0  0  0  0  0  0  0  0  0  # atno 17394 bound_to 11000
  140.4376  134.7045  157.4975 LP  0  0  0  0  0  0  0  0  0  0  0  0  # atno 17395 bound_to 11000

$$$$
