AV-unprocessed.smi:2880|AV-procd|sdf|11053|dock6
  -GOLD-   2272015523D 1   1.00000     0.00000
 Structure written by MMmdl.
 47 48  0  0  0  0  0  0  0  0  1 V2000
  144.5831  132.3412  150.8627 C   0  0  0  0  0  0  0  0  0  0  0  0
  145.5649  133.3026  151.5601 C   0  0  0  0  0  0  0  0  0  0  0  0
  146.0559  132.6392  152.8689 C   0  0  0  0  0  0  0  0  0  0  0  0
  146.7846  133.5513  150.6513 C   0  0  0  0  0  0  0  0  0  0  0  0
  144.8844  134.5811  151.8064 N   0  0  0  0  0  0  0  0  0  0  0  0
  143.5883  134.9321  151.4676 C   0  0  0  0  0  0  0  0  0  0  0  0
  143.3705  136.2124  151.8904 C   0  0  0  0  0  0  0  0  0  0  0  0
  144.6082  136.5712  152.4873 C   0  0  0  0  0  0  0  0  0  0  0  0
  144.7916  137.8565  153.0577 N   0  0  0  0  0  0  0  0  0  0  0  0
  145.5372  138.1802  154.1280 C   0  0  0  0  0  0  0  0  0  0  0  0
  146.1818  137.3829  154.8098 O   0  0  0  0  0  0  0  0  0  0  0  0
  145.4962  139.5005  154.3609 N   0  0  0  0  0  0  0  0  0  0  0  0
  146.2064  140.2146  155.4248 C   0  0  2  0  0  0  0  0  0  0  0  0
  145.2154  141.0763  156.2333 C   0  0  0  0  0  0  0  0  0  0  0  0
  144.6871  142.2719  155.4225 C   0  0  0  0  0  0  0  0  0  0  0  0
  145.8413  143.1220  154.8721 C   0  0  0  0  0  0  0  0  0  0  0  0
  146.8193  142.2713  154.0462 C   0  0  0  0  0  0  0  0  0  0  0  0
  147.3665  141.0776  154.8580 C   0  0  2  0  0  0  0  0  0  0  0  0
  148.3947  140.2734  154.0340 C   0  0  0  0  0  0  0  0  0  0  0  0
  149.5589  141.0369  153.7982 O   0  0  0  0  0  0  0  0  0  0  0  0
  145.5101  135.6026  152.4398 N   0  0  0  0  0  0  0  0  0  0  0  0
  145.0464  131.3734  150.6685 H   0  0  0  0  0  0  0  0  0  0  0  0
  144.2425  132.7350  149.9046 H   0  0  0  0  0  0  0  0  0  0  0  0
  143.6997  132.1648  151.4775 H   0  0  0  0  0  0  0  0  0  0  0  0
  145.2288  132.4244  153.5470 H   0  0  0  0  0  0  0  0  0  0  0  0
  146.7670  133.2736  153.3998 H   0  0  0  0  0  0  0  0  0  0  0  0
  146.5586  131.6929  152.6663 H   0  0  0  0  0  0  0  0  0  0  0  0
  147.3260  132.6257  150.4530 H   0  0  0  0  0  0  0  0  0  0  0  0
  147.4848  134.2485  151.1130 H   0  0  0  0  0  0  0  0  0  0  0  0
  146.4935  133.9685  149.6868 H   0  0  0  0  0  0  0  0  0  0  0  0
  142.9307  134.2451  150.9558 H   0  0  0  0  0  0  0  0  0  0  0  0
  142.4684  136.7966  151.7876 H   0  0  0  0  0  0  0  0  0  0  0  0
  144.3143  138.6138  152.5920 H   0  0  0  0  0  0  0  0  0  0  0  0
  144.9342  140.0673  153.7433 H   0  0  0  0  0  0  0  0  0  0  0  0
  146.6359  139.4915  156.1201 H   0  0  0  0  0  0  0  0  0  0  0  0
  144.3826  140.4654  156.5841 H   0  0  0  0  0  0  0  0  0  0  0  0
  145.7149  141.4481  157.1289 H   0  0  0  0  0  0  0  0  0  0  0  0
  144.0676  141.9162  154.5984 H   0  0  0  0  0  0  0  0  0  0  0  0
  144.0404  142.8867  156.0490 H   0  0  0  0  0  0  0  0  0  0  0  0
  145.4460  143.9336  154.2604 H   0  0  0  0  0  0  0  0  0  0  0  0
  146.3753  143.5915  155.6991 H   0  0  0  0  0  0  0  0  0  0  0  0
  146.3209  141.9123  153.1447 H   0  0  0  0  0  0  0  0  0  0  0  0
  147.6442  142.8997  153.7089 H   0  0  0  0  0  0  0  0  0  0  0  0
  147.9021  141.4978  155.7112 H   0  0  0  0  0  0  0  0  0  0  0  0
  148.6672  139.3428  154.5323 H   0  0  0  0  0  0  0  0  0  0  0  0
  147.9714  140.0003  153.0671 H   0  0  0  0  0  0  0  0  0  0  0  0
  150.3115  140.5266  154.0559 H   0  0  0  0  0  0  0  0  0  0  0  0
  1  2  1  0  0  0  0
  1 22  1  0  0  0  0
  1 23  1  0  0  0  0
  1 24  1  0  0  0  0
  2  3  1  0  0  0  0
  2  4  1  0  0  0  0
  2  5  1  0  0  0  0
  3 25  1  0  0  0  0
  3 26  1  0  0  0  0
  3 27  1  0  0  0  0
  4 28  1  0  0  0  0
  4 29  1  0  0  0  0
  4 30  1  0  0  0  0
  5 21  1  0  0  0  0
  5  6  1  0  0  0  0
  6  7  2  0  0  0  0
  6 31  1  0  0  0  0
  7  8  1  0  0  0  0
  7 32  1  0  0  0  0
  8  9  1  0  0  0  0
  8 21  2  0  0  0  0
  9 10  1  0  0  0  0
  9 33  1  0  0  0  0
 10 11  2  0  0  0  0
 10 12  1  0  0  0  0
 12 13  1  0  0  0  0
 12 34  1  0  0  0  0
 13 18  1  0  0  0  0
 13 14  1  0  0  0  0
 13 35  1  0  0  0  0
 14 15  1  0  0  0  0
 14 36  1  0  0  0  0
 14 37  1  0  0  0  0
 15 16  1  0  0  0  0
 15 38  1  0  0  0  0
 15 39  1  0  0  0  0
 16 17  1  0  0  0  0
 16 40  1  0  0  0  0
 16 41  1  0  0  0  0
 17 18  1  0  0  0  0
 17 42  1  0  0  0  0
 17 43  1  0  0  0  0
 18 19  1  0  0  0  0
 18 44  1  0  0  0  0
 19 20  1  0  0  0  0
 19 45  1  0  0  0  0
 19 46  1  0  0  0  0
 20 47  1  0  0  0  0
M  END
> <s_m_source_file>
AV-unprocessed.smi

> <i_m_source_file_index>
2880

> <i_lp_mmshare_version>
43012

> <i_f3d_flags>
0

> <s_epik_input>
W0NIM11DKFtDSDNdKShbQ0gzXSluMVtjSF1bY0hdYyhuMSlbTkhdQyg9TylbTkhdW0NAQEhdMltDSDJdW0NIMl1bQ0gyXVtDSDJdW0NASF0yW0NIMl1bT0hd

> <s_epik_cmdline>
J2VwaWtfcHl0aG9uJywgJy1waCcsICc3LjAnLCAnLXRuJywgJzgnLCAnLW1hJywgJzIwMCcsICctbWV0YWxfYmluZGluZycsICctaW1hZScsICc8aW5maWxlLm1hZT4nLCAnLW9tYWUnLCAnPG91dGZpbGUubWFlPic=

> <r_lp_tautomer_probability>
1

> <r_epik_Ionization_Penalty>
3.89283e-05

> <r_epik_Ionization_Penalty_Charging>
0

> <r_epik_Ionization_Penalty_Neutral>
3.89283e-05

> <r_epik_State_Penalty>
-0

> <r_epik_Charging_Adjusted_Penalty>
0

> <i_epik_Tot_Q>
0

> <i_epik_Tot_abs_Q>
0

> <r_epik_Metal_State_Penalty>
-0

> <b_epik_Metal_Only>
0

> <s_lp_Force_Field>
OPLS_2005

> <r_lp_Energy>
20.6401

> <b_lp_Chiralities_Consistent>
1

> <s_lp_Variant>
AV-unprocessed.smi:2880-3

> <Gold.Version>
5.8.1

> <Gold.Id.Protein>
6NUR|6NUR_protein|mol2

> <Gold.PLP.Fitness>
43.5292

> <Gold.PLP.PLP>
-32.2688

> <Gold.PLP.part.hbond>
-5.0000

> <Gold.PLP.part.metal>
0.0000

> <Gold.PLP.part.buried>
-5.7090

> <Gold.PLP.part.nonpolar>
-21.4799

> <Gold.PLP.part.repulsive>
0.1538

> <Gold.PLP.ligand.clash>
0.0000

> <Gold.PLP.ligand.torsion>
0.3722

> <Gold.PLP.Chemscore.Hbond>
2.9920

> <Gold.PLP.Chemscore.CHOScore>
1.0000

> <Gold.PLP.Chemscore.Metal>
0.0000

> <Gold.Chemscore.Hbonds>
donor molecule, donor type, donor heavy atom, donor atom, acceptor molecule, acceptor atom, score
      L1  H     9    33       P1 10175  1.00
      L1  H    12    34       P1 10175  1.00
      P1  H  8011  8017       L1    20  0.94
      L1  C     6    31       P1 10186  1.00

> <Gold.PLP.Chemscore.Internal.Correction>
0.0287

> <Gold.Rescore>
     Score         DG    S(hbond)    S(metal)    S(lipo)     H(rot)  DE(clash)    DE(int)     intcor
     16.95     -17.68       2.87        0.00      65.29       1.97       0.06       0.67       ----

> <Gold.Chemscore.Fitness>
16.9514

> <Gold.Chemscore.DG>
-17.6821

> <Gold.Chemscore.ZeroCoef>
-5.4800

> <Gold.Chemscore.Hbond>
2.8741

> <Gold.Chemscore.Metal>
0.0000

> <Gold.Chemscore.Lipo>
65.2889

> <Gold.Chemscore.Internal_Hbond>
0.0000

> <Gold.Chemscore.DEClash>
0.0608

> <Gold.Chemscore.DEInternal>
0.6699

> <Gold.Chemscore.Rot>
1.9672

> <Gold.Chemscore.Internal.Correction>
   9.000000E+99

> <Gold.Chemscore.Hbonds>
donor molecule, donor type, donor heavy atom, donor atom, acceptor molecule, acceptor atom, score
      L1  H     9    33       P1 10175  0.97
      L1  H    12    34       P1 10175  0.99
      P1  H  8011  8017       L1    20  0.81

> <Gold.Chemscore.Hbond.Weighted>
-9.5994

> <Gold.Chemscore.Metal.Weighted>
-0.0000

> <Gold.Chemscore.Lipo.Weighted>
-7.6388

> <Gold.Chemscore.Internal_Hbond.Weighted>
0.0000

> <Gold.Chemscore.DEClash.Weighted>
0.0608

> <Gold.Chemscore.DEInternal.Weighted>
0.6699

> <Gold.Chemscore.Rot.Weighted>
5.0360

> <Gold.Chemscore.Internal.Correction.Weighted>
   9.000000E+99

> <Gold.Protein.RotatedTorsions>
[ 6907 6896 6895 6894 ] final -177.03 input  -60.11 | X-H torsion
[ 7974 7965 7964 7962 ] final   11.47 input  175.53 | X-H torsion
[ 8008 7997 7996 7995 ] final  121.43 input   59.86 | X-H torsion
[ 10167 10162 10161 10158 ] final  -82.03 input  -65.29 | X-H torsion
[ 10718 10713 10712 10709 ] final  -51.86 input   66.30 | X-H torsion
[ 10763 10752 10751 10750 ] final   50.37 input  -60.55 | X-H torsion
[ 11005 11000 10999 10996 ] final -172.49 input  -57.11 | X-H torsion

> <Gold.Protein.ActiveResidues>
 VAL166  LYS551  ARG553  GLY616  TRP617  ASP618  TYR619  PRO620  LYS621  CYS622 
 ASP623  PHE694  ASN695  SER759  ASP760  ASP761  ALA762  ILE779  LEU786  VAL792 
 PHE793  MET794  SER795  GLU796  ALA797  LYS798  CYS799  TRP800  GLU811  SER814 

> <Gold.Protein.RotatedAtoms>
  151.6143  133.3344  159.3073 H   0  0  0  0  0  0  0  0  0  0  0  0  # atno 6907 bound_to 6896
  150.8140  134.7314  159.6724 H   0  0  0  0  0  0  0  0  0  0  0  0  # atno 6908 bound_to 6896
  152.4236  134.5915  160.0027 H   0  0  0  0  0  0  0  0  0  0  0  0  # atno 6909 bound_to 6896
  146.2370  139.9481  142.8474 H   0  0  0  0  0  0  0  0  0  0  0  0  # atno 7974 bound_to 7965
  156.2686  140.2808  156.1308 H   0  0  0  0  0  0  0  0  0  0  0  0  # atno 8008 bound_to 7997
  155.1057  140.0390  157.2727 H   0  0  0  0  0  0  0  0  0  0  0  0  # atno 8009 bound_to 7997
  154.6781  140.2602  155.6942 H   0  0  0  0  0  0  0  0  0  0  0  0  # atno 8010 bound_to 7997
  140.4357  143.2532  151.8696 H   0  0  0  0  0  0  0  0  0  0  0  0  # atno 10167 bound_to 10162
  156.1673  130.4149  149.9701 H   0  0  0  0  0  0  0  0  0  0  0  0  # atno 10718 bound_to 10713
  152.9785  135.5881  154.4242 H   0  0  0  0  0  0  0  0  0  0  0  0  # atno 10763 bound_to 10752
  154.3863  135.2767  155.2183 H   0  0  0  0  0  0  0  0  0  0  0  0  # atno 10764 bound_to 10752
  154.4075  135.6089  153.5988 H   0  0  0  0  0  0  0  0  0  0  0  0  # atno 10765 bound_to 10752
  140.4964  134.5935  157.4973 H   0  0  0  0  0  0  0  0  0  0  0  0  # atno 11005 bound_to 11000
  145.1888  140.9802  143.4223 LP  0  0  0  0  0  0  0  0  0  0  0  0  # atno 17320 bound_to 7965
  144.9876  139.3721  143.6231 LP  0  0  0  0  0  0  0  0  0  0  0  0  # atno 17321 bound_to 7965
  139.4787  144.5285  151.8701 LP  0  0  0  0  0  0  0  0  0  0  0  0  # atno 17342 bound_to 10162
  140.4376  144.2031  150.5890 LP  0  0  0  0  0  0  0  0  0  0  0  0  # atno 17343 bound_to 10162
  156.7512  130.9116  151.3637 LP  0  0  0  0  0  0  0  0  0  0  0  0  # atno 17370 bound_to 10713
  157.6777  130.9110  150.0190 LP  0  0  0  0  0  0  0  0  0  0  0  0  # atno 17371 bound_to 10713
  139.9739  134.7248  155.9988 LP  0  0  0  0  0  0  0  0  0  0  0  0  # atno 17394 bound_to 11000
  141.1458  133.6556  156.3862 LP  0  0  0  0  0  0  0  0  0  0  0  0  # atno 17395 bound_to 11000

$$$$
