AV-unprocessed.smi:1833|AV-procd|sdf|7468|dock7
  -GOLD-   22720 9163D 1   1.00000     0.00000
 Structure written by MMmdl.
 42 43  0  0  0  0  0  0  0  0  2 V2000
  142.7086  137.1744  153.0703 C   0  0  0  0  0  0  0  0  0  0  0  0
  143.7180  137.5457  154.1662 C   0  0  0  0  0  0  0  0  0  0  0  0
  144.8257  138.3956  153.6600 N   0  3  2  0  0  0  0  0  0  0  0  0
  145.5754  137.7360  152.5587 C   0  0  0  0  0  0  0  0  0  0  0  0
  146.6320  138.6775  151.9578 C   0  0  0  0  0  0  0  0  0  0  0  0
  147.5909  139.1924  153.0383 C   0  0  0  0  0  0  0  0  0  0  0  0
  146.7943  139.8465  154.1775 C   0  0  2  0  0  0  0  0  0  0  0  0
  147.7019  140.2658  155.2427 N   0  0  0  0  0  0  0  0  0  0  0  0
  148.7893  141.0348  155.0862 C   0  0  0  0  0  0  0  0  0  0  0  0
  149.1530  141.5107  154.0107 O   0  0  0  0  0  0  0  0  0  0  0  0
  149.4402  141.2147  156.2438 N   0  0  0  0  0  0  0  0  0  0  0  0
  150.6813  141.9650  156.3965 C   0  0  0  0  0  0  0  0  0  0  0  0
  151.2856  141.7734  157.7969 C   0  0  0  0  0  0  0  0  0  0  0  0
  151.4350  143.0603  158.5367 C   0  0  0  0  0  0  0  0  0  0  0  0
  150.9531  143.2634  159.7662 N   0  0  0  0  0  0  0  0  0  0  0  0
  151.1999  144.5579  160.2297 C   0  0  0  0  0  0  0  0  0  0  0  0
  151.8664  145.3449  159.3254 C   0  0  0  0  0  0  0  0  0  0  0  0
  152.2079  144.4845  157.8491 S   0  0  0  0  0  0  0  0  0  0  0  0
  145.7399  138.8703  154.7338 C   0  0  0  0  0  0  0  0  0  0  0  0
  141.9659  136.4757  153.4563 H   0  0  0  0  0  0  0  0  0  0  0  0
  143.2022  136.6953  152.2244 H   0  0  0  0  0  0  0  0  0  0  0  0
  142.1674  138.0438  152.6982 H   0  0  0  0  0  0  0  0  0  0  0  0
  143.2170  138.0393  155.0003 H   0  0  0  0  0  0  0  0  0  0  0  0
  144.1311  136.6168  154.5619 H   0  0  0  0  0  0  0  0  0  0  0  0
  146.0502  136.8276  152.9332 H   0  0  0  0  0  0  0  0  0  0  0  0
  144.8835  137.4311  151.7727 H   0  0  0  0  0  0  0  0  0  0  0  0
  147.1928  138.1599  151.1788 H   0  0  0  0  0  0  0  0  0  0  0  0
  146.1383  139.5214  151.4738 H   0  0  0  0  0  0  0  0  0  0  0  0
  148.1864  138.3633  153.4238 H   0  0  0  0  0  0  0  0  0  0  0  0
  148.2916  139.9076  152.6053 H   0  0  0  0  0  0  0  0  0  0  0  0
  146.2700  140.7120  153.7675 H   0  0  0  0  0  0  0  0  0  0  0  0
  147.4973  139.9268  156.1715 H   0  0  0  0  0  0  0  0  0  0  0  0
  149.0639  140.7862  157.0770 H   0  0  0  0  0  0  0  0  0  0  0  0
  151.3967  141.6716  155.6265 H   0  0  0  0  0  0  0  0  0  0  0  0
  150.4601  143.0195  156.2293 H   0  0  0  0  0  0  0  0  0  0  0  0
  150.6612  141.1016  158.3874 H   0  0  0  0  0  0  0  0  0  0  0  0
  152.2670  141.3032  157.7251 H   0  0  0  0  0  0  0  0  0  0  0  0
  150.8633  144.8356  161.2176 H   0  0  0  0  0  0  0  0  0  0  0  0
  152.1728  146.3745  159.4361 H   0  0  0  0  0  0  0  0  0  0  0  0
  145.1710  139.3748  155.5143 H   0  0  0  0  0  0  0  0  0  0  0  0
  146.2252  138.0118  155.2017 H   0  0  0  0  0  0  0  0  0  0  0  0
  144.3952  139.2152  153.2556 H   0  0  0  0  0  0  0  0  0  0  0  0
  1  2  1  0  0  0  0
  1 20  1  0  0  0  0
  1 21  1  0  0  0  0
  1 22  1  0  0  0  0
  2  3  1  0  0  0  0
  2 23  1  0  0  0  0
  2 24  1  0  0  0  0
  3 19  1  0  0  0  0
  3  4  1  0  0  0  0
  3 42  1  0  0  0  0
  4  5  1  0  0  0  0
  4 25  1  0  0  0  0
  4 26  1  0  0  0  0
  5  6  1  0  0  0  0
  5 27  1  0  0  0  0
  5 28  1  0  0  0  0
  6  7  1  0  0  0  0
  6 29  1  0  0  0  0
  6 30  1  0  0  0  0
  7  8  1  0  0  0  0
  7 19  1  0  0  0  0
  7 31  1  0  0  0  0
  8  9  1  0  0  0  0
  8 32  1  0  0  0  0
  9 10  2  0  0  0  0
  9 11  1  0  0  0  0
 11 12  1  0  0  0  0
 11 33  1  0  0  0  0
 12 13  1  0  0  0  0
 12 34  1  0  0  0  0
 12 35  1  0  0  0  0
 13 14  1  0  0  0  0
 13 36  1  0  0  0  0
 13 37  1  0  0  0  0
 14 18  1  0  0  0  0
 14 15  2  0  0  0  0
 15 16  1  0  0  0  0
 16 17  2  0  0  0  0
 16 38  1  0  0  0  0
 17 18  1  0  0  0  0
 17 39  1  0  0  0  0
 19 40  1  0  0  0  0
 19 41  1  0  0  0  0
M  CHG  1   3   1
M  END
> <s_m_source_file>
AV-unprocessed.smi

> <i_m_source_file_index>
1833

> <i_lp_mmshare_version>
43012

> <i_f3d_flags>
0

> <s_epik_input>
W0NIM11bQ0gyXU4xW0NIMl1bQ0gyXVtDSDJdW0NASF0oW0NIMl0xKVtOSF1DKD1PKVtOSF1bQ0gyXVtDSDJdYzJuW2NIXVtjSF1zMg==

> <s_epik_cmdline>
J2VwaWtfcHl0aG9uJywgJy1waCcsICc3LjAnLCAnLXRuJywgJzgnLCAnLW1hJywgJzIwMCcsICctbWV0YWxfYmluZGluZycsICctaW1hZScsICc8aW5maWxlLm1hZT4nLCAnLW9tYWUnLCAnPG91dGZpbGUubWFlPic=

> <r_lp_tautomer_probability>
1

> <r_epik_Ionization_Penalty>
0.00269629

> <r_epik_Ionization_Penalty_Charging>
0.00233899

> <r_epik_Ionization_Penalty_Neutral>
0.000357304

> <r_epik_State_Penalty>
-0

> <r_epik_Charging_Adjusted_Penalty>
0.00233899

> <i_epik_Tot_Q>
1

> <i_epik_Tot_abs_Q>
1

> <r_epik_Metal_State_Penalty>
-0

> <b_epik_Metal_Only>
0

> <s_lp_Force_Field>
OPLS_2005

> <r_lp_Energy>
7.34013

> <b_lp_Chiralities_Consistent>
1

> <s_lp_Variant>
AV-unprocessed.smi:1833-4

> <Gold.Version>
5.8.1

> <Gold.Id.Protein>
6NUR|6NUR_protein|mol2

> <Gold.PLP.Fitness>
44.2672

> <Gold.PLP.PLP>
-37.2399

> <Gold.PLP.part.hbond>
-3.4682

> <Gold.PLP.part.metal>
0.0000

> <Gold.PLP.part.buried>
-3.9580

> <Gold.PLP.part.nonpolar>
-32.6567

> <Gold.PLP.part.repulsive>
0.2655

> <Gold.PLP.ligand.clash>
0.0000

> <Gold.PLP.ligand.torsion>
0.5375

> <Gold.PLP.Chemscore.Hbond>
2.6880

> <Gold.PLP.Chemscore.CHOScore>
0.0000

> <Gold.PLP.Chemscore.Metal>
0.0000

> <Gold.Chemscore.Hbonds>
donor molecule, donor type, donor heavy atom, donor atom, acceptor molecule, acceptor atom, score
      L1  H     3    42       P1 10175  2.00
      P1  H  8011  8017       L1    10  0.67

> <Gold.PLP.Chemscore.Internal.Correction>
0.0384

> <Gold.Rescore>
     Score         DG    S(hbond)    S(metal)    S(lipo)     H(rot)  DE(clash)    DE(int)     intcor
     16.40     -17.98       1.70        0.00      95.98       1.71       0.05       1.54       ----

> <Gold.Chemscore.Fitness>
16.3957

> <Gold.Chemscore.DG>
-17.9827

> <Gold.Chemscore.ZeroCoef>
-5.4800

> <Gold.Chemscore.Hbond>
1.6954

> <Gold.Chemscore.Metal>
0.0000

> <Gold.Chemscore.Lipo>
95.9787

> <Gold.Chemscore.Internal_Hbond>
0.0000

> <Gold.Chemscore.DEClash>
0.0468

> <Gold.Chemscore.DEInternal>
1.5401

> <Gold.Chemscore.Rot>
1.7147

> <Gold.Chemscore.Internal.Correction>
   9.000000E+99

> <Gold.Chemscore.Hbonds>
donor molecule, donor type, donor heavy atom, donor atom, acceptor molecule, acceptor atom, score
      L1  H     3    42       P1 10175  1.00
      P1  H  8011  8017       L1    10  0.65

> <Gold.Chemscore.Hbond.Weighted>
-5.6628

> <Gold.Chemscore.Metal.Weighted>
-0.0000

> <Gold.Chemscore.Lipo.Weighted>
-11.2295

> <Gold.Chemscore.Internal_Hbond.Weighted>
0.0000

> <Gold.Chemscore.DEClash.Weighted>
0.0468

> <Gold.Chemscore.DEInternal.Weighted>
1.5401

> <Gold.Chemscore.Rot.Weighted>
4.3896

> <Gold.Chemscore.Internal.Correction.Weighted>
   9.000000E+99

> <Gold.Protein.RotatedTorsions>
[ 6907 6896 6895 6894 ] final  -32.34 input  -60.11 | X-H torsion
[ 7974 7965 7964 7962 ] final   90.97 input  175.53 | X-H torsion
[ 8008 7997 7996 7995 ] final -158.01 input   59.86 | X-H torsion
[ 10167 10162 10161 10158 ] final -144.71 input  -65.29 | X-H torsion
[ 10718 10713 10712 10709 ] final -147.33 input   66.30 | X-H torsion
[ 10763 10752 10751 10750 ] final  142.70 input  -60.55 | X-H torsion
[ 11005 11000 10999 10996 ] final -176.69 input  -57.11 | X-H torsion

> <Gold.Protein.ActiveResidues>
 VAL166  LYS551  ARG553  GLY616  TRP617  ASP618  TYR619  PRO620  LYS621  CYS622 
 ASP623  PHE694  ASN695  SER759  ASP760  ASP761  ALA762  ILE779  LEU786  VAL792 
 PHE793  MET794  SER795  GLU796  ALA797  LYS798  CYS799  TRP800  GLU811  SER814 

> <Gold.Protein.RotatedAtoms>
  151.0801  134.9852  159.8351 H   0  0  0  0  0  0  0  0  0  0  0  0  # atno 6907 bound_to 6896
  152.5418  134.2193  159.8791 H   0  0  0  0  0  0  0  0  0  0  0  0  # atno 6908 bound_to 6896
  151.2222  133.4452  159.2634 H   0  0  0  0  0  0  0  0  0  0  0  0  # atno 6909 bound_to 6896
  145.5118  139.2277  143.2720 H   0  0  0  0  0  0  0  0  0  0  0  0  # atno 7974 bound_to 7965
  155.7411  140.0814  157.2245 H   0  0  0  0  0  0  0  0  0  0  0  0  # atno 8008 bound_to 7997
  154.4022  140.1577  156.2673 H   0  0  0  0  0  0  0  0  0  0  0  0  # atno 8009 bound_to 7997
  155.9019  140.3409  155.6035 H   0  0  0  0  0  0  0  0  0  0  0  0  # atno 8010 bound_to 7997
  139.7874  143.8015  152.2646 H   0  0  0  0  0  0  0  0  0  0  0  0  # atno 10167 bound_to 10162
  156.4062  130.7958  151.2173 H   0  0  0  0  0  0  0  0  0  0  0  0  # atno 10718 bound_to 10713
  153.9601  135.2961  155.3434 H   0  0  0  0  0  0  0  0  0  0  0  0  # atno 10763 bound_to 10752
  154.7379  135.5038  153.9076 H   0  0  0  0  0  0  0  0  0  0  0  0  # atno 10764 bound_to 10752
  153.0951  135.6719  153.9889 H   0  0  0  0  0  0  0  0  0  0  0  0  # atno 10765 bound_to 10752
  140.4492  134.6359  157.4793 H   0  0  0  0  0  0  0  0  0  0  0  0  # atno 11005 bound_to 11000
  146.2161  140.5926  142.9038 LP  0  0  0  0  0  0  0  0  0  0  0  0  # atno 17320 bound_to 7965
  144.7723  140.5664  143.6662 LP  0  0  0  0  0  0  0  0  0  0  0  0  # atno 17321 bound_to 7965
  139.8096  144.7341  150.9715 LP  0  0  0  0  0  0  0  0  0  0  0  0  # atno 17342 bound_to 10162
  140.7820  143.4264  151.0762 LP  0  0  0  0  0  0  0  0  0  0  0  0  # atno 17343 bound_to 10162
  157.7505  131.0272  150.3994 LP  0  0  0  0  0  0  0  0  0  0  0  0  # atno 17370 bound_to 10713
  156.4283  130.3967  149.6778 LP  0  0  0  0  0  0  0  0  0  0  0  0  # atno 17371 bound_to 10713
  140.0018  134.6825  155.9518 LP  0  0  0  0  0  0  0  0  0  0  0  0  # atno 17394 bound_to 11000
  141.1671  133.6537  156.4519 LP  0  0  0  0  0  0  0  0  0  0  0  0  # atno 17395 bound_to 11000

$$$$
