AV-unprocessed.smi:2137|AV-procd|sdf|8707|dock2
  -GOLD-   2272011463D 1   1.00000     0.00000
 Structure written by MMmdl.
 50 51  0  0  0  0  0  0  0  0  2 V2000
  149.3799  144.8076  160.0245 C   0  0  0  0  0  0  0  0  0  0  0  0
  150.7567  145.0000  159.3650 C   0  0  1  0  0  0  0  0  0  0  0  0
  151.8865  145.2100  160.3899 C   0  0  0  0  0  0  0  0  0  0  0  0
  152.2488  143.8962  161.0968 C   0  0  0  0  0  0  0  0  0  0  0  0
  152.5617  142.7889  160.0779 C   0  0  0  0  0  0  0  0  0  0  0  0
  151.4294  142.5927  159.1366 N   0  3  2  0  0  0  0  0  0  0  0  0
  151.6355  141.4264  158.2411 C   0  0  0  0  0  0  0  0  0  0  0  0
  150.4738  140.4213  158.3150 C   0  0  0  0  0  0  0  0  0  0  0  0
  150.8707  139.0290  157.7966 C   0  0  0  0  0  0  0  0  0  0  0  0
  149.7367  138.1124  157.8049 N   0  0  0  0  0  0  0  0  0  0  0  0
  149.6819  136.9631  158.4949 C   0  0  0  0  0  0  0  0  0  0  0  0
  150.5920  136.5727  159.2276 O   0  0  0  0  0  0  0  0  0  0  0  0
  148.3952  136.1413  158.3383 C   0  0  0  0  0  0  0  0  0  0  0  0
  147.8360  135.7028  159.6238 N   0  0  0  0  0  0  0  0  0  0  0  0
  148.0152  134.3956  160.0392 C   0  0  0  0  0  0  0  0  0  0  0  0
  147.5219  133.9082  161.1985 C   0  0  0  0  0  0  0  0  0  0  0  0
  146.7556  134.7583  162.1012 C   0  0  0  0  0  0  0  0  0  0  0  0
  146.2666  134.3531  163.1565 O   0  0  0  0  0  0  0  0  0  0  0  0
  146.6019  136.0945  161.6622 N   0  0  0  0  0  0  0  0  0  0  0  0
  145.8327  136.9900  162.5016 C   0  0  0  0  0  0  0  0  0  0  0  0
  147.1043  136.5944  160.4388 C   0  0  0  0  0  0  0  0  0  0  0  0
  146.9131  137.7578  160.0760 O   0  0  0  0  0  0  0  0  0  0  0  0
  151.1070  143.8468  158.4021 C   0  0  0  0  0  0  0  0  0  0  0  0
  149.3379  143.8988  160.6247 H   0  0  0  0  0  0  0  0  0  0  0  0
  148.5934  144.7402  159.2722 H   0  0  0  0  0  0  0  0  0  0  0  0
  149.1368  145.6474  160.6761 H   0  0  0  0  0  0  0  0  0  0  0  0
  150.6862  145.9118  158.7704 H   0  0  0  0  0  0  0  0  0  0  0  0
  152.7698  145.5920  159.8764 H   0  0  0  0  0  0  0  0  0  0  0  0
  151.6066  145.9699  161.1206 H   0  0  0  0  0  0  0  0  0  0  0  0
  153.1077  144.0525  161.7500 H   0  0  0  0  0  0  0  0  0  0  0  0
  151.4284  143.5816  161.7426 H   0  0  0  0  0  0  0  0  0  0  0  0
  153.4647  143.0352  159.5166 H   0  0  0  0  0  0  0  0  0  0  0  0
  152.7642  141.8610  160.6145 H   0  0  0  0  0  0  0  0  0  0  0  0
  151.7921  141.7668  157.2166 H   0  0  0  0  0  0  0  0  0  0  0  0
  152.5476  140.9042  158.5338 H   0  0  0  0  0  0  0  0  0  0  0  0
  150.1307  140.3386  159.3472 H   0  0  0  0  0  0  0  0  0  0  0  0
  149.6251  140.7867  157.7379 H   0  0  0  0  0  0  0  0  0  0  0  0
  151.2860  139.0984  156.7898 H   0  0  0  0  0  0  0  0  0  0  0  0
  151.6527  138.6048  158.4270 H   0  0  0  0  0  0  0  0  0  0  0  0
  148.9412  138.3618  157.2346 H   0  0  0  0  0  0  0  0  0  0  0  0
  147.6673  136.7503  157.8008 H   0  0  0  0  0  0  0  0  0  0  0  0
  148.5820  135.2741  157.7020 H   0  0  0  0  0  0  0  0  0  0  0  0
  148.5728  133.7240  159.4027 H   0  0  0  0  0  0  0  0  0  0  0  0
  147.6934  132.8741  161.4599 H   0  0  0  0  0  0  0  0  0  0  0  0
  146.1501  138.0204  162.3365 H   0  0  0  0  0  0  0  0  0  0  0  0
  146.0173  136.7463  163.5489 H   0  0  0  0  0  0  0  0  0  0  0  0
  144.7840  136.8488  162.2369 H   0  0  0  0  0  0  0  0  0  0  0  0
  150.2766  143.6896  157.7147 H   0  0  0  0  0  0  0  0  0  0  0  0
  151.9642  144.1280  157.7881 H   0  0  0  0  0  0  0  0  0  0  0  0
  150.6260  142.3731  159.7082 H   0  0  0  0  0  0  0  0  0  0  0  0
  1  2  1  0  0  0  0
  1 24  1  0  0  0  0
  1 25  1  0  0  0  0
  1 26  1  0  0  0  0
  2 23  1  0  0  0  0
  2  3  1  0  0  0  0
  2 27  1  0  0  0  0
  3  4  1  0  0  0  0
  3 28  1  0  0  0  0
  3 29  1  0  0  0  0
  4  5  1  0  0  0  0
  4 30  1  0  0  0  0
  4 31  1  0  0  0  0
  5  6  1  0  0  0  0
  5 32  1  0  0  0  0
  5 33  1  0  0  0  0
  6  7  1  0  0  0  0
  6 23  1  0  0  0  0
  6 50  1  0  0  0  0
  7  8  1  0  0  0  0
  7 34  1  0  0  0  0
  7 35  1  0  0  0  0
  8  9  1  0  0  0  0
  8 36  1  0  0  0  0
  8 37  1  0  0  0  0
  9 10  1  0  0  0  0
  9 38  1  0  0  0  0
  9 39  1  0  0  0  0
 10 11  1  0  0  0  0
 10 40  1  0  0  0  0
 11 12  2  0  0  0  0
 11 13  1  0  0  0  0
 13 14  1  0  0  0  0
 13 41  1  0  0  0  0
 13 42  1  0  0  0  0
 14 21  1  0  0  0  0
 14 15  1  0  0  0  0
 15 16  2  0  0  0  0
 15 43  1  0  0  0  0
 16 17  1  0  0  0  0
 16 44  1  0  0  0  0
 17 18  2  0  0  0  0
 17 19  1  0  0  0  0
 19 20  1  0  0  0  0
 19 21  1  0  0  0  0
 20 45  1  0  0  0  0
 20 46  1  0  0  0  0
 20 47  1  0  0  0  0
 21 22  2  0  0  0  0
 23 48  1  0  0  0  0
 23 49  1  0  0  0  0
M  CHG  1   6   1
M  END
> <s_m_source_file>
AV-unprocessed.smi

> <i_m_source_file_index>
2137

> <i_lp_mmshare_version>
43012

> <i_f3d_flags>
0

> <s_epik_input>
W0NIM11bQ0BASF0xW0NIMl1bQ0gyXVtDSDJdTihbQ0gyXTEpW0NIMl1bQ0gyXVtDSDJdW05IXUMoPU8pW0NIMl1uMltjSF1bY0hdYyg9TyluKFtDSDNdKWMyPU8=

> <s_epik_cmdline>
J2VwaWtfcHl0aG9uJywgJy1waCcsICc3LjAnLCAnLXRuJywgJzgnLCAnLW1hJywgJzIwMCcsICctbWV0YWxfYmluZGluZycsICctaW1hZScsICc8aW5maWxlLm1hZT4nLCAnLW9tYWUnLCAnPG91dGZpbGUubWFlPic=

> <r_lp_tautomer_probability>
1

> <r_epik_Ionization_Penalty>
0.000384839

> <r_epik_Ionization_Penalty_Charging>
0.000384812

> <r_epik_Ionization_Penalty_Neutral>
2.6907e-08

> <r_epik_State_Penalty>
0.000235226

> <r_epik_Charging_Adjusted_Penalty>
0.000620038

> <i_epik_Tot_Q>
1

> <i_epik_Tot_abs_Q>
1

> <r_epik_Metal_State_Penalty>
-0

> <b_epik_Metal_Only>
0

> <s_lp_Force_Field>
OPLS_2005

> <r_lp_Energy>
27.4749

> <b_lp_Chiralities_Consistent>
1

> <s_lp_Variant>
AV-unprocessed.smi:2137-2

> <Gold.Version>
5.8.1

> <Gold.Id.Protein>
6NUR|6NUR_protein|mol2

> <Gold.PLP.Fitness>
48.7055

> <Gold.PLP.PLP>
-44.8514

> <Gold.PLP.part.hbond>
-2.8434

> <Gold.PLP.part.metal>
0.0000

> <Gold.PLP.part.buried>
-8.6971

> <Gold.PLP.part.nonpolar>
-34.7069

> <Gold.PLP.part.repulsive>
0.1685

> <Gold.PLP.ligand.clash>
0.0000

> <Gold.PLP.ligand.torsion>
1.1719

> <Gold.PLP.Chemscore.Hbond>
2.0000

> <Gold.PLP.Chemscore.CHOScore>
0.0000

> <Gold.PLP.Chemscore.Metal>
0.0000

> <Gold.Chemscore.Hbonds>
donor molecule, donor type, donor heavy atom, donor atom, acceptor molecule, acceptor atom, score
      P1  H  6896  6908       L1    12  1.00
      P1  H  6934  6947       L1    22  1.00

> <Gold.PLP.Chemscore.Internal.Correction>
0.1980

> <Gold.Rescore>
     Score         DG    S(hbond)    S(metal)    S(lipo)     H(rot)  DE(clash)    DE(int)     intcor
     16.14     -17.46       1.89        0.00      98.19       2.27       0.12       1.20       ----

> <Gold.Chemscore.Fitness>
16.1442

> <Gold.Chemscore.DG>
-17.4624

> <Gold.Chemscore.ZeroCoef>
-5.4800

> <Gold.Chemscore.Hbond>
1.8916

> <Gold.Chemscore.Metal>
0.0000

> <Gold.Chemscore.Lipo>
98.1872

> <Gold.Chemscore.Internal_Hbond>
0.0000

> <Gold.Chemscore.DEClash>
0.1211

> <Gold.Chemscore.DEInternal>
1.1971

> <Gold.Chemscore.Rot>
2.2748

> <Gold.Chemscore.Internal.Correction>
   9.000000E+99

> <Gold.Chemscore.Hbonds>
donor molecule, donor type, donor heavy atom, donor atom, acceptor molecule, acceptor atom, score
      P1  H  6896  6908       L1    12  1.00
      P1  H  6934  6947       L1    22  0.92

> <Gold.Chemscore.Hbond.Weighted>
-6.3179

> <Gold.Chemscore.Metal.Weighted>
-0.0000

> <Gold.Chemscore.Lipo.Weighted>
-11.4879

> <Gold.Chemscore.Internal_Hbond.Weighted>
0.0000

> <Gold.Chemscore.DEClash.Weighted>
0.1211

> <Gold.Chemscore.DEInternal.Weighted>
1.1971

> <Gold.Chemscore.Rot.Weighted>
5.8234

> <Gold.Chemscore.Internal.Correction.Weighted>
   9.000000E+99

> <Gold.Protein.RotatedTorsions>
[ 6907 6896 6895 6894 ] final -158.28 input  -60.11 | X-H torsion
[ 7974 7965 7964 7962 ] final -127.90 input  175.53 | X-H torsion
[ 8008 7997 7996 7995 ] final  -62.52 input   59.86 | X-H torsion
[ 10167 10162 10161 10158 ] final  178.90 input  -65.29 | X-H torsion
[ 10718 10713 10712 10709 ] final  -33.69 input   66.30 | X-H torsion
[ 10763 10752 10751 10750 ] final  -20.69 input  -60.55 | X-H torsion
[ 11005 11000 10999 10996 ] final   92.24 input  -57.11 | X-H torsion

> <Gold.Protein.ActiveResidues>
 VAL166  LYS551  ARG553  GLY616  TRP617  ASP618  TYR619  PRO620  LYS621  CYS622 
 ASP623  PHE694  ASN695  SER759  ASP760  ASP761  ALA762  ILE779  LEU786  VAL792 
 PHE793  MET794  SER795  GLU796  ALA797  LYS798  CYS799  TRP800  GLU811  SER814 

> <Gold.Protein.RotatedAtoms>
  151.3157  133.4061  159.2650 H   0  0  0  0  0  0  0  0  0  0  0  0  # atno 6907 bound_to 6896
  151.0076  134.9372  159.7999 H   0  0  0  0  0  0  0  0  0  0  0  0  # atno 6908 bound_to 6896
  152.5292  134.3122  159.9170 H   0  0  0  0  0  0  0  0  0  0  0  0  # atno 6909 bound_to 6896
  144.9724  140.7559  143.4662 H   0  0  0  0  0  0  0  0  0  0  0  0  # atno 7974 bound_to 7965
  154.4504  140.0994  156.6600 H   0  0  0  0  0  0  0  0  0  0  0  0  # atno 8008 bound_to 7997
  155.5303  140.3481  155.4406 H   0  0  0  0  0  0  0  0  0  0  0  0  # atno 8009 bound_to 7997
  156.0669  140.1340  156.9865 H   0  0  0  0  0  0  0  0  0  0  0  0  # atno 8010 bound_to 7997
  139.5313  144.2625  152.0695 H   0  0  0  0  0  0  0  0  0  0  0  0  # atno 10167 bound_to 10162
  156.3595  130.4321  149.7635 H   0  0  0  0  0  0  0  0  0  0  0  0  # atno 10718 bound_to 10713
  153.6244  135.6991  153.5298 H   0  0  0  0  0  0  0  0  0  0  0  0  # atno 10763 bound_to 10752
  153.2911  135.4157  155.1167 H   0  0  0  0  0  0  0  0  0  0  0  0  # atno 10764 bound_to 10752
  154.8536  135.3625  154.5785 H   0  0  0  0  0  0  0  0  0  0  0  0  # atno 10765 bound_to 10752
  139.8826  134.8721  156.3544 H   0  0  0  0  0  0  0  0  0  0  0  0  # atno 11005 bound_to 11000
  145.2539  139.2020  143.4927 LP  0  0  0  0  0  0  0  0  0  0  0  0  # atno 17320 bound_to 7965
  146.3386  140.2458  142.8597 LP  0  0  0  0  0  0  0  0  0  0  0  0  # atno 17321 bound_to 7965
  140.2089  144.4583  150.6395 LP  0  0  0  0  0  0  0  0  0  0  0  0  # atno 17342 bound_to 10162
  140.6493  143.2221  151.6114 LP  0  0  0  0  0  0  0  0  0  0  0  0  # atno 17343 bound_to 10162
  156.4805  130.8038  151.3053 LP  0  0  0  0  0  0  0  0  0  0  0  0  # atno 17370 bound_to 10713
  157.7472  131.0007  150.2937 LP  0  0  0  0  0  0  0  0  0  0  0  0  # atno 17371 bound_to 10713
  140.9572  133.7412  156.0352 LP  0  0  0  0  0  0  0  0  0  0  0  0  # atno 17394 bound_to 11000
  140.8033  134.3483  157.5433 LP  0  0  0  0  0  0  0  0  0  0  0  0  # atno 17395 bound_to 11000

$$$$
