AV-unprocessed.smi:1367|AV-procd|sdf|5574|dock9
  -GOLD-   22720 5163D 1   1.00000     0.00000
 Structure written by MMmdl.
 29 29  0  0  0  0  0  0  0  0  2 V2000
  150.5702  135.7346  156.0852 C   0  0  0  0  0  0  0  0  0  0  0  0
  150.4609  137.2438  156.1276 C   0  0  0  0  0  0  0  0  0  0  0  0
  149.3772  137.7816  156.5416 N   0  0  0  0  0  0  0  0  0  0  0  0
  149.2713  139.1823  156.5817 C   0  0  0  0  0  0  0  0  0  0  0  0
  147.9475  139.7344  157.0803 C   0  0  0  0  0  0  0  0  0  0  0  0
  150.3056  139.9797  156.1888 C   0  0  0  0  0  0  0  0  0  0  0  0
  150.2370  141.5075  156.2043 C   0  0  0  0  0  0  0  0  0  0  0  0
  151.1468  142.2046  157.2183 C   0  0  0  0  0  0  0  0  0  0  0  0
  151.8173  141.5351  158.0038 O   0  0  0  0  0  0  0  0  0  0  0  0
  151.1651  143.5459  157.1893 N   0  0  0  0  0  0  0  0  0  0  0  0
  151.9217  144.3997  158.0975 C   0  0  0  0  0  0  0  0  0  0  0  0
  151.3102  144.4234  159.5090 C   0  0  0  0  0  0  0  0  0  0  0  0
  151.7044  143.3373  160.1729 F   0  0  0  0  0  0  0  0  0  0  0  0
  151.7235  145.5027  160.1738 F   0  0  0  0  0  0  0  0  0  0  0  0
  149.9783  144.4261  159.4536 F   0  0  0  0  0  0  0  0  0  0  0  0
  151.5359  139.3202  155.7153 C   0  0  0  0  0  0  0  0  0  0  0  0
  152.4923  139.9928  155.3321 O   0  0  0  0  0  0  0  0  0  0  0  0
  151.5615  137.9573  155.7088 N   0  5  0  0  0  0  0  0  0  0  0  0
  149.6080  135.2644  156.2932 H   0  0  0  0  0  0  0  0  0  0  0  0
  151.2895  135.3881  156.8276 H   0  0  0  0  0  0  0  0  0  0  0  0
  150.9033  135.4050  155.1006 H   0  0  0  0  0  0  0  0  0  0  0  0
  148.0931  140.3051  157.9974 H   0  0  0  0  0  0  0  0  0  0  0  0
  147.2402  138.9323  157.2940 H   0  0  0  0  0  0  0  0  0  0  0  0
  147.4962  140.3859  156.3319 H   0  0  0  0  0  0  0  0  0  0  0  0
  150.4915  141.8734  155.2093 H   0  0  0  0  0  0  0  0  0  0  0  0
  149.2147  141.8494  156.3680 H   0  0  0  0  0  0  0  0  0  0  0  0
  150.5828  144.0099  156.5063 H   0  0  0  0  0  0  0  0  0  0  0  0
  152.9656  144.0848  158.1392 H   0  0  0  0  0  0  0  0  0  0  0  0
  151.9220  145.4076  157.6818 H   0  0  0  0  0  0  0  0  0  0  0  0
  1  2  1  0  0  0  0
  1 19  1  0  0  0  0
  1 20  1  0  0  0  0
  1 21  1  0  0  0  0
  2 18  1  0  0  0  0
  2  3  2  0  0  0  0
  3  4  1  0  0  0  0
  4  5  1  0  0  0  0
  4  6  2  0  0  0  0
  5 22  1  0  0  0  0
  5 23  1  0  0  0  0
  5 24  1  0  0  0  0
  6  7  1  0  0  0  0
  6 16  1  0  0  0  0
  7  8  1  0  0  0  0
  7 25  1  0  0  0  0
  7 26  1  0  0  0  0
  8  9  2  0  0  0  0
  8 10  1  0  0  0  0
 10 11  1  0  0  0  0
 10 27  1  0  0  0  0
 11 12  1  0  0  0  0
 11 28  1  0  0  0  0
 11 29  1  0  0  0  0
 12 13  1  0  0  0  0
 12 14  1  0  0  0  0
 12 15  1  0  0  0  0
 16 17  2  0  0  0  0
 16 18  1  0  0  0  0
M  CHG  1  18  -1
M  END
> <s_m_source_file>
AV-unprocessed.smi

> <i_m_source_file_index>
1367

> <i_lp_mmshare_version>
43012

> <i_f3d_flags>
0

> <s_epik_input>
W0NIM11jMW5jKFtDSDNdKWMoYyg9TylbbkhdMSlbQ0gyXUMoPU8pW05IXVtDSDJdQyhGKShGKUY=

> <s_epik_cmdline>
J2VwaWtfcHl0aG9uJywgJy1waCcsICc3LjAnLCAnLXRuJywgJzgnLCAnLW1hJywgJzIwMCcsICctbWV0YWxfYmluZGluZycsICctaW1hZScsICc8aW5maWxlLm1hZT4nLCAnLW9tYWUnLCAnPG91dGZpbGUubWFlPic=

> <r_lp_tautomer_probability>
0.839158

> <r_epik_Ionization_Penalty>
6.39142

> <r_epik_Ionization_Penalty_Charging>
4.71143e-08

> <r_epik_Ionization_Penalty_Neutral>
6.39142

> <r_epik_State_Penalty>
4.29634

> <r_epik_Charging_Adjusted_Penalty>
4.29634

> <i_epik_Tot_Q>
-1

> <i_epik_Tot_abs_Q>
1

> <r_epik_Metal_State_Penalty>
0.740852

> <b_epik_Metal_Only>
1

> <s_lp_Force_Field>
OPLS_2005

> <r_lp_Energy>
6.28206

> <b_lp_Chiralities_Consistent>
1

> <s_lp_Variant>
AV-unprocessed.smi:1367-3

> <Gold.Version>
5.8.1

> <Gold.Id.Protein>
6NUR|6NUR_protein|mol2

> <Gold.PLP.Fitness>
40.9435

> <Gold.PLP.PLP>
-34.2085

> <Gold.PLP.part.hbond>
-3.0000

> <Gold.PLP.part.metal>
0.0000

> <Gold.PLP.part.buried>
-4.1317

> <Gold.PLP.part.nonpolar>
-27.1280

> <Gold.PLP.part.repulsive>
0.0595

> <Gold.PLP.ligand.clash>
0.0000

> <Gold.PLP.ligand.torsion>
0.4532

> <Gold.PLP.Chemscore.Hbond>
2.5440

> <Gold.PLP.Chemscore.CHOScore>
0.0000

> <Gold.PLP.Chemscore.Metal>
0.0000

> <Gold.Chemscore.Hbonds>
donor molecule, donor type, donor heavy atom, donor atom, acceptor molecule, acceptor atom, score
      L1  H    10    27       P1  8028  1.00
      P1  H  7989  7998       L1    17  0.38
      P1  H  7997  8010       L1    17  0.99

> <Gold.PLP.Chemscore.Internal.Correction>
0.0093

> <Gold.Rescore>
     Score         DG    S(hbond)    S(metal)    S(lipo)     H(rot)  DE(clash)    DE(int)     intcor
     11.92     -12.99       2.17        0.00      43.00       1.86       0.26       0.81       ----

> <Gold.Chemscore.Fitness>
11.9178

> <Gold.Chemscore.DG>
-12.9852

> <Gold.Chemscore.ZeroCoef>
-5.4800

> <Gold.Chemscore.Hbond>
2.1677

> <Gold.Chemscore.Metal>
0.0000

> <Gold.Chemscore.Lipo>
42.9992

> <Gold.Chemscore.Internal_Hbond>
0.0000

> <Gold.Chemscore.DEClash>
0.2551

> <Gold.Chemscore.DEInternal>
0.8122

> <Gold.Chemscore.Rot>
1.8617

> <Gold.Chemscore.Internal.Correction>
   9.000000E+99

> <Gold.Chemscore.Hbonds>
donor molecule, donor type, donor heavy atom, donor atom, acceptor molecule, acceptor atom, score
      L1  H    10    27       P1  8028  0.95
      P1  H  7989  7998       L1    17  0.11
      P1  H  7997  8010       L1    17  0.92

> <Gold.Chemscore.Hbond.Weighted>
-7.2403

> <Gold.Chemscore.Metal.Weighted>
-0.0000

> <Gold.Chemscore.Lipo.Weighted>
-5.0309

> <Gold.Chemscore.Internal_Hbond.Weighted>
0.0000

> <Gold.Chemscore.DEClash.Weighted>
0.2551

> <Gold.Chemscore.DEInternal.Weighted>
0.8122

> <Gold.Chemscore.Rot.Weighted>
4.7660

> <Gold.Chemscore.Internal.Correction.Weighted>
   9.000000E+99

> <Gold.Protein.RotatedTorsions>
[ 6907 6896 6895 6894 ] final   -7.61 input  -60.11 | X-H torsion
[ 7974 7965 7964 7962 ] final  -19.54 input  175.53 | X-H torsion
[ 8008 7997 7996 7995 ] final   99.86 input   59.86 | X-H torsion
[ 10167 10162 10161 10158 ] final   20.54 input  -65.29 | X-H torsion
[ 10718 10713 10712 10709 ] final  -74.39 input   66.30 | X-H torsion
[ 10763 10752 10751 10750 ] final   68.04 input  -60.55 | X-H torsion
[ 11005 11000 10999 10996 ] final  -86.73 input  -57.11 | X-H torsion

> <Gold.Protein.ActiveResidues>
 VAL166  LYS551  ARG553  GLY616  TRP617  ASP618  TYR619  PRO620  LYS621  CYS622 
 ASP623  PHE694  ASN695  SER759  ASP760  ASP761  ALA762  ILE779  LEU786  VAL792 
 PHE793  MET794  SER795  GLU796  ALA797  LYS798  CYS799  TRP800  GLU811  SER814 

> <Gold.Protein.RotatedAtoms>
  151.4468  135.1026  159.9685 H   0  0  0  0  0  0  0  0  0  0  0  0  # atno 6907 bound_to 6896
  152.4903  133.8477  159.7196 H   0  0  0  0  0  0  0  0  0  0  0  0  # atno 6908 bound_to 6896
  150.9050  133.7011  159.2896 H   0  0  0  0  0  0  0  0  0  0  0  0  # atno 6909 bound_to 6896
  146.1836  140.4076  142.8485 H   0  0  0  0  0  0  0  0  0  0  0  0  # atno 7974 bound_to 7965
  156.1147  140.3222  155.8122 H   0  0  0  0  0  0  0  0  0  0  0  0  # atno 8008 bound_to 7997
  155.4611  140.0539  157.3008 H   0  0  0  0  0  0  0  0  0  0  0  0  # atno 8009 bound_to 7997
  154.4784  140.2042  155.9836 H   0  0  0  0  0  0  0  0  0  0  0  0  # atno 8010 bound_to 7997
  140.5495  143.9534  150.6569 H   0  0  0  0  0  0  0  0  0  0  0  0  # atno 10167 bound_to 10162
  156.0244  130.4416  150.2885 H   0  0  0  0  0  0  0  0  0  0  0  0  # atno 10718 bound_to 10713
  153.0216  135.5262  154.7073 H   0  0  0  0  0  0  0  0  0  0  0  0  # atno 10763 bound_to 10752
  154.6165  135.2884  155.0376 H   0  0  0  0  0  0  0  0  0  0  0  0  # atno 10764 bound_to 10752
  154.1378  135.6583  153.4988 H   0  0  0  0  0  0  0  0  0  0  0  0  # atno 10765 bound_to 10752
  141.1626  133.7471  156.9203 H   0  0  0  0  0  0  0  0  0  0  0  0  # atno 11005 bound_to 11000
  144.8357  140.6779  143.6262 LP  0  0  0  0  0  0  0  0  0  0  0  0  # atno 17320 bound_to 7965
  145.4005  139.1598  143.4180 LP  0  0  0  0  0  0  0  0  0  0  0  0  # atno 17321 bound_to 7965
  140.2956  143.3295  152.1021 LP  0  0  0  0  0  0  0  0  0  0  0  0  # atno 17342 bound_to 10162
  139.5021  144.6728  151.6200 LP  0  0  0  0  0  0  0  0  0  0  0  0  # atno 17343 bound_to 10162
  157.0989  131.0190  151.3093 LP  0  0  0  0  0  0  0  0  0  0  0  0  # atno 17370 bound_to 10713
  157.4796  130.7757  149.7401 LP  0  0  0  0  0  0  0  0  0  0  0  0  # atno 17371 bound_to 10713
  140.1456  134.9264  157.2525 LP  0  0  0  0  0  0  0  0  0  0  0  0  # atno 17394 bound_to 11000
  140.2784  134.3378  155.7351 LP  0  0  0  0  0  0  0  0  0  0  0  0  # atno 17395 bound_to 11000

$$$$
