#       Name:                AV-unprocessed.smi:1301
#       Creating user name   scv26
#       Creation time:       Fri Mar 27 04:58:05 2020


#       File generated by GOLD software.
#

@<TRIPOS>MOLECULE
AV-unprocessed.smi:1301
    50    51     1
SMALL
NO_CHARGES


@<TRIPOS>ATOM
      1 ****        -8.3215   1.1839  -2.5011 C.3            1 S1                 0.0000
      2 ****        -6.8444   1.0375  -2.3701 C.2            1 S1                 0.0000
      3 ****        -6.0365   0.6364  -1.3434 C.2            1 S1                 0.0000
      4 ****        -4.7350   0.7369  -1.9030 C.2            1 S1                 0.0000
      5 ****        -3.5863   0.4027  -1.1411 N.am           1 S1                 0.0000
      6 ****        -2.3012   0.4625  -1.5304 C.2            1 S1                 0.0000
      7 ****        -1.9143   0.8332  -2.6390 O.2            1 S1                 0.0000
      8 ****        -1.4762   0.0651  -0.5500 N.am           1 S1                 0.0000
      9 ****        -0.0186   0.0110  -0.6352 C.3            1 S1                 0.0000
     10 ****         0.4755  -1.4168  -0.3560 C.3            1 S1                 0.0000
     11 ****         2.0121  -1.4788  -0.3457 C.3            1 S1                 0.0000
     12 ****         2.5845  -0.5244   0.6389 N.4            1 S1                 1.0000
     13 ****         4.0592  -0.6596   0.7604 C.3            1 S1                 0.0000
     14 ****         4.5961  -0.1983   2.1324 C.3            1 S1                 0.0000
     15 ****         6.1319  -0.2091   2.1416 C.3            1 S1                 0.0000
     16 ****         4.0465  -1.0605   3.2814 C.3            1 S1                 0.0000
     17 ****         2.1430   0.8704   0.3691 C.3            1 S1                 0.0000
     18 ****         0.6090   0.9804   0.3786 C.3            1 S1                 0.0000
     19 ****        -4.7477   1.1590  -3.1581 N.2            1 S1                 0.0000
     20 ****        -6.0997   1.3538  -3.4640 O.3            1 S1                 0.0000
     21 ****        -8.8170   0.9983  -1.5480 H              1 S1                 0.0000
     22 ****        -8.7163   0.4773  -3.2314 H              1 S1                 0.0000
     23 ****        -8.5828   2.1905  -2.8275 H              1 S1                 0.0000
     24 ****        -6.3330   0.3238  -0.3532 H              1 S1                 0.0000
     25 ****        -3.7635   0.0849  -0.1998 H              1 S1                 0.0000
     26 ****        -1.8899  -0.2231   0.3248 H              1 S1                 0.0000
     27 ****         0.3170   0.2971  -1.6338 H              1 S1                 0.0000
     28 ****         0.0929  -1.7631   0.6054 H              1 S1                 0.0000
     29 ****         0.0845  -2.1020  -1.1092 H              1 S1                 0.0000
     30 ****         2.3237  -2.4944  -0.0983 H              1 S1                 0.0000
     31 ****         2.4056  -1.2586  -1.3394 H              1 S1                 0.0000
     32 ****         4.3450  -1.7031   0.6190 H              1 S1                 0.0000
     33 ****         4.5374  -0.1049  -0.0484 H              1 S1                 0.0000
     34 ****         4.2890   0.8318   2.3111 H              1 S1                 0.0000
     35 ****         6.5237  -1.2133   1.9758 H              1 S1                 0.0000
     36 ****         6.5226   0.1464   3.0955 H              1 S1                 0.0000
     37 ****         6.5351   0.4381   1.3622 H              1 S1                 0.0000
     38 ****         4.3171  -2.1094   3.1557 H              1 S1                 0.0000
     39 ****         2.9594  -1.0017   3.3412 H              1 S1                 0.0000
     40 ****         4.4414  -0.7298   4.2425 H              1 S1                 0.0000
     41 ****         2.5493   1.5500   1.1171 H              1 S1                 0.0000
     42 ****         2.5334   1.1969  -0.5963 H              1 S1                 0.0000
     43 ****         0.3118   2.0048   0.1502 H              1 S1                 0.0000
     44 ****         0.2358   0.7660   1.3814 H              1 S1                 0.0000
     45 ****         2.2023  -0.7877   1.5361 H              1 S1                 0.0000
     46 ****        -2.5779   1.1197  -3.3301 LP             1 S1                 0.0000
     47 ****        -0.9366   0.8478  -2.8482 LP             1 S1                 0.0000
     48 ****        -3.9613   1.3067  -3.7578 LP             1 S1                 0.0000
     49 ****        -6.2544   2.3103  -3.7112 LP             1 S1                 0.0000
     50 ****        -6.3597   0.7654  -4.2296 LP             1 S1                 0.0000
@<TRIPOS>BOND
    1    1    2 1     
    2    1   21 1     
    3    1   22 1     
    4    1   23 1     
    5    2   20 1     
    6    2    3 2     
    7    3    4 1     
    8    3   24 1     
    9    4    5 1     
   10    4   19 2     
   11    5    6 am    
   12    5   25 1     
   13    6    7 2     
   14    6    8 am    
   15    8    9 1     
   16    8   26 1     
   17    9   18 1     
   18    9   10 1     
   19    9   27 1     
   20   10   11 1     
   21   10   28 1     
   22   10   29 1     
   23   11   12 1     
   24   11   30 1     
   25   11   31 1     
   26   12   13 1     
   27   12   17 1     
   28   12   45 1     
   29   13   14 1     
   30   13   32 1     
   31   13   33 1     
   32   14   15 1     
   33   14   16 1     
   34   14   34 1     
   35   15   35 1     
   36   15   36 1     
   37   15   37 1     
   38   16   38 1     
   39   16   39 1     
   40   16   40 1     
   41   17   18 1     
   42   17   41 1     
   43   17   42 1     
   44   18   43 1     
   45   18   44 1     
   46   19   20 1     
   47    7   46 1     
   48    7   47 1     
   49   19   48 1     
   50   20   49 1     
   51   20   50 1     
@<TRIPOS>SUBSTRUCTURE
      1 S1             1
@<TRIPOS>SET
LONE_PAIRS      STATIC     ATOMS    <user>   **** ""
5 46 47 48 49 50
DONOR_HYDROGENS      STATIC     ATOMS    <user>   **** ""
3 25 26 45
ATOM$BLUE        STATIC     ATOMS    COLORGROUP SYSTEM
5 46 47 48 49 50
ATOM$RED        STATIC     ATOMS    COLORGROUP SYSTEM
3 25 26 45
