AV-unprocessed.smi:54|AV-procd|sdf|530|dock2
  -GOLD-   2262016403D 1   1.00000     0.00000
 Structure written by MMmdl.
 44 46  0  0  0  0  0  0  0  0  1 V2000
  152.6069  142.0377  160.8538 C   0  0  0  0  0  0  0  0  0  0  0  0
  152.7539  142.8073  159.5314 C   0  0  0  0  0  0  0  0  0  0  0  0
  152.1055  144.1984  159.6198 C   0  0  0  0  0  0  0  0  0  0  0  0
  152.1565  142.0027  158.3711 C   0  0  0  0  0  0  0  0  0  0  0  0
  151.2531  142.4491  157.6631 O   0  0  0  0  0  0  0  0  0  0  0  0
  152.7229  140.6805  158.1750 N   0  0  0  0  0  0  0  0  0  0  0  0
  152.3779  139.7706  157.2349 C   0  0  0  0  0  0  0  0  0  0  0  0
  151.1848  139.7395  156.6576 N   0  0  0  0  0  0  0  0  0  0  0  0
  151.0308  138.7493  155.7276 C   0  0  0  0  0  0  0  0  0  0  0  0
  151.9752  137.8172  155.3521 C   0  0  0  0  0  0  0  0  0  0  0  0
  151.4508  136.9664  154.3855 N   0  0  0  0  0  0  0  0  0  0  0  0
  150.2331  137.3991  154.2094 C   0  0  0  0  0  0  0  0  0  0  0  0
  149.8985  138.4815  154.9895 N   0  0  0  0  0  0  0  0  0  0  0  0
  148.6100  139.2424  155.0606 C   0  0  1  0  0  0  0  0  0  0  0  0
  148.5550  139.8932  156.2970 O   0  0  0  0  0  0  0  0  0  0  0  0
  148.7154  141.2920  156.1043 C   0  0  2  0  0  0  0  0  0  0  0  0
  148.1734  142.0753  157.3133 C   0  0  0  0  0  0  0  0  0  0  0  0
  146.8301  141.7464  157.6013 O   0  0  0  0  0  0  0  0  0  0  0  0
  148.0485  141.5439  154.7513 C   0  0  1  0  0  0  0  0  0  0  0  0
  148.4312  142.7725  154.1620 O   0  0  0  0  0  0  0  0  0  0  0  0
  148.4986  140.3229  153.9541 C   0  0  1  0  0  0  0  0  0  0  0  0
  149.7159  140.5564  153.2591 O   0  0  0  0  0  0  0  0  0  0  0  0
  153.2738  137.8444  155.9603 C   0  0  0  0  0  0  0  0  0  0  0  0
  154.2308  137.1032  155.7477 O   0  0  0  0  0  0  0  0  0  0  0  0
  153.3926  138.8717  156.9055 N   0  0  0  0  0  0  0  0  0  0  0  0
  147.8324  138.4794  155.0081 H   0  0  0  0  0  0  0  0  0  0  0  0
  149.7874  141.4807  156.0191 H   0  0  0  0  0  0  0  0  0  0  0  0
  146.9630  141.5183  154.8503 H   0  0  0  0  0  0  0  0  0  0  0  0
  147.7431  140.0216  153.2274 H   0  0  0  0  0  0  0  0  0  0  0  0
  153.0684  141.0512  160.7923 H   0  0  0  0  0  0  0  0  0  0  0  0
  151.5591  141.8995  161.1238 H   0  0  0  0  0  0  0  0  0  0  0  0
  153.0899  142.5730  161.6718 H   0  0  0  0  0  0  0  0  0  0  0  0
  153.8186  142.9449  159.3372 H   0  0  0  0  0  0  0  0  0  0  0  0
  152.1986  144.7409  158.6781 H   0  0  0  0  0  0  0  0  0  0  0  0
  152.5828  144.8019  160.3925 H   0  0  0  0  0  0  0  0  0  0  0  0
  151.0442  144.1322  159.8631 H   0  0  0  0  0  0  0  0  0  0  0  0
  153.4325  140.4021  158.8367 H   0  0  0  0  0  0  0  0  0  0  0  0
  149.5526  136.9391  153.5079 H   0  0  0  0  0  0  0  0  0  0  0  0
  148.7904  141.8960  158.1940 H   0  0  0  0  0  0  0  0  0  0  0  0
  148.2166  143.1446  157.1059 H   0  0  0  0  0  0  0  0  0  0  0  0
  146.8201  140.9846  158.1605 H   0  0  0  0  0  0  0  0  0  0  0  0
  148.6222  143.3859  154.8555 H   0  0  0  0  0  0  0  0  0  0  0  0
  149.5782  140.3560  152.3458 H   0  0  0  0  0  0  0  0  0  0  0  0
  154.2825  138.9497  157.3756 H   0  0  0  0  0  0  0  0  0  0  0  0
  1  2  1  0  0  0  0
  1 30  1  0  0  0  0
  1 31  1  0  0  0  0
  1 32  1  0  0  0  0
  2  3  1  0  0  0  0
  2  4  1  0  0  0  0
  2 33  1  0  0  0  0
  3 34  1  0  0  0  0
  3 35  1  0  0  0  0
  3 36  1  0  0  0  0
  4  5  2  0  0  0  0
  4  6  1  0  0  0  0
  6 37  1  0  0  0  0
  6  7  1  0  0  0  0
  7 25  1  0  0  0  0
  7  8  2  0  0  0  0
  8  9  1  0  0  0  0
  9 13  1  0  0  0  0
  9 10  2  0  0  0  0
 10 11  1  0  0  0  0
 10 23  1  0  0  0  0
 11 12  2  0  0  0  0
 12 13  1  0  0  0  0
 12 38  1  0  0  0  0
 13 14  1  0  0  0  0
 14 26  1  0  0  0  0
 14 21  1  0  0  0  0
 14 15  1  0  0  0  0
 15 16  1  0  0  0  0
 16 27  1  0  0  0  0
 16 17  1  0  0  0  0
 16 19  1  0  0  0  0
 17 18  1  0  0  0  0
 17 39  1  0  0  0  0
 17 40  1  0  0  0  0
 18 41  1  0  0  0  0
 19 28  1  0  0  0  0
 19 20  1  0  0  0  0
 19 21  1  0  0  0  0
 20 42  1  0  0  0  0
 21 29  1  0  0  0  0
 21 22  1  0  0  0  0
 22 43  1  0  0  0  0
 23 24  2  0  0  0  0
 23 25  1  0  0  0  0
 25 44  1  0  0  0  0
M  END
> <s_m_source_file>
AV-unprocessed.smi

> <i_m_source_file_index>
54

> <i_lp_mmshare_version>
43012

> <i_f3d_flags>
0

> <s_epik_input>
W0NIM11bQ0hdKFtDSDNdKUMoPU8pW05IXWMobjEpW25IXWMoPU8pYyhjMTIpbltjSF1uMltDQEBIXTNPW0NASF0oW0NIMl1bT0hdKVtDQEBIXShbT0hdKVtDQEhdM1tPSF0=

> <s_epik_cmdline>
J2VwaWtfcHl0aG9uJywgJy1waCcsICc3LjAnLCAnLXRuJywgJzgnLCAnLW1hJywgJzIwMCcsICctbWV0YWxfYmluZGluZycsICctaW1hZScsICc8aW5maWxlLm1hZT4nLCAnLW9tYWUnLCAnPG91dGZpbGUubWFlPic=

> <r_lp_tautomer_probability>
0.85571

> <r_epik_Ionization_Penalty>
0.0316551

> <r_epik_Ionization_Penalty_Charging>
0.0316043

> <r_epik_Ionization_Penalty_Neutral>
5.07097e-05

> <r_epik_State_Penalty>
3.15494e-07

> <r_epik_Charging_Adjusted_Penalty>
0.0316047

> <i_epik_Tot_Q>
0

> <i_epik_Tot_abs_Q>
0

> <r_epik_Metal_State_Penalty>
0.421206

> <b_epik_Metal_Only>
0

> <s_epik_Chemistry_Notes>
This compound contains an acetal/aminal-like group ( X-CH(R)-Y where X, Y are N, S, or O) that may be acid/base labile, releasing an aldehyde.

> <s_lp_Force_Field>
OPLS_2005

> <r_lp_Energy>
47.6187

> <b_lp_Chiralities_Consistent>
1

> <s_lp_Variant>
AV-unprocessed.smi:54-2

> <Gold.Version>
5.8.1

> <Gold.Id.Protein>
6NUR|6NUR_protein|mol2

> <Gold.PLP.Fitness>
47.7394

> <Gold.PLP.PLP>
-33.0031

> <Gold.PLP.part.hbond>
-5.7685

> <Gold.PLP.part.metal>
0.0000

> <Gold.PLP.part.buried>
-5.1074

> <Gold.PLP.part.nonpolar>
-23.6543

> <Gold.PLP.part.repulsive>
2.0741

> <Gold.PLP.ligand.clash>
0.0000

> <Gold.PLP.ligand.torsion>
0.8072

> <Gold.PLP.Chemscore.Hbond>
4.4420

> <Gold.PLP.Chemscore.CHOScore>
1.0000

> <Gold.PLP.Chemscore.Metal>
0.0000

> <Gold.Chemscore.Hbonds>
donor molecule, donor type, donor heavy atom, donor atom, acceptor molecule, acceptor atom, score
      L1  H    20    42       P1  8028  1.00
      L1  H    22    43       P1  7957  0.23
      P1  H  7989  7998       L1    22  0.34
      P1  H  8011  8017       L1    20  0.01
      P1  H 10752 10764       L1    11  0.95
      P1  H 10752 10765       L1    24  0.19
      L1  C    12    38       P1  7948  0.57

> <Gold.PLP.Chemscore.Internal.Correction>
0.0247

> <Gold.Rescore>
     Score         DG    S(hbond)    S(metal)    S(lipo)     H(rot)  DE(clash)    DE(int)     intcor
      6.45     -12.57       3.13        0.00      59.90       4.05       1.22       4.91       ----

> <Gold.Chemscore.Fitness>
6.4460

> <Gold.Chemscore.DG>
-12.5718

> <Gold.Chemscore.ZeroCoef>
-5.4800

> <Gold.Chemscore.Hbond>
3.1286

> <Gold.Chemscore.Metal>
0.0000

> <Gold.Chemscore.Lipo>
59.9017

> <Gold.Chemscore.Internal_Hbond>
0.0000

> <Gold.Chemscore.DEClash>
1.2199

> <Gold.Chemscore.DEInternal>
4.9059

> <Gold.Chemscore.Rot>
4.0493

> <Gold.Chemscore.Internal.Correction>
   9.000000E+99

> <Gold.Chemscore.Hbonds>
donor molecule, donor type, donor heavy atom, donor atom, acceptor molecule, acceptor atom, score
      L1  H    20    42       P1  8028  0.95
      L1  H    22    43       P1  7957  0.25
      P1  H  7989  7998       L1    22  0.19
      P1  H  8011  8017       L1    20  0.02
      P1  H 10752 10764       L1    11  0.21
      P1  H 10752 10765       L1    24  0.20

> <Gold.Chemscore.Hbond.Weighted>
-10.4495

> <Gold.Chemscore.Metal.Weighted>
-0.0000

> <Gold.Chemscore.Lipo.Weighted>
-7.0085

> <Gold.Chemscore.Internal_Hbond.Weighted>
0.0000

> <Gold.Chemscore.DEClash.Weighted>
1.2199

> <Gold.Chemscore.DEInternal.Weighted>
4.9059

> <Gold.Chemscore.Rot.Weighted>
10.3662

> <Gold.Chemscore.Internal.Correction.Weighted>
   9.000000E+99

> <Gold.Protein.RotatedTorsions>
[ 6907 6896 6895 6894 ] final   46.01 input  -60.11 | X-H torsion
[ 7974 7965 7964 7962 ] final -146.66 input  175.53 | X-H torsion
[ 8008 7997 7996 7995 ] final  -77.86 input   59.86 | X-H torsion
[ 10167 10162 10161 10158 ] final  -10.89 input  -65.29 | X-H torsion
[ 10718 10713 10712 10709 ] final  -82.36 input   66.30 | X-H torsion
[ 10763 10752 10751 10750 ] final  -77.05 input  -60.55 | X-H torsion
[ 11005 11000 10999 10996 ] final  -35.94 input  -57.11 | X-H torsion

> <Gold.Protein.ActiveResidues>
 VAL166  LYS551  ARG553  GLY616  TRP617  ASP618  TYR619  PRO620  LYS621  CYS622 
 ASP623  PHE694  ASN695  SER759  ASP760  ASP761  ALA762  ILE779  LEU786  VAL792 
 PHE793  MET794  SER795  GLU796  ALA797  LYS798  CYS799  TRP800  GLU811  SER814 

> <Gold.Protein.RotatedAtoms>
  152.2513  134.8130  160.0445 H   0  0  0  0  0  0  0  0  0  0  0  0  # atno 6907 bound_to 6896
  151.8809  133.3490  159.3774 H   0  0  0  0  0  0  0  0  0  0  0  0  # atno 6908 bound_to 6896
  150.7085  134.4946  159.5576 H   0  0  0  0  0  0  0  0  0  0  0  0  # atno 6909 bound_to 6896
  144.8144  140.5427  143.5620 H   0  0  0  0  0  0  0  0  0  0  0  0  # atno 7974 bound_to 7965
  154.5636  140.0703  156.8857 H   0  0  0  0  0  0  0  0  0  0  0  0  # atno 8008 bound_to 7997
  155.2765  140.3369  155.4243 H   0  0  0  0  0  0  0  0  0  0  0  0  # atno 8009 bound_to 7997
  156.2062  140.1741  156.7780 H   0  0  0  0  0  0  0  0  0  0  0  0  # atno 8010 bound_to 7997
  140.7125  143.5699  150.9104 H   0  0  0  0  0  0  0  0  0  0  0  0  # atno 10167 bound_to 10162
  156.0034  130.4632  150.4093 H   0  0  0  0  0  0  0  0  0  0  0  0  # atno 10718 bound_to 10713
  154.5079  135.5777  153.6582 H   0  0  0  0  0  0  0  0  0  0  0  0  # atno 10763 bound_to 10752
  152.9891  135.6151  154.2917 H   0  0  0  0  0  0  0  0  0  0  0  0  # atno 10764 bound_to 10752
  154.2830  135.2850  155.2668 H   0  0  0  0  0  0  0  0  0  0  0  0  # atno 10765 bound_to 10752
  140.9835  133.7043  156.1725 H   0  0  0  0  0  0  0  0  0  0  0  0  # atno 11005 bound_to 11000
  145.5248  139.1476  143.3532 LP  0  0  0  0  0  0  0  0  0  0  0  0  # atno 17320 bound_to 7965
  146.2446  140.5389  142.8919 LP  0  0  0  0  0  0  0  0  0  0  0  0  # atno 17321 bound_to 7965
  139.9425  143.6365  152.3050 LP  0  0  0  0  0  0  0  0  0  0  0  0  # atno 17342 bound_to 10162
  139.6855  144.7652  151.1531 LP  0  0  0  0  0  0  0  0  0  0  0  0  # atno 17343 bound_to 10162
  157.2156  131.0470  151.2575 LP  0  0  0  0  0  0  0  0  0  0  0  0  # atno 17370 bound_to 10713
  157.3848  130.7250  149.6655 LP  0  0  0  0  0  0  0  0  0  0  0  0  # atno 17371 bound_to 10713
  140.7150  134.4421  157.5579 LP  0  0  0  0  0  0  0  0  0  0  0  0  # atno 17394 bound_to 11000
  139.8960  134.8669  156.2105 LP  0  0  0  0  0  0  0  0  0  0  0  0  # atno 17395 bound_to 11000

$$$$
