AV-unprocessed.smi:1005|AV-procd|sdf|4371|dock6
  -GOLD-   22720 2283D 1   1.00000     0.00000
 Structure written by MMmdl.
 57 59  0  0  0  0  0  0  0  0  3 V2000
  155.0507  140.0786  160.7137 C   0  0  0  0  0  0  0  0  0  0  0  0
  153.9231  140.8767  160.0823 C   0  0  0  0  0  0  0  0  0  0  0  0
  153.8863  142.2761  160.2703 C   0  0  0  0  0  0  0  0  0  0  0  0
  152.8415  143.0537  159.7255 C   0  0  0  0  0  0  0  0  0  0  0  0
  152.6141  144.4165  159.7892 N   0  0  0  0  0  0  0  0  0  0  0  0
  151.4806  144.5318  159.1049 C   0  0  0  0  0  0  0  0  0  0  0  0
  150.9556  143.4054  158.5841 N   0  0  0  0  0  0  0  0  0  0  0  0
  149.7346  143.3028  157.8000 C   0  0  0  0  0  0  0  0  0  0  0  0
  149.1662  141.8695  157.7394 C   0  0  1  0  0  0  0  0  0  0  0  0
  148.5527  141.5942  158.9821 O   0  0  0  0  0  0  0  0  0  0  0  0
  148.1344  141.6520  156.6061 C   0  0  0  0  0  0  0  0  0  0  0  0
  148.7436  141.6824  155.2487 N   0  3  1  0  0  0  0  0  0  0  0  0
  150.0444  140.9737  155.1751 C   0  0  0  0  0  0  0  0  0  0  0  0
  149.8443  139.4478  155.1247 C   0  0  0  0  0  0  0  0  0  0  0  0
  149.0098  139.1141  154.0214 O   0  0  0  0  0  0  0  0  0  0  0  0
  147.7096  139.6869  154.1219 C   0  0  2  0  0  0  0  0  0  0  0  0
  146.8867  139.2203  152.9072 C   0  0  0  0  0  0  0  0  0  0  0  0
  146.7472  137.7431  152.8433 N   0  3  0  0  0  0  0  0  0  0  0  0
  146.1813  137.1521  154.0771 C   0  0  0  0  0  0  0  0  0  0  0  0
  145.9989  137.3064  151.6438 C   0  0  0  0  0  0  0  0  0  0  0  0
  147.8510  141.2253  154.1495 C   0  0  0  0  0  0  0  0  0  0  0  0
  151.8233  142.3896  158.9798 C   0  0  0  0  0  0  0  0  0  0  0  0
  151.8537  140.9970  158.7810 C   0  0  0  0  0  0  0  0  0  0  0  0
  152.9083  140.2360  159.3277 C   0  0  0  0  0  0  0  0  0  0  0  0
  152.9322  138.7349  159.1012 C   0  0  0  0  0  0  0  0  0  0  0  0
  155.8267  140.7335  161.1113 H   0  0  0  0  0  0  0  0  0  0  0  0
  155.5182  139.4132  159.9884 H   0  0  0  0  0  0  0  0  0  0  0  0
  154.6675  139.4744  161.5365 H   0  0  0  0  0  0  0  0  0  0  0  0
  154.6581  142.7652  160.8469 H   0  0  0  0  0  0  0  0  0  0  0  0
  151.0093  145.4940  158.9661 H   0  0  0  0  0  0  0  0  0  0  0  0
  148.9977  143.9861  158.2242 H   0  0  0  0  0  0  0  0  0  0  0  0
  149.9468  143.6611  156.7911 H   0  0  0  0  0  0  0  0  0  0  0  0
  150.0039  141.1843  157.6405 H   0  0  0  0  0  0  0  0  0  0  0  0
  148.0360  140.8070  158.9047 H   0  0  0  0  0  0  0  0  0  0  0  0
  147.6384  140.6940  156.7708 H   0  0  0  0  0  0  0  0  0  0  0  0
  147.3410  142.3955  156.6451 H   0  0  0  0  0  0  0  0  0  0  0  0
  150.5620  141.2981  154.2714 H   0  0  0  0  0  0  0  0  0  0  0  0
  150.6856  141.2548  156.0115 H   0  0  0  0  0  0  0  0  0  0  0  0
  150.8057  138.9495  154.9997 H   0  0  0  0  0  0  0  0  0  0  0  0
  149.4128  139.0710  156.0532 H   0  0  0  0  0  0  0  0  0  0  0  0
  147.2284  139.3464  155.0381 H   0  0  0  0  0  0  0  0  0  0  0  0
  145.8954  139.6770  152.9162 H   0  0  0  0  0  0  0  0  0  0  0  0
  147.3803  139.5792  152.0026 H   0  0  0  0  0  0  0  0  0  0  0  0
  145.1646  137.5086  154.2401 H   0  0  0  0  0  0  0  0  0  0  0  0
  146.7757  137.3978  154.9561 H   0  0  0  0  0  0  0  0  0  0  0  0
  146.1492  136.0649  154.0014 H   0  0  0  0  0  0  0  0  0  0  0  0
  144.9782  137.6913  151.6582 H   0  0  0  0  0  0  0  0  0  0  0  0
  145.9533  136.2181  151.5910 H   0  0  0  0  0  0  0  0  0  0  0  0
  146.4854  137.6588  150.7337 H   0  0  0  0  0  0  0  0  0  0  0  0
  146.8700  141.6931  154.2070 H   0  0  0  0  0  0  0  0  0  0  0  0
  148.2853  141.5634  153.2074 H   0  0  0  0  0  0  0  0  0  0  0  0
  151.0686  140.5119  158.2214 H   0  0  0  0  0  0  0  0  0  0  0  0
  152.0333  138.3953  158.5858 H   0  0  0  0  0  0  0  0  0  0  0  0
  152.9926  138.2029  160.0511 H   0  0  0  0  0  0  0  0  0  0  0  0
  153.7930  138.4573  158.4925 H   0  0  0  0  0  0  0  0  0  0  0  0
  147.6803  137.3699  152.7385 H   0  0  0  0  0  0  0  0  0  0  0  0
  148.9492  142.6559  155.0728 H   0  0  0  0  0  0  0  0  0  0  0  0
  1  2  1  0  0  0  0
  1 26  1  0  0  0  0
  1 27  1  0  0  0  0
  1 28  1  0  0  0  0
  2 24  1  0  0  0  0
  2  3  2  0  0  0  0
  3  4  1  0  0  0  0
  3 29  1  0  0  0  0
  4 22  2  0  0  0  0
  4  5  1  0  0  0  0
  5  6  2  0  0  0  0
  6  7  1  0  0  0  0
  6 30  1  0  0  0  0
  7  8  1  0  0  0  0
  7 22  1  0  0  0  0
  8  9  1  0  0  0  0
  8 31  1  0  0  0  0
  8 32  1  0  0  0  0
  9 10  1  0  0  0  0
  9 11  1  0  0  0  0
  9 33  1  0  0  0  0
 10 34  1  0  0  0  0
 11 12  1  0  0  0  0
 11 35  1  0  0  0  0
 11 36  1  0  0  0  0
 12 21  1  0  0  0  0
 12 13  1  0  0  0  0
 12 57  1  0  0  0  0
 13 14  1  0  0  0  0
 13 37  1  0  0  0  0
 13 38  1  0  0  0  0
 14 15  1  0  0  0  0
 14 39  1  0  0  0  0
 14 40  1  0  0  0  0
 15 16  1  0  0  0  0
 16 17  1  0  0  0  0
 16 21  1  0  0  0  0
 16 41  1  0  0  0  0
 17 18  1  0  0  0  0
 17 42  1  0  0  0  0
 17 43  1  0  0  0  0
 18 19  1  0  0  0  0
 18 20  1  0  0  0  0
 18 56  1  0  0  0  0
 19 44  1  0  0  0  0
 19 45  1  0  0  0  0
 19 46  1  0  0  0  0
 20 47  1  0  0  0  0
 20 48  1  0  0  0  0
 20 49  1  0  0  0  0
 21 50  1  0  0  0  0
 21 51  1  0  0  0  0
 22 23  1  0  0  0  0
 23 24  2  0  0  0  0
 23 52  1  0  0  0  0
 24 25  1  0  0  0  0
 25 53  1  0  0  0  0
 25 54  1  0  0  0  0
 25 55  1  0  0  0  0
M  CHG  1  12   1
M  CHG  1  18   1
M  END
> <s_m_source_file>
AV-unprocessed.smi

> <i_m_source_file_index>
1005

> <i_lp_mmshare_version>
43012

> <i_f3d_flags>
0

> <s_epik_input>
W0NIM11jKFtjSF0xKWMoW0NIM10pW2NIXWMoYzEyKW4oW2NIXW4yKVtDSDJdW0NASF0oW09IXSlbQ0gyXU4zW0NIMl1bQ0gyXU9bQ0BIXShbQ0gyXTMpW0NIMl1OKFtDSDNdKVtDSDNd

> <s_epik_cmdline>
J2VwaWtfcHl0aG9uJywgJy1waCcsICc3LjAnLCAnLXRuJywgJzgnLCAnLW1hJywgJzIwMCcsICctbWV0YWxfYmluZGluZycsICctaW1hZScsICc8aW5maWxlLm1hZT4nLCAnLW9tYWUnLCAnPG91dGZpbGUubWFlPic=

> <r_epik_Ionization_Penalty>
1.0968

> <r_epik_Ionization_Penalty_Charging>
1.0096

> <r_epik_Ionization_Penalty_Neutral>
0.0871956

> <r_epik_State_Penalty>
1.31185

> <r_epik_Charging_Adjusted_Penalty>
2.32145

> <i_epik_Tot_Q>
2

> <i_epik_Tot_abs_Q>
2

> <r_epik_Metal_State_Penalty>
1.22442

> <b_epik_Metal_Only>
0

> <s_lp_Force_Field>
OPLS_2005

> <r_lp_Energy>
34.2577

> <b_lp_Chiralities_Consistent>
1

> <s_lp_Variant>
AV-unprocessed.smi:1005-10

> <Gold.Version>
5.8.1

> <Gold.Id.Protein>
6NUR|6NUR_protein|mol2

> <Gold.PLP.Fitness>
51.3053

> <Gold.PLP.PLP>
-40.3336

> <Gold.PLP.part.hbond>
-4.0000

> <Gold.PLP.part.metal>
0.0000

> <Gold.PLP.part.buried>
3.6820

> <Gold.PLP.part.nonpolar>
-41.7607

> <Gold.PLP.part.repulsive>
1.8530

> <Gold.PLP.ligand.clash>
0.0000

> <Gold.PLP.ligand.torsion>
0.5491

> <Gold.PLP.Chemscore.Hbond>
4.0000

> <Gold.PLP.Chemscore.CHOScore>
0.0000

> <Gold.PLP.Chemscore.Metal>
0.0000

> <Gold.Chemscore.Hbonds>
donor molecule, donor type, donor heavy atom, donor atom, acceptor molecule, acceptor atom, score
      L1  H    12    57       P1  8028  1.46
      L1  H    18    56       P1  7948  2.00

> <Gold.PLP.Chemscore.Internal.Correction>
0.0699

> <Gold.Rescore>
     Score         DG    S(hbond)    S(metal)    S(lipo)     H(rot)  DE(clash)    DE(int)     intcor
     15.59     -19.49       1.80        0.00     122.53       2.48       2.26       1.63       ----

> <Gold.Chemscore.Fitness>
15.5895

> <Gold.Chemscore.DG>
-19.4856

> <Gold.Chemscore.ZeroCoef>
-5.4800

> <Gold.Chemscore.Hbond>
1.8029

> <Gold.Chemscore.Metal>
0.0000

> <Gold.Chemscore.Lipo>
122.5311

> <Gold.Chemscore.Internal_Hbond>
0.0000

> <Gold.Chemscore.DEClash>
2.2630

> <Gold.Chemscore.DEInternal>
1.6332

> <Gold.Chemscore.Rot>
2.4814

> <Gold.Chemscore.Internal.Correction>
   9.000000E+99

> <Gold.Chemscore.Hbonds>
donor molecule, donor type, donor heavy atom, donor atom, acceptor molecule, acceptor atom, score
      L1  H    12    57       P1  8028  0.69
      L1  H    18    56       P1  7948  0.95

> <Gold.Chemscore.Hbond.Weighted>
-6.0219

> <Gold.Chemscore.Metal.Weighted>
-0.0000

> <Gold.Chemscore.Lipo.Weighted>
-14.3361

> <Gold.Chemscore.Internal_Hbond.Weighted>
0.0000

> <Gold.Chemscore.DEClash.Weighted>
2.2630

> <Gold.Chemscore.DEInternal.Weighted>
1.6332

> <Gold.Chemscore.Rot.Weighted>
6.3524

> <Gold.Chemscore.Internal.Correction.Weighted>
   9.000000E+99

> <Gold.Protein.RotatedTorsions>
[ 6907 6896 6895 6894 ] final  -37.43 input  -60.11 | X-H torsion
[ 7974 7965 7964 7962 ] final  -71.87 input  175.53 | X-H torsion
[ 8008 7997 7996 7995 ] final -149.07 input   59.86 | X-H torsion
[ 10167 10162 10161 10158 ] final   46.77 input  -65.29 | X-H torsion
[ 10718 10713 10712 10709 ] final  -36.28 input   66.30 | X-H torsion
[ 10763 10752 10751 10750 ] final   85.00 input  -60.55 | X-H torsion
[ 11005 11000 10999 10996 ] final -129.31 input  -57.11 | X-H torsion

> <Gold.Protein.ActiveResidues>
 VAL166  LYS551  ARG553  GLY616  TRP617  ASP618  TYR619  PRO620  LYS621  CYS622 
 ASP623  PHE694  ASN695  SER759  ASP760  ASP761  ALA762  ILE779  LEU786  VAL792 
 PHE793  MET794  SER795  GLU796  ALA797  LYS798  CYS799  TRP800  GLU811  SER814 

> <Gold.Protein.RotatedAtoms>
  151.0148  134.9424  159.8026 H   0  0  0  0  0  0  0  0  0  0  0  0  # atno 6907 bound_to 6896
  152.5311  134.2981  159.9078 H   0  0  0  0  0  0  0  0  0  0  0  0  # atno 6908 bound_to 6896
  151.2987  133.4090  159.2672 H   0  0  0  0  0  0  0  0  0  0  0  0  # atno 6909 bound_to 6896
  145.6724  140.9216  143.0876 H   0  0  0  0  0  0  0  0  0  0  0  0  # atno 7974 bound_to 7965
  155.6018  140.0663  157.2731 H   0  0  0  0  0  0  0  0  0  0  0  0  # atno 8008 bound_to 7997
  154.4277  140.1817  156.1228 H   0  0  0  0  0  0  0  0  0  0  0  0  # atno 8009 bound_to 7997
  156.0153  140.3322  155.6986 H   0  0  0  0  0  0  0  0  0  0  0  0  # atno 8010 bound_to 7997
  140.3105  144.2826  150.6201 H   0  0  0  0  0  0  0  0  0  0  0  0  # atno 10167 bound_to 10162
  156.3286  130.4276  149.7893 H   0  0  0  0  0  0  0  0  0  0  0  0  # atno 10718 bound_to 10713
  153.1434  135.4633  154.9529 H   0  0  0  0  0  0  0  0  0  0  0  0  # atno 10763 bound_to 10752
  154.7766  135.3175  154.8082 H   0  0  0  0  0  0  0  0  0  0  0  0  # atno 10764 bound_to 10752
  153.8600  135.6913  153.4838 H   0  0  0  0  0  0  0  0  0  0  0  0  # atno 10765 bound_to 10752
  140.9443  134.1152  157.4122 H   0  0  0  0  0  0  0  0  0  0  0  0  # atno 11005 bound_to 11000
  144.7052  139.8590  143.7432 LP  0  0  0  0  0  0  0  0  0  0  0  0  # atno 17320 bound_to 7965
  146.1034  139.4031  143.0333 LP  0  0  0  0  0  0  0  0  0  0  0  0  # atno 17321 bound_to 7965
  140.5572  143.2197  151.7827 LP  0  0  0  0  0  0  0  0  0  0  0  0  # atno 17342 bound_to 10162
  139.4895  144.4397  151.9778 LP  0  0  0  0  0  0  0  0  0  0  0  0  # atno 17343 bound_to 10162
  156.5174  130.8199  151.3191 LP  0  0  0  0  0  0  0  0  0  0  0  0  # atno 17370 bound_to 10713
  157.7426  130.9894  150.2529 LP  0  0  0  0  0  0  0  0  0  0  0  0  # atno 17371 bound_to 10713
  139.8829  135.0046  156.6261 LP  0  0  0  0  0  0  0  0  0  0  0  0  # atno 17394 bound_to 11000
  140.7691  133.8753  155.8478 LP  0  0  0  0  0  0  0  0  0  0  0  0  # atno 17395 bound_to 11000

$$$$
