AV-unprocessed.smi:2087|AV-procd|sdf|8520|dock4
  -GOLD-   2272011233D 1   1.00000     0.00000
 Structure written by MMmdl.
 51 52  0  0  0  0  0  0  0  0  2 V2000
  144.6262  135.1993  150.4984 C   0  0  0  0  0  0  0  0  0  0  0  0
  145.7630  134.7409  151.4237 C   0  0  0  0  0  0  0  0  0  0  0  0
  145.7408  133.2109  151.5819 C   0  0  0  0  0  0  0  0  0  0  0  0
  145.6777  135.4637  152.7858 C   0  0  0  0  0  0  0  0  0  0  0  0
  146.5179  136.6868  152.8508 N   0  3  1  0  0  0  0  0  0  0  0  0
  145.9277  137.8567  152.1540 C   0  0  0  0  0  0  0  0  0  0  0  0
  146.8768  139.0638  152.2348 C   0  0  0  0  0  0  0  0  0  0  0  0
  147.1676  139.3447  153.5967 O   0  0  0  0  0  0  0  0  0  0  0  0
  147.8334  138.2647  154.2441 C   0  0  1  0  0  0  0  0  0  0  0  0
  148.2241  138.6986  155.6688 C   0  0  0  0  0  0  0  0  0  0  0  0
  149.3061  139.6753  155.6312 N   0  0  0  0  0  0  0  0  0  0  0  0
  149.9439  140.1575  156.7079 C   0  0  0  0  0  0  0  0  0  0  0  0
  149.7690  139.7283  157.8486 O   0  0  0  0  0  0  0  0  0  0  0  0
  150.9158  141.3166  156.4573 C   0  0  0  0  0  0  0  0  0  0  0  0
  151.4568  141.8633  157.7089 N   0  0  0  0  0  0  0  0  0  0  0  0
  151.0248  143.0955  158.1642 C   0  0  0  0  0  0  0  0  0  0  0  0
  151.4772  143.6705  159.3001 C   0  0  0  0  0  0  0  0  0  0  0  0
  152.4780  143.0086  160.1283 C   0  0  0  0  0  0  0  0  0  0  0  0
  152.9045  143.4898  161.1784 O   0  0  0  0  0  0  0  0  0  0  0  0
  152.9143  141.7566  159.6325 N   0  0  0  0  0  0  0  0  0  0  0  0
  153.9035  141.0163  160.3884 C   0  0  0  0  0  0  0  0  0  0  0  0
  152.4215  141.1505  158.4558 C   0  0  0  0  0  0  0  0  0  0  0  0
  152.8104  140.0396  158.0842 O   0  0  0  0  0  0  0  0  0  0  0  0
  146.8913  137.0463  154.2398 C   0  0  0  0  0  0  0  0  0  0  0  0
  143.6496  134.9476  150.9133 H   0  0  0  0  0  0  0  0  0  0  0  0
  144.7026  134.7273  149.5184 H   0  0  0  0  0  0  0  0  0  0  0  0
  144.6542  136.2784  150.3443 H   0  0  0  0  0  0  0  0  0  0  0  0
  146.6959  135.0137  150.9313 H   0  0  0  0  0  0  0  0  0  0  0  0
  144.8275  132.8760  152.0743 H   0  0  0  0  0  0  0  0  0  0  0  0
  146.5867  132.8560  152.1711 H   0  0  0  0  0  0  0  0  0  0  0  0
  145.7939  132.7168  150.6113 H   0  0  0  0  0  0  0  0  0  0  0  0
  144.6444  135.7256  153.0189 H   0  0  0  0  0  0  0  0  0  0  0  0
  145.9957  134.7658  153.5621 H   0  0  0  0  0  0  0  0  0  0  0  0
  145.7342  137.6243  151.1075 H   0  0  0  0  0  0  0  0  0  0  0  0
  144.9682  138.1084  152.6089 H   0  0  0  0  0  0  0  0  0  0  0  0
  147.7992  138.8762  151.6830 H   0  0  0  0  0  0  0  0  0  0  0  0
  146.4107  139.9410  151.7857 H   0  0  0  0  0  0  0  0  0  0  0  0
  148.7434  138.0181  153.6932 H   0  0  0  0  0  0  0  0  0  0  0  0
  147.3596  139.0875  156.2098 H   0  0  0  0  0  0  0  0  0  0  0  0
  148.5795  137.8359  156.2330 H   0  0  0  0  0  0  0  0  0  0  0  0
  149.5272  140.0770  154.7315 H   0  0  0  0  0  0  0  0  0  0  0  0
  151.7216  140.9544  155.8176 H   0  0  0  0  0  0  0  0  0  0  0  0
  150.4230  142.1122  155.8952 H   0  0  0  0  0  0  0  0  0  0  0  0
  150.2863  143.6304  157.5847 H   0  0  0  0  0  0  0  0  0  0  0  0
  151.0937  144.6347  159.6000 H   0  0  0  0  0  0  0  0  0  0  0  0
  154.6231  140.5877  159.6882 H   0  0  0  0  0  0  0  0  0  0  0  0
  153.3675  140.2405  160.9371 H   0  0  0  0  0  0  0  0  0  0  0  0
  154.4420  141.6774  161.0675 H   0  0  0  0  0  0  0  0  0  0  0  0
  145.9908  137.2595  154.8186 H   0  0  0  0  0  0  0  0  0  0  0  0
  147.3871  136.1997  154.7166 H   0  0  0  0  0  0  0  0  0  0  0  0
  147.3817  136.4652  152.3765 H   0  0  0  0  0  0  0  0  0  0  0  0
  1  2  1  0  0  0  0
  1 25  1  0  0  0  0
  1 26  1  0  0  0  0
  1 27  1  0  0  0  0
  2  3  1  0  0  0  0
  2  4  1  0  0  0  0
  2 28  1  0  0  0  0
  3 29  1  0  0  0  0
  3 30  1  0  0  0  0
  3 31  1  0  0  0  0
  4  5  1  0  0  0  0
  4 32  1  0  0  0  0
  4 33  1  0  0  0  0
  5 24  1  0  0  0  0
  5  6  1  0  0  0  0
  5 51  1  0  0  0  0
  6  7  1  0  0  0  0
  6 34  1  0  0  0  0
  6 35  1  0  0  0  0
  7  8  1  0  0  0  0
  7 36  1  0  0  0  0
  7 37  1  0  0  0  0
  8  9  1  0  0  0  0
  9 10  1  0  0  0  0
  9 24  1  0  0  0  0
  9 38  1  0  0  0  0
 10 11  1  0  0  0  0
 10 39  1  0  0  0  0
 10 40  1  0  0  0  0
 11 12  1  0  0  0  0
 11 41  1  0  0  0  0
 12 13  2  0  0  0  0
 12 14  1  0  0  0  0
 14 15  1  0  0  0  0
 14 42  1  0  0  0  0
 14 43  1  0  0  0  0
 15 22  1  0  0  0  0
 15 16  1  0  0  0  0
 16 17  2  0  0  0  0
 16 44  1  0  0  0  0
 17 18  1  0  0  0  0
 17 45  1  0  0  0  0
 18 19  2  0  0  0  0
 18 20  1  0  0  0  0
 20 21  1  0  0  0  0
 20 22  1  0  0  0  0
 21 46  1  0  0  0  0
 21 47  1  0  0  0  0
 21 48  1  0  0  0  0
 22 23  2  0  0  0  0
 24 49  1  0  0  0  0
 24 50  1  0  0  0  0
M  CHG  1   5   1
M  END
> <s_m_source_file>
AV-unprocessed.smi

> <i_m_source_file_index>
2087

> <i_lp_mmshare_version>
43012

> <i_f3d_flags>
0

> <s_epik_input>
W0NIM11bQ0hdKFtDSDNdKVtDSDJdTjFbQ0gyXVtDSDJdT1tDQEhdKFtDSDJdMSlbQ0gyXVtOSF1DKD1PKVtDSDJdbjJbY0hdW2NIXWMoPU8pbihbQ0gzXSljMj1P

> <s_epik_cmdline>
J2VwaWtfcHl0aG9uJywgJy1waCcsICc3LjAnLCAnLXRuJywgJzgnLCAnLW1hJywgJzIwMCcsICctbWV0YWxfYmluZGluZycsICctaW1hZScsICc8aW5maWxlLm1hZT4nLCAnLW9tYWUnLCAnPG91dGZpbGUubWFlPic=

> <r_lp_tautomer_probability>
1

> <r_epik_Ionization_Penalty>
0.097593

> <r_epik_Ionization_Penalty_Charging>
0.097593

> <r_epik_Ionization_Penalty_Neutral>
6.27044e-08

> <r_epik_State_Penalty>
0.0877056

> <r_epik_Charging_Adjusted_Penalty>
0.185299

> <i_epik_Tot_Q>
1

> <i_epik_Tot_abs_Q>
1

> <r_epik_Metal_State_Penalty>
0.0877109

> <b_epik_Metal_Only>
0

> <s_lp_Force_Field>
OPLS_2005

> <r_lp_Energy>
25.8425

> <b_lp_Chiralities_Consistent>
1

> <s_lp_Variant>
AV-unprocessed.smi:2087-1

> <Gold.Version>
5.8.1

> <Gold.Id.Protein>
6NUR|6NUR_protein|mol2

> <Gold.PLP.Fitness>
49.6579

> <Gold.PLP.PLP>
-39.4226

> <Gold.PLP.part.hbond>
-2.0000

> <Gold.PLP.part.metal>
0.0000

> <Gold.PLP.part.buried>
-1.6148

> <Gold.PLP.part.nonpolar>
-34.9986

> <Gold.PLP.part.repulsive>
0.3266

> <Gold.PLP.ligand.clash>
0.0000

> <Gold.PLP.ligand.torsion>
0.9504

> <Gold.PLP.Chemscore.Hbond>
2.9920

> <Gold.PLP.Chemscore.CHOScore>
1.0000

> <Gold.PLP.Chemscore.Metal>
0.0000

> <Gold.Chemscore.Hbonds>
donor molecule, donor type, donor heavy atom, donor atom, acceptor molecule, acceptor atom, score
      L1  H     5    51       P1  7948  2.00
      P1  H  7997  8009       L1    23  0.94
      L1  C    16    44       P1  8028  0.83

> <Gold.PLP.Chemscore.Internal.Correction>
0.1601

> <Gold.Rescore>
     Score         DG    S(hbond)    S(metal)    S(lipo)     H(rot)  DE(clash)    DE(int)     intcor
     13.76     -15.04       1.86        0.00      77.24       2.22       0.12       1.17       ----

> <Gold.Chemscore.Fitness>
13.7591

> <Gold.Chemscore.DG>
-15.0417

> <Gold.Chemscore.ZeroCoef>
-5.4800

> <Gold.Chemscore.Hbond>
1.8624

> <Gold.Chemscore.Metal>
0.0000

> <Gold.Chemscore.Lipo>
77.2389

> <Gold.Chemscore.Internal_Hbond>
0.0000

> <Gold.Chemscore.DEClash>
0.1163

> <Gold.Chemscore.DEInternal>
1.1663

> <Gold.Chemscore.Rot>
2.2249

> <Gold.Chemscore.Internal.Correction>
   9.000000E+99

> <Gold.Chemscore.Hbonds>
donor molecule, donor type, donor heavy atom, donor atom, acceptor molecule, acceptor atom, score
      L1  H     5    51       P1  7948  1.00
      P1  H  7997  8009       L1    23  0.80

> <Gold.Chemscore.Hbond.Weighted>
-6.2205

> <Gold.Chemscore.Metal.Weighted>
-0.0000

> <Gold.Chemscore.Lipo.Weighted>
-9.0369

> <Gold.Chemscore.Internal_Hbond.Weighted>
0.0000

> <Gold.Chemscore.DEClash.Weighted>
0.1163

> <Gold.Chemscore.DEInternal.Weighted>
1.1663

> <Gold.Chemscore.Rot.Weighted>
5.6957

> <Gold.Chemscore.Internal.Correction.Weighted>
   9.000000E+99

> <Gold.Protein.RotatedTorsions>
[ 6907 6896 6895 6894 ] final  165.09 input  -60.11 | X-H torsion
[ 7974 7965 7964 7962 ] final  110.13 input  175.53 | X-H torsion
[ 8008 7997 7996 7995 ] final  162.62 input   59.86 | X-H torsion
[ 10167 10162 10161 10158 ] final  179.55 input  -65.29 | X-H torsion
[ 10718 10713 10712 10709 ] final   81.13 input   66.30 | X-H torsion
[ 10763 10752 10751 10750 ] final   98.86 input  -60.55 | X-H torsion
[ 11005 11000 10999 10996 ] final  152.04 input  -57.11 | X-H torsion

> <Gold.Protein.ActiveResidues>
 VAL166  LYS551  ARG553  GLY616  TRP617  ASP618  TYR619  PRO620  LYS621  CYS622 
 ASP623  PHE694  ASN695  SER759  ASP760  ASP761  ALA762  ILE779  LEU786  VAL792 
 PHE793  MET794  SER795  GLU796  ALA797  LYS798  CYS799  TRP800  GLU811  SER814 

> <Gold.Protein.RotatedAtoms>
  151.8998  133.3535  159.3826 H   0  0  0  0  0  0  0  0  0  0  0  0  # atno 6907 bound_to 6896
  150.7083  134.4839  159.5493 H   0  0  0  0  0  0  0  0  0  0  0  0  # atno 6908 bound_to 6896
  152.2426  134.8214  160.0509 H   0  0  0  0  0  0  0  0  0  0  0  0  # atno 6909 bound_to 6896
  145.2589  139.2710  143.4027 H   0  0  0  0  0  0  0  0  0  0  0  0  # atno 7974 bound_to 7965
  156.2017  140.1745  156.7884 H   0  0  0  0  0  0  0  0  0  0  0  0  # atno 8008 bound_to 7997
  154.5601  140.0701  156.8836 H   0  0  0  0  0  0  0  0  0  0  0  0  # atno 8009 bound_to 7997
  155.2864  140.3352  155.4257 H   0  0  0  0  0  0  0  0  0  0  0  0  # atno 8010 bound_to 7997
  139.5341  144.2547  152.0756 H   0  0  0  0  0  0  0  0  0  0  0  0  # atno 10167 bound_to 10162
  157.6825  130.9990  150.2181 H   0  0  0  0  0  0  0  0  0  0  0  0  # atno 10718 bound_to 10713
  153.2943  135.4133  155.1195 H   0  0  0  0  0  0  0  0  0  0  0  0  # atno 10763 bound_to 10752
  154.8530  135.3526  154.5939 H   0  0  0  0  0  0  0  0  0  0  0  0  # atno 10764 bound_to 10752
  153.6362  135.7059  153.5316 H   0  0  0  0  0  0  0  0  0  0  0  0  # atno 10765 bound_to 10752
  140.1272  134.8825  157.2154 H   0  0  0  0  0  0  0  0  0  0  0  0  # atno 11005 bound_to 11000
  146.3281  140.3001  142.8620 LP  0  0  0  0  0  0  0  0  0  0  0  0  # atno 17320 bound_to 7965
  144.9436  140.8104  143.5615 LP  0  0  0  0  0  0  0  0  0  0  0  0  # atno 17321 bound_to 7965
  140.2015  144.4653  150.6429 LP  0  0  0  0  0  0  0  0  0  0  0  0  # atno 17342 bound_to 10162
  140.6538  143.2232  151.6017 LP  0  0  0  0  0  0  0  0  0  0  0  0  # atno 17343 bound_to 10162
  156.2838  130.3737  149.7909 LP  0  0  0  0  0  0  0  0  0  0  0  0  # atno 17370 bound_to 10713
  156.5589  130.8374  151.3322 LP  0  0  0  0  0  0  0  0  0  0  0  0  # atno 17371 bound_to 10713
  140.2889  134.3264  155.7321 LP  0  0  0  0  0  0  0  0  0  0  0  0  # atno 17394 bound_to 11000
  141.2163  133.7522  156.9473 LP  0  0  0  0  0  0  0  0  0  0  0  0  # atno 17395 bound_to 11000

$$$$
