AV-unprocessed.smi:1605|AV-procd|sdf|6458|dock5
  -GOLD-   22720 7113D 1   1.00000     0.00000
 Structure written by MMmdl.
 52 54  0  0  0  0  0  0  0  0  3 V2000
  143.5197  133.2529  151.5471 C   0  0  0  0  0  0  0  0  0  0  0  0
  144.4645  133.6296  152.5370 O   0  0  0  0  0  0  0  0  0  0  0  0
  145.7876  133.8197  152.0484 C   0  0  2  0  0  0  0  0  0  0  0  0
  146.7624  134.1996  153.1791 C   0  0  0  0  0  0  0  0  0  0  0  0
  146.4076  135.5654  153.7908 C   0  0  0  0  0  0  0  0  0  0  0  0
  146.3815  136.6298  152.7518 N   0  3  2  0  0  0  0  0  0  0  0  0
  146.1615  137.9870  153.3142 C   0  0  0  0  0  0  0  0  0  0  0  0
  147.2879  138.9751  152.9380 C   0  0  1  0  0  0  0  0  0  0  0  0
  146.8360  139.8151  151.8957 O   0  0  0  0  0  0  0  0  0  0  0  0
  147.7195  139.8855  154.1064 C   0  0  0  0  0  0  0  0  0  0  0  0
  149.1308  139.7221  154.4787 N   0  0  0  0  0  0  0  0  0  0  0  0
  150.0927  138.9210  153.9442 C   0  0  0  0  0  0  0  0  0  0  0  0
  151.2396  139.1326  154.6473 N   0  3  0  0  0  0  0  0  0  0  0  0
  151.0037  140.0724  155.6532 C   0  0  0  0  0  0  0  0  0  0  0  0
  151.8488  140.6063  156.6188 C   0  0  0  0  0  0  0  0  0  0  0  0
  151.2929  141.5496  157.5124 C   0  0  0  0  0  0  0  0  0  0  0  0
  152.1886  142.1506  158.5823 C   0  0  0  0  0  0  0  0  0  0  0  0
  149.9286  141.9289  157.4184 C   0  0  0  0  0  0  0  0  0  0  0  0
  149.3406  142.9427  158.3852 C   0  0  0  0  0  0  0  0  0  0  0  0
  149.0853  141.3742  156.4293 C   0  0  0  0  0  0  0  0  0  0  0  0
  149.6502  140.4488  155.5553 C   0  0  0  0  0  0  0  0  0  0  0  0
  145.4214  136.3081  151.6646 C   0  0  0  0  0  0  0  0  0  0  0  0
  145.7481  134.9530  151.0122 C   0  0  0  0  0  0  0  0  0  0  0  0
  142.5309  133.1841  152.0004 H   0  0  0  0  0  0  0  0  0  0  0  0
  143.7509  132.2811  151.1120 H   0  0  0  0  0  0  0  0  0  0  0  0
  143.4680  133.9924  150.7471 H   0  0  0  0  0  0  0  0  0  0  0  0
  146.1277  132.9091  151.5523 H   0  0  0  0  0  0  0  0  0  0  0  0
  146.7801  133.4347  153.9549 H   0  0  0  0  0  0  0  0  0  0  0  0
  147.7763  134.2400  152.7790 H   0  0  0  0  0  0  0  0  0  0  0  0
  145.4359  135.5116  154.2846 H   0  0  0  0  0  0  0  0  0  0  0  0
  147.1363  135.8059  154.5639 H   0  0  0  0  0  0  0  0  0  0  0  0
  145.2137  138.3936  152.9571 H   0  0  0  0  0  0  0  0  0  0  0  0
  146.0591  137.8986  154.3962 H   0  0  0  0  0  0  0  0  0  0  0  0
  148.1621  138.4382  152.5733 H   0  0  0  0  0  0  0  0  0  0  0  0
  147.5669  140.0424  151.3418 H   0  0  0  0  0  0  0  0  0  0  0  0
  147.5538  140.9367  153.8651 H   0  0  0  0  0  0  0  0  0  0  0  0
  147.1214  139.6728  154.9939 H   0  0  0  0  0  0  0  0  0  0  0  0
  149.9705  138.2426  153.1120 H   0  0  0  0  0  0  0  0  0  0  0  0
  152.8859  140.3112  156.6862 H   0  0  0  0  0  0  0  0  0  0  0  0
  151.7759  141.9708  159.5750 H   0  0  0  0  0  0  0  0  0  0  0  0
  152.2873  143.2266  158.4380 H   0  0  0  0  0  0  0  0  0  0  0  0
  153.1887  141.7171  158.5554 H   0  0  0  0  0  0  0  0  0  0  0  0
  148.3003  143.1652  158.1464 H   0  0  0  0  0  0  0  0  0  0  0  0
  149.8972  143.8792  158.3468 H   0  0  0  0  0  0  0  0  0  0  0  0
  149.3739  142.5605  159.4057 H   0  0  0  0  0  0  0  0  0  0  0  0
  148.0453  141.6582  156.3616 H   0  0  0  0  0  0  0  0  0  0  0  0
  144.4057  136.3024  152.0638 H   0  0  0  0  0  0  0  0  0  0  0  0
  145.4564  137.0865  150.9013 H   0  0  0  0  0  0  0  0  0  0  0  0
  146.7142  135.0185  150.5097 H   0  0  0  0  0  0  0  0  0  0  0  0
  145.0155  134.7248  150.2372 H   0  0  0  0  0  0  0  0  0  0  0  0
  147.2937  136.6450  152.3186 H   0  0  0  0  0  0  0  0  0  0  0  0
  152.1162  138.6632  154.4576 H   0  0  0  0  0  0  0  0  0  0  0  0
  1  2  1  0  0  0  0
  1 24  1  0  0  0  0
  1 25  1  0  0  0  0
  1 26  1  0  0  0  0
  2  3  1  0  0  0  0
  3 23  1  0  0  0  0
  3  4  1  0  0  0  0
  3 27  1  0  0  0  0
  4  5  1  0  0  0  0
  4 28  1  0  0  0  0
  4 29  1  0  0  0  0
  5  6  1  0  0  0  0
  5 30  1  0  0  0  0
  5 31  1  0  0  0  0
  6  7  1  0  0  0  0
  6 22  1  0  0  0  0
  6 51  1  0  0  0  0
  7  8  1  0  0  0  0
  7 32  1  0  0  0  0
  7 33  1  0  0  0  0
  8  9  1  0  0  0  0
  8 10  1  0  0  0  0
  8 34  1  0  0  0  0
  9 35  1  0  0  0  0
 10 11  1  0  0  0  0
 10 36  1  0  0  0  0
 10 37  1  0  0  0  0
 11 21  1  0  0  0  0
 11 12  1  0  0  0  0
 12 13  2  0  0  0  0
 12 38  1  0  0  0  0
 13 14  1  0  0  0  0
 13 52  1  0  0  0  0
 14 21  2  0  0  0  0
 14 15  1  0  0  0  0
 15 16  2  0  0  0  0
 15 39  1  0  0  0  0
 16 17  1  0  0  0  0
 16 18  1  0  0  0  0
 17 40  1  0  0  0  0
 17 41  1  0  0  0  0
 17 42  1  0  0  0  0
 18 19  1  0  0  0  0
 18 20  2  0  0  0  0
 19 43  1  0  0  0  0
 19 44  1  0  0  0  0
 19 45  1  0  0  0  0
 20 21  1  0  0  0  0
 20 46  1  0  0  0  0
 22 23  1  0  0  0  0
 22 47  1  0  0  0  0
 22 48  1  0  0  0  0
 23 49  1  0  0  0  0
 23 50  1  0  0  0  0
M  CHG  1   6   1
M  CHG  1  13   1
M  END
> <s_m_source_file>
AV-unprocessed.smi

> <i_m_source_file_index>
1605

> <i_lp_mmshare_version>
43012

> <i_f3d_flags>
0

> <s_epik_input>
W0NIM11PW0NIXTFbQ0gyXVtDSDJdTihbQ0gyXVtDSDJdMSlbQ0gyXVtDQEhdKFtPSF0pW0NIMl1uKFtjSF1uMiljKGMyMylbY0hdYyhbQ0gzXSljKFtjSF0zKVtDSDNd

> <s_epik_cmdline>
J2VwaWtfcHl0aG9uJywgJy1waCcsICc3LjAnLCAnLXRuJywgJzgnLCAnLW1hJywgJzIwMCcsICctbWV0YWxfYmluZGluZycsICctaW1hZScsICc8aW5maWxlLm1hZT4nLCAnLW9tYWUnLCAnPG91dGZpbGUubWFlPic=

> <r_epik_Ionization_Penalty>
1.19848

> <r_epik_Ionization_Penalty_Charging>
1.19848

> <r_epik_Ionization_Penalty_Neutral>
1.67134e-06

> <r_epik_State_Penalty>
1.2782

> <r_epik_Charging_Adjusted_Penalty>
2.47668

> <i_epik_Tot_Q>
2

> <i_epik_Tot_abs_Q>
2

> <r_epik_Metal_State_Penalty>
5.29544

> <b_epik_Metal_Only>
0

> <s_lp_Force_Field>
OPLS_2005

> <r_lp_Energy>
34.9642

> <b_lp_Chiralities_Consistent>
1

> <s_lp_Variant>
AV-unprocessed.smi:1605-8

> <Gold.Version>
5.8.1

> <Gold.Id.Protein>
6NUR|6NUR_protein|mol2

> <Gold.PLP.Fitness>
46.1491

> <Gold.PLP.PLP>
-37.5640

> <Gold.PLP.part.hbond>
-2.2313

> <Gold.PLP.part.metal>
0.0000

> <Gold.PLP.part.buried>
-4.0483

> <Gold.PLP.part.nonpolar>
-30.7974

> <Gold.PLP.part.repulsive>
0.4523

> <Gold.PLP.ligand.clash>
0.0000

> <Gold.PLP.ligand.torsion>
2.0701

> <Gold.PLP.Chemscore.Hbond>
2.9440

> <Gold.PLP.Chemscore.CHOScore>
1.2788

> <Gold.PLP.Chemscore.Metal>
0.0000

> <Gold.Chemscore.Hbonds>
donor molecule, donor type, donor heavy atom, donor atom, acceptor molecule, acceptor atom, score
      L1  H     6    51       P1  7948  2.00
      L1  H     9    35       P1  7957  0.94
      L1  C    12    38       P1  7948  1.00
      L1  C    12    38       P1  7957  0.27

> <Gold.PLP.Chemscore.Internal.Correction>
0.0569

> <Gold.Rescore>
     Score         DG    S(hbond)    S(metal)    S(lipo)     H(rot)  DE(clash)    DE(int)     intcor
     14.75     -17.28       1.93        0.00      95.70       2.28       0.46       2.07       ----

> <Gold.Chemscore.Fitness>
14.7493

> <Gold.Chemscore.DG>
-17.2818

> <Gold.Chemscore.ZeroCoef>
-5.4800

> <Gold.Chemscore.Hbond>
1.9316

> <Gold.Chemscore.Metal>
0.0000

> <Gold.Chemscore.Lipo>
95.7034

> <Gold.Chemscore.Internal_Hbond>
0.0000

> <Gold.Chemscore.DEClash>
0.4629

> <Gold.Chemscore.DEInternal>
2.0696

> <Gold.Chemscore.Rot>
2.2839

> <Gold.Chemscore.Internal.Correction>
   9.000000E+99

> <Gold.Chemscore.Hbonds>
donor molecule, donor type, donor heavy atom, donor atom, acceptor molecule, acceptor atom, score
      L1  H     6    51       P1  7948  1.00
      L1  H     9    35       P1  7957  0.87

> <Gold.Chemscore.Hbond.Weighted>
-6.4514

> <Gold.Chemscore.Metal.Weighted>
-0.0000

> <Gold.Chemscore.Lipo.Weighted>
-11.1973

> <Gold.Chemscore.Internal_Hbond.Weighted>
0.0000

> <Gold.Chemscore.DEClash.Weighted>
0.4629

> <Gold.Chemscore.DEInternal.Weighted>
2.0696

> <Gold.Chemscore.Rot.Weighted>
5.8469

> <Gold.Chemscore.Internal.Correction.Weighted>
   9.000000E+99

> <Gold.Protein.RotatedTorsions>
[ 6907 6896 6895 6894 ] final -155.55 input  -60.11 | X-H torsion
[ 7974 7965 7964 7962 ] final   -9.66 input  175.53 | X-H torsion
[ 8008 7997 7996 7995 ] final  112.48 input   59.86 | X-H torsion
[ 10167 10162 10161 10158 ] final -139.96 input  -65.29 | X-H torsion
[ 10718 10713 10712 10709 ] final  -80.26 input   66.30 | X-H torsion
[ 10763 10752 10751 10750 ] final   -6.55 input  -60.55 | X-H torsion
[ 11005 11000 10999 10996 ] final   64.21 input  -57.11 | X-H torsion

> <Gold.Protein.ActiveResidues>
 VAL166  LYS551  ARG553  GLY616  TRP617  ASP618  TYR619  PRO620  LYS621  CYS622 
 ASP623  PHE694  ASN695  SER759  ASP760  ASP761  ALA762  ILE779  LEU786  VAL792 
 PHE793  MET794  SER795  GLU796  ALA797  LYS798  CYS799  TRP800  GLU811  SER814 

> <Gold.Protein.RotatedAtoms>
  151.2742  133.4240  159.2622 H   0  0  0  0  0  0  0  0  0  0  0  0  # atno 6907 bound_to 6896
  151.0418  134.9613  159.8176 H   0  0  0  0  0  0  0  0  0  0  0  0  # atno 6908 bound_to 6896
  152.5366  134.2699  159.9020 H   0  0  0  0  0  0  0  0  0  0  0  0  # atno 6909 bound_to 6896
  146.2245  140.2649  142.8353 H   0  0  0  0  0  0  0  0  0  0  0  0  # atno 7974 bound_to 7965
  156.2195  140.2999  155.9918 H   0  0  0  0  0  0  0  0  0  0  0  0  # atno 8008 bound_to 7997
  155.2519  140.0426  157.3005 H   0  0  0  0  0  0  0  0  0  0  0  0  # atno 8009 bound_to 7997
  154.5818  140.2377  155.8051 H   0  0  0  0  0  0  0  0  0  0  0  0  # atno 8010 bound_to 7997
  139.8329  143.7423  152.2665 H   0  0  0  0  0  0  0  0  0  0  0  0  # atno 10167 bound_to 10162
  156.0074  130.4569  150.3773 H   0  0  0  0  0  0  0  0  0  0  0  0  # atno 10718 bound_to 10713
  153.4139  135.7008  153.6340 H   0  0  0  0  0  0  0  0  0  0  0  0  # atno 10763 bound_to 10752
  153.4823  135.3691  155.2449 H   0  0  0  0  0  0  0  0  0  0  0  0  # atno 10764 bound_to 10752
  154.8718  135.4069  154.3495 H   0  0  0  0  0  0  0  0  0  0  0  0  # atno 10765 bound_to 10752
  139.9974  134.6496  155.9988 H   0  0  0  0  0  0  0  0  0  0  0  0  # atno 11005 bound_to 11000
  144.9312  140.7976  143.5688 LP  0  0  0  0  0  0  0  0  0  0  0  0  # atno 17320 bound_to 7965
  145.2593  139.1999  143.4901 LP  0  0  0  0  0  0  0  0  0  0  0  0  # atno 17321 bound_to 7965
  139.7636  144.7499  151.0327 LP  0  0  0  0  0  0  0  0  0  0  0  0  # atno 17342 bound_to 10162
  140.7805  143.4723  151.0130 LP  0  0  0  0  0  0  0  0  0  0  0  0  # atno 17343 bound_to 10162
  157.1854  131.0402  151.2727 LP  0  0  0  0  0  0  0  0  0  0  0  0  # atno 17370 bound_to 10713
  157.4108  130.7384  149.6838 LP  0  0  0  0  0  0  0  0  0  0  0  0  # atno 17371 bound_to 10713
  141.1615  133.6538  156.4335 LP  0  0  0  0  0  0  0  0  0  0  0  0  # atno 17394 bound_to 11000
  140.4792  134.6680  157.5164 LP  0  0  0  0  0  0  0  0  0  0  0  0  # atno 17395 bound_to 11000

$$$$
