#       Name:                AV-unprocessed.smi:1141
#       Creating user name   scv26
#       Creation time:       Fri Mar 27 03:44:31 2020


#       File generated by GOLD software.
#

@<TRIPOS>MOLECULE
AV-unprocessed.smi:1141
    55    56     1
SMALL
NO_CHARGES


@<TRIPOS>ATOM
      1 ****        -5.0603   1.2585   1.7175 C.3            1 S1                 0.0000
      2 ****        -3.7061   1.6695   1.6597 O.3            1 S1                 0.0000
      3 ****        -3.4641   2.5911   0.6073 C.3            1 S1                 0.0000
      4 ****        -1.9834   2.9708   0.5952 C.2            1 S1                 0.0000
      5 ****        -1.6610   4.1387   0.3808 O.2            1 S1                 0.0000
      6 ****        -1.1147   1.9615   0.7873 N.am           1 S1                 0.0000
      7 ****         0.3085   2.0058   0.7929 C.ar           1 S1                 0.0000
      8 ****         1.0303   3.1482   1.2139 C.ar           1 S1                 0.0000
      9 ****         2.4357   3.1035   1.2382 C.ar           1 S1                 0.0000
     10 ****         3.0815   1.9152   0.8517 C.ar           1 S1                 0.0000
     11 ****         4.4604   1.8717   0.8759 O.3            1 S1                 0.0000
     12 ****         5.1042   0.6692   0.4683 C.3            1 S1                 0.0000
     13 ****         2.3987   0.8125   0.4617 N.ar           1 S1                 0.0000
     14 ****         1.0448   0.8458   0.4330 C.ar           1 S1                 0.0000
     15 ****         0.3813  -0.3218   0.0062 N.3            1 S1                 0.0000
     16 ****        -0.1371  -0.2393  -1.3598 C.3            1 S1                 0.0000
     17 ****        -1.0563  -1.4369  -1.6666 C.3            1 S1                 0.0000
     18 ****        -0.3280  -2.6818  -1.3885 N.am           1 S1                 0.0000
     19 ****         0.0390  -3.5521  -2.3591 C.2            1 S1                 0.0000
     20 ****         0.8692  -4.7824  -1.9863 C.3            1 S1                 0.0000
     21 ****        -0.2653  -3.3963  -3.5417 O.2            1 S1                 0.0000
     22 ****         0.0530  -2.7702   0.0281 C.3            1 S1                 0.0000
     23 ****         0.9985  -1.6014   0.3625 C.3            1 S1                 0.0000
     24 ****        -5.1950   0.5562   2.5401 H              1 S1                 0.0000
     25 ****        -5.3600   0.7587   0.7953 H              1 S1                 0.0000
     26 ****        -5.7233   2.1080   1.8871 H              1 S1                 0.0000
     27 ****        -3.7243   2.1487  -0.3557 H              1 S1                 0.0000
     28 ****        -4.0730   3.4873   0.7407 H              1 S1                 0.0000
     29 ****        -1.5198   1.0386   0.8544 H              1 S1                 0.0000
     30 ****         0.5319   4.0492   1.5365 H              1 S1                 0.0000
     31 ****         3.0070   3.9633   1.5555 H              1 S1                 0.0000
     32 ****         6.1843   0.7947   0.5430 H              1 S1                 0.0000
     33 ****         4.8706   0.4246  -0.5690 H              1 S1                 0.0000
     34 ****         4.8237  -0.1704   1.1060 H              1 S1                 0.0000
     35 ****        -0.6846   0.6908  -1.5118 H              1 S1                 0.0000
     36 ****         0.7029  -0.2269  -2.0559 H              1 S1                 0.0000
     37 ****        -1.9480  -1.3948  -1.0392 H              1 S1                 0.0000
     38 ****        -1.4119  -1.3729  -2.6957 H              1 S1                 0.0000
     39 ****         1.8150  -4.4871  -1.5312 H              1 S1                 0.0000
     40 ****         1.0981  -5.3745  -2.8732 H              1 S1                 0.0000
     41 ****         0.3236  -5.4215  -1.2916 H              1 S1                 0.0000
     42 ****        -0.8470  -2.7068   0.6417 H              1 S1                 0.0000
     43 ****         0.5252  -3.7131   0.2991 H              1 S1                 0.0000
     44 ****         1.9369  -1.7215  -0.1811 H              1 S1                 0.0000
     45 ****         1.2371  -1.6091   1.4267 H              1 S1                 0.0000
     46 ****        -3.1316   0.8632   1.5188 LP             1 S1                 0.0000
     47 ****        -3.4648   2.1030   2.5279 LP             1 S1                 0.0000
     48 ****        -2.3650   4.8296   0.2165 LP             1 S1                 0.0000
     49 ****        -0.6949   4.3969   0.3709 LP             1 S1                 0.0000
     50 ****         4.7462   2.0566   1.8162 LP             1 S1                 0.0000
     51 ****         4.7904   2.6018   0.2776 LP             1 S1                 0.0000
     52 ****         2.8892  -0.0180   0.1976 LP             1 S1                 0.0000
     53 ****        -0.4301  -0.3389   0.5904 LP             1 S1                 0.0000
     54 ****        -0.8051  -2.6014  -3.8185 LP             1 S1                 0.0000
     55 ****         0.0274  -4.0647  -4.2255 LP             1 S1                 0.0000
@<TRIPOS>BOND
    1    1    2 1     
    2    1   24 1     
    3    1   25 1     
    4    1   26 1     
    5    2    3 1     
    6    3    4 1     
    7    3   27 1     
    8    3   28 1     
    9    4    5 2     
   10    4    6 am    
   11    6    7 1     
   12    6   29 1     
   13    7   14 ar    
   14    7    8 ar    
   15    8    9 ar    
   16    8   30 1     
   17    9   10 ar    
   18    9   31 1     
   19   10   11 1     
   20   10   13 ar    
   21   11   12 1     
   22   12   32 1     
   23   12   33 1     
   24   12   34 1     
   25   13   14 ar    
   26   14   15 1     
   27   15   23 1     
   28   15   16 1     
   29   16   17 1     
   30   16   35 1     
   31   16   36 1     
   32   17   18 1     
   33   17   37 1     
   34   17   38 1     
   35   18   19 am    
   36   18   22 1     
   37   19   20 1     
   38   19   21 2     
   39   20   39 1     
   40   20   40 1     
   41   20   41 1     
   42   22   23 1     
   43   22   42 1     
   44   22   43 1     
   45   23   44 1     
   46   23   45 1     
   47    2   46 1     
   48    2   47 1     
   49    5   48 1     
   50    5   49 1     
   51   11   50 1     
   52   11   51 1     
   53   13   52 1     
   54   15   53 1     
   55   21   54 1     
   56   21   55 1     
@<TRIPOS>SUBSTRUCTURE
      1 S1             1
@<TRIPOS>SET
LONE_PAIRS      STATIC     ATOMS    <user>   **** ""
10 46 47 48 49 50 51 52 53 54 55
DONOR_HYDROGENS      STATIC     ATOMS    <user>   **** ""
1 29
ATOM$BLUE        STATIC     ATOMS    COLORGROUP SYSTEM
10 46 47 48 49 50 51 52 53 54 55
ATOM$RED        STATIC     ATOMS    COLORGROUP SYSTEM
1 29
