AV-unprocessed.smi:1036|AV-procd|sdf|4517|dock10
  -GOLD-   22720 2533D 1   1.00000     0.00000
 Structure written by MMmdl.
 42 44  0  0  0  0  0  0  0  0  2 V2000
  151.0983  135.1483  157.4338 O   0  0  0  0  0  0  0  0  0  0  0  0
  150.2384  135.1188  156.3149 C   0  0  0  0  0  0  0  0  0  0  0  0
  150.6940  136.1533  155.2778 C   0  0  0  0  0  0  0  0  0  0  0  0
  150.6848  137.5012  155.8234 N   0  0  0  0  0  0  0  0  0  0  0  0
  149.8317  138.4561  155.2606 C   0  0  0  0  0  0  0  0  0  0  0  0
  149.1119  138.3084  154.1162 N   0  3  0  0  0  0  0  0  0  0  0  0
  148.3837  139.4820  153.9001 C   0  0  0  0  0  0  0  0  0  0  0  0
  147.5017  139.8290  152.8815 C   0  0  0  0  0  0  0  0  0  0  0  0
  146.9191  141.1113  152.9573 C   0  0  0  0  0  0  0  0  0  0  0  0
  147.2195  141.9947  154.0147 C   0  0  0  0  0  0  0  0  0  0  0  0
  148.1160  141.6357  155.0425 C   0  0  0  0  0  0  0  0  0  0  0  0
  148.6884  140.3668  154.9625 C   0  0  0  0  0  0  0  0  0  0  0  0
  149.5960  139.6872  155.7840 N   0  0  0  0  0  0  0  0  0  0  0  0
  150.1135  140.3421  156.9945 C   0  0  0  0  0  0  0  0  0  0  0  0
  151.6118  140.0677  157.2285 C   0  0  1  0  0  0  0  0  0  0  0  0
  152.3094  140.1586  156.0002 O   0  0  0  0  0  0  0  0  0  0  0  0
  152.1766  140.9921  158.2985 C   0  0  0  0  0  0  0  0  0  0  0  0
  152.0358  142.3940  158.1873 C   0  0  0  0  0  0  0  0  0  0  0  0
  152.5503  143.2427  159.1865 C   0  0  0  0  0  0  0  0  0  0  0  0
  152.4121  144.5849  159.0716 F   0  0  0  0  0  0  0  0  0  0  0  0
  153.2060  142.6965  160.3056 C   0  0  0  0  0  0  0  0  0  0  0  0
  153.3427  141.3008  160.4273 C   0  0  0  0  0  0  0  0  0  0  0  0
  152.8280  140.4499  159.4296 C   0  0  0  0  0  0  0  0  0  0  0  0
  152.9582  139.1082  159.5676 F   0  0  0  0  0  0  0  0  0  0  0  0
  151.7730  134.4976  157.3122 H   0  0  0  0  0  0  0  0  0  0  0  0
  150.1902  134.1142  155.8927 H   0  0  0  0  0  0  0  0  0  0  0  0
  149.2363  135.3685  156.6651 H   0  0  0  0  0  0  0  0  0  0  0  0
  151.7181  135.9265  154.9789 H   0  0  0  0  0  0  0  0  0  0  0  0
  150.0798  136.0976  154.3778 H   0  0  0  0  0  0  0  0  0  0  0  0
  151.1157  137.6741  156.7205 H   0  0  0  0  0  0  0  0  0  0  0  0
  147.2684  139.1549  152.0703 H   0  0  0  0  0  0  0  0  0  0  0  0
  146.2268  141.4234  152.1887 H   0  0  0  0  0  0  0  0  0  0  0  0
  146.7525  142.9687  154.0382 H   0  0  0  0  0  0  0  0  0  0  0  0
  148.3383  142.3195  155.8487 H   0  0  0  0  0  0  0  0  0  0  0  0
  149.9331  141.4136  156.8982 H   0  0  0  0  0  0  0  0  0  0  0  0
  149.5185  140.0073  157.8451 H   0  0  0  0  0  0  0  0  0  0  0  0
  151.7354  139.0389  157.5680 H   0  0  0  0  0  0  0  0  0  0  0  0
  151.6839  140.0989  155.2941 H   0  0  0  0  0  0  0  0  0  0  0  0
  151.5289  142.8267  157.3373 H   0  0  0  0  0  0  0  0  0  0  0  0
  153.6002  143.3473  161.0722 H   0  0  0  0  0  0  0  0  0  0  0  0
  153.8407  140.8818  161.2891 H   0  0  0  0  0  0  0  0  0  0  0  0
  149.1160  137.4777  153.5387 H   0  0  0  0  0  0  0  0  0  0  0  0
  1  2  1  0  0  0  0
  1 25  1  0  0  0  0
  2  3  1  0  0  0  0
  2 26  1  0  0  0  0
  2 27  1  0  0  0  0
  3  4  1  0  0  0  0
  3 28  1  0  0  0  0
  3 29  1  0  0  0  0
  4  5  1  0  0  0  0
  4 30  1  0  0  0  0
  5 13  1  0  0  0  0
  5  6  2  0  0  0  0
  6  7  1  0  0  0  0
  6 42  1  0  0  0  0
  7 12  2  0  0  0  0
  7  8  1  0  0  0  0
  8  9  2  0  0  0  0
  8 31  1  0  0  0  0
  9 10  1  0  0  0  0
  9 32  1  0  0  0  0
 10 11  2  0  0  0  0
 10 33  1  0  0  0  0
 11 12  1  0  0  0  0
 11 34  1  0  0  0  0
 12 13  1  0  0  0  0
 13 14  1  0  0  0  0
 14 15  1  0  0  0  0
 14 35  1  0  0  0  0
 14 36  1  0  0  0  0
 15 16  1  0  0  0  0
 15 17  1  0  0  0  0
 15 37  1  0  0  0  0
 16 38  1  0  0  0  0
 17 23  1  0  0  0  0
 17 18  2  0  0  0  0
 18 19  1  0  0  0  0
 18 39  1  0  0  0  0
 19 20  1  0  0  0  0
 19 21  2  0  0  0  0
 21 22  1  0  0  0  0
 21 40  1  0  0  0  0
 22 23  2  0  0  0  0
 22 41  1  0  0  0  0
 23 24  1  0  0  0  0
M  CHG  1   6   1
M  END
> <s_m_source_file>
AV-unprocessed.smi

> <i_m_source_file_index>
1036

> <i_lp_mmshare_version>
43012

> <i_f3d_flags>
0

> <s_epik_input>
W09IXVtDSDJdW0NIMl1bTkhdYyhuMSluKGMoYzEyKVtjSF1bY0hdW2NIXVtjSF0yKVtDSDJdW0NASF0oW09IXSljM1tjSF1jKEYpW2NIXVtjSF1jM0Y=

> <s_epik_cmdline>
J2VwaWtfcHl0aG9uJywgJy1waCcsICc3LjAnLCAnLXRuJywgJzgnLCAnLW1hJywgJzIwMCcsICctbWV0YWxfYmluZGluZycsICctaW1hZScsICc8aW5maWxlLm1hZT4nLCAnLW9tYWUnLCAnPG91dGZpbGUubWFlPic=

> <r_epik_Ionization_Penalty>
0.0688114

> <r_epik_Ionization_Penalty_Charging>
0.0688055

> <r_epik_Ionization_Penalty_Neutral>
5.85933e-06

> <r_epik_State_Penalty>
0.0602293

> <r_epik_Charging_Adjusted_Penalty>
0.129035

> <i_epik_Tot_Q>
1

> <i_epik_Tot_abs_Q>
1

> <r_epik_Metal_State_Penalty>
2.77411

> <b_epik_Metal_Only>
0

> <s_lp_Force_Field>
OPLS_2005

> <r_lp_Energy>
24.5331

> <b_lp_Chiralities_Consistent>
1

> <s_lp_Variant>
AV-unprocessed.smi:1036-2

> <Gold.Version>
5.8.1

> <Gold.Id.Protein>
6NUR|6NUR_protein|mol2

> <Gold.PLP.Fitness>
51.2105

> <Gold.PLP.PLP>
-43.0416

> <Gold.PLP.part.hbond>
-3.0000

> <Gold.PLP.part.metal>
0.0000

> <Gold.PLP.part.buried>
-0.9622

> <Gold.PLP.part.nonpolar>
-39.2731

> <Gold.PLP.part.repulsive>
0.0701

> <Gold.PLP.ligand.clash>
0.0000

> <Gold.PLP.ligand.torsion>
0.4961

> <Gold.PLP.Chemscore.Hbond>
3.0445

> <Gold.PLP.Chemscore.CHOScore>
0.0000

> <Gold.PLP.Chemscore.Metal>
0.0000

> <Gold.Chemscore.Hbonds>
donor molecule, donor type, donor heavy atom, donor atom, acceptor molecule, acceptor atom, score
      L1  H     6    42       P1  7948  1.79
      P1  H  6896  6908       L1     1  0.08
      P1  H  7997  8009       L1    16  0.98

> <Gold.PLP.Chemscore.Internal.Correction>
0.0277

> <Gold.Rescore>
     Score         DG    S(hbond)    S(metal)    S(lipo)     H(rot)  DE(clash)    DE(int)     intcor
     14.09     -16.06       1.60        0.00     116.59       3.29       1.40       0.56       ----

> <Gold.Chemscore.Fitness>
14.0946

> <Gold.Chemscore.DG>
-16.0577

> <Gold.Chemscore.ZeroCoef>
-5.4800

> <Gold.Chemscore.Hbond>
1.6027

> <Gold.Chemscore.Metal>
0.0000

> <Gold.Chemscore.Lipo>
116.5857

> <Gold.Chemscore.Internal_Hbond>
0.0000

> <Gold.Chemscore.DEClash>
1.4029

> <Gold.Chemscore.DEInternal>
0.5603

> <Gold.Chemscore.Rot>
3.2874

> <Gold.Chemscore.Internal.Correction>
   9.000000E+99

> <Gold.Chemscore.Hbonds>
donor molecule, donor type, donor heavy atom, donor atom, acceptor molecule, acceptor atom, score
      L1  H     6    42       P1  7948  0.85
      P1  H  7997  8009       L1    16  0.80

> <Gold.Chemscore.Hbond.Weighted>
-5.3530

> <Gold.Chemscore.Metal.Weighted>
-0.0000

> <Gold.Chemscore.Lipo.Weighted>
-13.6405

> <Gold.Chemscore.Internal_Hbond.Weighted>
0.0000

> <Gold.Chemscore.DEClash.Weighted>
1.4029

> <Gold.Chemscore.DEInternal.Weighted>
0.5603

> <Gold.Chemscore.Rot.Weighted>
8.4158

> <Gold.Chemscore.Internal.Correction.Weighted>
   9.000000E+99

> <Gold.Protein.RotatedTorsions>
[ 6907 6896 6895 6894 ] final  158.76 input  -60.11 | X-H torsion
[ 7974 7965 7964 7962 ] final  100.61 input  175.53 | X-H torsion
[ 8008 7997 7996 7995 ] final -154.86 input   59.86 | X-H torsion
[ 10167 10162 10161 10158 ] final   86.70 input  -65.29 | X-H torsion
[ 10718 10713 10712 10709 ] final -117.87 input   66.30 | X-H torsion
[ 10763 10752 10751 10750 ] final  159.76 input  -60.55 | X-H torsion
[ 11005 11000 10999 10996 ] final  151.48 input  -57.11 | X-H torsion

> <Gold.Protein.ActiveResidues>
 VAL166  LYS551  ARG553  GLY616  TRP617  ASP618  TYR619  PRO620  LYS621  CYS622 
 ASP623  PHE694  ASN695  SER759  ASP760  ASP761  ALA762  ILE779  LEU786  VAL792 
 PHE793  MET794  SER795  GLU796  ALA797  LYS798  CYS799  TRP800  GLU811  SER814 

> <Gold.Protein.RotatedAtoms>
  151.9956  133.3806  159.4161 H   0  0  0  0  0  0  0  0  0  0  0  0  # atno 6907 bound_to 6896
  150.6916  134.3890  159.5077 H   0  0  0  0  0  0  0  0  0  0  0  0  # atno 6908 bound_to 6896
  152.1629  134.8897  160.0591 H   0  0  0  0  0  0  0  0  0  0  0  0  # atno 6909 bound_to 6896
  145.3833  139.2376  143.3391 H   0  0  0  0  0  0  0  0  0  0  0  0  # atno 7974 bound_to 7965
  155.6930  140.0757  157.2441 H   0  0  0  0  0  0  0  0  0  0  0  0  # atno 8008 bound_to 7997
  154.4085  140.1661  156.2159 H   0  0  0  0  0  0  0  0  0  0  0  0  # atno 8009 bound_to 7997
  155.9435  140.3382  155.6350 H   0  0  0  0  0  0  0  0  0  0  0  0  # atno 8010 bound_to 7997
  139.8849  144.6419  150.8802 H   0  0  0  0  0  0  0  0  0  0  0  0  # atno 10167 bound_to 10162
  156.1065  130.6214  150.9219 H   0  0  0  0  0  0  0  0  0  0  0  0  # atno 10718 bound_to 10713
  154.2367  135.2776  155.2869 H   0  0  0  0  0  0  0  0  0  0  0  0  # atno 10763 bound_to 10752
  154.5579  135.5656  153.6984 H   0  0  0  0  0  0  0  0  0  0  0  0  # atno 10764 bound_to 10752
  153.0008  135.6290  154.2510 H   0  0  0  0  0  0  0  0  0  0  0  0  # atno 10765 bound_to 10752
  140.1223  134.8856  157.2089 H   0  0  0  0  0  0  0  0  0  0  0  0  # atno 11005 bound_to 11000
  146.2832  140.4504  142.8768 LP  0  0  0  0  0  0  0  0  0  0  0  0  # atno 17320 bound_to 7965
  144.8492  140.6975  143.6179 LP  0  0  0  0  0  0  0  0  0  0  0  0  # atno 17321 bound_to 7965
  140.7737  143.3556  151.1928 LP  0  0  0  0  0  0  0  0  0  0  0  0  # atno 17342 bound_to 10162
  139.7162  143.9296  152.2967 LP  0  0  0  0  0  0  0  0  0  0  0  0  # atno 17343 bound_to 10162
  157.6242  131.0927  150.8565 LP  0  0  0  0  0  0  0  0  0  0  0  0  # atno 17370 bound_to 10713
  156.8683  130.5137  149.5298 LP  0  0  0  0  0  0  0  0  0  0  0  0  # atno 17371 bound_to 10713
  140.2949  134.3197  155.7305 LP  0  0  0  0  0  0  0  0  0  0  0  0  # atno 17394 bound_to 11000
  141.2154  133.7557  156.9557 LP  0  0  0  0  0  0  0  0  0  0  0  0  # atno 17395 bound_to 11000

$$$$
