AV-unprocessed.smi:21|AV-procd|sdf|152|dock9
  -GOLD-   2262015373D 1   1.00000     0.00000
 Structure written by MMmdl.
 62 65  0  0  0  0  0  0  0  0  2 V2000
  144.9628  131.5765  151.4987 C   0  0  0  0  0  0  0  0  0  0  0  0
  144.9996  132.9850  151.3351 O   0  0  0  0  0  0  0  0  0  0  0  0
  145.2425  133.6882  152.5443 C   0  0  2  0  0  0  0  0  0  0  0  0
  145.0594  135.1850  152.3374 C   0  0  0  0  0  0  0  0  0  0  0  0
  145.8714  135.7945  153.4845 C   0  0  2  0  0  0  0  0  0  0  0  0
  146.3230  137.2465  153.2309 C   0  0  0  0  0  0  0  0  0  0  0  0
  146.7081  137.9383  154.4636 N   0  0  0  0  0  0  0  0  0  0  0  0
  145.6496  138.3069  155.3957 C   0  0  0  0  0  0  0  0  0  0  0  0
  147.9569  138.4722  154.6000 C   0  0  0  0  0  0  0  0  0  0  0  0
  148.9938  137.8457  153.9814 N   0  0  0  0  0  0  0  0  0  0  0  0
  150.2393  138.3171  154.0773 C   0  0  0  0  0  0  0  0  0  0  0  0
  150.6734  139.3916  154.7343 N   0  0  0  0  0  0  0  0  0  0  0  0
  149.6470  140.0331  155.3597 C   0  0  0  0  0  0  0  0  0  0  0  0
  148.2730  139.6503  155.3471 C   0  0  0  0  0  0  0  0  0  0  0  0
  147.5365  140.5672  156.0922 N   0  0  0  0  0  0  0  0  0  0  0  0
  148.4172  141.4276  156.5222 C   0  0  0  0  0  0  0  0  0  0  0  0
  149.7121  141.1769  156.1349 N   0  0  0  0  0  0  0  0  0  0  0  0
  150.8884  141.9618  156.4680 C   0  0  0  0  0  0  0  0  0  0  0  0
  151.3637  141.7732  157.9307 C   0  0  1  0  0  0  0  0  0  0  0  0
  151.8997  140.3373  158.1402 C   0  0  0  0  0  0  0  0  0  0  0  0
  152.9490  140.0599  157.2364 O   0  0  0  0  0  0  0  0  0  0  0  0
  152.3594  142.8783  158.3829 C   0  0  1  0  0  0  0  0  0  0  0  0
  151.9248  144.3198  158.1134 C   0  0  0  0  0  0  0  0  0  0  0  0
  152.2246  145.0534  159.4221 C   0  0  0  0  0  0  0  0  0  0  0  0
  153.1498  144.2146  160.0955 O   0  0  0  0  0  0  0  0  0  0  0  0
  152.7259  142.8810  159.8710 C   0  0  0  0  0  0  0  0  0  0  0  0
  147.0311  134.8867  153.6524 N   0  3  1  0  0  0  0  0  0  0  0  0
  147.5099  134.7679  155.0470 C   0  0  0  0  0  0  0  0  0  0  0  0
  146.6967  133.5868  153.0226 C   0  0  0  0  0  0  0  0  0  0  0  0
  144.5627  133.3572  153.3319 H   0  0  0  0  0  0  0  0  0  0  0  0
  145.2648  135.7474  154.3911 H   0  0  0  0  0  0  0  0  0  0  0  0
  144.7624  131.1033  150.5374 H   0  0  0  0  0  0  0  0  0  0  0  0
  144.1719  131.2810  152.1891 H   0  0  0  0  0  0  0  0  0  0  0  0
  145.9131  131.1902  151.8686 H   0  0  0  0  0  0  0  0  0  0  0  0
  145.4849  135.4780  151.3762 H   0  0  0  0  0  0  0  0  0  0  0  0
  144.0120  135.4887  152.3478 H   0  0  0  0  0  0  0  0  0  0  0  0
  147.1948  137.2405  152.5761 H   0  0  0  0  0  0  0  0  0  0  0  0
  145.5603  137.7905  152.6736 H   0  0  0  0  0  0  0  0  0  0  0  0
  145.3490  139.3445  155.2480 H   0  0  0  0  0  0  0  0  0  0  0  0
  145.9776  138.1760  156.4274 H   0  0  0  0  0  0  0  0  0  0  0  0
  144.7679  137.6819  155.2510 H   0  0  0  0  0  0  0  0  0  0  0  0
  150.9962  137.7518  153.5536 H   0  0  0  0  0  0  0  0  0  0  0  0
  148.1447  142.2690  157.1431 H   0  0  0  0  0  0  0  0  0  0  0  0
  151.6794  141.6846  155.7704 H   0  0  0  0  0  0  0  0  0  0  0  0
  150.6665  143.0128  156.2781 H   0  0  0  0  0  0  0  0  0  0  0  0
  150.4869  141.8833  158.5710 H   0  0  0  0  0  0  0  0  0  0  0  0
  152.2697  140.1988  159.1562 H   0  0  0  0  0  0  0  0  0  0  0  0
  151.1246  139.5894  157.9812 H   0  0  0  0  0  0  0  0  0  0  0  0
  152.9015  139.1486  156.9904 H   0  0  0  0  0  0  0  0  0  0  0  0
  153.2912  142.7569  157.8297 H   0  0  0  0  0  0  0  0  0  0  0  0
  152.5152  144.7380  157.2972 H   0  0  0  0  0  0  0  0  0  0  0  0
  150.8772  144.4234  157.8335 H   0  0  0  0  0  0  0  0  0  0  0  0
  152.6320  146.0517  159.2614 H   0  0  0  0  0  0  0  0  0  0  0  0
  151.3203  145.1465  160.0256 H   0  0  0  0  0  0  0  0  0  0  0  0
  151.8688  142.6725  160.5112 H   0  0  0  0  0  0  0  0  0  0  0  0
  153.5127  142.1655  160.1106 H   0  0  0  0  0  0  0  0  0  0  0  0
  146.7454  134.3288  155.6893 H   0  0  0  0  0  0  0  0  0  0  0  0
  147.7742  135.7463  155.4487 H   0  0  0  0  0  0  0  0  0  0  0  0
  148.3983  134.1371  155.0917 H   0  0  0  0  0  0  0  0  0  0  0  0
  146.8399  132.7379  153.6928 H   0  0  0  0  0  0  0  0  0  0  0  0
  147.3670  133.4504  152.1731 H   0  0  0  0  0  0  0  0  0  0  0  0
  147.7872  135.2761  153.1072 H   0  0  0  0  0  0  0  0  0  0  0  0
  1  2  1  0  0  0  0
  1 32  1  0  0  0  0
  1 33  1  0  0  0  0
  1 34  1  0  0  0  0
  2  3  1  0  0  0  0
  3 30  1  0  0  0  0
  3 29  1  0  0  0  0
  3  4  1  0  0  0  0
  4  5  1  0  0  0  0
  4 35  1  0  0  0  0
  4 36  1  0  0  0  0
  5 31  1  0  0  0  0
  5  6  1  0  0  0  0
  5 27  1  0  0  0  0
  6  7  1  0  0  0  0
  6 37  1  0  0  0  0
  6 38  1  0  0  0  0
  7  8  1  0  0  0  0
  7  9  1  0  0  0  0
  8 39  1  0  0  0  0
  8 40  1  0  0  0  0
  8 41  1  0  0  0  0
  9 14  1  0  0  0  0
  9 10  2  0  0  0  0
 10 11  1  0  0  0  0
 11 12  2  0  0  0  0
 11 42  1  0  0  0  0
 12 13  1  0  0  0  0
 13 17  1  0  0  0  0
 13 14  2  0  0  0  0
 14 15  1  0  0  0  0
 15 16  2  0  0  0  0
 16 17  1  0  0  0  0
 16 43  1  0  0  0  0
 17 18  1  0  0  0  0
 18 19  1  0  0  0  0
 18 44  1  0  0  0  0
 18 45  1  0  0  0  0
 19 20  1  0  0  0  0
 19 22  1  0  0  0  0
 19 46  1  0  0  0  0
 20 21  1  0  0  0  0
 20 47  1  0  0  0  0
 20 48  1  0  0  0  0
 21 49  1  0  0  0  0
 22 26  1  0  0  0  0
 22 23  1  0  0  0  0
 22 50  1  0  0  0  0
 23 24  1  0  0  0  0
 23 51  1  0  0  0  0
 23 52  1  0  0  0  0
 24 25  1  0  0  0  0
 24 53  1  0  0  0  0
 24 54  1  0  0  0  0
 25 26  1  0  0  0  0
 26 55  1  0  0  0  0
 26 56  1  0  0  0  0
 27 28  1  0  0  0  0
 27 29  1  0  0  0  0
 27 62  1  0  0  0  0
 28 57  1  0  0  0  0
 28 58  1  0  0  0  0
 28 59  1  0  0  0  0
 29 60  1  0  0  0  0
 29 61  1  0  0  0  0
M  CHG  1  27   1
M  END
> <s_m_source_file>
AV-unprocessed.smi

> <i_m_source_file_index>
21

> <i_lp_mmshare_version>
43012

> <i_f3d_flags>
0

> <s_epik_input>
W0NIM11PW0NASF0xW0NIMl1bQ0BIXShOKFtDSDNdKVtDSDJdMSlbQ0gyXU4oW0NIM10pYyhuW2NIXW4yKWMoYzIzKW5bY0hdbjNbQ0gyXVtDQEhdKFtDSDJdW09IXSlbQ0BASF00W0NIMl1bQ0gyXU9bQ0gyXTQ=

> <s_epik_cmdline>
J2VwaWtfcHl0aG9uJywgJy1waCcsICc3LjAnLCAnLXRuJywgJzgnLCAnLW1hJywgJzIwMCcsICctbWV0YWxfYmluZGluZycsICctaW1hZScsICc8aW5maWxlLm1hZT4nLCAnLW9tYWUnLCAnPG91dGZpbGUubWFlPic=

> <r_lp_tautomer_probability>
1

> <r_epik_Ionization_Penalty>
0.0157465

> <r_epik_Ionization_Penalty_Charging>
0.015354

> <r_epik_Ionization_Penalty_Neutral>
0.000392529

> <r_epik_State_Penalty>
0.0120612

> <r_epik_Charging_Adjusted_Penalty>
0.0274152

> <i_epik_Tot_Q>
1

> <i_epik_Tot_abs_Q>
1

> <r_epik_Metal_State_Penalty>
0.0121253

> <b_epik_Metal_Only>
0

> <s_lp_Force_Field>
OPLS_2005

> <r_lp_Energy>
58.5761

> <b_lp_Chiralities_Consistent>
1

> <s_lp_Variant>
AV-unprocessed.smi:21-32

> <Gold.Version>
5.8.1

> <Gold.Id.Protein>
6NUR|6NUR_protein|mol2

> <Gold.PLP.Fitness>
56.7811

> <Gold.PLP.PLP>
-41.5708

> <Gold.PLP.part.hbond>
-3.0000

> <Gold.PLP.part.metal>
0.0000

> <Gold.PLP.part.buried>
-0.9899

> <Gold.PLP.part.nonpolar>
-43.1348

> <Gold.PLP.part.repulsive>
5.0567

> <Gold.PLP.ligand.clash>
0.0000

> <Gold.PLP.ligand.torsion>
0.9155

> <Gold.PLP.Chemscore.Hbond>
3.9920

> <Gold.PLP.Chemscore.CHOScore>
1.5117

> <Gold.PLP.Chemscore.Metal>
0.0000

> <Gold.Chemscore.Hbonds>
donor molecule, donor type, donor heavy atom, donor atom, acceptor molecule, acceptor atom, score
      L1  H    27    62       P1  7948  2.00
      P1  H  7989  7998       L1    12  0.70
      P1  H  7997  8008       L1    21  0.44
      L1  C    11    42       P1  7949  0.53

> <Gold.PLP.Chemscore.Internal.Correction>
0.5301

> <Gold.Rescore>
     Score         DG    S(hbond)    S(metal)    S(lipo)     H(rot)  DE(clash)    DE(int)     intcor
     11.46     -16.10       1.97        0.00     101.86       3.08       2.55       2.09       ----

> <Gold.Chemscore.Fitness>
11.4553

> <Gold.Chemscore.DG>
-16.0953

> <Gold.Chemscore.ZeroCoef>
-5.4800

> <Gold.Chemscore.Hbond>
1.9677

> <Gold.Chemscore.Metal>
0.0000

> <Gold.Chemscore.Lipo>
101.8583

> <Gold.Chemscore.Internal_Hbond>
0.0000

> <Gold.Chemscore.DEClash>
2.5537

> <Gold.Chemscore.DEInternal>
2.0863

> <Gold.Chemscore.Rot>
3.0758

> <Gold.Chemscore.Internal.Correction>
   9.000000E+99

> <Gold.Chemscore.Hbonds>
donor molecule, donor type, donor heavy atom, donor atom, acceptor molecule, acceptor atom, score
      L1  H    27    62       P1  7948  0.99
      P1  H  7989  7998       L1    12  0.34
      P1  H  7997  8008       L1    21  0.02

> <Gold.Chemscore.Hbond.Weighted>
-6.5720

> <Gold.Chemscore.Metal.Weighted>
-0.0000

> <Gold.Chemscore.Lipo.Weighted>
-11.9174

> <Gold.Chemscore.Internal_Hbond.Weighted>
0.0000

> <Gold.Chemscore.DEClash.Weighted>
2.5537

> <Gold.Chemscore.DEInternal.Weighted>
2.0863

> <Gold.Chemscore.Rot.Weighted>
7.8741

> <Gold.Chemscore.Internal.Correction.Weighted>
   9.000000E+99

> <Gold.Protein.RotatedTorsions>
[ 6907 6896 6895 6894 ] final -172.22 input  -60.11 | X-H torsion
[ 7974 7965 7964 7962 ] final   74.28 input  175.53 | X-H torsion
[ 8008 7997 7996 7995 ] final  -81.41 input   59.86 | X-H torsion
[ 10167 10162 10161 10158 ] final -178.15 input  -65.29 | X-H torsion
[ 10718 10713 10712 10709 ] final   35.22 input   66.30 | X-H torsion
[ 10763 10752 10751 10750 ] final  -62.11 input  -60.55 | X-H torsion
[ 11005 11000 10999 10996 ] final   -0.32 input  -57.11 | X-H torsion

> <Gold.Protein.ActiveResidues>
 VAL166  LYS551  ARG553  GLY616  TRP617  ASP618  TYR619  PRO620  LYS621  CYS622 
 ASP623  PHE694  ASN695  SER759  ASP760  ASP761  ALA762  ILE779  LEU786  VAL792 
 PHE793  MET794  SER795  GLU796  ALA797  LYS798  CYS799  TRP800  GLU811  SER814 

> <Gold.Protein.RotatedAtoms>
  151.5365  133.3440  159.2927 H   0  0  0  0  0  0  0  0  0  0  0  0  # atno 6907 bound_to 6896
  150.8562  134.7904  159.7058 H   0  0  0  0  0  0  0  0  0  0  0  0  # atno 6908 bound_to 6896
  152.4595  134.5226  159.9838 H   0  0  0  0  0  0  0  0  0  0  0  0  # atno 6909 bound_to 6896
  145.7303  139.2681  143.1545 H   0  0  0  0  0  0  0  0  0  0  0  0  # atno 7974 bound_to 7965
  154.5980  140.0648  156.9330 H   0  0  0  0  0  0  0  0  0  0  0  0  # atno 8008 bound_to 7997
  155.2180  140.3328  155.4301 H   0  0  0  0  0  0  0  0  0  0  0  0  # atno 8009 bound_to 7997
  156.2300  140.1836  156.7251 H   0  0  0  0  0  0  0  0  0  0  0  0  # atno 8010 bound_to 7997
  139.5446  144.2271  152.0962 H   0  0  0  0  0  0  0  0  0  0  0  0  # atno 10167 bound_to 10162
  157.3200  130.7443  149.6779 H   0  0  0  0  0  0  0  0  0  0  0  0  # atno 10718 bound_to 10713
  154.2949  135.6246  153.5400 H   0  0  0  0  0  0  0  0  0  0  0  0  # atno 10763 bound_to 10752
  152.9848  135.5664  154.5349 H   0  0  0  0  0  0  0  0  0  0  0  0  # atno 10764 bound_to 10752
  154.4967  135.2870  155.1429 H   0  0  0  0  0  0  0  0  0  0  0  0  # atno 10765 bound_to 10752
  140.6350  133.9541  155.8294 H   0  0  0  0  0  0  0  0  0  0  0  0  # atno 11005 bound_to 11000
  146.0544  140.8036  142.9766 LP  0  0  0  0  0  0  0  0  0  0  0  0  # atno 17320 bound_to 7965
  144.6894  140.3101  143.7249 LP  0  0  0  0  0  0  0  0  0  0  0  0  # atno 17321 bound_to 7965
  140.1755  144.4894  150.6556 LP  0  0  0  0  0  0  0  0  0  0  0  0  # atno 17342 bound_to 10162
  140.6689  143.2278  151.5674 LP  0  0  0  0  0  0  0  0  0  0  0  0  # atno 17343 bound_to 10162
  155.9685  130.4226  150.4524 LP  0  0  0  0  0  0  0  0  0  0  0  0  # atno 17370 bound_to 10713
  157.2537  131.0552  151.2363 LP  0  0  0  0  0  0  0  0  0  0  0  0  # atno 17371 bound_to 10713
  141.0648  134.0293  157.3609 LP  0  0  0  0  0  0  0  0  0  0  0  0  # atno 17394 bound_to 11000
  139.9102  135.0188  156.7658 LP  0  0  0  0  0  0  0  0  0  0  0  0  # atno 17395 bound_to 11000

$$$$
