#       Name:                AV-unprocessed.smi:2335
#       Creating user name   scv26
#       Creation time:       Fri Mar 27 12:54:26 2020


#       File generated by GOLD software.
#

@<TRIPOS>MOLECULE
AV-unprocessed.smi:2335
    48    49     1
SMALL
NO_CHARGES


@<TRIPOS>ATOM
      1 ****        -6.9264   2.9541   1.9094 C.3            1 S1                 0.0000
      2 ****        -6.4314   2.7859   0.4690 C.3            1 S1                 0.0000
      3 ****        -5.0051   2.3528   0.4004 C.2            1 S1                 0.0000
      4 ****        -3.9848   3.2197   0.3959 N.2            1 S1                 0.0000
      5 ****        -2.7525   2.5821   0.3567 N.2            1 S1                 0.0000
      6 ****        -2.8803   1.2482   0.3490 C.2            1 S1                 0.0000
      7 ****        -1.7818   0.3495   0.3138 N.am           1 S1                 0.0000
      8 ****        -0.4688   0.6374   0.2903 C.2            1 S1                 0.0000
      9 ****         0.0131   1.7701   0.3070 O.2            1 S1                 0.0000
     10 ****         0.2690  -0.4804   0.2418 N.am           1 S1                 0.0000
     11 ****         1.7286  -0.5247   0.1758 C.3            1 S1                 0.0000
     12 ****         2.2742  -1.8130   0.7593 C.3            1 S1                 0.0000
     13 ****         3.6443  -1.9482   0.0839 C.3            1 S1                 0.0000
     14 ****         4.7554  -1.2542   0.8905 C.3            1 S1                 0.0000
     15 ****         4.0078  -3.4122  -0.2067 C.3            1 S1                 0.0000
     16 ****         3.5257  -1.2554  -1.1577 O.3            1 S1                 0.0000
     17 ****         2.2914  -0.5464  -1.2626 C.3            1 S1                 0.0000
     18 ****         1.4245  -1.3266  -2.2731 C.3            1 S1                 0.0000
     19 ****         2.6011   0.8643  -1.7877 C.3            1 S1                 0.0000
     20 ****        -4.5328   0.6578   0.3871 S.3            1 S1                 0.0000
     21 ****        -7.9694   3.2704   1.9274 H              1 S1                 0.0000
     22 ****        -6.3410   3.7047   2.4411 H              1 S1                 0.0000
     23 ****        -6.8520   2.0174   2.4625 H              1 S1                 0.0000
     24 ****        -7.0451   2.0497  -0.0508 H              1 S1                 0.0000
     25 ****        -6.5429   3.7245  -0.0751 H              1 S1                 0.0000
     26 ****        -2.0251  -0.6297   0.2993 H              1 S1                 0.0000
     27 ****        -0.2115  -1.3679   0.2319 H              1 S1                 0.0000
     28 ****         2.1594   0.3078   0.7357 H              1 S1                 0.0000
     29 ****         2.3322  -1.7943   1.8484 H              1 S1                 0.0000
     30 ****         1.6311  -2.6499   0.4814 H              1 S1                 0.0000
     31 ****         4.8870  -1.7239   1.8657 H              1 S1                 0.0000
     32 ****         4.5306  -0.2005   1.0578 H              1 S1                 0.0000
     33 ****         5.7105  -1.3045   0.3668 H              1 S1                 0.0000
     34 ****         4.0830  -3.9902   0.7148 H              1 S1                 0.0000
     35 ****         4.9648  -3.4850  -0.7243 H              1 S1                 0.0000
     36 ****         3.2576  -3.8885  -0.8388 H              1 S1                 0.0000
     37 ****         0.4703  -0.8303  -2.4519 H              1 S1                 0.0000
     38 ****         1.2148  -2.3385  -1.9262 H              1 S1                 0.0000
     39 ****         1.9296  -1.4115  -3.2354 H              1 S1                 0.0000
     40 ****         1.6911   1.4538  -1.8992 H              1 S1                 0.0000
     41 ****         3.0899   0.8245  -2.7615 H              1 S1                 0.0000
     42 ****         3.2648   1.4017  -1.1097 H              1 S1                 0.0000
     43 ****        -4.0977   4.2130   0.4182 LP             1 S1                 0.0000
     44 ****        -1.8747   3.0607   0.3366 LP             1 S1                 0.0000
     45 ****        -0.5879   2.5687   0.3406 LP             1 S1                 0.0000
     46 ****         1.0055   1.8916   0.2868 LP             1 S1                 0.0000
     47 ****         3.5804  -1.9192  -1.9036 LP             1 S1                 0.0000
     48 ****         4.2796  -0.6032  -1.2361 LP             1 S1                 0.0000
@<TRIPOS>BOND
    1    1    2 1     
    2    1   21 1     
    3    1   22 1     
    4    1   23 1     
    5    2    3 1     
    6    2   24 1     
    7    2   25 1     
    8    3   20 1     
    9    3    4 2     
   10    4    5 1     
   11    5    6 2     
   12    6    7 1     
   13    6   20 1     
   14    7    8 am    
   15    7   26 1     
   16    8    9 2     
   17    8   10 am    
   18   10   11 1     
   19   10   27 1     
   20   11   17 1     
   21   11   12 1     
   22   11   28 1     
   23   12   13 1     
   24   12   29 1     
   25   12   30 1     
   26   13   14 1     
   27   13   15 1     
   28   13   16 1     
   29   14   31 1     
   30   14   32 1     
   31   14   33 1     
   32   15   34 1     
   33   15   35 1     
   34   15   36 1     
   35   16   17 1     
   36   17   18 1     
   37   17   19 1     
   38   18   37 1     
   39   18   38 1     
   40   18   39 1     
   41   19   40 1     
   42   19   41 1     
   43   19   42 1     
   44    4   43 1     
   45    5   44 1     
   46    9   45 1     
   47    9   46 1     
   48   16   47 1     
   49   16   48 1     
@<TRIPOS>SUBSTRUCTURE
      1 S1             1
@<TRIPOS>SET
LONE_PAIRS      STATIC     ATOMS    <user>   **** ""
6 43 44 45 46 47 48
DONOR_HYDROGENS      STATIC     ATOMS    <user>   **** ""
2 26 27
ATOM$BLUE        STATIC     ATOMS    COLORGROUP SYSTEM
6 43 44 45 46 47 48
ATOM$RED        STATIC     ATOMS    COLORGROUP SYSTEM
2 26 27
