AV-unprocessed.smi:199|AV-procd|sdf|1564|dock7
  -GOLD-   2262019433D 1   1.00000     0.00000
 Structure written by MMmdl.
 51 55  0  0  0  0  0  0  0  0  1 V2000
  146.7142  139.6980  151.4576 C   0  0  0  0  0  0  0  0  0  0  0  0
  146.9728  138.6330  152.5349 C   0  0  2  0  0  0  0  0  0  0  0  0
  145.7078  138.1444  152.9737 O   0  0  0  0  0  0  0  0  0  0  0  0
  145.8167  137.7456  154.3286 C   0  0  0  0  0  0  0  0  0  0  0  0
  146.6889  138.8415  154.9212 C   0  0  0  0  0  0  0  0  0  0  0  0
  147.7144  139.0992  153.8202 C   0  0  1  0  0  0  0  0  0  0  0  0
  148.8049  138.2164  154.0287 O   0  0  0  0  0  0  0  0  0  0  0  0
  148.2666  140.5494  153.8130 C   0  0  0  0  0  0  0  0  0  0  0  0
  148.9314  140.9218  155.0532 N   0  0  0  0  0  0  0  0  0  0  0  0
  148.4286  141.7325  156.0444 C   0  0  0  0  0  0  0  0  0  0  0  0
  149.2222  141.9235  157.0616 N   0  0  0  0  0  0  0  0  0  0  0  0
  150.3565  141.1779  156.7611 C   0  0  0  0  0  0  0  0  0  0  0  0
  151.5985  140.9376  157.4195 C   0  0  0  0  0  0  0  0  0  0  0  0
  151.9388  141.4679  158.6268 N   0  0  0  0  0  0  0  0  0  0  0  0
  153.1160  142.3131  158.7665 C   0  0  2  0  0  0  0  0  0  0  0  0
  153.2163  142.4845  160.2921 C   0  0  0  0  0  0  0  0  0  0  0  0
  151.7331  142.5084  160.6902 C   0  0  0  0  0  0  0  0  0  0  0  0
  151.0487  142.3943  159.3149 C   0  0  1  0  0  0  0  0  0  0  0  0
  151.1944  143.7041  158.4966 C   0  0  1  0  0  0  0  0  0  0  0  0
  150.7178  144.9961  159.1859 C   0  0  0  0  0  0  0  0  0  0  0  0
  149.3392  144.9072  159.4763 O   0  0  0  0  0  0  0  0  0  0  0  0
  152.6927  143.6582  158.1413 C   0  0  0  0  0  0  0  0  0  0  0  0
  152.5010  140.1525  156.7723 N   0  0  0  0  0  0  0  0  0  0  0  0
  152.2064  139.6119  155.5872 C   0  0  0  0  0  0  0  0  0  0  0  0
  151.0894  139.7350  154.8699 N   0  0  0  0  0  0  0  0  0  0  0  0
  150.1866  140.5417  155.4969 C   0  0  0  0  0  0  0  0  0  0  0  0
  147.6464  140.1088  151.0700 H   0  0  0  0  0  0  0  0  0  0  0  0
  146.1113  140.5204  151.8432 H   0  0  0  0  0  0  0  0  0  0  0  0
  146.1740  139.2667  150.6147 H   0  0  0  0  0  0  0  0  0  0  0  0
  147.5037  137.7991  152.0715 H   0  0  0  0  0  0  0  0  0  0  0  0
  144.8399  137.6764  154.8077 H   0  0  0  0  0  0  0  0  0  0  0  0
  146.3058  136.7723  154.3918 H   0  0  0  0  0  0  0  0  0  0  0  0
  146.0731  139.7282  155.0751 H   0  0  0  0  0  0  0  0  0  0  0  0
  147.1288  138.5710  155.8825 H   0  0  0  0  0  0  0  0  0  0  0  0
  149.0099  137.7944  153.2084 H   0  0  0  0  0  0  0  0  0  0  0  0
  148.9766  140.6821  152.9957 H   0  0  0  0  0  0  0  0  0  0  0  0
  147.4617  141.2645  153.6418 H   0  0  0  0  0  0  0  0  0  0  0  0
  147.4507  142.1878  155.9857 H   0  0  0  0  0  0  0  0  0  0  0  0
  154.0388  141.9178  158.3465 H   0  0  0  0  0  0  0  0  0  0  0  0
  153.7219  141.6331  160.7495 H   0  0  0  0  0  0  0  0  0  0  0  0
  153.7493  143.3911  160.5807 H   0  0  0  0  0  0  0  0  0  0  0  0
  151.4953  141.6388  161.3045 H   0  0  0  0  0  0  0  0  0  0  0  0
  151.4505  143.3943  161.2568 H   0  0  0  0  0  0  0  0  0  0  0  0
  150.0163  142.0526  159.3970 H   0  0  0  0  0  0  0  0  0  0  0  0
  150.6168  143.5891  157.5776 H   0  0  0  0  0  0  0  0  0  0  0  0
  151.2598  145.1486  160.1193 H   0  0  0  0  0  0  0  0  0  0  0  0
  150.8848  145.8733  158.5609 H   0  0  0  0  0  0  0  0  0  0  0  0
  148.8672  145.4530  158.8662 H   0  0  0  0  0  0  0  0  0  0  0  0
  153.2602  144.4992  158.5417 H   0  0  0  0  0  0  0  0  0  0  0  0
  152.8283  143.6481  157.0592 H   0  0  0  0  0  0  0  0  0  0  0  0
  152.9769  138.9932  155.1512 H   0  0  0  0  0  0  0  0  0  0  0  0
  1  2  1  0  0  0  0
  1 27  1  0  0  0  0
  1 28  1  0  0  0  0
  1 29  1  0  0  0  0
  2  6  1  0  0  0  0
  2  3  1  0  0  0  0
  2 30  1  0  0  0  0
  3  4  1  0  0  0  0
  4  5  1  0  0  0  0
  4 31  1  0  0  0  0
  4 32  1  0  0  0  0
  5  6  1  0  0  0  0
  5 33  1  0  0  0  0
  5 34  1  0  0  0  0
  6  7  1  0  0  0  0
  6  8  1  0  0  0  0
  7 35  1  0  0  0  0
  8  9  1  0  0  0  0
  8 36  1  0  0  0  0
  8 37  1  0  0  0  0
  9 26  1  0  0  0  0
  9 10  1  0  0  0  0
 10 11  2  0  0  0  0
 10 38  1  0  0  0  0
 11 12  1  0  0  0  0
 12 26  2  0  0  0  0
 12 13  1  0  0  0  0
 13 14  1  0  0  0  0
 13 23  2  0  0  0  0
 14 18  1  0  0  0  0
 14 15  1  0  0  0  0
 15 22  1  0  0  0  0
 15 16  1  0  0  0  0
 15 39  1  0  0  0  0
 16 17  1  0  0  0  0
 16 40  1  0  0  0  0
 16 41  1  0  0  0  0
 17 18  1  0  0  0  0
 17 42  1  0  0  0  0
 17 43  1  0  0  0  0
 18 19  1  0  0  0  0
 18 44  1  0  0  0  0
 19 20  1  0  0  0  0
 19 22  1  0  0  0  0
 19 45  1  0  0  0  0
 20 21  1  0  0  0  0
 20 46  1  0  0  0  0
 20 47  1  0  0  0  0
 21 48  1  0  0  0  0
 22 49  1  0  0  0  0
 22 50  1  0  0  0  0
 23 24  1  0  0  0  0
 24 25  2  0  0  0  0
 24 51  1  0  0  0  0
 25 26  1  0  0  0  0
M  END
> <s_m_source_file>
AV-unprocessed.smi

> <i_m_source_file_index>
199

> <i_lp_mmshare_version>
43012

> <i_f3d_flags>
0

> <s_epik_input>
W0NIMl0xW0NIMl1PW0NAQEhdKFtDSDNdKVtDQEBdMShbT0hdKVtDSDJdbihbY0hdbjIpYyhjMjMpbltjSF1uYzNOKFtDQEBIXTQ1KVtDQEhdKFtDSDJdW0NIMl00KVtDQEhdKFtDSDJdNSlbQ0gyXVtPSF0=

> <s_epik_cmdline>
J2VwaWtfcHl0aG9uJywgJy1waCcsICc3LjAnLCAnLXRuJywgJzgnLCAnLW1hJywgJzIwMCcsICctbWV0YWxfYmluZGluZycsICctaW1hZScsICc8aW5maWxlLm1hZT4nLCAnLW9tYWUnLCAnPG91dGZpbGUubWFlPic=

> <r_lp_tautomer_probability>
1

> <r_epik_Ionization_Penalty>
0.00583903

> <r_epik_Ionization_Penalty_Charging>
0

> <r_epik_Ionization_Penalty_Neutral>
0.00583903

> <r_epik_State_Penalty>
-0

> <r_epik_Charging_Adjusted_Penalty>
0

> <i_epik_Tot_Q>
0

> <i_epik_Tot_abs_Q>
0

> <r_epik_Metal_State_Penalty>
-0

> <b_epik_Metal_Only>
0

> <s_lp_Force_Field>
OPLS_2005

> <r_lp_Energy>
84.0593

> <b_lp_Chiralities_Consistent>
1

> <s_lp_Variant>
AV-unprocessed.smi:199-5

> <Gold.Version>
5.8.1

> <Gold.Id.Protein>
6NUR|6NUR_protein|mol2

> <Gold.PLP.Fitness>
48.0773

> <Gold.PLP.PLP>
-36.5211

> <Gold.PLP.part.hbond>
-4.0000

> <Gold.PLP.part.metal>
0.0000

> <Gold.PLP.part.buried>
4.4053

> <Gold.PLP.part.nonpolar>
-37.4912

> <Gold.PLP.part.repulsive>
0.4336

> <Gold.PLP.ligand.clash>
0.0000

> <Gold.PLP.ligand.torsion>
0.2223

> <Gold.PLP.Chemscore.Hbond>
3.9920

> <Gold.PLP.Chemscore.CHOScore>
0.0040

> <Gold.PLP.Chemscore.Metal>
0.0000

> <Gold.Chemscore.Hbonds>
donor molecule, donor type, donor heavy atom, donor atom, acceptor molecule, acceptor atom, score
      L1  H     7    35       P1  7948  0.98
      L1  H    21    48       P1  8029  1.00
      P1  H  7989  7998       L1    25  1.00
      P1  H  7997  8010       L1    23  0.99
      L1  C    10    38       P1  8028  0.01

> <Gold.PLP.Chemscore.Internal.Correction>
0.0126

> <Gold.Rescore>
     Score         DG    S(hbond)    S(metal)    S(lipo)     H(rot)  DE(clash)    DE(int)     intcor
     13.74     -18.77       2.44        0.00     111.28       3.07       2.46       2.56       ----

> <Gold.Chemscore.Fitness>
13.7431

> <Gold.Chemscore.DG>
-18.7681

> <Gold.Chemscore.ZeroCoef>
-5.4800

> <Gold.Chemscore.Hbond>
2.4357

> <Gold.Chemscore.Metal>
0.0000

> <Gold.Chemscore.Lipo>
111.2777

> <Gold.Chemscore.Internal_Hbond>
0.0000

> <Gold.Chemscore.DEClash>
2.4610

> <Gold.Chemscore.DEInternal>
2.5640

> <Gold.Chemscore.Rot>
3.0729

> <Gold.Chemscore.Internal.Correction>
   9.000000E+99

> <Gold.Chemscore.Hbonds>
donor molecule, donor type, donor heavy atom, donor atom, acceptor molecule, acceptor atom, score
      L1  H     7    35       P1  7948  0.89
      L1  H    21    48       P1  8029  0.99
      P1  H  7989  7998       L1    25  0.09
      P1  H  7997  8010       L1    23  0.24

> <Gold.Chemscore.Hbond.Weighted>
-8.1353

> <Gold.Chemscore.Metal.Weighted>
-0.0000

> <Gold.Chemscore.Lipo.Weighted>
-13.0195

> <Gold.Chemscore.Internal_Hbond.Weighted>
0.0000

> <Gold.Chemscore.DEClash.Weighted>
2.4610

> <Gold.Chemscore.DEInternal.Weighted>
2.5640

> <Gold.Chemscore.Rot.Weighted>
7.8667

> <Gold.Chemscore.Internal.Correction.Weighted>
   9.000000E+99

> <Gold.Protein.RotatedTorsions>
[ 6907 6896 6895 6894 ] final   47.64 input  -60.11 | X-H torsion
[ 7974 7965 7964 7962 ] final -103.85 input  175.53 | X-H torsion
[ 8008 7997 7996 7995 ] final   55.90 input   59.86 | X-H torsion
[ 10167 10162 10161 10158 ] final   21.46 input  -65.29 | X-H torsion
[ 10718 10713 10712 10709 ] final    5.30 input   66.30 | X-H torsion
[ 10763 10752 10751 10750 ] final  -88.21 input  -60.55 | X-H torsion
[ 11005 11000 10999 10996 ] final -111.81 input  -57.11 | X-H torsion

> <Gold.Protein.ActiveResidues>
 VAL166  LYS551  ARG553  GLY616  TRP617  ASP618  TYR619  PRO620  LYS621  CYS622 
 ASP623  PHE694  ASN695  SER759  ASP760  ASP761  ALA762  ILE779  LEU786  VAL792 
 PHE793  MET794  SER795  GLU796  ALA797  LYS798  CYS799  TRP800  GLU811  SER814 

> <Gold.Protein.RotatedAtoms>
  152.2704  134.7939  160.0414 H   0  0  0  0  0  0  0  0  0  0  0  0  # atno 6907 bound_to 6896
  151.8553  133.3442  159.3694 H   0  0  0  0  0  0  0  0  0  0  0  0  # atno 6908 bound_to 6896
  150.7150  134.5186  159.5687 H   0  0  0  0  0  0  0  0  0  0  0  0  # atno 6909 bound_to 6896
  145.2507  140.9237  143.3097 H   0  0  0  0  0  0  0  0  0  0  0  0  # atno 7974 bound_to 7965
  155.5087  140.3476  155.4384 H   0  0  0  0  0  0  0  0  0  0  0  0  # atno 8008 bound_to 7997
  156.0864  140.1399  156.9675 H   0  0  0  0  0  0  0  0  0  0  0  0  # atno 8009 bound_to 7997
  154.4609  140.0935  156.6866 H   0  0  0  0  0  0  0  0  0  0  0  0  # atno 8010 bound_to 7997
  140.5425  143.9652  150.6528 H   0  0  0  0  0  0  0  0  0  0  0  0  # atno 10167 bound_to 10162
  156.9054  130.5737  149.5647 H   0  0  0  0  0  0  0  0  0  0  0  0  # atno 10718 bound_to 10713
  154.6420  135.5385  153.7801 H   0  0  0  0  0  0  0  0  0  0  0  0  # atno 10763 bound_to 10752
  153.0339  135.6461  154.1145 H   0  0  0  0  0  0  0  0  0  0  0  0  # atno 10764 bound_to 10752
  154.1069  135.2929  155.3219 H   0  0  0  0  0  0  0  0  0  0  0  0  # atno 10765 bound_to 10752
  141.0712  133.9376  157.2481 H   0  0  0  0  0  0  0  0  0  0  0  0  # atno 11005 bound_to 11000
  144.9506  139.4087  143.6404 LP  0  0  0  0  0  0  0  0  0  0  0  0  # atno 17320 bound_to 7965
  146.3303  139.8511  142.8873 LP  0  0  0  0  0  0  0  0  0  0  0  0  # atno 17321 bound_to 7965
  140.3057  143.3231  152.0929 LP  0  0  0  0  0  0  0  0  0  0  0  0  # atno 17342 bound_to 10162
  139.4994  144.6669  151.6336 LP  0  0  0  0  0  0  0  0  0  0  0  0  # atno 17343 bound_to 10162
  156.0561  130.5623  150.9095 LP  0  0  0  0  0  0  0  0  0  0  0  0  # atno 17370 bound_to 10713
  157.6000  131.0941  150.8976 LP  0  0  0  0  0  0  0  0  0  0  0  0  # atno 17371 bound_to 10713
  139.9525  135.0172  156.9036 LP  0  0  0  0  0  0  0  0  0  0  0  0  # atno 17394 bound_to 11000
  140.5669  134.0481  155.7417 LP  0  0  0  0  0  0  0  0  0  0  0  0  # atno 17395 bound_to 11000

$$$$
