AV-unprocessed.smi:919|AV-procd|sdf|4166|dock5
  -GOLD-   22720 2 73D 1   1.00000     0.00000
 Structure written by MMmdl.
 43 45  0  0  0  0  0  0  0  0  1 V2000
  155.4321  135.2447  159.6507 C   0  0  0  0  0  0  0  0  0  0  0  0
  155.2513  135.4987  161.1199 C   0  0  0  0  0  0  0  0  0  0  0  0
  156.0579  134.9136  161.9894 N   0  0  0  0  0  0  0  0  0  0  0  0
  155.6365  135.3440  163.2515 O   0  0  0  0  0  0  0  0  0  0  0  0
  154.5808  136.1819  163.0900 C   0  0  0  0  0  0  0  0  0  0  0  0
  153.9832  136.7473  164.3335 C   0  0  0  0  0  0  0  0  0  0  0  0
  154.2872  136.3267  161.7621 C   0  0  0  0  0  0  0  0  0  0  0  0
  153.2083  137.1521  161.1164 C   0  0  0  0  0  0  0  0  0  0  0  0
  153.8032  138.2584  160.2314 C   0  0  0  0  0  0  0  0  0  0  0  0
  153.2299  139.5591  160.5512 N   0  0  0  0  0  0  0  0  0  0  0  0
  153.6090  140.7240  159.9991 C   0  0  0  0  0  0  0  0  0  0  0  0
  154.4754  140.8127  159.1310 O   0  0  0  0  0  0  0  0  0  0  0  0
  152.9646  141.8048  160.4724 N   0  0  0  0  0  0  0  0  0  0  0  0
  153.1485  143.2040  160.0778 C   0  0  2  0  0  0  0  0  0  0  0  0
  152.1714  144.1298  160.8356 C   0  0  0  0  0  0  0  0  0  0  0  0
  151.3960  144.8244  159.7012 C   0  0  2  0  0  0  0  0  0  0  0  0
  150.4439  143.8145  159.0327 C   0  0  0  0  0  0  0  0  0  0  0  0
  151.4061  142.9197  158.2288 C   0  0  0  0  0  0  0  0  0  0  0  0
  152.7899  143.4971  158.5970 C   0  0  1  0  0  0  0  0  0  0  0  0
  152.4783  144.9891  158.6429 C   0  0  0  0  0  0  0  0  0  0  0  0
  154.4705  135.2050  159.1383 H   0  0  0  0  0  0  0  0  0  0  0  0
  155.9424  134.2986  159.4656 H   0  0  0  0  0  0  0  0  0  0  0  0
  156.0209  136.0377  159.1892 H   0  0  0  0  0  0  0  0  0  0  0  0
  152.9994  137.1735  164.1367 H   0  0  0  0  0  0  0  0  0  0  0  0
  154.6174  137.5335  164.7430 H   0  0  0  0  0  0  0  0  0  0  0  0
  153.8679  135.9746  165.0939 H   0  0  0  0  0  0  0  0  0  0  0  0
  152.5503  136.5237  160.5150 H   0  0  0  0  0  0  0  0  0  0  0  0
  152.5687  137.5987  161.8784 H   0  0  0  0  0  0  0  0  0  0  0  0
  154.8889  138.2937  160.3378 H   0  0  0  0  0  0  0  0  0  0  0  0
  153.6011  138.0450  159.1812 H   0  0  0  0  0  0  0  0  0  0  0  0
  152.5051  139.5800  161.2538 H   0  0  0  0  0  0  0  0  0  0  0  0
  152.2507  141.6350  161.1662 H   0  0  0  0  0  0  0  0  0  0  0  0
  154.1721  143.5190  160.2895 H   0  0  0  0  0  0  0  0  0  0  0  0
  151.5058  143.5951  161.5153 H   0  0  0  0  0  0  0  0  0  0  0  0
  152.7238  144.8610  161.4271 H   0  0  0  0  0  0  0  0  0  0  0  0
  150.9071  145.7488  160.0096 H   0  0  0  0  0  0  0  0  0  0  0  0
  149.8643  143.2496  159.7638 H   0  0  0  0  0  0  0  0  0  0  0  0
  149.7431  144.3188  158.3663 H   0  0  0  0  0  0  0  0  0  0  0  0
  151.2957  141.8614  158.4651 H   0  0  0  0  0  0  0  0  0  0  0  0
  151.2209  143.0325  157.1597 H   0  0  0  0  0  0  0  0  0  0  0  0
  153.5752  143.2196  157.8932 H   0  0  0  0  0  0  0  0  0  0  0  0
  152.1032  145.3847  157.6972 H   0  0  0  0  0  0  0  0  0  0  0  0
  153.3209  145.5977  158.9759 H   0  0  0  0  0  0  0  0  0  0  0  0
  1  2  1  0  0  0  0
  1 21  1  0  0  0  0
  1 22  1  0  0  0  0
  1 23  1  0  0  0  0
  2  7  1  0  0  0  0
  2  3  2  0  0  0  0
  3  4  1  0  0  0  0
  4  5  1  0  0  0  0
  5  6  1  0  0  0  0
  5  7  2  0  0  0  0
  6 24  1  0  0  0  0
  6 25  1  0  0  0  0
  6 26  1  0  0  0  0
  7  8  1  0  0  0  0
  8  9  1  0  0  0  0
  8 27  1  0  0  0  0
  8 28  1  0  0  0  0
  9 10  1  0  0  0  0
  9 29  1  0  0  0  0
  9 30  1  0  0  0  0
 10 11  1  0  0  0  0
 10 31  1  0  0  0  0
 11 12  2  0  0  0  0
 11 13  1  0  0  0  0
 13 14  1  0  0  0  0
 13 32  1  0  0  0  0
 14 19  1  0  0  0  0
 14 15  1  0  0  0  0
 14 33  1  0  0  0  0
 15 16  1  0  0  0  0
 15 34  1  0  0  0  0
 15 35  1  0  0  0  0
 16 20  1  0  0  0  0
 16 17  1  0  0  0  0
 16 36  1  0  0  0  0
 17 18  1  0  0  0  0
 17 37  1  0  0  0  0
 17 38  1  0  0  0  0
 18 19  1  0  0  0  0
 18 39  1  0  0  0  0
 18 40  1  0  0  0  0
 19 20  1  0  0  0  0
 19 41  1  0  0  0  0
 20 42  1  0  0  0  0
 20 43  1  0  0  0  0
M  END
> <s_m_source_file>
AV-unprocessed.smi

> <i_m_source_file_index>
919

> <i_lp_mmshare_version>
43012

> <i_f3d_flags>
0

> <s_epik_input>
W0NIM11jMW5vYyhbQ0gzXSljMVtDSDJdW0NIMl1bTkhdQyg9TylbTkhdW0NASF0oW0NIMl1bQ0BASF0yMylbQ0BASF0oW0NIMl0zKVtDSDJdW0NIMl0y

> <s_epik_cmdline>
J2VwaWtfcHl0aG9uJywgJy1waCcsICc3LjAnLCAnLXRuJywgJzgnLCAnLW1hJywgJzIwMCcsICctbWV0YWxfYmluZGluZycsICctaW1hZScsICc8aW5maWxlLm1hZT4nLCAnLW9tYWUnLCAnPG91dGZpbGUubWFlPic=

> <r_lp_tautomer_probability>
1

> <r_epik_Ionization_Penalty>
6.40771e-05

> <r_epik_Ionization_Penalty_Charging>
0

> <r_epik_Ionization_Penalty_Neutral>
6.40771e-05

> <r_epik_State_Penalty>
-0

> <r_epik_Charging_Adjusted_Penalty>
0

> <i_epik_Tot_Q>
0

> <i_epik_Tot_abs_Q>
0

> <r_epik_Metal_State_Penalty>
-0

> <b_epik_Metal_Only>
0

> <s_lp_Force_Field>
OPLS_2005

> <r_lp_Energy>
47.1923

> <b_lp_Chiralities_Consistent>
1

> <s_lp_Variant>
AV-unprocessed.smi:919-3

> <Gold.Version>
5.8.1

> <Gold.Id.Protein>
6NUR|6NUR_protein|mol2

> <Gold.PLP.Fitness>
40.5240

> <Gold.PLP.PLP>
-39.5159

> <Gold.PLP.part.hbond>
-1.0000

> <Gold.PLP.part.metal>
0.0000

> <Gold.PLP.part.buried>
-1.9682

> <Gold.PLP.part.nonpolar>
-36.1108

> <Gold.PLP.part.repulsive>
0.1757

> <Gold.PLP.ligand.clash>
0.0000

> <Gold.PLP.ligand.torsion>
0.3838

> <Gold.PLP.Chemscore.Hbond>
0.5868

> <Gold.PLP.Chemscore.CHOScore>
0.0000

> <Gold.PLP.Chemscore.Metal>
0.0000

> <Gold.Chemscore.Hbonds>
donor molecule, donor type, donor heavy atom, donor atom, acceptor molecule, acceptor atom, score
      P1  H  7997  8008       L1    12  0.58

> <Gold.PLP.Chemscore.Internal.Correction>
0.0153

> <Gold.Rescore>
     Score         DG    S(hbond)    S(metal)    S(lipo)     H(rot)  DE(clash)    DE(int)     intcor
     17.58     -18.30       0.74        0.00     121.50       1.52       0.35       0.37       ----

> <Gold.Chemscore.Fitness>
17.5777

> <Gold.Chemscore.DG>
-18.2975

> <Gold.Chemscore.ZeroCoef>
-5.4800

> <Gold.Chemscore.Hbond>
0.7435

> <Gold.Chemscore.Metal>
0.0000

> <Gold.Chemscore.Lipo>
121.4992

> <Gold.Chemscore.Internal_Hbond>
0.0000

> <Gold.Chemscore.DEClash>
0.3475

> <Gold.Chemscore.DEInternal>
0.3723

> <Gold.Chemscore.Rot>
1.5161

> <Gold.Chemscore.Internal.Correction>
   9.000000E+99

> <Gold.Chemscore.Hbonds>
donor molecule, donor type, donor heavy atom, donor atom, acceptor molecule, acceptor atom, score
      P1  H  7997  8008       L1    12  0.53

> <Gold.Chemscore.Hbond.Weighted>
-2.4833

> <Gold.Chemscore.Metal.Weighted>
-0.0000

> <Gold.Chemscore.Lipo.Weighted>
-14.2154

> <Gold.Chemscore.Internal_Hbond.Weighted>
0.0000

> <Gold.Chemscore.DEClash.Weighted>
0.3475

> <Gold.Chemscore.DEInternal.Weighted>
0.3723

> <Gold.Chemscore.Rot.Weighted>
3.8813

> <Gold.Chemscore.Internal.Correction.Weighted>
   9.000000E+99

> <Gold.Protein.RotatedTorsions>
[ 6907 6896 6895 6894 ] final  115.00 input  -60.11 | X-H torsion
[ 7974 7965 7964 7962 ] final  145.34 input  175.53 | X-H torsion
[ 8008 7997 7996 7995 ] final -120.77 input   59.86 | X-H torsion
[ 10167 10162 10161 10158 ] final  100.94 input  -65.29 | X-H torsion
[ 10718 10713 10712 10709 ] final -171.37 input   66.30 | X-H torsion
[ 10763 10752 10751 10750 ] final  116.32 input  -60.55 | X-H torsion
[ 11005 11000 10999 10996 ] final  166.56 input  -57.11 | X-H torsion

> <Gold.Protein.ActiveResidues>
 VAL166  LYS551  ARG553  GLY616  TRP617  ASP618  TYR619  PRO620  LYS621  CYS622 
 ASP623  PHE694  ASN695  SER759  ASP760  ASP761  ALA762  ILE779  LEU786  VAL792 
 PHE793  MET794  SER795  GLU796  ALA797  LYS798  CYS799  TRP800  GLU811  SER814 

> <Gold.Protein.RotatedAtoms>
  152.4768  133.8158  159.7027 H   0  0  0  0  0  0  0  0  0  0  0  0  # atno 6907 bound_to 6896
  150.8791  133.7388  159.2944 H   0  0  0  0  0  0  0  0  0  0  0  0  # atno 6908 bound_to 6896
  151.4898  135.1060  159.9852 H   0  0  0  0  0  0  0  0  0  0  0  0  # atno 6909 bound_to 6896
  144.8761  139.5771  143.5864 H   0  0  0  0  0  0  0  0  0  0  0  0  # atno 7974 bound_to 7965
  155.1371  140.0401  157.2789 H   0  0  0  0  0  0  0  0  0  0  0  0  # atno 8008 bound_to 7997
  154.6500  140.2567  155.7198 H   0  0  0  0  0  0  0  0  0  0  0  0  # atno 8009 bound_to 7997
  156.2572  140.2838  156.0929 H   0  0  0  0  0  0  0  0  0  0  0  0  # atno 8010 bound_to 7997
  139.7482  144.6992  151.0472 H   0  0  0  0  0  0  0  0  0  0  0  0  # atno 10167 bound_to 10162
  156.7399  130.9338  151.3109 H   0  0  0  0  0  0  0  0  0  0  0  0  # atno 10718 bound_to 10713
  153.5354  135.3569  155.2694 H   0  0  0  0  0  0  0  0  0  0  0  0  # atno 10763 bound_to 10752
  154.8723  135.4078  154.3104 H   0  0  0  0  0  0  0  0  0  0  0  0  # atno 10764 bound_to 10752
  153.3801  135.7068  153.6640 H   0  0  0  0  0  0  0  0  0  0  0  0  # atno 10765 bound_to 10752
  140.2676  134.7852  157.3647 H   0  0  0  0  0  0  0  0  0  0  0  0  # atno 11005 bound_to 11000
  146.2963  139.7289  142.9124 LP  0  0  0  0  0  0  0  0  0  0  0  0  # atno 17320 bound_to 7965
  145.4041  141.0388  143.3054 LP  0  0  0  0  0  0  0  0  0  0  0  0  # atno 17321 bound_to 7965
  140.7794  143.4841  150.9979 LP  0  0  0  0  0  0  0  0  0  0  0  0  # atno 17342 bound_to 10162
  139.8529  143.7415  152.3177 LP  0  0  0  0  0  0  0  0  0  0  0  0  # atno 17343 bound_to 10162
  157.6823  130.9151  150.0297 LP  0  0  0  0  0  0  0  0  0  0  0  0  # atno 17370 bound_to 10713
  156.1471  130.3642  149.9493 LP  0  0  0  0  0  0  0  0  0  0  0  0  # atno 17371 bound_to 10713
  140.1404  134.4980  155.8036 LP  0  0  0  0  0  0  0  0  0  0  0  0  # atno 17394 bound_to 11000
  141.2182  133.6823  156.7199 LP  0  0  0  0  0  0  0  0  0  0  0  0  # atno 17395 bound_to 11000

$$$$
