#       Name:                AV-unprocessed.smi:1757
#       Creating user name   scv26
#       Creation time:       Fri Mar 27 08:29:43 2020


#       File generated by GOLD software.
#

@<TRIPOS>MOLECULE
AV-unprocessed.smi:1757
    44    45     1
SMALL
NO_CHARGES


@<TRIPOS>ATOM
      1 ****        -2.6340  -4.6725  -0.0932 C.3            1 S1                 0.0000
      2 ****        -2.8426  -3.2085  -0.0849 N.4            1 S1                 1.0000
      3 ****        -2.3108  -2.5542  -1.3061 C.3            1 S1                 0.0000
      4 ****        -2.6634  -1.0557  -1.3295 C.3            1 S1                 0.0000
      5 ****        -2.1898  -0.3284  -0.0578 C.3            1 S1                 0.0000
      6 ****        -0.7315  -0.2042  -0.0461 N.am           1 S1                 0.0000
      7 ****        -0.0366   0.9430  -0.0347 C.2            1 S1                 0.0000
      8 ****        -0.5628   2.0552  -0.0234 O.2            1 S1                 0.0000
      9 ****         1.2866   0.6990  -0.0602 N.am           1 S1                 0.0000
     10 ****         2.3583   1.6077  -0.0511 C.2            1 S1                 0.0000
     11 ****         2.2713   2.9078   0.3345 C.2            1 S1                 0.0000
     12 ****         3.4256   3.7924   0.3250 C.2            1 S1                 0.0000
     13 ****         3.3372   5.2538   0.7353 C.3            1 S1                 0.0000
     14 ****         4.1358   5.4878   1.7764 F              1 S1                 0.0000
     15 ****         3.7296   6.0386  -0.2680 F              1 S1                 0.0000
     16 ****         2.0947   5.5975   1.0749 F              1 S1                 0.0000
     17 ****         4.5915   3.2544  -0.0756 C.2            1 S1                 0.0000
     18 ****         4.6916   1.9159  -0.4612 N.am           1 S1                 0.0000
     19 ****         3.6537   1.0500  -0.4743 C.2            1 S1                 0.0000
     20 ****         3.8227  -0.1178  -0.8239 O.2            1 S1                 0.0000
     21 ****        -2.6842  -1.0741   1.1949 C.3            1 S1                 0.0000
     22 ****        -2.3311  -2.5720   1.1544 C.3            1 S1                 0.0000
     23 ****         5.6030   1.5867  -0.7453 H              1 S1                 0.0000
     24 ****        -1.5711  -4.9173  -0.0762 H              1 S1                 0.0000
     25 ****        -3.0743  -5.1199  -0.9850 H              1 S1                 0.0000
     26 ****        -3.1056  -5.1331   0.7755 H              1 S1                 0.0000
     27 ****        -1.2292  -2.6913  -1.3544 H              1 S1                 0.0000
     28 ****        -2.7291  -3.0372  -2.1900 H              1 S1                 0.0000
     29 ****        -2.2391  -0.5835  -2.2164 H              1 S1                 0.0000
     30 ****        -3.7452  -0.9482  -1.4194 H              1 S1                 0.0000
     31 ****        -2.6413   0.6650  -0.0543 H              1 S1                 0.0000
     32 ****        -0.2053  -1.0655  -0.0579 H              1 S1                 0.0000
     33 ****         1.5631  -0.2686  -0.1411 H              1 S1                 0.0000
     34 ****         1.3365   3.3187   0.6782 H              1 S1                 0.0000
     35 ****         5.5219   3.8005  -0.1317 H              1 S1                 0.0000
     36 ****        -2.2742  -0.6151   2.0954 H              1 S1                 0.0000
     37 ****        -3.7673  -0.9677   1.2681 H              1 S1                 0.0000
     38 ****        -2.7628  -3.0686   2.0242 H              1 S1                 0.0000
     39 ****        -1.2504  -2.7091   1.2175 H              1 S1                 0.0000
     40 ****        -3.8423  -3.0626  -0.0926 H              1 S1                 0.0000
     41 ****        -1.5594   2.1368  -0.0224 LP             1 S1                 0.0000
     42 ****         0.0062   2.8775  -0.0152 LP             1 S1                 0.0000
     43 ****         3.0512  -0.7539  -0.8321 LP             1 S1                 0.0000
     44 ****         4.7316  -0.4306  -1.0997 LP             1 S1                 0.0000
@<TRIPOS>BOND
    1    1    2 1     
    2    1   24 1     
    3    1   25 1     
    4    1   26 1     
    5    2   22 1     
    6    2    3 1     
    7    2   40 1     
    8    3    4 1     
    9    3   27 1     
   10    3   28 1     
   11    4    5 1     
   12    4   29 1     
   13    4   30 1     
   14    5    6 1     
   15    5   21 1     
   16    5   31 1     
   17    6    7 am    
   18    6   32 1     
   19    7    8 2     
   20    7    9 am    
   21    9   10 1     
   22    9   33 1     
   23   10   19 1     
   24   10   11 2     
   25   11   12 1     
   26   11   34 1     
   27   12   13 1     
   28   12   17 2     
   29   13   14 1     
   30   13   15 1     
   31   13   16 1     
   32   17   18 1     
   33   17   35 1     
   34   18   23 1     
   35   18   19 am    
   36   19   20 2     
   37   21   22 1     
   38   21   36 1     
   39   21   37 1     
   40   22   38 1     
   41   22   39 1     
   42    8   41 1     
   43    8   42 1     
   44   20   43 1     
   45   20   44 1     
@<TRIPOS>SUBSTRUCTURE
      1 S1             1
@<TRIPOS>SET
LONE_PAIRS      STATIC     ATOMS    <user>   **** ""
4 41 42 43 44
DONOR_HYDROGENS      STATIC     ATOMS    <user>   **** ""
4 40 32 33 23
ATOM$BLUE        STATIC     ATOMS    COLORGROUP SYSTEM
4 41 42 43 44
ATOM$RED        STATIC     ATOMS    COLORGROUP SYSTEM
4 40 32 33 23
