AV-unprocessed.smi:2567|AV-procd|sdf|10083|dock1
  -GOLD-   2272014113D 1   1.00000     0.00000
 Structure written by MMmdl.
 33 34  0  0  0  0  0  0  0  0  1 V2000
  148.5592  132.5069  156.8866 C   0  0  0  0  0  0  0  0  0  0  0  0
  149.5305  132.8190  155.7341 C   0  0  0  0  0  0  0  0  0  0  0  0
  150.0251  134.2772  155.8530 C   0  0  0  0  0  0  0  0  0  0  0  0
  150.7798  131.9167  155.8431 C   0  0  0  0  0  0  0  0  0  0  0  0
  148.8310  132.6087  154.4110 C   0  0  0  0  0  0  0  0  0  0  0  0
  149.2339  131.6674  153.5536 N   0  0  0  0  0  0  0  0  0  0  0  0
  148.2832  131.7175  152.5979 N   0  0  0  0  0  0  0  0  0  0  0  0
  147.3581  132.6130  152.9428 C   0  0  0  0  0  0  0  0  0  0  0  0
  146.1494  132.8737  152.1003 C   0  0  1  0  0  0  0  0  0  0  0  0
  146.4985  133.5876  150.7798 C   0  0  0  0  0  0  0  0  0  0  0  0
  145.3017  133.7387  149.9538 N   0  0  0  0  0  0  0  0  0  0  0  0
  144.6512  132.4491  149.7264 C   0  0  0  0  0  0  0  0  0  0  0  0
  144.3522  131.7558  151.0679 C   0  0  0  0  0  0  0  0  0  0  0  0
  145.5582  131.6096  151.8101 O   0  0  0  0  0  0  0  0  0  0  0  0
  147.6285  133.1923  154.1080 N   0  0  0  0  0  0  0  0  0  0  0  0
  148.2943  131.1302  151.7763 H   0  0  0  0  0  0  0  0  0  0  0  0
  149.0335  132.6558  157.8571 H   0  0  0  0  0  0  0  0  0  0  0  0
  148.2127  131.4736  156.8444 H   0  0  0  0  0  0  0  0  0  0  0  0
  147.6792  133.1502  156.8474 H   0  0  0  0  0  0  0  0  0  0  0  0
  149.1978  134.9877  155.8364 H   0  0  0  0  0  0  0  0  0  0  0  0
  150.6990  134.5369  155.0356 H   0  0  0  0  0  0  0  0  0  0  0  0
  150.5646  134.4390  156.7869 H   0  0  0  0  0  0  0  0  0  0  0  0
  151.3136  132.0899  156.7782 H   0  0  0  0  0  0  0  0  0  0  0  0
  151.4792  132.1048  155.0272 H   0  0  0  0  0  0  0  0  0  0  0  0
  150.5193  130.8582  155.8178 H   0  0  0  0  0  0  0  0  0  0  0  0
  145.4478  133.4768  152.6801 H   0  0  0  0  0  0  0  0  0  0  0  0
  146.9375  134.5644  150.9849 H   0  0  0  0  0  0  0  0  0  0  0  0
  147.2505  133.0130  150.2375 H   0  0  0  0  0  0  0  0  0  0  0  0
  145.5547  134.1528  149.0621 H   0  0  0  0  0  0  0  0  0  0  0  0
  143.7288  132.5889  149.1627 H   0  0  0  0  0  0  0  0  0  0  0  0
  145.2952  131.8106  149.1207 H   0  0  0  0  0  0  0  0  0  0  0  0
  143.6195  132.3216  151.6459 H   0  0  0  0  0  0  0  0  0  0  0  0
  143.9245  130.7688  150.8922 H   0  0  0  0  0  0  0  0  0  0  0  0
  1  2  1  0  0  0  0
  1 17  1  0  0  0  0
  1 18  1  0  0  0  0
  1 19  1  0  0  0  0
  2  3  1  0  0  0  0
  2  4  1  0  0  0  0
  2  5  1  0  0  0  0
  3 20  1  0  0  0  0
  3 21  1  0  0  0  0
  3 22  1  0  0  0  0
  4 23  1  0  0  0  0
  4 24  1  0  0  0  0
  4 25  1  0  0  0  0
  5 15  1  0  0  0  0
  5  6  2  0  0  0  0
  6  7  1  0  0  0  0
  7 16  1  0  0  0  0
  7  8  1  0  0  0  0
  8  9  1  0  0  0  0
  8 15  2  0  0  0  0
  9 14  1  0  0  0  0
  9 10  1  0  0  0  0
  9 26  1  0  0  0  0
 10 11  1  0  0  0  0
 10 27  1  0  0  0  0
 10 28  1  0  0  0  0
 11 12  1  0  0  0  0
 11 29  1  0  0  0  0
 12 13  1  0  0  0  0
 12 30  1  0  0  0  0
 12 31  1  0  0  0  0
 13 14  1  0  0  0  0
 13 32  1  0  0  0  0
 13 33  1  0  0  0  0
M  END
> <s_m_source_file>
AV-unprocessed.smi

> <i_m_source_file_index>
2567

> <i_lp_mmshare_version>
43012

> <i_f3d_flags>
0

> <s_epik_input>
W0NIM11DKFtDSDNdKShbQ0gzXSljMW5bbkhdYyhuMSlbQ0BASF0yW0NIMl1bTkhdW0NIMl1bQ0gyXU8y

> <s_epik_cmdline>
J2VwaWtfcHl0aG9uJywgJy1waCcsICc3LjAnLCAnLXRuJywgJzgnLCAnLW1hJywgJzIwMCcsICctbWV0YWxfYmluZGluZycsICctaW1hZScsICc8aW5maWxlLm1hZT4nLCAnLW9tYWUnLCAnPG91dGZpbGUubWFlPic=

> <r_epik_Ionization_Penalty>
0.981987

> <r_epik_Ionization_Penalty_Charging>
0

> <r_epik_Ionization_Penalty_Neutral>
0.981987

> <r_epik_State_Penalty>
2.09479

> <r_epik_Charging_Adjusted_Penalty>
2.09479

> <i_epik_Tot_Q>
0

> <i_epik_Tot_abs_Q>
0

> <r_epik_Metal_State_Penalty>
2.40362

> <b_epik_Metal_Only>
0

> <s_lp_Force_Field>
OPLS_2005

> <r_lp_Energy>
12.9727

> <b_lp_Chiralities_Consistent>
1

> <s_lp_Variant>
AV-unprocessed.smi:2567-8

> <Gold.Version>
5.8.1

> <Gold.Id.Protein>
6NUR|6NUR_protein|mol2

> <Gold.PLP.Fitness>
29.3572

> <Gold.PLP.PLP>
-23.9858

> <Gold.PLP.part.hbond>
-2.0000

> <Gold.PLP.part.metal>
0.0000

> <Gold.PLP.part.buried>
-4.1930

> <Gold.PLP.part.nonpolar>
-17.8594

> <Gold.PLP.part.repulsive>
0.3289

> <Gold.PLP.ligand.clash>
0.0000

> <Gold.PLP.ligand.torsion>
0.2601

> <Gold.PLP.Chemscore.Hbond>
1.8960

> <Gold.PLP.Chemscore.CHOScore>
0.0000

> <Gold.PLP.Chemscore.Metal>
0.0000

> <Gold.Chemscore.Hbonds>
donor molecule, donor type, donor heavy atom, donor atom, acceptor molecule, acceptor atom, score
      L1  H     7    16       P1 10747  0.91
      L1  H    11    29       P1  7921  1.00

> <Gold.PLP.Chemscore.Internal.Correction>
0.2036

> <Gold.Rescore>
     Score         DG    S(hbond)    S(metal)    S(lipo)     H(rot)  DE(clash)    DE(int)     intcor
     14.08     -14.44       1.90        0.00      49.54       1.25       0.00       0.36       ----

> <Gold.Chemscore.Fitness>
14.0803

> <Gold.Chemscore.DG>
-14.4412

> <Gold.Chemscore.ZeroCoef>
-5.4800

> <Gold.Chemscore.Hbond>
1.9020

> <Gold.Chemscore.Metal>
0.0000

> <Gold.Chemscore.Lipo>
49.5353

> <Gold.Chemscore.Internal_Hbond>
0.0000

> <Gold.Chemscore.DEClash>
0.0029

> <Gold.Chemscore.DEInternal>
0.3581

> <Gold.Chemscore.Rot>
1.2450

> <Gold.Chemscore.Internal.Correction>
   9.000000E+99

> <Gold.Chemscore.Hbonds>
donor molecule, donor type, donor heavy atom, donor atom, acceptor molecule, acceptor atom, score
      L1  H     7    16       P1 10747  0.89
      L1  H    11    29       P1  7921  0.82

> <Gold.Chemscore.Hbond.Weighted>
-6.3528

> <Gold.Chemscore.Metal.Weighted>
-0.0000

> <Gold.Chemscore.Lipo.Weighted>
-5.7956

> <Gold.Chemscore.Internal_Hbond.Weighted>
0.0000

> <Gold.Chemscore.DEClash.Weighted>
0.0029

> <Gold.Chemscore.DEInternal.Weighted>
0.3581

> <Gold.Chemscore.Rot.Weighted>
3.1872

> <Gold.Chemscore.Internal.Correction.Weighted>
   9.000000E+99

> <Gold.Protein.RotatedTorsions>
[ 6907 6896 6895 6894 ] final  -54.42 input  -60.11 | X-H torsion
[ 7974 7965 7964 7962 ] final   73.30 input  175.53 | X-H torsion
[ 8008 7997 7996 7995 ] final  149.09 input   59.86 | X-H torsion
[ 10167 10162 10161 10158 ] final -106.24 input  -65.29 | X-H torsion
[ 10718 10713 10712 10709 ] final  -45.64 input   66.30 | X-H torsion
[ 10763 10752 10751 10750 ] final -133.66 input  -60.55 | X-H torsion
[ 11005 11000 10999 10996 ] final -157.52 input  -57.11 | X-H torsion

> <Gold.Protein.ActiveResidues>
 VAL166  LYS551  ARG553  GLY616  TRP617  ASP618  TYR619  PRO620  LYS621  CYS622 
 ASP623  PHE694  ASN695  SER759  ASP760  ASP761  ALA762  ILE779  LEU786  VAL792 
 PHE793  MET794  SER795  GLU796  ALA797  LYS798  CYS799  TRP800  GLU811  SER814 

> <Gold.Protein.RotatedAtoms>
  150.8339  134.7604  159.6876 H   0  0  0  0  0  0  0  0  0  0  0  0  # atno 6907 bound_to 6896
  152.4439  134.5531  159.9882 H   0  0  0  0  0  0  0  0  0  0  0  0  # atno 6908 bound_to 6896
  151.5686  133.3355  159.3021 H   0  0  0  0  0  0  0  0  0  0  0  0  # atno 6909 bound_to 6896
  145.7426  139.2727  143.1477 H   0  0  0  0  0  0  0  0  0  0  0  0  # atno 7974 bound_to 7965
  156.2768  140.2111  156.5802 H   0  0  0  0  0  0  0  0  0  0  0  0  # atno 8008 bound_to 7997
  154.7065  140.0516  157.0532 H   0  0  0  0  0  0  0  0  0  0  0  0  # atno 8009 bound_to 7997
  155.0663  140.3172  155.4647 H   0  0  0  0  0  0  0  0  0  0  0  0  # atno 8010 bound_to 7997
  140.1899  143.3900  152.1214 H   0  0  0  0  0  0  0  0  0  0  0  0  # atno 10167 bound_to 10162
  156.2263  130.4169  149.8930 H   0  0  0  0  0  0  0  0  0  0  0  0  # atno 10718 bound_to 10713
  154.8730  135.3759  154.4609 H   0  0  0  0  0  0  0  0  0  0  0  0  # atno 10763 bound_to 10752
  153.5277  135.7028  153.5704 H   0  0  0  0  0  0  0  0  0  0  0  0  # atno 10764 bound_to 10752
  153.3922  135.3969  155.1896 H   0  0  0  0  0  0  0  0  0  0  0  0  # atno 10765 bound_to 10752
  140.6637  134.4322  157.5234 H   0  0  0  0  0  0  0  0  0  0  0  0  # atno 11005 bound_to 11000
  146.0433  140.8143  142.9818 LP  0  0  0  0  0  0  0  0  0  0  0  0  # atno 17320 bound_to 7965
  144.6867  140.2943  143.7273 LP  0  0  0  0  0  0  0  0  0  0  0  0  # atno 17321 bound_to 7965
  139.5260  144.7103  151.5228 LP  0  0  0  0  0  0  0  0  0  0  0  0  # atno 17342 bound_to 10162
  140.6463  143.8788  150.6740 LP  0  0  0  0  0  0  0  0  0  0  0  0  # atno 17343 bound_to 10162
  156.6559  130.8762  151.3539 LP  0  0  0  0  0  0  0  0  0  0  0  0  # atno 17370 bound_to 10713
  157.7112  130.9442  150.1095 LP  0  0  0  0  0  0  0  0  0  0  0  0  # atno 17371 bound_to 10713
  139.9004  134.8569  156.1920 LP  0  0  0  0  0  0  0  0  0  0  0  0  # atno 17394 bound_to 11000
  141.0445  133.6920  156.1659 LP  0  0  0  0  0  0  0  0  0  0  0  0  # atno 17395 bound_to 11000

$$$$
