AV-unprocessed.smi:3114|AV-procd|sdf|11857|dock2
  -GOLD-   2272017243D 1   1.00000     0.00000
 Structure written by MMmdl.
 31 31  0  0  0  0  0  0  0  0  2 V2000
  150.5454  141.7717  155.9800 C   0  0  0  0  0  0  0  0  0  0  0  0
  150.2769  140.7796  155.0007 O   0  0  0  0  0  0  0  0  0  0  0  0
  148.9998  140.7187  154.4900 C   0  0  0  0  0  0  0  0  0  0  0  0
  147.9964  141.6922  154.6879 C   0  0  0  0  0  0  0  0  0  0  0  0
  146.7519  141.4517  154.0781 C   0  0  0  0  0  0  0  0  0  0  0  0
  146.5542  140.3343  153.3371 N   0  3  0  0  0  0  0  0  0  0  0  0
  147.5530  139.4525  153.1826 C   0  0  0  0  0  0  0  0  0  0  0  0
  147.3083  138.3428  152.3914 N   0  0  0  0  0  0  0  0  0  0  0  0
  146.0376  138.0849  151.7250 C   0  0  0  0  0  0  0  0  0  0  0  0
  145.5444  136.6486  151.9577 C   0  0  0  0  0  0  0  0  0  0  0  0
  145.8672  135.8652  150.8224 O   0  0  0  0  0  0  0  0  0  0  0  0
  145.7402  134.4717  151.0381 C   0  0  0  0  0  0  0  0  0  0  0  0
  144.3377  134.0416  150.5918 C   0  0  0  0  0  0  0  0  0  0  0  0
  144.1040  134.4583  149.2627 O   0  0  0  0  0  0  0  0  0  0  0  0
  148.7554  139.6180  153.7517 N   0  0  0  0  0  0  0  0  0  0  0  0
  151.5901  141.7055  156.2834 H   0  0  0  0  0  0  0  0  0  0  0  0
  149.9327  141.6275  156.8710 H   0  0  0  0  0  0  0  0  0  0  0  0
  150.3789  142.7753  155.5859 H   0  0  0  0  0  0  0  0  0  0  0  0
  148.1512  142.5865  155.2727 H   0  0  0  0  0  0  0  0  0  0  0  0
  145.9075  142.1209  154.1548 H   0  0  0  0  0  0  0  0  0  0  0  0
  147.9239  137.5532  152.5204 H   0  0  0  0  0  0  0  0  0  0  0  0
  145.2839  138.8113  152.0312 H   0  0  0  0  0  0  0  0  0  0  0  0
  146.1977  138.2394  150.6579 H   0  0  0  0  0  0  0  0  0  0  0  0
  146.0374  136.2210  152.8316 H   0  0  0  0  0  0  0  0  0  0  0  0
  144.4706  136.6425  152.1533 H   0  0  0  0  0  0  0  0  0  0  0  0
  146.4908  133.9534  150.4394 H   0  0  0  0  0  0  0  0  0  0  0  0
  145.9163  134.2100  152.0829 H   0  0  0  0  0  0  0  0  0  0  0  0
  144.2054  132.9628  150.6818 H   0  0  0  0  0  0  0  0  0  0  0  0
  143.5871  134.5147  151.2252 H   0  0  0  0  0  0  0  0  0  0  0  0
  144.9386  134.5832  148.8371 H   0  0  0  0  0  0  0  0  0  0  0  0
  145.6484  140.1814  152.8934 H   0  0  0  0  0  0  0  0  0  0  0  0
  1  2  1  0  0  0  0
  1 16  1  0  0  0  0
  1 17  1  0  0  0  0
  1 18  1  0  0  0  0
  2  3  1  0  0  0  0
  3 15  1  0  0  0  0
  3  4  2  0  0  0  0
  4  5  1  0  0  0  0
  4 19  1  0  0  0  0
  5  6  2  0  0  0  0
  5 20  1  0  0  0  0
  6  7  1  0  0  0  0
  6 31  1  0  0  0  0
  7  8  1  0  0  0  0
  7 15  2  0  0  0  0
  8  9  1  0  0  0  0
  8 21  1  0  0  0  0
  9 10  1  0  0  0  0
  9 22  1  0  0  0  0
  9 23  1  0  0  0  0
 10 11  1  0  0  0  0
 10 24  1  0  0  0  0
 10 25  1  0  0  0  0
 11 12  1  0  0  0  0
 12 13  1  0  0  0  0
 12 26  1  0  0  0  0
 12 27  1  0  0  0  0
 13 14  1  0  0  0  0
 13 28  1  0  0  0  0
 13 29  1  0  0  0  0
 14 30  1  0  0  0  0
M  CHG  1   6   1
M  END
> <s_m_source_file>
AV-unprocessed.smi

> <i_m_source_file_index>
3114

> <i_lp_mmshare_version>
43012

> <i_f3d_flags>
0

> <s_epik_input>
W0NIM11PYzFbY0hdW2NIXW5jKG4xKVtOSF1bQ0gyXVtDSDJdT1tDSDJdW0NIMl1bT0hd

> <s_epik_cmdline>
J2VwaWtfcHl0aG9uJywgJy1waCcsICc3LjAnLCAnLXRuJywgJzgnLCAnLW1hJywgJzIwMCcsICctbWV0YWxfYmluZGluZycsICctaW1hZScsICc8aW5maWxlLm1hZT4nLCAnLW9tYWUnLCAnPG91dGZpbGUubWFlPic=

> <r_lp_tautomer_probability>
0.999985

> <r_epik_Ionization_Penalty>
1.70515

> <r_epik_Ionization_Penalty_Charging>
1.70513

> <r_epik_Ionization_Penalty_Neutral>
1.12168e-05

> <r_epik_State_Penalty>
1.81144

> <r_epik_Charging_Adjusted_Penalty>
3.51658

> <i_epik_Tot_Q>
1

> <i_epik_Tot_abs_Q>
1

> <r_epik_Metal_State_Penalty>
1.84414

> <b_epik_Metal_Only>
0

> <s_lp_Force_Field>
OPLS_2005

> <r_lp_Energy>
4.65806

> <b_lp_Chiralities_Consistent>
1

> <s_lp_Variant>
AV-unprocessed.smi:3114-2

> <Gold.Version>
5.8.1

> <Gold.Id.Protein>
6NUR|6NUR_protein|mol2

> <Gold.PLP.Fitness>
43.4200

> <Gold.PLP.PLP>
-27.3796

> <Gold.PLP.part.hbond>
-5.5846

> <Gold.PLP.part.metal>
0.0000

> <Gold.PLP.part.buried>
-2.5650

> <Gold.PLP.part.nonpolar>
-22.2474

> <Gold.PLP.part.repulsive>
2.8460

> <Gold.PLP.ligand.clash>
0.0000

> <Gold.PLP.ligand.torsion>
0.7313

> <Gold.PLP.Chemscore.Hbond>
5.8160

> <Gold.PLP.Chemscore.CHOScore>
0.0000

> <Gold.PLP.Chemscore.Metal>
0.0000

> <Gold.Chemscore.Hbonds>
donor molecule, donor type, donor heavy atom, donor atom, acceptor molecule, acceptor atom, score
      L1  H     6    31       P1 10175  2.00
      L1  H     8    21       P1  7948  2.00
      L1  H    14    30       P1  7921  1.00
      P1  H  7989  7998       L1     2  0.83

> <Gold.PLP.Chemscore.Internal.Correction>
0.0551

> <Gold.Rescore>
     Score         DG    S(hbond)    S(metal)    S(lipo)     H(rot)  DE(clash)    DE(int)     intcor
     11.82     -13.12       3.31        0.00      42.86       3.29       0.54       0.76       ----

> <Gold.Chemscore.Fitness>
11.8212

> <Gold.Chemscore.DG>
-13.1150

> <Gold.Chemscore.ZeroCoef>
-5.4800

> <Gold.Chemscore.Hbond>
3.3084

> <Gold.Chemscore.Metal>
0.0000

> <Gold.Chemscore.Lipo>
42.8640

> <Gold.Chemscore.Internal_Hbond>
0.0000

> <Gold.Chemscore.DEClash>
0.5385

> <Gold.Chemscore.DEInternal>
0.7554

> <Gold.Chemscore.Rot>
3.2930

> <Gold.Chemscore.Internal.Correction>
   9.000000E+99

> <Gold.Chemscore.Hbonds>
donor molecule, donor type, donor heavy atom, donor atom, acceptor molecule, acceptor atom, score
      L1  H     6    31       P1 10175  0.89
      L1  H     8    21       P1  7948  0.94
      L1  H    14    30       P1  7921  1.00
      P1  H  7989  7998       L1     2  0.43

> <Gold.Chemscore.Hbond.Weighted>
-11.0502

> <Gold.Chemscore.Metal.Weighted>
-0.0000

> <Gold.Chemscore.Lipo.Weighted>
-5.0151

> <Gold.Chemscore.Internal_Hbond.Weighted>
0.0000

> <Gold.Chemscore.DEClash.Weighted>
0.5385

> <Gold.Chemscore.DEInternal.Weighted>
0.7554

> <Gold.Chemscore.Rot.Weighted>
8.4302

> <Gold.Chemscore.Internal.Correction.Weighted>
   9.000000E+99

> <Gold.Protein.RotatedTorsions>
[ 6907 6896 6895 6894 ] final  -30.28 input  -60.11 | X-H torsion
[ 7974 7965 7964 7962 ] final  178.59 input  175.53 | X-H torsion
[ 8008 7997 7996 7995 ] final   88.74 input   59.86 | X-H torsion
[ 10167 10162 10161 10158 ] final  -36.77 input  -65.29 | X-H torsion
[ 10718 10713 10712 10709 ] final  174.68 input   66.30 | X-H torsion
[ 10763 10752 10751 10750 ] final -144.88 input  -60.55 | X-H torsion
[ 11005 11000 10999 10996 ] final -116.90 input  -57.11 | X-H torsion

> <Gold.Protein.ActiveResidues>
 VAL166  LYS551  ARG553  GLY616  TRP617  ASP618  TYR619  PRO620  LYS621  CYS622 
 ASP623  PHE694  ASN695  SER759  ASP760  ASP761  ALA762  ILE779  LEU786  VAL792 
 PHE793  MET794  SER795  GLU796  ALA797  LYS798  CYS799  TRP800  GLU811  SER814 

> <Gold.Protein.RotatedAtoms>
  151.1077  135.0008  159.8478 H   0  0  0  0  0  0  0  0  0  0  0  0  # atno 6907 bound_to 6896
  152.5441  134.1874  159.8670 H   0  0  0  0  0  0  0  0  0  0  0  0  # atno 6908 bound_to 6896
  151.1922  133.4616  159.2628 H   0  0  0  0  0  0  0  0  0  0  0  0  # atno 6909 bound_to 6896
  144.7154  140.0421  143.6437 H   0  0  0  0  0  0  0  0  0  0  0  0  # atno 7974 bound_to 7965
  155.9915  140.3368  155.6757 H   0  0  0  0  0  0  0  0  0  0  0  0  # atno 8008 bound_to 7997
  155.6414  140.0695  157.2635 H   0  0  0  0  0  0  0  0  0  0  0  0  # atno 8009 bound_to 7997
  154.4221  140.1742  156.1565 H   0  0  0  0  0  0  0  0  0  0  0  0  # atno 8010 bound_to 7997
  140.7135  143.3386  151.2407 H   0  0  0  0  0  0  0  0  0  0  0  0  # atno 10167 bound_to 10162
  156.9460  131.0016  151.2958 H   0  0  0  0  0  0  0  0  0  0  0  0  # atno 10718 bound_to 10713
  154.8408  135.3428  154.6416 H   0  0  0  0  0  0  0  0  0  0  0  0  # atno 10763 bound_to 10752
  153.7027  135.6968  153.5063 H   0  0  0  0  0  0  0  0  0  0  0  0  # atno 10764 bound_to 10752
  153.2510  135.4353  155.0752 H   0  0  0  0  0  0  0  0  0  0  0  0  # atno 10765 bound_to 10752
  141.0391  133.9864  157.3024 H   0  0  0  0  0  0  0  0  0  0  0  0  # atno 11005 bound_to 11000
  146.0015  139.3095  143.0925 LP  0  0  0  0  0  0  0  0  0  0  0  0  # atno 17320 bound_to 7965
  145.8788  140.9375  143.0612 LP  0  0  0  0  0  0  0  0  0  0  0  0  # atno 17321 bound_to 7965
  139.6888  143.9728  152.2848 LP  0  0  0  0  0  0  0  0  0  0  0  0  # atno 17342 bound_to 10162
  139.9382  144.6698  150.8293 LP  0  0  0  0  0  0  0  0  0  0  0  0  # atno 17343 bound_to 10162
  157.5753  130.8339  149.8448 LP  0  0  0  0  0  0  0  0  0  0  0  0  # atno 17370 bound_to 10713
  156.0383  130.3745  150.1501 LP  0  0  0  0  0  0  0  0  0  0  0  0  # atno 17371 bound_to 10713
  139.9262  135.0201  156.8242 LP  0  0  0  0  0  0  0  0  0  0  0  0  # atno 17394 bound_to 11000
  140.6268  133.9942  155.7643 LP  0  0  0  0  0  0  0  0  0  0  0  0  # atno 17395 bound_to 11000

$$$$
