AV-unprocessed.smi:1247|AV-procd|sdf|5249|dock1
  -GOLD-   22720 4363D 1   1.00000     0.00000
 Structure written by MMmdl.
 47 48  0  0  0  0  0  0  0  0  2 V2000
  143.8453  132.2637  149.1393 C   0  0  0  0  0  0  0  0  0  0  0  0
  144.9529  132.5412  150.1126 C   0  0  0  0  0  0  0  0  0  0  0  0
  145.4358  133.8069  150.5557 C   0  0  0  0  0  0  0  0  0  0  0  0
  146.4345  133.4604  151.4241 C   0  0  0  0  0  0  0  0  0  0  0  0
  147.2587  134.2690  152.1417 N   0  0  0  0  0  0  0  0  0  0  0  0
  147.2712  134.4822  153.4689 C   0  0  0  0  0  0  0  0  0  0  0  0
  146.5211  133.9470  154.2856 O   0  0  0  0  0  0  0  0  0  0  0  0
  148.2303  135.3538  153.8136 N   0  0  0  0  0  0  0  0  0  0  0  0
  148.5195  135.7745  155.1801 C   0  0  0  0  0  0  0  0  0  0  0  0
  149.8312  136.5792  155.2519 C   0  0  0  0  0  0  0  0  0  0  0  0
  149.9802  137.5304  154.1184 N   0  3  1  0  0  0  0  0  0  0  0  0
  149.1203  138.7332  154.2399 C   0  0  0  0  0  0  0  0  0  0  0  0
  149.7069  139.7404  155.2500 C   0  0  2  0  0  0  0  0  0  0  0  0
  148.8772  141.0262  155.3331 C   0  0  0  0  0  0  0  0  0  0  0  0
  151.0237  140.0898  154.8372 O   0  0  0  0  0  0  0  0  0  0  0  0
  151.9099  138.9757  154.8092 C   0  0  2  0  0  0  0  0  0  0  0  0
  153.3010  139.4879  154.4199 C   0  0  0  0  0  0  0  0  0  0  0  0
  151.3786  137.9256  153.8094 C   0  0  0  0  0  0  0  0  0  0  0  0
  146.5281  132.0873  151.4708 N   0  0  0  0  0  0  0  0  0  0  0  0
  147.4310  131.2513  152.2372 C   0  0  0  0  0  0  0  0  0  0  0  0
  145.6063  131.5228  150.6610 N   0  0  0  0  0  0  0  0  0  0  0  0
  143.3782  133.1880  148.7995 H   0  0  0  0  0  0  0  0  0  0  0  0
  143.0686  131.6473  149.5927 H   0  0  0  0  0  0  0  0  0  0  0  0
  144.2187  131.7382  148.2599 H   0  0  0  0  0  0  0  0  0  0  0  0
  145.0964  134.7908  150.2685 H   0  0  0  0  0  0  0  0  0  0  0  0
  147.9671  134.7470  151.6045 H   0  0  0  0  0  0  0  0  0  0  0  0
  148.8020  135.7497  153.0815 H   0  0  0  0  0  0  0  0  0  0  0  0
  147.6756  136.3745  155.5180 H   0  0  0  0  0  0  0  0  0  0  0  0
  148.5659  134.9049  155.8383 H   0  0  0  0  0  0  0  0  0  0  0  0
  149.8307  137.1477  156.1828 H   0  0  0  0  0  0  0  0  0  0  0  0
  150.6874  135.9071  155.3083 H   0  0  0  0  0  0  0  0  0  0  0  0
  149.0498  139.2023  153.2573 H   0  0  0  0  0  0  0  0  0  0  0  0
  148.1034  138.4511  154.5156 H   0  0  0  0  0  0  0  0  0  0  0  0
  149.7468  139.2951  156.2453 H   0  0  0  0  0  0  0  0  0  0  0  0
  147.8580  140.8156  155.6580 H   0  0  0  0  0  0  0  0  0  0  0  0
  148.8245  141.5271  154.3659 H   0  0  0  0  0  0  0  0  0  0  0  0
  149.3144  141.7250  156.0467 H   0  0  0  0  0  0  0  0  0  0  0  0
  151.9750  138.5452  155.8092 H   0  0  0  0  0  0  0  0  0  0  0  0
  154.0252  138.6737  154.3893 H   0  0  0  0  0  0  0  0  0  0  0  0
  153.6599  140.2240  155.1394 H   0  0  0  0  0  0  0  0  0  0  0  0
  153.2881  139.9618  153.4379 H   0  0  0  0  0  0  0  0  0  0  0  0
  152.0355  137.0573  153.7764 H   0  0  0  0  0  0  0  0  0  0  0  0
  151.3900  138.3486  152.8038 H   0  0  0  0  0  0  0  0  0  0  0  0
  147.3061  131.4572  153.3005 H   0  0  0  0  0  0  0  0  0  0  0  0
  148.4607  131.4654  151.9505 H   0  0  0  0  0  0  0  0  0  0  0  0
  147.2258  130.1956  152.0555 H   0  0  0  0  0  0  0  0  0  0  0  0
  149.6368  137.0299  153.3107 H   0  0  0  0  0  0  0  0  0  0  0  0
  1  2  1  0  0  0  0
  1 22  1  0  0  0  0
  1 23  1  0  0  0  0
  1 24  1  0  0  0  0
  2 21  2  0  0  0  0
  2  3  1  0  0  0  0
  3  4  2  0  0  0  0
  3 25  1  0  0  0  0
  4  5  1  0  0  0  0
  4 19  1  0  0  0  0
  5  6  1  0  0  0  0
  5 26  1  0  0  0  0
  6  7  2  0  0  0  0
  6  8  1  0  0  0  0
  8  9  1  0  0  0  0
  8 27  1  0  0  0  0
  9 10  1  0  0  0  0
  9 28  1  0  0  0  0
  9 29  1  0  0  0  0
 10 11  1  0  0  0  0
 10 30  1  0  0  0  0
 10 31  1  0  0  0  0
 11 18  1  0  0  0  0
 11 12  1  0  0  0  0
 11 47  1  0  0  0  0
 12 13  1  0  0  0  0
 12 32  1  0  0  0  0
 12 33  1  0  0  0  0
 13 14  1  0  0  0  0
 13 15  1  0  0  0  0
 13 34  1  0  0  0  0
 14 35  1  0  0  0  0
 14 36  1  0  0  0  0
 14 37  1  0  0  0  0
 15 16  1  0  0  0  0
 16 17  1  0  0  0  0
 16 18  1  0  0  0  0
 16 38  1  0  0  0  0
 17 39  1  0  0  0  0
 17 40  1  0  0  0  0
 17 41  1  0  0  0  0
 18 42  1  0  0  0  0
 18 43  1  0  0  0  0
 19 20  1  0  0  0  0
 19 21  1  0  0  0  0
 20 44  1  0  0  0  0
 20 45  1  0  0  0  0
 20 46  1  0  0  0  0
M  CHG  1  11   1
M  END
> <s_m_source_file>
AV-unprocessed.smi

> <i_m_source_file_index>
1247

> <i_lp_mmshare_version>
43012

> <i_f3d_flags>
0

> <s_epik_input>
W0NIM11jMVtjSF1jKG4objEpW0NIM10pW05IXUMoPU8pW05IXVtDSDJdW0NIMl1OMltDSDJdW0NAQEhdKFtDSDNdKU9bQ0BASF0oW0NIM10pW0NIMl0y

> <s_epik_cmdline>
J2VwaWtfcHl0aG9uJywgJy1waCcsICc3LjAnLCAnLXRuJywgJzgnLCAnLW1hJywgJzIwMCcsICctbWV0YWxfYmluZGluZycsICctaW1hZScsICc8aW5maWxlLm1hZT4nLCAnLW9tYWUnLCAnPG91dGZpbGUubWFlPic=

> <r_lp_tautomer_probability>
1

> <r_epik_Ionization_Penalty>
0.663902

> <r_epik_Ionization_Penalty_Charging>
0.663826

> <r_epik_Ionization_Penalty_Neutral>
7.65444e-05

> <r_epik_State_Penalty>
0.683414

> <r_epik_Charging_Adjusted_Penalty>
1.34724

> <i_epik_Tot_Q>
1

> <i_epik_Tot_abs_Q>
1

> <r_epik_Metal_State_Penalty>
0.683419

> <b_epik_Metal_Only>
0

> <s_lp_Force_Field>
OPLS_2005

> <r_lp_Energy>
18.7227

> <b_lp_Chiralities_Consistent>
1

> <s_lp_Variant>
AV-unprocessed.smi:1247-7

> <Gold.Version>
5.8.1

> <Gold.Id.Protein>
6NUR|6NUR_protein|mol2

> <Gold.PLP.Fitness>
47.2239

> <Gold.PLP.PLP>
-34.8237

> <Gold.PLP.part.hbond>
-3.8067

> <Gold.PLP.part.metal>
0.0000

> <Gold.PLP.part.buried>
-0.7914

> <Gold.PLP.part.nonpolar>
-31.2561

> <Gold.PLP.part.repulsive>
0.3021

> <Gold.PLP.ligand.clash>
0.0000

> <Gold.PLP.ligand.torsion>
0.9816

> <Gold.PLP.Chemscore.Hbond>
4.7680

> <Gold.PLP.Chemscore.CHOScore>
0.0000

> <Gold.PLP.Chemscore.Metal>
0.0000

> <Gold.Chemscore.Hbonds>
donor molecule, donor type, donor heavy atom, donor atom, acceptor molecule, acceptor atom, score
      L1  H     5    26       P1  7948  0.55
      L1  H     8    27       P1  7948  0.42
      L1  H    11    47       P1  7948  2.00
      P1  H  7989  7998       L1    15  0.85

> <Gold.PLP.Chemscore.Internal.Correction>
0.0595

> <Gold.Rescore>
     Score         DG    S(hbond)    S(metal)    S(lipo)     H(rot)  DE(clash)    DE(int)     intcor
     20.89     -22.05       3.36        0.00      78.96       1.52       0.21       0.94       ----

> <Gold.Chemscore.Fitness>
20.8919

> <Gold.Chemscore.DG>
-22.0499

> <Gold.Chemscore.ZeroCoef>
-5.4800

> <Gold.Chemscore.Hbond>
3.3618

> <Gold.Chemscore.Metal>
0.0000

> <Gold.Chemscore.Lipo>
78.9586

> <Gold.Chemscore.Internal_Hbond>
0.0000

> <Gold.Chemscore.DEClash>
0.2141

> <Gold.Chemscore.DEInternal>
0.9438

> <Gold.Chemscore.Rot>
1.5221

> <Gold.Chemscore.Internal.Correction>
   9.000000E+99

> <Gold.Chemscore.Hbonds>
donor molecule, donor type, donor heavy atom, donor atom, acceptor molecule, acceptor atom, score
      L1  H     5    26       P1  7948  0.07
      L1  H     8    27       P1  7948  0.38
      L1  H    11    47       P1  7948  0.70
      P1  H  7989  7998       L1    15  0.15

> <Gold.Chemscore.Hbond.Weighted>
-11.2284

> <Gold.Chemscore.Metal.Weighted>
-0.0000

> <Gold.Chemscore.Lipo.Weighted>
-9.2382

> <Gold.Chemscore.Internal_Hbond.Weighted>
0.0000

> <Gold.Chemscore.DEClash.Weighted>
0.2141

> <Gold.Chemscore.DEInternal.Weighted>
0.9438

> <Gold.Chemscore.Rot.Weighted>
3.8967

> <Gold.Chemscore.Internal.Correction.Weighted>
   9.000000E+99

> <Gold.Protein.RotatedTorsions>
[ 6907 6896 6895 6894 ] final  -33.91 input  -60.11 | X-H torsion
[ 7974 7965 7964 7962 ] final -169.47 input  175.53 | X-H torsion
[ 8008 7997 7996 7995 ] final   71.23 input   59.86 | X-H torsion
[ 10167 10162 10161 10158 ] final  -41.59 input  -65.29 | X-H torsion
[ 10718 10713 10712 10709 ] final   37.71 input   66.30 | X-H torsion
[ 10763 10752 10751 10750 ] final  -40.54 input  -60.55 | X-H torsion
[ 11005 11000 10999 10996 ] final   79.61 input  -57.11 | X-H torsion

> <Gold.Protein.ActiveResidues>
 VAL166  LYS551  ARG553  GLY616  TRP617  ASP618  TYR619  PRO620  LYS621  CYS622 
 ASP623  PHE694  ASN695  SER759  ASP760  ASP761  ALA762  ILE779  LEU786  VAL792 
 PHE793  MET794  SER795  GLU796  ALA797  LYS798  CYS799  TRP800  GLU811  SER814 

> <Gold.Protein.RotatedAtoms>
  151.0594  134.9726  159.8252 H   0  0  0  0  0  0  0  0  0  0  0  0  # atno 6907 bound_to 6896
  152.5393  134.2437  159.8882 H   0  0  0  0  0  0  0  0  0  0  0  0  # atno 6908 bound_to 6896
  151.2456  133.4334  159.2643 H   0  0  0  0  0  0  0  0  0  0  0  0  # atno 6909 bound_to 6896
  144.7185  140.2217  143.6315 H   0  0  0  0  0  0  0  0  0  0  0  0  # atno 7974 bound_to 7965
  155.7507  140.3488  155.5149 H   0  0  0  0  0  0  0  0  0  0  0  0  # atno 8008 bound_to 7997
  155.9007  140.1033  157.1373 H   0  0  0  0  0  0  0  0  0  0  0  0  # atno 8009 bound_to 7997
  154.4043  140.1286  156.4419 H   0  0  0  0  0  0  0  0  0  0  0  0  # atno 8010 bound_to 7997
  140.6998  143.3086  151.3088 H   0  0  0  0  0  0  0  0  0  0  0  0  # atno 10167 bound_to 10162
  157.3502  130.7594  149.6973 H   0  0  0  0  0  0  0  0  0  0  0  0  # atno 10718 bound_to 10713
  153.9477  135.6754  153.4744 H   0  0  0  0  0  0  0  0  0  0  0  0  # atno 10763 bound_to 10752
  153.0900  135.4879  154.8668 H   0  0  0  0  0  0  0  0  0  0  0  0  # atno 10764 bound_to 10752
  154.7343  135.3145  154.8798 H   0  0  0  0  0  0  0  0  0  0  0  0  # atno 10765 bound_to 10752
  139.9166  134.7856  156.1802 H   0  0  0  0  0  0  0  0  0  0  0  0  # atno 11005 bound_to 11000
  145.8495  139.2168  143.1780 LP  0  0  0  0  0  0  0  0  0  0  0  0  # atno 17320 bound_to 7965
  146.0274  140.8291  142.9893 LP  0  0  0  0  0  0  0  0  0  0  0  0  # atno 17321 bound_to 7965
  139.6501  144.0379  152.2620 LP  0  0  0  0  0  0  0  0  0  0  0  0  # atno 17342 bound_to 10162
  139.9912  144.6360  150.7812 LP  0  0  0  0  0  0  0  0  0  0  0  0  # atno 17343 bound_to 10162
  155.9720  130.4143  150.4124 LP  0  0  0  0  0  0  0  0  0  0  0  0  # atno 17370 bound_to 10713
  157.2186  131.0477  151.2559 LP  0  0  0  0  0  0  0  0  0  0  0  0  # atno 17371 bound_to 10713
  141.0647  133.6825  156.2021 LP  0  0  0  0  0  0  0  0  0  0  0  0  # atno 17394 bound_to 11000
  140.6604  134.4973  157.5583 LP  0  0  0  0  0  0  0  0  0  0  0  0  # atno 17395 bound_to 11000

$$$$
