AV-unprocessed.smi:2999|AV-procd|sdf|11420|dock3
  -GOLD-   2272016343D 1   1.00000     0.00000
 Structure written by MMmdl.
 38 40  0  0  0  0  0  0  0  0  2 V2000
  149.8104  137.1834  156.2212 O   0  0  0  0  0  0  0  0  0  0  0  0
  149.5360  136.9706  155.0402 C   0  0  0  0  0  0  0  0  0  0  0  0
  149.5268  135.7470  154.4928 N   0  0  0  0  0  0  0  0  0  0  0  0
  149.8376  134.5065  155.1987 C   0  0  0  0  0  0  0  0  0  0  0  0
  148.9850  133.3089  154.7309 C   0  0  1  0  0  0  0  0  0  0  0  0
  148.9350  133.1451  153.1938 C   0  0  0  0  0  0  0  0  0  0  0  0
  148.1466  131.9532  152.8010 N   0  3  2  0  0  0  0  0  0  0  0  0
  146.6822  132.1558  152.8970 C   0  0  0  0  0  0  0  0  0  0  0  0
  145.9192  131.6035  151.7160 C   0  0  0  0  0  0  0  0  0  0  0  0
  146.1308  133.0952  151.8499 C   0  0  0  0  0  0  0  0  0  0  0  0
  148.6217  130.7446  153.5152 C   0  0  0  0  0  0  0  0  0  0  0  0
  148.6803  130.9792  155.0358 C   0  0  0  0  0  0  0  0  0  0  0  0
  149.4914  132.1132  155.3154 O   0  0  0  0  0  0  0  0  0  0  0  0
  149.2137  137.9105  154.1346 N   0  0  0  0  0  0  0  0  0  0  0  0
  149.1248  139.3150  154.3219 C   0  0  0  0  0  0  0  0  0  0  0  0
  148.2099  140.0976  153.7379 N   0  0  0  0  0  0  0  0  0  0  0  0
  148.3576  141.4382  154.1027 C   0  0  0  0  0  0  0  0  0  0  0  0
  149.3963  141.6591  154.9725 C   0  0  0  0  0  0  0  0  0  0  0  0
  150.2360  140.1839  155.3701 S   0  0  0  0  0  0  0  0  0  0  0  0
  149.2832  135.6658  153.5165 H   0  0  0  0  0  0  0  0  0  0  0  0
  150.9001  134.2740  155.1119 H   0  0  0  0  0  0  0  0  0  0  0  0
  149.6537  134.6839  156.2585 H   0  0  0  0  0  0  0  0  0  0  0  0
  147.9751  133.4691  155.1111 H   0  0  0  0  0  0  0  0  0  0  0  0
  148.5267  134.0395  152.7220 H   0  0  0  0  0  0  0  0  0  0  0  0
  149.9425  133.0174  152.7964 H   0  0  0  0  0  0  0  0  0  0  0  0
  146.2444  132.1282  153.8928 H   0  0  0  0  0  0  0  0  0  0  0  0
  146.4778  131.0847  150.9388 H   0  0  0  0  0  0  0  0  0  0  0  0
  144.9160  131.2241  151.8993 H   0  0  0  0  0  0  0  0  0  0  0  0
  145.2670  133.6984  152.1222 H   0  0  0  0  0  0  0  0  0  0  0  0
  146.8282  133.5672  151.1601 H   0  0  0  0  0  0  0  0  0  0  0  0
  147.9856  129.8908  153.2794 H   0  0  0  0  0  0  0  0  0  0  0  0
  149.6194  130.4991  153.1490 H   0  0  0  0  0  0  0  0  0  0  0  0
  147.6832  131.1165  155.4560 H   0  0  0  0  0  0  0  0  0  0  0  0
  149.1122  130.1093  155.5310 H   0  0  0  0  0  0  0  0  0  0  0  0
  149.0075  137.5849  153.2020 H   0  0  0  0  0  0  0  0  0  0  0  0
  147.6773  142.1712  153.6953 H   0  0  0  0  0  0  0  0  0  0  0  0
  149.7165  142.5968  155.4017 H   0  0  0  0  0  0  0  0  0  0  0  0
  148.3312  131.7975  151.8203 H   0  0  0  0  0  0  0  0  0  0  0  0
  1  2  2  0  0  0  0
  2  3  1  0  0  0  0
  2 14  1  0  0  0  0
  3  4  1  0  0  0  0
  3 20  1  0  0  0  0
  4  5  1  0  0  0  0
  4 21  1  0  0  0  0
  4 22  1  0  0  0  0
  5 13  1  0  0  0  0
  5  6  1  0  0  0  0
  5 23  1  0  0  0  0
  6  7  1  0  0  0  0
  6 24  1  0  0  0  0
  6 25  1  0  0  0  0
  7  8  1  0  0  0  0
  7 11  1  0  0  0  0
  7 38  1  0  0  0  0
  8 10  1  0  0  0  0
  8  9  1  0  0  0  0
  8 26  1  0  0  0  0
  9 10  1  0  0  0  0
  9 27  1  0  0  0  0
  9 28  1  0  0  0  0
 10 29  1  0  0  0  0
 10 30  1  0  0  0  0
 11 12  1  0  0  0  0
 11 31  1  0  0  0  0
 11 32  1  0  0  0  0
 12 13  1  0  0  0  0
 12 33  1  0  0  0  0
 12 34  1  0  0  0  0
 14 15  1  0  0  0  0
 14 35  1  0  0  0  0
 15 19  1  0  0  0  0
 15 16  2  0  0  0  0
 16 17  1  0  0  0  0
 17 18  2  0  0  0  0
 17 36  1  0  0  0  0
 18 19  1  0  0  0  0
 18 37  1  0  0  0  0
M  CHG  1   7   1
M  END
> <s_m_source_file>
AV-unprocessed.smi

> <i_m_source_file_index>
2999

> <i_lp_mmshare_version>
43012

> <i_f3d_flags>
0

> <s_epik_input>
czFbY0hdW2NIXW5jMVtOSF1DKD1PKVtOSF1bQ0gyXVtDQEBIXTJbQ0gyXU4oW0NIMl1bQ0gyXU8yKVtDSF0zW0NIMl1bQ0gyXTM=

> <s_epik_cmdline>
J2VwaWtfcHl0aG9uJywgJy1waCcsICc3LjAnLCAnLXRuJywgJzgnLCAnLW1hJywgJzIwMCcsICctbWV0YWxfYmluZGluZycsICctaW1hZScsICc8aW5maWxlLm1hZT4nLCAnLW9tYWUnLCAnPG91dGZpbGUubWFlPic=

> <r_lp_tautomer_probability>
0.999

> <r_epik_Ionization_Penalty>
1.55235

> <r_epik_Ionization_Penalty_Charging>
1.55221

> <r_epik_Ionization_Penalty_Neutral>
0.000139685

> <r_epik_State_Penalty>
1.64652

> <r_epik_Charging_Adjusted_Penalty>
3.19873

> <i_epik_Tot_Q>
1

> <i_epik_Tot_abs_Q>
1

> <r_epik_Metal_State_Penalty>
1.68612

> <b_epik_Metal_Only>
0

> <s_lp_Force_Field>
OPLS_2005

> <r_lp_Energy>
24.3861

> <b_lp_Chiralities_Consistent>
1

> <s_lp_Variant>
AV-unprocessed.smi:2999-4

> <Gold.Version>
5.8.1

> <Gold.Id.Protein>
6NUR|6NUR_protein|mol2

> <Gold.PLP.Fitness>
43.0736

> <Gold.PLP.PLP>
-32.0927

> <Gold.PLP.part.hbond>
-3.1333

> <Gold.PLP.part.metal>
0.0000

> <Gold.PLP.part.buried>
-3.5751

> <Gold.PLP.part.nonpolar>
-25.7328

> <Gold.PLP.part.repulsive>
1.2327

> <Gold.PLP.ligand.clash>
0.0000

> <Gold.PLP.ligand.torsion>
1.1486

> <Gold.PLP.Chemscore.Hbond>
3.0000

> <Gold.PLP.Chemscore.CHOScore>
1.0000

> <Gold.PLP.Chemscore.Metal>
0.0000

> <Gold.Chemscore.Hbonds>
donor molecule, donor type, donor heavy atom, donor atom, acceptor molecule, acceptor atom, score
      L1  H     3    20       P1  7948  1.00
      L1  H     7    38       P1 10747  1.00
      L1  H    14    35       P1  7948  1.00
      L1  C    18    37       P1  8028  1.00

> <Gold.PLP.Chemscore.Internal.Correction>
1.2781

> <Gold.Rescore>
     Score         DG    S(hbond)    S(metal)    S(lipo)     H(rot)  DE(clash)    DE(int)     intcor
     16.06     -17.35       2.51        0.00      64.25       1.58       0.01       1.28       ----

> <Gold.Chemscore.Fitness>
16.0642

> <Gold.Chemscore.DG>
-17.3532

> <Gold.Chemscore.ZeroCoef>
-5.4800

> <Gold.Chemscore.Hbond>
2.5147

> <Gold.Chemscore.Metal>
0.0000

> <Gold.Chemscore.Lipo>
64.2519

> <Gold.Chemscore.Internal_Hbond>
0.0000

> <Gold.Chemscore.DEClash>
0.0126

> <Gold.Chemscore.DEInternal>
1.2763

> <Gold.Chemscore.Rot>
1.5795

> <Gold.Chemscore.Internal.Correction>
   9.000000E+99

> <Gold.Chemscore.Hbonds>
donor molecule, donor type, donor heavy atom, donor atom, acceptor molecule, acceptor atom, score
      L1  H     3    20       P1  7948  0.49
      L1  H     7    38       P1 10747  0.98
      L1  H    14    35       P1  7948  0.96

> <Gold.Chemscore.Hbond.Weighted>
-8.3991

> <Gold.Chemscore.Metal.Weighted>
-0.0000

> <Gold.Chemscore.Lipo.Weighted>
-7.5175

> <Gold.Chemscore.Internal_Hbond.Weighted>
0.0000

> <Gold.Chemscore.DEClash.Weighted>
0.0126

> <Gold.Chemscore.DEInternal.Weighted>
1.2763

> <Gold.Chemscore.Rot.Weighted>
4.0434

> <Gold.Chemscore.Internal.Correction.Weighted>
   9.000000E+99

> <Gold.Protein.RotatedTorsions>
[ 6907 6896 6895 6894 ] final   16.82 input  -60.11 | X-H torsion
[ 7974 7965 7964 7962 ] final -132.57 input  175.53 | X-H torsion
[ 8008 7997 7996 7995 ] final -118.10 input   59.86 | X-H torsion
[ 10167 10162 10161 10158 ] final  144.13 input  -65.29 | X-H torsion
[ 10718 10713 10712 10709 ] final  149.88 input   66.30 | X-H torsion
[ 10763 10752 10751 10750 ] final  -68.02 input  -60.55 | X-H torsion
[ 11005 11000 10999 10996 ] final   -9.41 input  -57.11 | X-H torsion

> <Gold.Protein.ActiveResidues>
 VAL166  LYS551  ARG553  GLY616  TRP617  ASP618  TYR619  PRO620  LYS621  CYS622 
 ASP623  PHE694  ASN695  SER759  ASP760  ASP761  ALA762  ILE779  LEU786  VAL792 
 PHE793  MET794  SER795  GLU796  ALA797  LYS798  CYS799  TRP800  GLU811  SER814 

> <Gold.Protein.RotatedAtoms>
  151.8400  135.0593  160.0446 H   0  0  0  0  0  0  0  0  0  0  0  0  # atno 6907 bound_to 6896
  152.2816  133.5471  159.5510 H   0  0  0  0  0  0  0  0  0  0  0  0  # atno 6908 bound_to 6896
  150.7192  134.0472  159.3828 H   0  0  0  0  0  0  0  0  0  0  0  0  # atno 6909 bound_to 6896
  144.9273  140.7086  143.4928 H   0  0  0  0  0  0  0  0  0  0  0  0  # atno 7974 bound_to 7965
  155.0943  140.0395  157.2678 H   0  0  0  0  0  0  0  0  0  0  0  0  # atno 8008 bound_to 7997
  154.6808  140.2632  155.6886 H   0  0  0  0  0  0  0  0  0  0  0  0  # atno 8009 bound_to 7997
  156.2694  140.2779  156.1351 H   0  0  0  0  0  0  0  0  0  0  0  0  # atno 8010 bound_to 7997
  139.4954  144.5993  151.6516 H   0  0  0  0  0  0  0  0  0  0  0  0  # atno 10167 bound_to 10162
  157.2905  131.0852  151.1465 H   0  0  0  0  0  0  0  0  0  0  0  0  # atno 10718 bound_to 10713
  154.3830  135.6070  153.5801 H   0  0  0  0  0  0  0  0  0  0  0  0  # atno 10763 bound_to 10752
  152.9788  135.5865  154.4388 H   0  0  0  0  0  0  0  0  0  0  0  0  # atno 10764 bound_to 10752
  154.4160  135.2845  155.1984 H   0  0  0  0  0  0  0  0  0  0  0  0  # atno 10765 bound_to 10752
  140.7339  133.8726  155.8914 H   0  0  0  0  0  0  0  0  0  0  0  0  # atno 11005 bound_to 11000
  145.3199  139.1792  143.4594 LP  0  0  0  0  0  0  0  0  0  0  0  0  # atno 17320 bound_to 7965
  146.3232  140.3214  142.8633 LP  0  0  0  0  0  0  0  0  0  0  0  0  # atno 17321 bound_to 7965
  140.5638  144.0223  150.6183 LP  0  0  0  0  0  0  0  0  0  0  0  0  # atno 17342 bound_to 10162
  140.3318  143.3073  152.0679 LP  0  0  0  0  0  0  0  0  0  0  0  0  # atno 17343 bound_to 10162
  157.2864  130.6775  149.6091 LP  0  0  0  0  0  0  0  0  0  0  0  0  # atno 17370 bound_to 10713
  155.9667  130.4434  150.5420 LP  0  0  0  0  0  0  0  0  0  0  0  0  # atno 17371 bound_to 10713
  140.9897  134.1295  157.4420 LP  0  0  0  0  0  0  0  0  0  0  0  0  # atno 17394 bound_to 11000
  139.8820  135.0036  156.6200 LP  0  0  0  0  0  0  0  0  0  0  0  0  # atno 17395 bound_to 11000

$$$$
