AV-unprocessed.smi:1083|AV-procd|sdf|4715|dock7
  -GOLD-   22720 3243D 1   1.00000     0.00000
 Structure written by MMmdl.
 43 45  0  0  0  0  0  0  0  0  1 V2000
  149.2763  144.2005  161.0352 O   0  0  0  0  0  0  0  0  0  0  0  0
  148.9493  144.6442  159.9344 C   0  0  0  0  0  0  0  0  0  0  0  0
  147.6858  144.8243  159.5171 N   0  0  0  0  0  0  0  0  0  0  0  0
  146.4846  144.5112  160.2130 C   0  0  0  0  0  0  0  0  0  0  0  0
  146.4353  143.5148  161.2174 C   0  0  0  0  0  0  0  0  0  0  0  0
  145.2278  143.2910  161.9026 C   0  0  0  0  0  0  0  0  0  0  0  0
  144.1138  144.0803  161.5669 C   0  0  0  0  0  0  0  0  0  0  0  0
  144.1483  145.0417  160.6218 N   0  0  0  0  0  0  0  0  0  0  0  0
  145.3066  145.2620  159.9529 C   0  0  0  0  0  0  0  0  0  0  0  0
  145.3010  146.2572  158.9549 N   0  0  0  0  0  0  0  0  0  0  0  0
  144.3373  146.0102  157.8881 C   0  0  0  0  0  0  0  0  0  0  0  0
  144.5803  146.9859  156.7240 C   0  0  0  0  0  0  0  0  0  0  0  0
  144.5335  148.3270  157.2037 O   0  0  0  0  0  0  0  0  0  0  0  0
  145.5287  148.5788  158.1920 C   0  0  0  0  0  0  0  0  0  0  0  0
  145.3072  147.6485  159.3968 C   0  0  0  0  0  0  0  0  0  0  0  0
  149.8260  144.9889  158.9812 N   0  0  0  0  0  0  0  0  0  0  0  0
  151.2779  144.8784  159.0935 C   0  0  0  0  0  0  0  0  0  0  0  0
  151.7176  143.4014  159.0649 C   0  0  0  0  0  0  0  0  0  0  0  0
  152.6464  143.2093  160.2655 C   0  0  0  0  0  0  0  0  0  0  0  0
  152.1687  144.2391  161.2841 C   0  0  0  0  0  0  0  0  0  0  0  0
  151.7795  145.4488  160.4348 C   0  0  0  0  0  0  0  0  0  0  0  0
  147.5686  145.1039  158.5541 H   0  0  0  0  0  0  0  0  0  0  0  0
  147.3061  142.9352  161.4839 H   0  0  0  0  0  0  0  0  0  0  0  0
  145.1602  142.5378  162.6736 H   0  0  0  0  0  0  0  0  0  0  0  0
  143.1708  143.9399  162.0741 H   0  0  0  0  0  0  0  0  0  0  0  0
  144.4048  144.9832  157.5291 H   0  0  0  0  0  0  0  0  0  0  0  0
  143.3286  146.1425  158.2820 H   0  0  0  0  0  0  0  0  0  0  0  0
  145.5434  146.7913  156.2491 H   0  0  0  0  0  0  0  0  0  0  0  0
  143.8156  146.8556  155.9583 H   0  0  0  0  0  0  0  0  0  0  0  0
  146.5234  148.4350  157.7668 H   0  0  0  0  0  0  0  0  0  0  0  0
  145.4632  149.6211  158.5048 H   0  0  0  0  0  0  0  0  0  0  0  0
  144.3565  147.8877  159.8756 H   0  0  0  0  0  0  0  0  0  0  0  0
  146.0935  147.8003  160.1372 H   0  0  0  0  0  0  0  0  0  0  0  0
  149.4642  145.3408  158.1070 H   0  0  0  0  0  0  0  0  0  0  0  0
  151.7526  145.4143  158.2692 H   0  0  0  0  0  0  0  0  0  0  0  0
  150.8567  142.7393  159.1720 H   0  0  0  0  0  0  0  0  0  0  0  0
  152.2090  143.1382  158.1276 H   0  0  0  0  0  0  0  0  0  0  0  0
  152.6246  142.1912  160.6546 H   0  0  0  0  0  0  0  0  0  0  0  0
  153.6738  143.4324  159.9746 H   0  0  0  0  0  0  0  0  0  0  0  0
  151.2905  143.8591  161.8077 H   0  0  0  0  0  0  0  0  0  0  0  0
  152.9270  144.4762  162.0308 H   0  0  0  0  0  0  0  0  0  0  0  0
  152.6651  146.0595  160.2546 H   0  0  0  0  0  0  0  0  0  0  0  0
  151.0508  146.0858  160.9383 H   0  0  0  0  0  0  0  0  0  0  0  0
  1  2  2  0  0  0  0
  2  3  1  0  0  0  0
  2 16  1  0  0  0  0
  3  4  1  0  0  0  0
  3 22  1  0  0  0  0
  4  9  1  0  0  0  0
  4  5  2  0  0  0  0
  5  6  1  0  0  0  0
  5 23  1  0  0  0  0
  6  7  2  0  0  0  0
  6 24  1  0  0  0  0
  7  8  1  0  0  0  0
  7 25  1  0  0  0  0
  8  9  2  0  0  0  0
  9 10  1  0  0  0  0
 10 15  1  0  0  0  0
 10 11  1  0  0  0  0
 11 12  1  0  0  0  0
 11 26  1  0  0  0  0
 11 27  1  0  0  0  0
 12 13  1  0  0  0  0
 12 28  1  0  0  0  0
 12 29  1  0  0  0  0
 13 14  1  0  0  0  0
 14 15  1  0  0  0  0
 14 30  1  0  0  0  0
 14 31  1  0  0  0  0
 15 32  1  0  0  0  0
 15 33  1  0  0  0  0
 16 17  1  0  0  0  0
 16 34  1  0  0  0  0
 17 21  1  0  0  0  0
 17 18  1  0  0  0  0
 17 35  1  0  0  0  0
 18 19  1  0  0  0  0
 18 36  1  0  0  0  0
 18 37  1  0  0  0  0
 19 20  1  0  0  0  0
 19 38  1  0  0  0  0
 19 39  1  0  0  0  0
 20 21  1  0  0  0  0
 20 40  1  0  0  0  0
 20 41  1  0  0  0  0
 21 42  1  0  0  0  0
 21 43  1  0  0  0  0
M  END
> <s_m_source_file>
AV-unprocessed.smi

> <i_m_source_file_index>
1083

> <i_lp_mmshare_version>
43012

> <i_f3d_flags>
0

> <s_epik_input>
W0NIMl0xW0NIMl1bQ0gyXVtDSDJdW0NIXTFbTkhdQyg9TylbTkhdYzJbY0hdW2NIXVtjSF1uYzJOM1tDSDJdW0NIMl1PW0NIMl1bQ0gyXTM=

> <s_epik_cmdline>
J2VwaWtfcHl0aG9uJywgJy1waCcsICc3LjAnLCAnLXRuJywgJzgnLCAnLW1hJywgJzIwMCcsICctbWV0YWxfYmluZGluZycsICctaW1hZScsICc8aW5maWxlLm1hZT4nLCAnLW9tYWUnLCAnPG91dGZpbGUubWFlPic=

> <r_lp_tautomer_probability>
1

> <r_epik_Ionization_Penalty>
0.00217669

> <r_epik_Ionization_Penalty_Charging>
0

> <r_epik_Ionization_Penalty_Neutral>
0.00217669

> <r_epik_State_Penalty>
0.00146536

> <r_epik_Charging_Adjusted_Penalty>
0.00146536

> <i_epik_Tot_Q>
0

> <i_epik_Tot_abs_Q>
0

> <r_epik_Metal_State_Penalty>
-0

> <b_epik_Metal_Only>
0

> <s_lp_Force_Field>
OPLS_2005

> <r_lp_Energy>
35.5183

> <b_lp_Chiralities_Consistent>
1

> <s_lp_Variant>
AV-unprocessed.smi:1083-1

> <Gold.Version>
5.8.1

> <Gold.Id.Protein>
6NUR|6NUR_protein|mol2

> <Gold.PLP.Fitness>
48.6927

> <Gold.PLP.PLP>
-42.2639

> <Gold.PLP.part.hbond>
-2.9308

> <Gold.PLP.part.metal>
0.0000

> <Gold.PLP.part.buried>
-6.8149

> <Gold.PLP.part.nonpolar>
-34.7948

> <Gold.PLP.part.repulsive>
2.4360

> <Gold.PLP.ligand.clash>
0.0000

> <Gold.PLP.ligand.torsion>
0.4543

> <Gold.PLP.Chemscore.Hbond>
2.3760

> <Gold.PLP.Chemscore.CHOScore>
0.0000

> <Gold.PLP.Chemscore.Metal>
0.0000

> <Gold.Chemscore.Hbonds>
donor molecule, donor type, donor heavy atom, donor atom, acceptor molecule, acceptor atom, score
      L1  H     3    22       P1  8029  1.00
      L1  H    16    34       P1  8029  0.88
      P1  H  6933  6944       L1     1  0.48

> <Gold.PLP.Chemscore.Internal.Correction>
0.2095

> <Gold.Rescore>
     Score         DG    S(hbond)    S(metal)    S(lipo)     H(rot)  DE(clash)    DE(int)     intcor
     17.44     -21.70       2.25        0.00     100.55       1.19       0.19       4.07       ----

> <Gold.Chemscore.Fitness>
17.4375

> <Gold.Chemscore.DG>
-21.6955

> <Gold.Chemscore.ZeroCoef>
-5.4800

> <Gold.Chemscore.Hbond>
2.2456

> <Gold.Chemscore.Metal>
0.0000

> <Gold.Chemscore.Lipo>
100.5454

> <Gold.Chemscore.Internal_Hbond>
0.0000

> <Gold.Chemscore.DEClash>
0.1882

> <Gold.Chemscore.DEInternal>
4.0698

> <Gold.Chemscore.Rot>
1.1909

> <Gold.Chemscore.Internal.Correction>
   9.000000E+99

> <Gold.Chemscore.Hbonds>
donor molecule, donor type, donor heavy atom, donor atom, acceptor molecule, acceptor atom, score
      L1  H     3    22       P1  8029  0.94
      L1  H    16    34       P1  8029  0.34
      P1  H  6933  6944       L1     1  0.42

> <Gold.Chemscore.Hbond.Weighted>
-7.5004

> <Gold.Chemscore.Metal.Weighted>
-0.0000

> <Gold.Chemscore.Lipo.Weighted>
-11.7638

> <Gold.Chemscore.Internal_Hbond.Weighted>
0.0000

> <Gold.Chemscore.DEClash.Weighted>
0.1882

> <Gold.Chemscore.DEInternal.Weighted>
4.0698

> <Gold.Chemscore.Rot.Weighted>
3.0487

> <Gold.Chemscore.Internal.Correction.Weighted>
   9.000000E+99

> <Gold.Protein.RotatedTorsions>
[ 6907 6896 6895 6894 ] final  109.99 input  -60.11 | X-H torsion
[ 7974 7965 7964 7962 ] final  148.86 input  175.53 | X-H torsion
[ 8008 7997 7996 7995 ] final -139.04 input   59.86 | X-H torsion
[ 10167 10162 10161 10158 ] final  108.74 input  -65.29 | X-H torsion
[ 10718 10713 10712 10709 ] final  124.57 input   66.30 | X-H torsion
[ 10763 10752 10751 10750 ] final  -62.93 input  -60.55 | X-H torsion
[ 11005 11000 10999 10996 ] final  165.87 input  -57.11 | X-H torsion

> <Gold.Protein.ActiveResidues>
 VAL166  LYS551  ARG553  GLY616  TRP617  ASP618  TYR619  PRO620  LYS621  CYS622 
 ASP623  PHE694  ASN695  SER759  ASP760  ASP761  ALA762  ILE779  LEU786  VAL792 
 PHE793  MET794  SER795  GLU796  ALA797  LYS798  CYS799  TRP800  GLU811  SER814 

> <Gold.Protein.RotatedAtoms>
  152.5041  133.8865  159.7372 H   0  0  0  0  0  0  0  0  0  0  0  0  # atno 6907 bound_to 6896
  150.9314  133.6753  159.2816 H   0  0  0  0  0  0  0  0  0  0  0  0  # atno 6908 bound_to 6896
  151.4096  135.0988  159.9633 H   0  0  0  0  0  0  0  0  0  0  0  0  # atno 6909 bound_to 6896
  144.8481  139.6208  143.5986 H   0  0  0  0  0  0  0  0  0  0  0  0  # atno 7974 bound_to 7965
  155.4383  140.0530  157.3012 H   0  0  0  0  0  0  0  0  0  0  0  0  # atno 8008 bound_to 7997
  154.4829  140.2089  155.9679 H   0  0  0  0  0  0  0  0  0  0  0  0  # atno 8009 bound_to 7997
  156.1232  140.3184  155.8244 H   0  0  0  0  0  0  0  0  0  0  0  0  # atno 8010 bound_to 7997
  139.6822  144.7117  151.1496 H   0  0  0  0  0  0  0  0  0  0  0  0  # atno 10167 bound_to 10162
  157.5574  131.1091  150.8598 H   0  0  0  0  0  0  0  0  0  0  0  0  # atno 10718 bound_to 10713
  154.3074  135.6222  153.5451 H   0  0  0  0  0  0  0  0  0  0  0  0  # atno 10763 bound_to 10752
  152.9833  135.5693  154.5216 H   0  0  0  0  0  0  0  0  0  0  0  0  # atno 10764 bound_to 10752
  154.4858  135.2865  155.1511 H   0  0  0  0  0  0  0  0  0  0  0  0  # atno 10765 bound_to 10752
  140.2605  134.7906  157.3586 H   0  0  0  0  0  0  0  0  0  0  0  0  # atno 11005 bound_to 11000
  146.2762  139.6758  142.9261 LP  0  0  0  0  0  0  0  0  0  0  0  0  # atno 17320 bound_to 7965
  145.4555  141.0430  143.2780 LP  0  0  0  0  0  0  0  0  0  0  0  0  # atno 17321 bound_to 7965
  140.7656  143.5683  150.9024 LP  0  0  0  0  0  0  0  0  0  0  0  0  # atno 17342 bound_to 10162
  139.9355  143.6442  152.3066 LP  0  0  0  0  0  0  0  0  0  0  0  0  # atno 17343 bound_to 10162
  156.9105  130.5279  149.5280 LP  0  0  0  0  0  0  0  0  0  0  0  0  # atno 17370 bound_to 10713
  156.0631  130.5680  150.9233 LP  0  0  0  0  0  0  0  0  0  0  0  0  # atno 17371 bound_to 10713
  140.1469  134.4900  155.7990 LP  0  0  0  0  0  0  0  0  0  0  0  0  # atno 17394 bound_to 11000
  141.2191  133.6847  156.7310 LP  0  0  0  0  0  0  0  0  0  0  0  0  # atno 17395 bound_to 11000

$$$$
