AV-unprocessed.smi:239|AV-procd|sdf|1820|dock6
  -GOLD-   2262020413D 1   1.00000     0.00000
 Structure written by MMmdl.
 54 58  0  0  0  0  0  0  0  0  1 V2000
  152.8015  138.7820  154.5140 C   0  0  0  0  0  0  0  0  0  0  0  0
  151.4907  139.1436  155.2197 C   0  0  2  0  0  0  0  0  0  0  0  0
  150.3094  138.3060  154.7001 C   0  0  0  0  0  0  0  0  0  0  0  0
  149.0663  138.7548  155.3172 N   0  0  0  0  0  0  0  0  0  0  0  0
  148.0189  137.9001  155.1919 C   0  0  0  0  0  0  0  0  0  0  0  0
  147.7351  137.0228  156.1922 N   0  0  0  0  0  0  0  0  0  0  0  0
  146.6982  136.1869  156.0854 C   0  0  0  0  0  0  0  0  0  0  0  0
  145.8288  136.0602  155.0816 N   0  0  0  0  0  0  0  0  0  0  0  0
  146.1122  136.9299  154.0703 C   0  0  0  0  0  0  0  0  0  0  0  0
  147.1795  137.8720  154.0418 C   0  0  0  0  0  0  0  0  0  0  0  0
  147.1592  138.5702  152.8398 N   0  0  0  0  0  0  0  0  0  0  0  0
  146.1293  138.0826  152.2038 C   0  0  0  0  0  0  0  0  0  0  0  0
  145.4384  137.0985  152.8732 N   0  0  0  0  0  0  0  0  0  0  0  0
  144.2564  136.3916  152.4038 C   0  0  0  0  0  0  0  0  0  0  0  0
  144.5656  135.2557  151.3972 C   0  0  0  0  0  0  0  0  0  0  0  0
  144.4567  135.7973  150.0916 O   0  0  0  0  0  0  0  0  0  0  0  0
  146.0060  134.7411  151.5917 C   0  0  0  0  0  0  0  0  0  0  0  0
  146.3009  133.5000  150.7304 C   0  0  0  0  0  0  0  0  0  0  0  0
  145.3463  132.4809  151.0012 O   0  0  0  0  0  0  0  0  0  0  0  0
  144.0197  132.8665  150.6625 C   0  0  0  0  0  0  0  0  0  0  0  0
  143.5837  134.0695  151.5177 C   0  0  0  0  0  0  0  0  0  0  0  0
  148.8177  140.1823  155.1290 C   0  0  0  0  0  0  0  0  0  0  0  0
  150.0287  141.0142  155.5929 C   0  0  1  0  0  0  0  0  0  0  0  0
  150.1486  141.0989  157.1081 C   0  0  0  0  0  0  0  0  0  0  0  0
  149.3556  142.1156  157.8951 C   0  0  0  0  0  0  0  0  0  0  0  0
  150.8524  142.2663  157.7583 C   0  0  0  0  0  0  0  0  0  0  0  0
  151.2284  140.5272  154.9881 O   0  0  0  0  0  0  0  0  0  0  0  0
  153.0545  137.7331  154.6703 H   0  0  0  0  0  0  0  0  0  0  0  0
  153.6275  139.3834  154.8944 H   0  0  0  0  0  0  0  0  0  0  0  0
  152.7313  138.9527  153.4393 H   0  0  0  0  0  0  0  0  0  0  0  0
  151.6215  138.9679  156.2880 H   0  0  0  0  0  0  0  0  0  0  0  0
  150.2213  138.4124  153.6180 H   0  0  0  0  0  0  0  0  0  0  0  0
  150.4992  137.2518  154.8970 H   0  0  0  0  0  0  0  0  0  0  0  0
  146.5416  135.5270  156.9260 H   0  0  0  0  0  0  0  0  0  0  0  0
  145.8394  138.4328  151.2237 H   0  0  0  0  0  0  0  0  0  0  0  0
  143.7288  135.9952  153.2726 H   0  0  0  0  0  0  0  0  0  0  0  0
  143.5846  137.1209  151.9494 H   0  0  0  0  0  0  0  0  0  0  0  0
  144.2964  136.7257  150.1643 H   0  0  0  0  0  0  0  0  0  0  0  0
  146.7272  135.5294  151.3725 H   0  0  0  0  0  0  0  0  0  0  0  0
  146.1543  134.4747  152.6392 H   0  0  0  0  0  0  0  0  0  0  0  0
  146.2950  133.7467  149.6676 H   0  0  0  0  0  0  0  0  0  0  0  0
  147.2958  133.1170  150.9589 H   0  0  0  0  0  0  0  0  0  0  0  0
  143.9566  133.0963  149.5976 H   0  0  0  0  0  0  0  0  0  0  0  0
  143.3531  132.0228  150.8417 H   0  0  0  0  0  0  0  0  0  0  0  0
  143.5319  133.7517  152.5598 H   0  0  0  0  0  0  0  0  0  0  0  0
  142.5729  134.3688  151.2383 H   0  0  0  0  0  0  0  0  0  0  0  0
  148.6301  140.3708  154.0710 H   0  0  0  0  0  0  0  0  0  0  0  0
  147.9250  140.4910  155.6746 H   0  0  0  0  0  0  0  0  0  0  0  0
  149.8946  142.0316  155.2235 H   0  0  0  0  0  0  0  0  0  0  0  0
  150.2924  140.1374  157.5971 H   0  0  0  0  0  0  0  0  0  0  0  0
  148.7283  142.8119  157.3418 H   0  0  0  0  0  0  0  0  0  0  0  0
  148.9677  141.8080  158.8640 H   0  0  0  0  0  0  0  0  0  0  0  0
  151.4617  142.0594  158.6358 H   0  0  0  0  0  0  0  0  0  0  0  0
  151.2209  143.0596  157.1111 H   0  0  0  0  0  0  0  0  0  0  0  0
  1  2  1  0  0  0  0
  1 28  1  0  0  0  0
  1 29  1  0  0  0  0
  1 30  1  0  0  0  0
  2 27  1  0  0  0  0
  2  3  1  0  0  0  0
  2 31  1  0  0  0  0
  3  4  1  0  0  0  0
  3 32  1  0  0  0  0
  3 33  1  0  0  0  0
  4  5  1  0  0  0  0
  4 22  1  0  0  0  0
  5 10  1  0  0  0  0
  5  6  2  0  0  0  0
  6  7  1  0  0  0  0
  7  8  2  0  0  0  0
  7 34  1  0  0  0  0
  8  9  1  0  0  0  0
  9 13  1  0  0  0  0
  9 10  2  0  0  0  0
 10 11  1  0  0  0  0
 11 12  2  0  0  0  0
 12 13  1  0  0  0  0
 12 35  1  0  0  0  0
 13 14  1  0  0  0  0
 14 15  1  0  0  0  0
 14 36  1  0  0  0  0
 14 37  1  0  0  0  0
 15 21  1  0  0  0  0
 15 16  1  0  0  0  0
 15 17  1  0  0  0  0
 16 38  1  0  0  0  0
 17 18  1  0  0  0  0
 17 39  1  0  0  0  0
 17 40  1  0  0  0  0
 18 19  1  0  0  0  0
 18 41  1  0  0  0  0
 18 42  1  0  0  0  0
 19 20  1  0  0  0  0
 20 21  1  0  0  0  0
 20 43  1  0  0  0  0
 20 44  1  0  0  0  0
 21 45  1  0  0  0  0
 21 46  1  0  0  0  0
 22 23  1  0  0  0  0
 22 47  1  0  0  0  0
 22 48  1  0  0  0  0
 23 24  1  0  0  0  0
 23 27  1  0  0  0  0
 23 49  1  0  0  0  0
 24 26  1  0  0  0  0
 24 25  1  0  0  0  0
 24 50  1  0  0  0  0
 25 26  1  0  0  0  0
 25 51  1  0  0  0  0
 25 52  1  0  0  0  0
 26 53  1  0  0  0  0
 26 54  1  0  0  0  0
M  END
> <s_m_source_file>
AV-unprocessed.smi

> <i_m_source_file_index>
239

> <i_lp_mmshare_version>
43012

> <i_f3d_flags>
0

> <s_epik_input>
W0NIMl0xW0NIMl1bQ0hdMVtDQEBIXShPMilbQ0gyXU4oW0NIMl1bQ0BIXTJbQ0gzXSljKG5bY0hdbjMpYyhjMzQpbltjSF1uNFtDSDJdQzUoW09IXSlbQ0gyXVtDSDJdT1tDSDJdW0NIMl01

> <s_epik_cmdline>
J2VwaWtfcHl0aG9uJywgJy1waCcsICc3LjAnLCAnLXRuJywgJzgnLCAnLW1hJywgJzIwMCcsICctbWV0YWxfYmluZGluZycsICctaW1hZScsICc8aW5maWxlLm1hZT4nLCAnLW9tYWUnLCAnPG91dGZpbGUubWFlPic=

> <r_lp_tautomer_probability>
1

> <r_epik_Ionization_Penalty>
9.13091e-05

> <r_epik_Ionization_Penalty_Charging>
0

> <r_epik_Ionization_Penalty_Neutral>
9.13091e-05

> <r_epik_State_Penalty>
-0

> <r_epik_Charging_Adjusted_Penalty>
0

> <i_epik_Tot_Q>
0

> <i_epik_Tot_abs_Q>
0

> <r_epik_Metal_State_Penalty>
-0

> <b_epik_Metal_Only>
0

> <s_lp_Force_Field>
OPLS_2005

> <r_lp_Energy>
39.9708

> <b_lp_Chiralities_Consistent>
1

> <s_lp_Variant>
AV-unprocessed.smi:239-1

> <Gold.Version>
5.8.1

> <Gold.Id.Protein>
6NUR|6NUR_protein|mol2

> <Gold.PLP.Fitness>
45.9708

> <Gold.PLP.PLP>
-39.3980

> <Gold.PLP.part.hbond>
-2.8879

> <Gold.PLP.part.metal>
0.0000

> <Gold.PLP.part.buried>
-4.4355

> <Gold.PLP.part.nonpolar>
-34.4511

> <Gold.PLP.part.repulsive>
1.3813

> <Gold.PLP.ligand.clash>
0.0000

> <Gold.PLP.ligand.torsion>
1.8727

> <Gold.PLP.Chemscore.Hbond>
1.9760

> <Gold.PLP.Chemscore.CHOScore>
1.0000

> <Gold.PLP.Chemscore.Metal>
0.0000

> <Gold.Chemscore.Hbonds>
donor molecule, donor type, donor heavy atom, donor atom, acceptor molecule, acceptor atom, score
      L1  H    16    38       P1 10171  1.00
      P1  H  7989  7998       L1    27  0.96
      L1  C    12    35       P1 10171  1.00

> <Gold.PLP.Chemscore.Internal.Correction>
1.3903

> <Gold.Rescore>
     Score         DG    S(hbond)    S(metal)    S(lipo)     H(rot)  DE(clash)    DE(int)     intcor
     14.23     -16.28       1.80        0.00      90.03       2.24       0.57       1.48       ----

> <Gold.Chemscore.Fitness>
14.2307

> <Gold.Chemscore.DG>
-16.2783

> <Gold.Chemscore.ZeroCoef>
-5.4800

> <Gold.Chemscore.Hbond>
1.7952

> <Gold.Chemscore.Metal>
0.0000

> <Gold.Chemscore.Lipo>
90.0281

> <Gold.Chemscore.Internal_Hbond>
0.0000

> <Gold.Chemscore.DEClash>
0.5664

> <Gold.Chemscore.DEInternal>
1.4812

> <Gold.Chemscore.Rot>
2.2387

> <Gold.Chemscore.Internal.Correction>
   9.000000E+99

> <Gold.Chemscore.Hbonds>
donor molecule, donor type, donor heavy atom, donor atom, acceptor molecule, acceptor atom, score
      L1  H    16    38       P1 10171  0.99
      P1  H  7989  7998       L1    27  0.62

> <Gold.Chemscore.Hbond.Weighted>
-5.9961

> <Gold.Chemscore.Metal.Weighted>
-0.0000

> <Gold.Chemscore.Lipo.Weighted>
-10.5333

> <Gold.Chemscore.Internal_Hbond.Weighted>
0.0000

> <Gold.Chemscore.DEClash.Weighted>
0.5664

> <Gold.Chemscore.DEInternal.Weighted>
1.4812

> <Gold.Chemscore.Rot.Weighted>
5.7311

> <Gold.Chemscore.Internal.Correction.Weighted>
   9.000000E+99

> <Gold.Protein.RotatedTorsions>
[ 6907 6896 6895 6894 ] final   85.65 input  -60.11 | X-H torsion
[ 7974 7965 7964 7962 ] final  -34.24 input  175.53 | X-H torsion
[ 8008 7997 7996 7995 ] final  163.62 input   59.86 | X-H torsion
[ 10167 10162 10161 10158 ] final   -1.33 input  -65.29 | X-H torsion
[ 10718 10713 10712 10709 ] final  -79.21 input   66.30 | X-H torsion
[ 10763 10752 10751 10750 ] final   80.47 input  -60.55 | X-H torsion
[ 11005 11000 10999 10996 ] final -155.34 input  -57.11 | X-H torsion

> <Gold.Protein.ActiveResidues>
 VAL166  LYS551  ARG553  GLY616  TRP617  ASP618  TYR619  PRO620  LYS621  CYS622 
 ASP623  PHE694  ASN695  SER759  ASP760  ASP761  ALA762  ILE779  LEU786  VAL792 
 PHE793  MET794  SER795  GLU796  ALA797  LYS798  CYS799  TRP800  GLU811  SER814 

> <Gold.Protein.RotatedAtoms>
  152.5379  134.2553  159.8914 H   0  0  0  0  0  0  0  0  0  0  0  0  # atno 6907 bound_to 6896
  151.2515  133.4341  159.2619 H   0  0  0  0  0  0  0  0  0  0  0  0  # atno 6908 bound_to 6896
  151.0535  134.9703  159.8280 H   0  0  0  0  0  0  0  0  0  0  0  0  # atno 6909 bound_to 6896
  146.0845  140.6015  142.8893 H   0  0  0  0  0  0  0  0  0  0  0  0  # atno 7974 bound_to 7965
  156.1943  140.1719  156.8029 H   0  0  0  0  0  0  0  0  0  0  0  0  # atno 8008 bound_to 7997
  154.5510  140.0717  156.8699 H   0  0  0  0  0  0  0  0  0  0  0  0  # atno 8009 bound_to 7997
  155.3028  140.3362  155.4249 H   0  0  0  0  0  0  0  0  0  0  0  0  # atno 8010 bound_to 7997
  140.6805  143.6788  150.8123 H   0  0  0  0  0  0  0  0  0  0  0  0  # atno 10167 bound_to 10162
  156.0098  130.4539  150.3614 H   0  0  0  0  0  0  0  0  0  0  0  0  # atno 10718 bound_to 10713
  153.1037  135.4801  154.8912 H   0  0  0  0  0  0  0  0  0  0  0  0  # atno 10763 bound_to 10752
  154.7406  135.3081  154.8737 H   0  0  0  0  0  0  0  0  0  0  0  0  # atno 10764 bound_to 10752
  153.9346  135.6841  153.4798 H   0  0  0  0  0  0  0  0  0  0  0  0  # atno 10765 bound_to 10752
  140.6875  134.4077  157.5222 H   0  0  0  0  0  0  0  0  0  0  0  0  # atno 11005 bound_to 11000
  144.7316  140.4688  143.6933 LP  0  0  0  0  0  0  0  0  0  0  0  0  # atno 17320 bound_to 7965
  145.6155  139.1518  143.3052 LP  0  0  0  0  0  0  0  0  0  0  0  0  # atno 17321 bound_to 7965
  140.0488  143.5271  152.2683 LP  0  0  0  0  0  0  0  0  0  0  0  0  # atno 17342 bound_to 10162
  139.6125  144.7612  151.2919 LP  0  0  0  0  0  0  0  0  0  0  0  0  # atno 17343 bound_to 10162
  157.1702  131.0367  151.2799 LP  0  0  0  0  0  0  0  0  0  0  0  0  # atno 17370 bound_to 10713
  157.4236  130.7451  149.6933 LP  0  0  0  0  0  0  0  0  0  0  0  0  # atno 17371 bound_to 10713
  139.8933  134.8734  156.2229 LP  0  0  0  0  0  0  0  0  0  0  0  0  # atno 17394 bound_to 11000
  141.0268  133.7011  156.1361 LP  0  0  0  0  0  0  0  0  0  0  0  0  # atno 17395 bound_to 11000

$$$$
