AV-unprocessed.smi:955|AV-procd|sdf|4259|dock4
  -GOLD-   22720 2163D 1   1.00000     0.00000
 Structure written by MMmdl.
 29 29  0  0  0  0  0  0  0  0  1 V2000
  152.7285  137.4539  156.4536 C   0  0  0  0  0  0  0  0  0  0  0  0
  152.1358  138.3535  155.3567 C   0  0  2  0  0  0  0  0  0  0  0  0
  151.4075  139.4375  156.0120 N   0  0  0  0  0  0  0  0  0  0  0  0
  151.8633  140.1770  157.0369 C   0  0  0  0  0  0  0  0  0  0  0  0
  152.9727  140.0043  157.5437 O   0  0  0  0  0  0  0  0  0  0  0  0
  150.9243  141.2848  157.5487 C   0  0  2  0  0  0  0  0  0  0  0  0
  149.8500  141.6926  156.5196 C   0  0  0  0  0  0  0  0  0  0  0  0
  151.6851  142.4371  158.0220 N   0  0  0  0  0  0  0  0  0  0  0  0
  151.6374  143.7353  157.5551 C   0  0  0  0  0  0  0  0  0  0  0  0
  152.4915  144.4783  158.3182 C   0  0  0  0  0  0  0  0  0  0  0  0
  153.0198  143.5383  159.2459 C   0  0  0  0  0  0  0  0  0  0  0  0
  152.5319  142.3211  159.0716 N   0  0  0  0  0  0  0  0  0  0  0  0
  151.1799  137.4991  154.5084 C   0  0  0  0  0  0  0  0  0  0  0  0
  150.4833  138.1346  153.5635 N   0  0  0  0  0  0  0  0  0  0  0  0
  151.0814  136.2857  154.6879 O   0  0  0  0  0  0  0  0  0  0  0  0
  153.2894  136.6222  156.0253 H   0  0  0  0  0  0  0  0  0  0  0  0
  151.9554  137.0366  157.1009 H   0  0  0  0  0  0  0  0  0  0  0  0
  153.4169  138.0163  157.0852 H   0  0  0  0  0  0  0  0  0  0  0  0
  152.9395  138.7561  154.7366 H   0  0  0  0  0  0  0  0  0  0  0  0
  150.4899  139.6500  155.6487 H   0  0  0  0  0  0  0  0  0  0  0  0
  150.4012  140.8708  158.4121 H   0  0  0  0  0  0  0  0  0  0  0  0
  149.2309  140.8406  156.2370 H   0  0  0  0  0  0  0  0  0  0  0  0
  150.2910  142.0981  155.6082 H   0  0  0  0  0  0  0  0  0  0  0  0
  149.1865  142.4531  156.9320 H   0  0  0  0  0  0  0  0  0  0  0  0
  151.0045  144.0203  156.7273 H   0  0  0  0  0  0  0  0  0  0  0  0
  152.7039  145.5333  158.2295 H   0  0  0  0  0  0  0  0  0  0  0  0
  153.7353  143.7038  160.0377 H   0  0  0  0  0  0  0  0  0  0  0  0
  149.8446  137.6190  152.9758 H   0  0  0  0  0  0  0  0  0  0  0  0
  150.6018  139.1293  153.4377 H   0  0  0  0  0  0  0  0  0  0  0  0
  1  2  1  0  0  0  0
  1 16  1  0  0  0  0
  1 17  1  0  0  0  0
  1 18  1  0  0  0  0
  2  3  1  0  0  0  0
  2 13  1  0  0  0  0
  2 19  1  0  0  0  0
  3  4  1  0  0  0  0
  3 20  1  0  0  0  0
  4  5  2  0  0  0  0
  4  6  1  0  0  0  0
  6  7  1  0  0  0  0
  6  8  1  0  0  0  0
  6 21  1  0  0  0  0
  7 22  1  0  0  0  0
  7 23  1  0  0  0  0
  7 24  1  0  0  0  0
  8 12  1  0  0  0  0
  8  9  1  0  0  0  0
  9 10  2  0  0  0  0
  9 25  1  0  0  0  0
 10 11  1  0  0  0  0
 10 26  1  0  0  0  0
 11 12  2  0  0  0  0
 11 27  1  0  0  0  0
 13 14  1  0  0  0  0
 13 15  2  0  0  0  0
 14 28  1  0  0  0  0
 14 29  1  0  0  0  0
M  END
> <s_m_source_file>
AV-unprocessed.smi

> <i_m_source_file_index>
955

> <i_lp_mmshare_version>
43012

> <i_f3d_flags>
0

> <s_epik_input>
W05IMl1DKD1PKVtDQEhdKFtDSDNdKVtOSF1DKD1PKVtDQEhdKFtDSDNdKW4xW2NIXVtjSF1bY0hdbjE=

> <s_epik_cmdline>
J2VwaWtfcHl0aG9uJywgJy1waCcsICc3LjAnLCAnLXRuJywgJzgnLCAnLW1hJywgJzIwMCcsICctbWV0YWxfYmluZGluZycsICctaW1hZScsICc8aW5maWxlLm1hZT4nLCAnLW9tYWUnLCAnPG91dGZpbGUubWFlPic=

> <r_lp_tautomer_probability>
1

> <r_epik_Ionization_Penalty>
2.8146e-05

> <r_epik_Ionization_Penalty_Charging>
0

> <r_epik_Ionization_Penalty_Neutral>
2.8146e-05

> <r_epik_State_Penalty>
-0

> <r_epik_Charging_Adjusted_Penalty>
0

> <i_epik_Tot_Q>
0

> <i_epik_Tot_abs_Q>
0

> <r_epik_Metal_State_Penalty>
-0

> <b_epik_Metal_Only>
0

> <s_lp_Force_Field>
OPLS_2005

> <r_lp_Energy>
4.37159

> <b_lp_Chiralities_Consistent>
1

> <s_lp_Variant>
AV-unprocessed.smi:955-1

> <Gold.Version>
5.8.1

> <Gold.Id.Protein>
6NUR|6NUR_protein|mol2

> <Gold.PLP.Fitness>
40.7400

> <Gold.PLP.PLP>
-30.5340

> <Gold.PLP.part.hbond>
-4.3155

> <Gold.PLP.part.metal>
0.0000

> <Gold.PLP.part.buried>
-2.0377

> <Gold.PLP.part.nonpolar>
-24.6165

> <Gold.PLP.part.repulsive>
0.3766

> <Gold.PLP.ligand.clash>
0.0000

> <Gold.PLP.ligand.torsion>
0.9576

> <Gold.PLP.Chemscore.Hbond>
3.0000

> <Gold.PLP.Chemscore.CHOScore>
1.0000

> <Gold.PLP.Chemscore.Metal>
0.0000

> <Gold.Chemscore.Hbonds>
donor molecule, donor type, donor heavy atom, donor atom, acceptor molecule, acceptor atom, score
      L1  H    14    28       P1  7948  1.00
      P1  H  7997  8008       L1     5  1.00
      P1  H 10752 10763       L1    15  1.00
      L1  C     9    25       P1  8028  1.00

> <Gold.PLP.Chemscore.Internal.Correction>
0.1213

> <Gold.Rescore>
     Score         DG    S(hbond)    S(metal)    S(lipo)     H(rot)  DE(clash)    DE(int)     intcor
     11.62     -15.83       2.78        0.00      59.50       2.30       0.07       4.13       ----

> <Gold.Chemscore.Fitness>
11.6218

> <Gold.Chemscore.DG>
-15.8291

> <Gold.Chemscore.ZeroCoef>
-5.4800

> <Gold.Chemscore.Hbond>
2.7751

> <Gold.Chemscore.Metal>
0.0000

> <Gold.Chemscore.Lipo>
59.4963

> <Gold.Chemscore.Internal_Hbond>
0.0000

> <Gold.Chemscore.DEClash>
0.0731

> <Gold.Chemscore.DEInternal>
4.1342

> <Gold.Chemscore.Rot>
2.2972

> <Gold.Chemscore.Internal.Correction>
   9.000000E+99

> <Gold.Chemscore.Hbonds>
donor molecule, donor type, donor heavy atom, donor atom, acceptor molecule, acceptor atom, score
      L1  H    14    28       P1  7948  0.39
      P1  H  7997  8008       L1     5  0.98
      P1  H 10752 10763       L1    15  0.39

> <Gold.Chemscore.Hbond.Weighted>
-9.2690

> <Gold.Chemscore.Metal.Weighted>
-0.0000

> <Gold.Chemscore.Lipo.Weighted>
-6.9611

> <Gold.Chemscore.Internal_Hbond.Weighted>
0.0000

> <Gold.Chemscore.DEClash.Weighted>
0.0731

> <Gold.Chemscore.DEInternal.Weighted>
4.1342

> <Gold.Chemscore.Rot.Weighted>
5.8809

> <Gold.Chemscore.Internal.Correction.Weighted>
   9.000000E+99

> <Gold.Protein.RotatedTorsions>
[ 6907 6896 6895 6894 ] final   72.33 input  -60.11 | X-H torsion
[ 7974 7965 7964 7962 ] final  142.91 input  175.53 | X-H torsion
[ 8008 7997 7996 7995 ] final  -74.44 input   59.86 | X-H torsion
[ 10167 10162 10161 10158 ] final   54.13 input  -65.29 | X-H torsion
[ 10718 10713 10712 10709 ] final  -84.76 input   66.30 | X-H torsion
[ 10763 10752 10751 10750 ] final   45.08 input  -60.55 | X-H torsion
[ 11005 11000 10999 10996 ] final  120.31 input  -57.11 | X-H torsion

> <Gold.Protein.ActiveResidues>
 VAL166  LYS551  ARG553  GLY616  TRP617  ASP618  TYR619  PRO620  LYS621  CYS622 
 ASP623  PHE694  ASN695  SER759  ASP760  ASP761  ALA762  ILE779  LEU786  VAL792 
 PHE793  MET794  SER795  GLU796  ALA797  LYS798  CYS799  TRP800  GLU811  SER814 

> <Gold.Protein.RotatedAtoms>
  152.4861  134.4588  159.9598 H   0  0  0  0  0  0  0  0  0  0  0  0  # atno 6907 bound_to 6896
  151.4584  133.3593  159.2813 H   0  0  0  0  0  0  0  0  0  0  0  0  # atno 6908 bound_to 6896
  150.8974  134.8408  159.7396 H   0  0  0  0  0  0  0  0  0  0  0  0  # atno 6909 bound_to 6896
  144.8966  139.5482  143.5773 H   0  0  0  0  0  0  0  0  0  0  0  0  # atno 7974 bound_to 7965
  154.5331  140.0761  156.8380 H   0  0  0  0  0  0  0  0  0  0  0  0  # atno 8008 bound_to 7997
  155.3333  140.3403  155.4221 H   0  0  0  0  0  0  0  0  0  0  0  0  # atno 8009 bound_to 7997
  156.1801  140.1649  156.8276 H   0  0  0  0  0  0  0  0  0  0  0  0  # atno 8010 bound_to 7997
  140.2334  144.3662  150.6406 H   0  0  0  0  0  0  0  0  0  0  0  0  # atno 10167 bound_to 10162
  156.0003  130.4708  150.4458 H   0  0  0  0  0  0  0  0  0  0  0  0  # atno 10718 bound_to 10713
  152.9830  135.6051  154.3378 H   0  0  0  0  0  0  0  0  0  0  0  0  # atno 10763 bound_to 10752
  154.3077  135.2771  155.2583 H   0  0  0  0  0  0  0  0  0  0  0  0  # atno 10764 bound_to 10752
  154.4806  135.5918  153.6443 H   0  0  0  0  0  0  0  0  0  0  0  0  # atno 10765 bound_to 10752
  139.9180  134.9634  156.7788 H   0  0  0  0  0  0  0  0  0  0  0  0  # atno 11005 bound_to 11000
  146.3085  139.7662  142.9038 LP  0  0  0  0  0  0  0  0  0  0  0  0  # atno 17320 bound_to 7965
  145.3689  141.0339  143.3242 LP  0  0  0  0  0  0  0  0  0  0  0  0  # atno 17321 bound_to 7965
  140.6168  143.2173  151.6776 LP  0  0  0  0  0  0  0  0  0  0  0  0  # atno 17342 bound_to 10162
  139.5102  144.3551  152.0615 LP  0  0  0  0  0  0  0  0  0  0  0  0  # atno 17343 bound_to 10162
  157.2496  131.0543  151.2387 LP  0  0  0  0  0  0  0  0  0  0  0  0  # atno 17370 bound_to 10713
  157.3542  130.7097  149.6460 LP  0  0  0  0  0  0  0  0  0  0  0  0  # atno 17371 bound_to 10713
  140.6561  133.9687  155.7780 LP  0  0  0  0  0  0  0  0  0  0  0  0  # atno 17394 bound_to 11000
  141.0675  134.0254  157.3573 LP  0  0  0  0  0  0  0  0  0  0  0  0  # atno 17395 bound_to 11000

$$$$
