AV-unprocessed.smi:3251|AV-procd|sdf|12436|dock5
  -GOLD-   2272018323D 1   1.00000     0.00000
 Structure written by MMmdl.
 41 42  0  0  0  0  0  0  0  0  2 V2000
  143.8219  134.8044  150.7478 C   0  0  0  0  0  0  0  0  0  0  0  0
  144.3186  136.1452  151.2065 C   0  0  0  0  0  0  0  0  0  0  0  0
  143.6035  137.1389  151.9333 C   0  0  0  0  0  0  0  0  0  0  0  0
  144.3310  138.2151  152.1843 N   0  0  0  0  0  0  0  0  0  0  0  0
  145.5318  137.9481  151.6282 N   0  0  0  0  0  0  0  0  0  0  0  0
  146.6026  138.9241  151.7180 C   0  0  0  0  0  0  0  0  0  0  0  0
  147.1035  139.1025  153.1595 C   0  0  0  0  0  0  0  0  0  0  0  0
  148.5569  138.8452  153.2644 N   0  3  0  0  0  0  0  0  0  0  0  0
  149.1270  138.9809  154.6241 C   0  0  1  0  0  0  0  0  0  0  0  0
  150.3047  138.0055  154.7813 C   0  0  0  0  0  0  0  0  0  0  0  0
  149.5978  140.4233  154.9008 C   0  0  0  0  0  0  0  0  0  0  0  0
  149.4657  141.2713  154.0165 O   0  0  0  0  0  0  0  0  0  0  0  0
  150.1521  140.7196  156.0962 N   0  0  0  0  0  0  0  0  0  0  0  0
  150.6251  142.0576  156.4489 C   0  0  0  0  0  0  0  0  0  0  0  0
  150.9221  142.0130  157.9478 C   0  0  0  0  0  0  0  0  0  0  0  0
  151.2240  140.5471  158.2218 C   0  0  0  0  0  0  0  0  0  0  0  0
  150.3617  139.7932  157.2094 C   0  0  0  0  0  0  0  0  0  0  0  0
  145.5528  136.7049  151.0327 C   0  0  0  0  0  0  0  0  0  0  0  0
  142.7695  134.8389  150.4649 H   0  0  0  0  0  0  0  0  0  0  0  0
  143.9198  134.0515  151.5299 H   0  0  0  0  0  0  0  0  0  0  0  0
  144.3744  134.4419  149.8807 H   0  0  0  0  0  0  0  0  0  0  0  0
  142.5821  137.1097  152.2835 H   0  0  0  0  0  0  0  0  0  0  0  0
  147.4222  138.5874  151.0820 H   0  0  0  0  0  0  0  0  0  0  0  0
  146.2581  139.8740  151.3058 H   0  0  0  0  0  0  0  0  0  0  0  0
  146.8711  140.1103  153.5062 H   0  0  0  0  0  0  0  0  0  0  0  0
  146.5767  138.4112  153.8178 H   0  0  0  0  0  0  0  0  0  0  0  0
  148.7253  137.9028  152.9434 H   0  0  0  0  0  0  0  0  0  0  0  0
  148.3460  138.6923  155.3276 H   0  0  0  0  0  0  0  0  0  0  0  0
  150.7470  138.0649  155.7765 H   0  0  0  0  0  0  0  0  0  0  0  0
  151.0941  138.2111  154.0568 H   0  0  0  0  0  0  0  0  0  0  0  0
  149.9803  136.9753  154.6321 H   0  0  0  0  0  0  0  0  0  0  0  0
  151.5342  142.2723  155.8847 H   0  0  0  0  0  0  0  0  0  0  0  0
  149.8905  142.8299  156.2148 H   0  0  0  0  0  0  0  0  0  0  0  0
  151.7385  142.6751  158.2377 H   0  0  0  0  0  0  0  0  0  0  0  0
  150.0341  142.3134  158.5056 H   0  0  0  0  0  0  0  0  0  0  0  0
  152.2783  140.3490  158.0238 H   0  0  0  0  0  0  0  0  0  0  0  0
  151.0177  140.2577  159.2526 H   0  0  0  0  0  0  0  0  0  0  0  0
  149.3957  139.5422  157.6500 H   0  0  0  0  0  0  0  0  0  0  0  0
  150.8472  138.8676  156.8992 H   0  0  0  0  0  0  0  0  0  0  0  0
  146.4352  136.3242  150.5393 H   0  0  0  0  0  0  0  0  0  0  0  0
  149.0447  139.4834  152.6507 H   0  0  0  0  0  0  0  0  0  0  0  0
  1  2  1  0  0  0  0
  1 19  1  0  0  0  0
  1 20  1  0  0  0  0
  1 21  1  0  0  0  0
  2 18  2  0  0  0  0
  2  3  1  0  0  0  0
  3  4  2  0  0  0  0
  3 22  1  0  0  0  0
  4  5  1  0  0  0  0
  5  6  1  0  0  0  0
  5 18  1  0  0  0  0
  6  7  1  0  0  0  0
  6 23  1  0  0  0  0
  6 24  1  0  0  0  0
  7  8  1  0  0  0  0
  7 25  1  0  0  0  0
  7 26  1  0  0  0  0
  8  9  1  0  0  0  0
  8 27  1  0  0  0  0
  8 41  1  0  0  0  0
  9 10  1  0  0  0  0
  9 11  1  0  0  0  0
  9 28  1  0  0  0  0
 10 29  1  0  0  0  0
 10 30  1  0  0  0  0
 10 31  1  0  0  0  0
 11 12  2  0  0  0  0
 11 13  1  0  0  0  0
 13 17  1  0  0  0  0
 13 14  1  0  0  0  0
 14 15  1  0  0  0  0
 14 32  1  0  0  0  0
 14 33  1  0  0  0  0
 15 16  1  0  0  0  0
 15 34  1  0  0  0  0
 15 35  1  0  0  0  0
 16 17  1  0  0  0  0
 16 36  1  0  0  0  0
 16 37  1  0  0  0  0
 17 38  1  0  0  0  0
 17 39  1  0  0  0  0
 18 40  1  0  0  0  0
M  CHG  1   8   1
M  END
> <s_m_source_file>
AV-unprocessed.smi

> <i_m_source_file_index>
3251

> <i_lp_mmshare_version>
43012

> <i_f3d_flags>
0

> <s_epik_input>
W0NIM11jMVtjSF1ubihbY0hdMSlbQ0gyXVtDSDJdW05IXVtDQEhdKFtDSDNdKUMoPU8pTjJbQ0gyXVtDSDJdW0NIMl1bQ0gyXTI=

> <s_epik_cmdline>
J2VwaWtfcHl0aG9uJywgJy1waCcsICc3LjAnLCAnLXRuJywgJzgnLCAnLW1hJywgJzIwMCcsICctbWV0YWxfYmluZGluZycsICctaW1hZScsICc8aW5maWxlLm1hZT4nLCAnLW9tYWUnLCAnPG91dGZpbGUubWFlPic=

> <r_lp_tautomer_probability>
1

> <r_epik_Ionization_Penalty>
0.203173

> <r_epik_Ionization_Penalty_Charging>
0.203168

> <r_epik_Ionization_Penalty_Neutral>
5.06494e-06

> <r_epik_State_Penalty>
0.193072

> <r_epik_Charging_Adjusted_Penalty>
0.39624

> <i_epik_Tot_Q>
1

> <i_epik_Tot_abs_Q>
1

> <r_epik_Metal_State_Penalty>
0.193587

> <b_epik_Metal_Only>
0

> <s_lp_Force_Field>
OPLS_2005

> <r_lp_Energy>
29.7429

> <b_lp_Chiralities_Consistent>
1

> <s_lp_Variant>
AV-unprocessed.smi:3251-2

> <Gold.Version>
5.8.1

> <Gold.Id.Protein>
6NUR|6NUR_protein|mol2

> <Gold.PLP.Fitness>
49.9612

> <Gold.PLP.PLP>
-38.1989

> <Gold.PLP.part.hbond>
-3.7693

> <Gold.PLP.part.metal>
0.0000

> <Gold.PLP.part.buried>
-1.7059

> <Gold.PLP.part.nonpolar>
-34.9552

> <Gold.PLP.part.repulsive>
1.2407

> <Gold.PLP.ligand.clash>
0.0000

> <Gold.PLP.ligand.torsion>
0.8165

> <Gold.PLP.Chemscore.Hbond>
3.8000

> <Gold.PLP.Chemscore.CHOScore>
0.6432

> <Gold.PLP.Chemscore.Metal>
0.0000

> <Gold.Chemscore.Hbonds>
donor molecule, donor type, donor heavy atom, donor atom, acceptor molecule, acceptor atom, score
      L1  H     8    27       P1  7948  2.00
      L1  H     8    41       P1  7957  1.00
      P1  H  7989  7998       L1    12  0.06
      P1  H  8011  8017       L1    12  0.73
      L1  C    18    40       P1  7948  0.30

> <Gold.PLP.Chemscore.Internal.Correction>
0.0657

> <Gold.Rescore>
     Score         DG    S(hbond)    S(metal)    S(lipo)     H(rot)  DE(clash)    DE(int)     intcor
     17.89     -18.90       2.78        0.00      73.70       1.76       0.30       0.71       ----

> <Gold.Chemscore.Fitness>
17.8857

> <Gold.Chemscore.DG>
-18.8969

> <Gold.Chemscore.ZeroCoef>
-5.4800

> <Gold.Chemscore.Hbond>
2.7844

> <Gold.Chemscore.Metal>
0.0000

> <Gold.Chemscore.Lipo>
73.6951

> <Gold.Chemscore.Internal_Hbond>
0.0000

> <Gold.Chemscore.DEClash>
0.3013

> <Gold.Chemscore.DEInternal>
0.7099

> <Gold.Chemscore.Rot>
1.7599

> <Gold.Chemscore.Internal.Correction>
   9.000000E+99

> <Gold.Chemscore.Hbonds>
donor molecule, donor type, donor heavy atom, donor atom, acceptor molecule, acceptor atom, score
      L1  H     8    27       P1  7948  0.97
      L1  H     8    41       P1  7957  0.98
      P1  H  8011  8017       L1    12  0.69

> <Gold.Chemscore.Hbond.Weighted>
-9.2999

> <Gold.Chemscore.Metal.Weighted>
-0.0000

> <Gold.Chemscore.Lipo.Weighted>
-8.6223

> <Gold.Chemscore.Internal_Hbond.Weighted>
0.0000

> <Gold.Chemscore.DEClash.Weighted>
0.3013

> <Gold.Chemscore.DEInternal.Weighted>
0.7099

> <Gold.Chemscore.Rot.Weighted>
4.5053

> <Gold.Chemscore.Internal.Correction.Weighted>
   9.000000E+99

> <Gold.Protein.RotatedTorsions>
[ 6907 6896 6895 6894 ] final -143.50 input  -60.11 | X-H torsion
[ 7974 7965 7964 7962 ] final    4.15 input  175.53 | X-H torsion
[ 8008 7997 7996 7995 ] final   14.96 input   59.86 | X-H torsion
[ 10167 10162 10161 10158 ] final   35.58 input  -65.29 | X-H torsion
[ 10718 10713 10712 10709 ] final -109.73 input   66.30 | X-H torsion
[ 10763 10752 10751 10750 ] final  -66.78 input  -60.55 | X-H torsion
[ 11005 11000 10999 10996 ] final  -68.98 input  -57.11 | X-H torsion

> <Gold.Protein.ActiveResidues>
 VAL166  LYS551  ARG553  GLY616  TRP617  ASP618  TYR619  PRO620  LYS621  CYS622 
 ASP623  PHE694  ASN695  SER759  ASP760  ASP761  ALA762  ILE779  LEU786  VAL792 
 PHE793  MET794  SER795  GLU796  ALA797  LYS798  CYS799  TRP800  GLU811  SER814 

> <Gold.Protein.RotatedAtoms>
  151.1013  133.5241  159.2609 H   0  0  0  0  0  0  0  0  0  0  0  0  # atno 6907 bound_to 6896
  151.2071  135.0466  159.8906 H   0  0  0  0  0  0  0  0  0  0  0  0  # atno 6908 bound_to 6896
  152.5443  134.0834  159.8299 H   0  0  0  0  0  0  0  0  0  0  0  0  # atno 6909 bound_to 6896
  146.2444  140.0578  142.8370 H   0  0  0  0  0  0  0  0  0  0  0  0  # atno 7974 bound_to 7965
  154.8559  140.2937  155.5569 H   0  0  0  0  0  0  0  0  0  0  0  0  # atno 8008 bound_to 7997
  156.3018  140.2487  156.3458 H   0  0  0  0  0  0  0  0  0  0  0  0  # atno 8009 bound_to 7997
  154.8970  140.0392  157.1861 H   0  0  0  0  0  0  0  0  0  0  0  0  # atno 8010 bound_to 7997
  140.4208  144.1462  150.6148 H   0  0  0  0  0  0  0  0  0  0  0  0  # atno 10167 bound_to 10162
  156.0552  130.5779  150.8140 H   0  0  0  0  0  0  0  0  0  0  0  0  # atno 10718 bound_to 10713
  154.3648  135.6108  153.5709 H   0  0  0  0  0  0  0  0  0  0  0  0  # atno 10763 bound_to 10752
  152.9792  135.5824  154.4590 H   0  0  0  0  0  0  0  0  0  0  0  0  # atno 10764 bound_to 10752
  154.4334  135.2848  155.1874 H   0  0  0  0  0  0  0  0  0  0  0  0  # atno 10765 bound_to 10752
  141.1544  133.6753  156.6529 H   0  0  0  0  0  0  0  0  0  0  0  0  # atno 11005 bound_to 11000
  145.0927  140.9295  143.4759 LP  0  0  0  0  0  0  0  0  0  0  0  0  # atno 17320 bound_to 7965
  145.0754  139.3000  143.5811 LP  0  0  0  0  0  0  0  0  0  0  0  0  # atno 17321 bound_to 7965
  140.4535  143.2477  151.9316 LP  0  0  0  0  0  0  0  0  0  0  0  0  # atno 17342 bound_to 10162
  139.4782  144.5538  151.8344 LP  0  0  0  0  0  0  0  0  0  0  0  0  # atno 17343 bound_to 10162
  157.5516  131.0944  150.9687 LP  0  0  0  0  0  0  0  0  0  0  0  0  # atno 17370 bound_to 10713
  156.9946  130.5576  149.5306 LP  0  0  0  0  0  0  0  0  0  0  0  0  # atno 17371 bound_to 10713
  140.3306  134.7932  157.4323 LP  0  0  0  0  0  0  0  0  0  0  0  0  # atno 17394 bound_to 11000
  140.1020  134.5460  155.8344 LP  0  0  0  0  0  0  0  0  0  0  0  0  # atno 17395 bound_to 11000

$$$$
