AV-unprocessed.smi:3202|AV-procd|sdf|12241|dock3
  -GOLD-   2272018 73D 1   1.00000     0.00000
 Structure written by MMmdl.
 43 44  0  0  0  0  0  0  0  0  2 V2000
  150.4734  135.9149  155.5231 C   0  0  0  0  0  0  0  0  0  0  0  0
  150.4707  137.3700  155.1989 C   0  0  0  0  0  0  0  0  0  0  0  0
  150.2405  138.4697  155.9765 C   0  0  0  0  0  0  0  0  0  0  0  0
  150.3832  139.5710  155.0822 C   0  0  0  0  0  0  0  0  0  0  0  0
  150.2305  141.0354  155.3937 C   0  0  0  0  0  0  0  0  0  0  0  0
  150.0066  141.3255  156.8961 C   0  0  2  0  0  0  0  0  0  0  0  0
  148.5345  141.1849  157.3178 C   0  0  0  0  0  0  0  0  0  0  0  0
  150.4731  142.6880  157.2421 N   0  3  0  0  0  0  0  0  0  0  0  0
  150.5585  143.0012  158.6888 C   0  0  2  0  0  0  0  0  0  0  0  0
  149.5283  144.0430  159.1486 C   0  0  0  0  0  0  0  0  0  0  0  0
  150.1468  144.7177  160.3798 C   0  0  0  0  0  0  0  0  0  0  0  0
  151.5862  144.1922  160.4823 C   0  0  0  0  0  0  0  0  0  0  0  0
  151.9257  143.5809  159.1109 C   0  0  0  0  0  0  0  0  0  0  0  0
  152.9968  142.4821  159.2416 C   0  0  0  0  0  0  0  0  0  0  0  0
  152.4328  144.6863  158.1555 C   0  0  0  0  0  0  0  0  0  0  0  0
  150.6784  139.1845  153.8489 N   0  0  0  0  0  0  0  0  0  0  0  0
  150.7277  137.8422  153.9326 N   0  0  0  0  0  0  0  0  0  0  0  0
  150.9376  137.2678  153.1282 H   0  0  0  0  0  0  0  0  0  0  0  0
  150.3084  135.7523  156.5884 H   0  0  0  0  0  0  0  0  0  0  0  0
  151.4276  135.4595  155.2576 H   0  0  0  0  0  0  0  0  0  0  0  0
  149.6856  135.3952  154.9775 H   0  0  0  0  0  0  0  0  0  0  0  0
  150.0042  138.4857  157.0303 H   0  0  0  0  0  0  0  0  0  0  0  0
  151.1199  141.5559  155.0401 H   0  0  0  0  0  0  0  0  0  0  0  0
  149.4032  141.4519  154.8167 H   0  0  0  0  0  0  0  0  0  0  0  0
  150.5782  140.6055  157.4820 H   0  0  0  0  0  0  0  0  0  0  0  0
  148.1774  140.1621  157.1976 H   0  0  0  0  0  0  0  0  0  0  0  0
  147.8878  141.8363  156.7292 H   0  0  0  0  0  0  0  0  0  0  0  0
  148.4016  141.4456  158.3682 H   0  0  0  0  0  0  0  0  0  0  0  0
  151.3829  142.8233  156.8250 H   0  0  0  0  0  0  0  0  0  0  0  0
  150.3909  142.0890  159.2623 H   0  0  0  0  0  0  0  0  0  0  0  0
  149.3632  144.7887  158.3695 H   0  0  0  0  0  0  0  0  0  0  0  0
  148.5624  143.5910  159.3759 H   0  0  0  0  0  0  0  0  0  0  0  0
  150.1385  145.8012  160.2567 H   0  0  0  0  0  0  0  0  0  0  0  0
  149.5855  144.4896  161.2867 H   0  0  0  0  0  0  0  0  0  0  0  0
  152.2889  144.9683  160.7877 H   0  0  0  0  0  0  0  0  0  0  0  0
  151.6185  143.4185  161.2510 H   0  0  0  0  0  0  0  0  0  0  0  0
  153.9327  142.8889  159.6260 H   0  0  0  0  0  0  0  0  0  0  0  0
  153.2099  142.0195  158.2774 H   0  0  0  0  0  0  0  0  0  0  0  0
  152.6812  141.6902  159.9219 H   0  0  0  0  0  0  0  0  0  0  0  0
  153.3417  145.1488  158.5419 H   0  0  0  0  0  0  0  0  0  0  0  0
  151.6994  145.4815  158.0202 H   0  0  0  0  0  0  0  0  0  0  0  0
  152.6726  144.2888  157.1690 H   0  0  0  0  0  0  0  0  0  0  0  0
  149.8343  143.3533  156.8301 H   0  0  0  0  0  0  0  0  0  0  0  0
  1  2  1  0  0  0  0
  1 19  1  0  0  0  0
  1 20  1  0  0  0  0
  1 21  1  0  0  0  0
  2 17  1  0  0  0  0
  2  3  2  0  0  0  0
  3  4  1  0  0  0  0
  3 22  1  0  0  0  0
  4  5  1  0  0  0  0
  4 16  2  0  0  0  0
  5  6  1  0  0  0  0
  5 23  1  0  0  0  0
  5 24  1  0  0  0  0
  6  7  1  0  0  0  0
  6  8  1  0  0  0  0
  6 25  1  0  0  0  0
  7 26  1  0  0  0  0
  7 27  1  0  0  0  0
  7 28  1  0  0  0  0
  8  9  1  0  0  0  0
  8 29  1  0  0  0  0
  8 43  1  0  0  0  0
  9 13  1  0  0  0  0
  9 10  1  0  0  0  0
  9 30  1  0  0  0  0
 10 11  1  0  0  0  0
 10 31  1  0  0  0  0
 10 32  1  0  0  0  0
 11 12  1  0  0  0  0
 11 33  1  0  0  0  0
 11 34  1  0  0  0  0
 12 13  1  0  0  0  0
 12 35  1  0  0  0  0
 12 36  1  0  0  0  0
 13 14  1  0  0  0  0
 13 15  1  0  0  0  0
 14 37  1  0  0  0  0
 14 38  1  0  0  0  0
 14 39  1  0  0  0  0
 15 40  1  0  0  0  0
 15 41  1  0  0  0  0
 15 42  1  0  0  0  0
 16 17  1  0  0  0  0
 17 18  1  0  0  0  0
M  CHG  1   8   1
M  END
> <s_m_source_file>
AV-unprocessed.smi

> <i_m_source_file_index>
3202

> <i_lp_mmshare_version>
43012

> <i_f3d_flags>
0

> <s_epik_input>
W0NIM11jMVtjSF1jKG5bbkhdMSlbQ0gyXVtDQEhdKFtDSDNdKVtOSF1bQ0BASF0oQzIoW0NIM10pW0NIM10pW0NIMl1bQ0gyXVtDSDJdMg==

> <s_epik_cmdline>
J2VwaWtfcHl0aG9uJywgJy1waCcsICc3LjAnLCAnLXRuJywgJzgnLCAnLW1hJywgJzIwMCcsICctbWV0YWxfYmluZGluZycsICctaW1hZScsICc8aW5maWxlLm1hZT4nLCAnLW9tYWUnLCAnPG91dGZpbGUubWFlPic=

> <r_lp_tautomer_probability>
0.5

> <r_epik_Ionization_Penalty>
0.000341671

> <r_epik_Ionization_Penalty_Charging>
0.000281809

> <r_epik_Ionization_Penalty_Neutral>
5.9862e-05

> <r_epik_State_Penalty>
0.41068

> <r_epik_Charging_Adjusted_Penalty>
0.410962

> <i_epik_Tot_Q>
1

> <i_epik_Tot_abs_Q>
1

> <r_epik_Metal_State_Penalty>
0.410672

> <b_epik_Metal_Only>
0

> <s_lp_Force_Field>
OPLS_2005

> <r_lp_Energy>
28.8614

> <b_lp_Chiralities_Consistent>
1

> <s_lp_Variant>
AV-unprocessed.smi:3202-1

> <Gold.Version>
5.8.1

> <Gold.Id.Protein>
6NUR|6NUR_protein|mol2

> <Gold.PLP.Fitness>
41.9477

> <Gold.PLP.PLP>
-33.5172

> <Gold.PLP.part.hbond>
-3.4716

> <Gold.PLP.part.metal>
0.0000

> <Gold.PLP.part.buried>
-2.7322

> <Gold.PLP.part.nonpolar>
-28.8036

> <Gold.PLP.part.repulsive>
1.1383

> <Gold.PLP.ligand.clash>
0.0000

> <Gold.PLP.ligand.torsion>
1.0630

> <Gold.PLP.Chemscore.Hbond>
3.5112

> <Gold.PLP.Chemscore.CHOScore>
0.0000

> <Gold.PLP.Chemscore.Metal>
0.0000

> <Gold.Chemscore.Hbonds>
donor molecule, donor type, donor heavy atom, donor atom, acceptor molecule, acceptor atom, score
      L1  H     8    43       P1  8028  2.00
      L1  H    17    18       P1  7949  0.80
      P1  H  7989  7998       L1    16  0.65

> <Gold.PLP.Chemscore.Internal.Correction>
0.0228

> <Gold.Rescore>
     Score         DG    S(hbond)    S(metal)    S(lipo)     H(rot)  DE(clash)    DE(int)     intcor
     17.68     -19.55       1.45        0.00     110.68       1.46       0.76       1.11       ----

> <Gold.Chemscore.Fitness>
17.6769

> <Gold.Chemscore.DG>
-19.5454

> <Gold.Chemscore.ZeroCoef>
-5.4800

> <Gold.Chemscore.Hbond>
1.4529

> <Gold.Chemscore.Metal>
0.0000

> <Gold.Chemscore.Lipo>
110.6769

> <Gold.Chemscore.Internal_Hbond>
0.0000

> <Gold.Chemscore.DEClash>
0.7585

> <Gold.Chemscore.DEInternal>
1.1099

> <Gold.Chemscore.Rot>
1.4596

> <Gold.Chemscore.Internal.Correction>
   9.000000E+99

> <Gold.Chemscore.Hbonds>
donor molecule, donor type, donor heavy atom, donor atom, acceptor molecule, acceptor atom, score
      L1  H     8    43       P1  8028  0.93
      L1  H    17    18       P1  7949  0.18
      P1  H  7989  7998       L1    16  0.05

> <Gold.Chemscore.Hbond.Weighted>
-4.8527

> <Gold.Chemscore.Metal.Weighted>
-0.0000

> <Gold.Chemscore.Lipo.Weighted>
-12.9492

> <Gold.Chemscore.Internal_Hbond.Weighted>
0.0000

> <Gold.Chemscore.DEClash.Weighted>
0.7585

> <Gold.Chemscore.DEInternal.Weighted>
1.1099

> <Gold.Chemscore.Rot.Weighted>
3.7365

> <Gold.Chemscore.Internal.Correction.Weighted>
   9.000000E+99

> <Gold.Protein.RotatedTorsions>
[ 6907 6896 6895 6894 ] final  -94.09 input  -60.11 | X-H torsion
[ 7974 7965 7964 7962 ] final   53.11 input  175.53 | X-H torsion
[ 8008 7997 7996 7995 ] final   58.14 input   59.86 | X-H torsion
[ 10167 10162 10161 10158 ] final   -8.59 input  -65.29 | X-H torsion
[ 10718 10713 10712 10709 ] final -136.23 input   66.30 | X-H torsion
[ 10763 10752 10751 10750 ] final  -78.99 input  -60.55 | X-H torsion
[ 11005 11000 10999 10996 ] final   42.48 input  -57.11 | X-H torsion

> <Gold.Protein.ActiveResidues>
 VAL166  LYS551  ARG553  GLY616  TRP617  ASP618  TYR619  PRO620  LYS621  CYS622 
 ASP623  PHE694  ASN695  SER759  ASP760  ASP761  ALA762  ILE779  LEU786  VAL792 
 PHE793  MET794  SER795  GLU796  ALA797  LYS798  CYS799  TRP800  GLU811  SER814 

> <Gold.Protein.RotatedAtoms>
  150.6935  134.1866  159.4268 H   0  0  0  0  0  0  0  0  0  0  0  0  # atno 6907 bound_to 6896
  151.9838  135.0012  160.0568 H   0  0  0  0  0  0  0  0  0  0  0  0  # atno 6908 bound_to 6896
  152.1730  133.4621  159.4956 H   0  0  0  0  0  0  0  0  0  0  0  0  # atno 6909 bound_to 6896
  145.9745  139.4181  143.0170 H   0  0  0  0  0  0  0  0  0  0  0  0  # atno 7974 bound_to 7965
  155.5452  140.3485  155.4456 H   0  0  0  0  0  0  0  0  0  0  0  0  # atno 8008 bound_to 7997
  156.0623  140.1343  156.9953 H   0  0  0  0  0  0  0  0  0  0  0  0  # atno 8009 bound_to 7997
  154.4486  140.0983  156.6520 H   0  0  0  0  0  0  0  0  0  0  0  0  # atno 8010 bound_to 7997
  140.7063  143.5952  150.8853 H   0  0  0  0  0  0  0  0  0  0  0  0  # atno 10167 bound_to 10162
  156.2748  130.7286  151.1265 H   0  0  0  0  0  0  0  0  0  0  0  0  # atno 10718 bound_to 10713
  154.5329  135.5711  153.6774 H   0  0  0  0  0  0  0  0  0  0  0  0  # atno 10763 bound_to 10752
  152.9944  135.6209  154.2605 H   0  0  0  0  0  0  0  0  0  0  0  0  # atno 10764 bound_to 10752
  154.2532  135.2858  155.2788 H   0  0  0  0  0  0  0  0  0  0  0  0  # atno 10765 bound_to 10752
  140.1735  134.4192  155.8243 H   0  0  0  0  0  0  0  0  0  0  0  0  # atno 11005 bound_to 11000
  145.7858  140.9836  143.1075 LP  0  0  0  0  0  0  0  0  0  0  0  0  # atno 17320 bound_to 7965
  144.6845  139.9621  143.7480 LP  0  0  0  0  0  0  0  0  0  0  0  0  # atno 17321 bound_to 7965
  139.9677  143.6092  152.2983 LP  0  0  0  0  0  0  0  0  0  0  0  0  # atno 17342 bound_to 10162
  139.6667  144.7662  151.1859 LP  0  0  0  0  0  0  0  0  0  0  0  0  # atno 17343 bound_to 10162
  157.7296  131.0623  150.5768 LP  0  0  0  0  0  0  0  0  0  0  0  0  # atno 17370 bound_to 10713
  156.5868  130.4318  149.5954 LP  0  0  0  0  0  0  0  0  0  0  0  0  # atno 17371 bound_to 10713
  141.2219  133.6967  156.7805 LP  0  0  0  0  0  0  0  0  0  0  0  0  # atno 17394 bound_to 11000
  140.2350  134.8657  157.3515 LP  0  0  0  0  0  0  0  0  0  0  0  0  # atno 17395 bound_to 11000

$$$$
