AV-unprocessed.smi:2237|AV-procd|sdf|9046|dock1
  -GOLD-   2272012253D 1   1.00000     0.00000
 Structure written by MMmdl.
 55 57  0  0  0  0  0  0  0  0  3 V2000
  153.4890  142.1070  160.5877 C   0  0  0  0  0  0  0  0  0  0  0  0
  152.7419  142.4654  159.3202 C   0  0  0  0  0  0  0  0  0  0  0  0
  152.5345  143.8106  158.9579 C   0  0  0  0  0  0  0  0  0  0  0  0
  151.8311  144.0758  157.7693 C   0  0  0  0  0  0  0  0  0  0  0  0
  151.3664  142.9927  156.9984 C   0  0  0  0  0  0  0  0  0  0  0  0
  151.6155  141.6719  157.4343 C   0  0  0  0  0  0  0  0  0  0  0  0
  151.1080  140.6519  156.5862 N   0  0  0  0  0  0  0  0  0  0  0  0
  150.5436  139.4834  156.9383 C   0  0  0  0  0  0  0  0  0  0  0  0
  150.3516  139.1021  158.0932 O   0  0  0  0  0  0  0  0  0  0  0  0
  150.2020  138.7647  155.8589 N   0  0  0  0  0  0  0  0  0  0  0  0
  149.5776  137.4454  155.8931 C   0  0  2  0  0  0  0  0  0  0  0  0
  150.5648  136.3870  155.3850 C   0  0  0  0  0  0  0  0  0  0  0  0
  149.9172  134.9929  155.3230 C   0  0  0  0  0  0  0  0  0  0  0  0
  148.6860  134.9919  154.4792 N   0  3  1  0  0  0  0  0  0  0  0  0
  148.0498  133.6503  154.2630 C   0  0  2  0  0  0  0  0  0  0  0  0
  149.0483  132.5091  153.9418 C   0  0  0  0  0  0  0  0  0  0  0  0
  148.3321  131.1735  153.6743 C   0  0  0  0  0  0  0  0  0  0  0  0
  147.3508  131.3031  152.5713 N   0  3  1  0  0  0  0  0  0  0  0  0
  146.7266  130.0103  152.2153 C   0  0  0  0  0  0  0  0  0  0  0  0
  146.3467  132.3549  152.8561 C   0  0  0  0  0  0  0  0  0  0  0  0
  147.0226  133.7137  153.1077 C   0  0  0  0  0  0  0  0  0  0  0  0
  147.7086  136.0006  154.9811 C   0  0  0  0  0  0  0  0  0  0  0  0
  148.3136  137.4128  155.0196 C   0  0  0  0  0  0  0  0  0  0  0  0
  152.2951  141.4264  158.5820 N   0  0  0  0  0  0  0  0  0  0  0  0
  154.0060  142.9743  160.9992 H   0  0  0  0  0  0  0  0  0  0  0  0
  154.2313  141.3330  160.3900 H   0  0  0  0  0  0  0  0  0  0  0  0
  152.7945  141.7335  161.3403 H   0  0  0  0  0  0  0  0  0  0  0  0
  152.9034  144.6192  159.5717 H   0  0  0  0  0  0  0  0  0  0  0  0
  151.6505  145.0926  157.4533 H   0  0  0  0  0  0  0  0  0  0  0  0
  150.8245  143.1797  156.0827 H   0  0  0  0  0  0  0  0  0  0  0  0
  151.1901  140.8319  155.5966 H   0  0  0  0  0  0  0  0  0  0  0  0
  150.3965  139.1552  154.9484 H   0  0  0  0  0  0  0  0  0  0  0  0
  149.3100  137.2009  156.9232 H   0  0  0  0  0  0  0  0  0  0  0  0
  150.9241  136.6614  154.3917 H   0  0  0  0  0  0  0  0  0  0  0  0
  151.4425  136.3552  156.0319 H   0  0  0  0  0  0  0  0  0  0  0  0
  150.6693  134.3184  154.9160 H   0  0  0  0  0  0  0  0  0  0  0  0
  149.6745  134.6423  156.3274 H   0  0  0  0  0  0  0  0  0  0  0  0
  147.5318  133.3751  155.1836 H   0  0  0  0  0  0  0  0  0  0  0  0
  149.6538  132.7741  153.0735 H   0  0  0  0  0  0  0  0  0  0  0  0
  149.7359  132.3504  154.7730 H   0  0  0  0  0  0  0  0  0  0  0  0
  149.0689  130.4108  153.4187 H   0  0  0  0  0  0  0  0  0  0  0  0
  147.8238  130.8323  154.5779 H   0  0  0  0  0  0  0  0  0  0  0  0
  146.1386  129.6166  153.0456 H   0  0  0  0  0  0  0  0  0  0  0  0
  147.4871  129.2735  151.9549 H   0  0  0  0  0  0  0  0  0  0  0  0
  146.0677  130.1254  151.3539 H   0  0  0  0  0  0  0  0  0  0  0  0
  145.6616  132.4410  152.0118 H   0  0  0  0  0  0  0  0  0  0  0  0
  145.7481  132.0663  153.7219 H   0  0  0  0  0  0  0  0  0  0  0  0
  146.2419  134.4451  153.3103 H   0  0  0  0  0  0  0  0  0  0  0  0
  147.5186  134.0450  152.1942 H   0  0  0  0  0  0  0  0  0  0  0  0
  146.8201  136.0302  154.3534 H   0  0  0  0  0  0  0  0  0  0  0  0
  147.3725  135.7152  155.9795 H   0  0  0  0  0  0  0  0  0  0  0  0
  147.5731  138.1161  155.4026 H   0  0  0  0  0  0  0  0  0  0  0  0
  148.5509  137.7359  154.0048 H   0  0  0  0  0  0  0  0  0  0  0  0
  148.9856  135.3087  153.5678 H   0  0  0  0  0  0  0  0  0  0  0  0
  147.8662  131.6039  151.7560 H   0  0  0  0  0  0  0  0  0  0  0  0
  1  2  1  0  0  0  0
  1 25  1  0  0  0  0
  1 26  1  0  0  0  0
  1 27  1  0  0  0  0
  2 24  1  0  0  0  0
  2  3  2  0  0  0  0
  3  4  1  0  0  0  0
  3 28  1  0  0  0  0
  4  5  2  0  0  0  0
  4 29  1  0  0  0  0
  5  6  1  0  0  0  0
  5 30  1  0  0  0  0
  6  7  1  0  0  0  0
  6 24  2  0  0  0  0
  7  8  1  0  0  0  0
  7 31  1  0  0  0  0
  8  9  2  0  0  0  0
  8 10  1  0  0  0  0
 10 11  1  0  0  0  0
 10 32  1  0  0  0  0
 11 23  1  0  0  0  0
 11 12  1  0  0  0  0
 11 33  1  0  0  0  0
 12 13  1  0  0  0  0
 12 34  1  0  0  0  0
 12 35  1  0  0  0  0
 13 14  1  0  0  0  0
 13 36  1  0  0  0  0
 13 37  1  0  0  0  0
 14 15  1  0  0  0  0
 14 22  1  0  0  0  0
 14 54  1  0  0  0  0
 15 21  1  0  0  0  0
 15 16  1  0  0  0  0
 15 38  1  0  0  0  0
 16 17  1  0  0  0  0
 16 39  1  0  0  0  0
 16 40  1  0  0  0  0
 17 18  1  0  0  0  0
 17 41  1  0  0  0  0
 17 42  1  0  0  0  0
 18 19  1  0  0  0  0
 18 20  1  0  0  0  0
 18 55  1  0  0  0  0
 19 43  1  0  0  0  0
 19 44  1  0  0  0  0
 19 45  1  0  0  0  0
 20 21  1  0  0  0  0
 20 46  1  0  0  0  0
 20 47  1  0  0  0  0
 21 48  1  0  0  0  0
 21 49  1  0  0  0  0
 22 23  1  0  0  0  0
 22 50  1  0  0  0  0
 22 51  1  0  0  0  0
 23 52  1  0  0  0  0
 23 53  1  0  0  0  0
M  CHG  1  14   1
M  CHG  1  18   1
M  END
> <s_m_source_file>
AV-unprocessed.smi

> <i_m_source_file_index>
2237

> <i_lp_mmshare_version>
43012

> <i_f3d_flags>
0

> <s_epik_input>
W0NIM11jMVtjSF1bY0hdW2NIXWMobjEpW05IXUMoPU8pW05IXVtDSF0yW0NIMl1bQ0gyXU4oW0NIMl1bQ0gyXTIpW0NIXTNbQ0gyXVtDSDJdTihbQ0gzXSlbQ0gyXVtDSDJdMw==

> <s_epik_cmdline>
J2VwaWtfcHl0aG9uJywgJy1waCcsICc3LjAnLCAnLXRuJywgJzgnLCAnLW1hJywgJzIwMCcsICctbWV0YWxfYmluZGluZycsICctaW1hZScsICc8aW5maWxlLm1hZT4nLCAnLW9tYWUnLCAnPG91dGZpbGUubWFlPic=

> <r_epik_Ionization_Penalty>
0.180851

> <r_epik_Ionization_Penalty_Charging>
0.180787

> <r_epik_Ionization_Penalty_Neutral>
6.38624e-05

> <r_epik_State_Penalty>
0.153592

> <r_epik_Charging_Adjusted_Penalty>
0.334379

> <i_epik_Tot_Q>
2

> <i_epik_Tot_abs_Q>
2

> <r_epik_Metal_State_Penalty>
0.153595

> <b_epik_Metal_Only>
0

> <s_lp_Force_Field>
OPLS_2005

> <r_lp_Energy>
40.5749

> <b_lp_Chiralities_Consistent>
1

> <s_lp_Variant>
AV-unprocessed.smi:2237-1

> <Gold.Version>
5.8.1

> <Gold.Id.Protein>
6NUR|6NUR_protein|mol2

> <Gold.PLP.Fitness>
46.6303

> <Gold.PLP.PLP>
-39.2045

> <Gold.PLP.part.hbond>
-2.0000

> <Gold.PLP.part.metal>
0.0000

> <Gold.PLP.part.buried>
-4.2303

> <Gold.PLP.part.nonpolar>
-32.7362

> <Gold.PLP.part.repulsive>
0.1201

> <Gold.PLP.ligand.clash>
0.0000

> <Gold.PLP.ligand.torsion>
0.5066

> <Gold.PLP.Chemscore.Hbond>
2.8000

> <Gold.PLP.Chemscore.CHOScore>
0.0000

> <Gold.PLP.Chemscore.Metal>
0.0000

> <Gold.Chemscore.Hbonds>
donor molecule, donor type, donor heavy atom, donor atom, acceptor molecule, acceptor atom, score
      L1  H    14    54       P1  7948  2.00
      L1  H    18    55       P1 10747  0.80

> <Gold.PLP.Chemscore.Internal.Correction>
0.0389

> <Gold.Rescore>
     Score         DG    S(hbond)    S(metal)    S(lipo)     H(rot)  DE(clash)    DE(int)     intcor
     18.34     -19.48       1.47        0.00     104.71       1.23       0.02       1.13       ----

> <Gold.Chemscore.Fitness>
18.3365

> <Gold.Chemscore.DG>
-19.4845

> <Gold.Chemscore.ZeroCoef>
-5.4800

> <Gold.Chemscore.Hbond>
1.4673

> <Gold.Chemscore.Metal>
0.0000

> <Gold.Chemscore.Lipo>
104.7095

> <Gold.Chemscore.Internal_Hbond>
0.0000

> <Gold.Chemscore.DEClash>
0.0197

> <Gold.Chemscore.DEInternal>
1.1283

> <Gold.Chemscore.Rot>
1.2295

> <Gold.Chemscore.Internal.Correction>
   9.000000E+99

> <Gold.Chemscore.Hbonds>
donor molecule, donor type, donor heavy atom, donor atom, acceptor molecule, acceptor atom, score
      L1  H    14    54       P1  7948  0.60
      L1  H    18    55       P1 10747  0.77

> <Gold.Chemscore.Hbond.Weighted>
-4.9009

> <Gold.Chemscore.Metal.Weighted>
-0.0000

> <Gold.Chemscore.Lipo.Weighted>
-12.2510

> <Gold.Chemscore.Internal_Hbond.Weighted>
0.0000

> <Gold.Chemscore.DEClash.Weighted>
0.0197

> <Gold.Chemscore.DEInternal.Weighted>
1.1283

> <Gold.Chemscore.Rot.Weighted>
3.1474

> <Gold.Chemscore.Internal.Correction.Weighted>
   9.000000E+99

> <Gold.Protein.RotatedTorsions>
[ 6907 6896 6895 6894 ] final  150.36 input  -60.11 | X-H torsion
[ 7974 7965 7964 7962 ] final  163.11 input  175.53 | X-H torsion
[ 8008 7997 7996 7995 ] final  140.23 input   59.86 | X-H torsion
[ 10167 10162 10161 10158 ] final  -30.17 input  -65.29 | X-H torsion
[ 10718 10713 10712 10709 ] final  -40.01 input   66.30 | X-H torsion
[ 10763 10752 10751 10750 ] final   89.13 input  -60.55 | X-H torsion
[ 11005 11000 10999 10996 ] final -116.97 input  -57.11 | X-H torsion

> <Gold.Protein.ActiveResidues>
 VAL166  LYS551  ARG553  GLY616  TRP617  ASP618  TYR619  PRO620  LYS621  CYS622 
 ASP623  PHE694  ASN695  SER759  ASP760  ASP761  ALA762  ILE779  LEU786  VAL792 
 PHE793  MET794  SER795  GLU796  ALA797  LYS798  CYS799  TRP800  GLU811  SER814 

> <Gold.Protein.RotatedAtoms>
  152.1154  133.4324  159.4650 H   0  0  0  0  0  0  0  0  0  0  0  0  # atno 6907 bound_to 6896
  150.6869  134.2598  159.4554 H   0  0  0  0  0  0  0  0  0  0  0  0  # atno 6908 bound_to 6896
  152.0470  134.9676  160.0625 H   0  0  0  0  0  0  0  0  0  0  0  0  # atno 6909 bound_to 6896
  144.7605  139.8135  143.6334 H   0  0  0  0  0  0  0  0  0  0  0  0  # atno 7974 bound_to 7965
  156.2981  140.2347  156.4368 H   0  0  0  0  0  0  0  0  0  0  0  0  # atno 8008 bound_to 7997
  154.8222  140.0437  157.1439 H   0  0  0  0  0  0  0  0  0  0  0  0  # atno 8009 bound_to 7997
  154.9302  140.3015  155.5175 H   0  0  0  0  0  0  0  0  0  0  0  0  # atno 8010 bound_to 7997
  140.7252  143.3870  151.1497 H   0  0  0  0  0  0  0  0  0  0  0  0  # atno 10167 bound_to 10162
  156.2861  130.4222  149.8287 H   0  0  0  0  0  0  0  0  0  0  0  0  # atno 10718 bound_to 10713
  153.1839  135.4481  155.0063 H   0  0  0  0  0  0  0  0  0  0  0  0  # atno 10763 bound_to 10752
  154.8048  135.3270  154.7462 H   0  0  0  0  0  0  0  0  0  0  0  0  # atno 10764 bound_to 10752
  153.7923  135.6969  153.4924 H   0  0  0  0  0  0  0  0  0  0  0  0  # atno 10765 bound_to 10752
  141.0386  133.9870  157.3030 H   0  0  0  0  0  0  0  0  0  0  0  0  # atno 11005 bound_to 11000
  146.1663  139.4795  142.9956 LP  0  0  0  0  0  0  0  0  0  0  0  0  # atno 17320 bound_to 7965
  145.6635  141.0234  143.1696 LP  0  0  0  0  0  0  0  0  0  0  0  0  # atno 17321 bound_to 7965
  139.7469  143.8838  152.3066 LP  0  0  0  0  0  0  0  0  0  0  0  0  # atno 17342 bound_to 10162
  139.8679  144.7084  150.9022 LP  0  0  0  0  0  0  0  0  0  0  0  0  # atno 17343 bound_to 10162
  156.5717  130.8427  151.3358 LP  0  0  0  0  0  0  0  0  0  0  0  0  # atno 17370 bound_to 10713
  157.7329  130.9722  150.1950 LP  0  0  0  0  0  0  0  0  0  0  0  0  # atno 17371 bound_to 10713
  139.9259  135.0201  156.8232 LP  0  0  0  0  0  0  0  0  0  0  0  0  # atno 17394 bound_to 11000
  140.6275  133.9936  155.7647 LP  0  0  0  0  0  0  0  0  0  0  0  0  # atno 17395 bound_to 11000

$$$$
