AV-unprocessed.smi:2820|AV-procd|sdf|10855|dock5
  -GOLD-   2272015303D 1   1.00000     0.00000
 Structure written by MMmdl.
 30 31  0  0  0  0  0  0  0  0  2 V2000
  151.7326  138.1392  154.5266 C   0  0  0  0  0  0  0  0  0  0  0  0
  150.9010  139.3315  154.5135 N   0  0  0  0  0  0  0  0  0  0  0  0
  150.9763  140.2689  155.5524 C   0  0  0  0  0  0  0  0  0  0  0  0
  151.6836  139.9310  156.7266 C   0  0  0  0  0  0  0  0  0  0  0  0
  151.7707  140.8602  157.7836 C   0  0  0  0  0  0  0  0  0  0  0  0
  151.1457  142.1213  157.6502 C   0  0  0  0  0  0  0  0  0  0  0  0
  151.1752  143.1082  158.6441 N   0  0  0  0  0  0  0  0  0  0  0  0
  151.8662  142.6814  159.8542 C   0  0  0  0  0  0  0  0  0  0  0  0
  151.7642  143.7744  160.9322 C   0  0  0  0  0  0  0  0  0  0  0  0
  152.2762  144.9998  160.4167 O   0  0  0  0  0  0  0  0  0  0  0  0
  151.5446  145.4499  159.2801 C   0  0  0  0  0  0  0  0  0  0  0  0
  151.6421  144.4009  158.1590 C   0  0  0  0  0  0  0  0  0  0  0  0
  150.4779  142.4081  156.5116 N   0  3  0  0  0  0  0  0  0  0  0  0
  150.3715  141.5461  155.4769 C   0  0  0  0  0  0  0  0  0  0  0  0
  151.5309  137.5366  153.6409 H   0  0  0  0  0  0  0  0  0  0  0  0
  151.5237  137.5295  155.4061 H   0  0  0  0  0  0  0  0  0  0  0  0
  152.7906  138.4035  154.5228 H   0  0  0  0  0  0  0  0  0  0  0  0
  150.2640  139.4746  153.7426 H   0  0  0  0  0  0  0  0  0  0  0  0
  152.1582  138.9650  156.8208 H   0  0  0  0  0  0  0  0  0  0  0  0
  152.3108  140.6026  158.6830 H   0  0  0  0  0  0  0  0  0  0  0  0
  151.4293  141.7519  160.2218 H   0  0  0  0  0  0  0  0  0  0  0  0
  152.9148  142.4803  159.6306 H   0  0  0  0  0  0  0  0  0  0  0  0
  150.7307  143.9071  161.2562 H   0  0  0  0  0  0  0  0  0  0  0  0
  152.3404  143.4903  161.8127 H   0  0  0  0  0  0  0  0  0  0  0  0
  150.5042  145.6337  159.5531 H   0  0  0  0  0  0  0  0  0  0  0  0
  151.9588  146.4005  158.9440 H   0  0  0  0  0  0  0  0  0  0  0  0
  152.6755  144.3190  157.8198 H   0  0  0  0  0  0  0  0  0  0  0  0
  151.0434  144.7128  157.3021 H   0  0  0  0  0  0  0  0  0  0  0  0
  149.8076  141.9114  154.6311 H   0  0  0  0  0  0  0  0  0  0  0  0
  150.0312  143.3216  156.4282 H   0  0  0  0  0  0  0  0  0  0  0  0
  1  2  1  0  0  0  0
  1 15  1  0  0  0  0
  1 16  1  0  0  0  0
  1 17  1  0  0  0  0
  2  3  1  0  0  0  0
  2 18  1  0  0  0  0
  3 14  1  0  0  0  0
  3  4  2  0  0  0  0
  4  5  1  0  0  0  0
  4 19  1  0  0  0  0
  5  6  2  0  0  0  0
  5 20  1  0  0  0  0
  6  7  1  0  0  0  0
  6 13  1  0  0  0  0
  7 12  1  0  0  0  0
  7  8  1  0  0  0  0
  8  9  1  0  0  0  0
  8 21  1  0  0  0  0
  8 22  1  0  0  0  0
  9 10  1  0  0  0  0
  9 23  1  0  0  0  0
  9 24  1  0  0  0  0
 10 11  1  0  0  0  0
 11 12  1  0  0  0  0
 11 25  1  0  0  0  0
 11 26  1  0  0  0  0
 12 27  1  0  0  0  0
 12 28  1  0  0  0  0
 13 14  2  0  0  0  0
 13 30  1  0  0  0  0
 14 29  1  0  0  0  0
M  CHG  1  13   1
M  END
> <s_m_source_file>
AV-unprocessed.smi

> <i_m_source_file_index>
2820

> <i_lp_mmshare_version>
43012

> <i_f3d_flags>
0

> <s_epik_input>
W0NIM11bTkhdYzFbY0hdW2NIXWMobltjSF0xKU4yW0NIMl1bQ0gyXU9bQ0gyXVtDSDJdMg==

> <s_epik_cmdline>
J2VwaWtfcHl0aG9uJywgJy1waCcsICc3LjAnLCAnLXRuJywgJzgnLCAnLW1hJywgJzIwMCcsICctbWV0YWxfYmluZGluZycsICctaW1hZScsICc8aW5maWxlLm1hZT4nLCAnLW9tYWUnLCAnPG91dGZpbGUubWFlPic=

> <r_lp_tautomer_probability>
0.999846

> <r_epik_Ionization_Penalty>
1.60145

> <r_epik_Ionization_Penalty_Charging>
1.60145

> <r_epik_Ionization_Penalty_Neutral>
8.44735e-08

> <r_epik_State_Penalty>
1.69965

> <r_epik_Charging_Adjusted_Penalty>
3.3011

> <i_epik_Tot_Q>
1

> <i_epik_Tot_abs_Q>
1

> <r_epik_Metal_State_Penalty>
5.75781

> <b_epik_Metal_Only>
0

> <s_lp_Force_Field>
OPLS_2005

> <r_lp_Energy>
26.3697

> <b_lp_Chiralities_Consistent>
1

> <s_lp_Variant>
AV-unprocessed.smi:2820-2

> <Gold.Version>
5.8.1

> <Gold.Id.Protein>
6NUR|6NUR_protein|mol2

> <Gold.PLP.Fitness>
36.8572

> <Gold.PLP.PLP>
-30.9345

> <Gold.PLP.part.hbond>
-1.0000

> <Gold.PLP.part.metal>
0.0000

> <Gold.PLP.part.buried>
-3.2829

> <Gold.PLP.part.nonpolar>
-27.1608

> <Gold.PLP.part.repulsive>
0.9460

> <Gold.PLP.ligand.clash>
0.0000

> <Gold.PLP.ligand.torsion>
0.0860

> <Gold.PLP.Chemscore.Hbond>
2.0000

> <Gold.PLP.Chemscore.CHOScore>
0.0000

> <Gold.PLP.Chemscore.Metal>
0.0000

> <Gold.Chemscore.Hbonds>
donor molecule, donor type, donor heavy atom, donor atom, acceptor molecule, acceptor atom, score
      L1  H    13    30       P1  8028  2.00

> <Gold.PLP.Chemscore.Internal.Correction>
0.0946

> <Gold.Rescore>
     Score         DG    S(hbond)    S(metal)    S(lipo)     H(rot)  DE(clash)    DE(int)     intcor
     18.13     -18.29       1.83        0.00      79.12       1.00       0.05       0.10       ----

> <Gold.Chemscore.Fitness>
18.1278

> <Gold.Chemscore.DG>
-18.2867

> <Gold.Chemscore.ZeroCoef>
-5.4800

> <Gold.Chemscore.Hbond>
1.8291

> <Gold.Chemscore.Metal>
0.0000

> <Gold.Chemscore.Lipo>
79.1246

> <Gold.Chemscore.Internal_Hbond>
0.0000

> <Gold.Chemscore.DEClash>
0.0540

> <Gold.Chemscore.DEInternal>
0.1048

> <Gold.Chemscore.Rot>
1.0000

> <Gold.Chemscore.Internal.Correction>
   9.000000E+99

> <Gold.Chemscore.Hbonds>
donor molecule, donor type, donor heavy atom, donor atom, acceptor molecule, acceptor atom, score
      L1  H    13    30       P1  8028  0.98

> <Gold.Chemscore.Hbond.Weighted>
-6.1091

> <Gold.Chemscore.Metal.Weighted>
-0.0000

> <Gold.Chemscore.Lipo.Weighted>
-9.2576

> <Gold.Chemscore.Internal_Hbond.Weighted>
0.0000

> <Gold.Chemscore.DEClash.Weighted>
0.0540

> <Gold.Chemscore.DEInternal.Weighted>
0.1048

> <Gold.Chemscore.Rot.Weighted>
2.5600

> <Gold.Chemscore.Internal.Correction.Weighted>
   9.000000E+99

> <Gold.Protein.RotatedTorsions>
[ 6907 6896 6895 6894 ] final  -84.45 input  -60.11 | X-H torsion
[ 7974 7965 7964 7962 ] final -104.67 input  175.53 | X-H torsion
[ 8008 7997 7996 7995 ] final   97.13 input   59.86 | X-H torsion
[ 10167 10162 10161 10158 ] final  169.38 input  -65.29 | X-H torsion
[ 10718 10713 10712 10709 ] final  177.09 input   66.30 | X-H torsion
[ 10763 10752 10751 10750 ] final -133.90 input  -60.55 | X-H torsion
[ 11005 11000 10999 10996 ] final  -14.88 input  -57.11 | X-H torsion

> <Gold.Protein.ActiveResidues>
 VAL166  LYS551  ARG553  GLY616  TRP617  ASP618  TYR619  PRO620  LYS621  CYS622 
 ASP623  PHE694  ASN695  SER759  ASP760  ASP761  ALA762  ILE779  LEU786  VAL792 
 PHE793  MET794  SER795  GLU796  ALA797  LYS798  CYS799  TRP800  GLU811  SER814 

> <Gold.Protein.RotatedAtoms>
  150.6876  134.3357  159.4845 H   0  0  0  0  0  0  0  0  0  0  0  0  # atno 6907 bound_to 6896
  152.1216  134.9198  160.0572 H   0  0  0  0  0  0  0  0  0  0  0  0  # atno 6908 bound_to 6896
  152.0402  133.3939  159.4371 H   0  0  0  0  0  0  0  0  0  0  0  0  # atno 6909 bound_to 6896
  145.2402  140.9202  143.3154 H   0  0  0  0  0  0  0  0  0  0  0  0  # atno 7974 bound_to 7965
  156.0869  140.3263  155.7765 H   0  0  0  0  0  0  0  0  0  0  0  0  # atno 8008 bound_to 7997
  155.5061  140.0573  157.2948 H   0  0  0  0  0  0  0  0  0  0  0  0  # atno 8009 bound_to 7997
  154.4614  140.1968  156.0250 H   0  0  0  0  0  0  0  0  0  0  0  0  # atno 8010 bound_to 7997
  139.4991  144.3712  151.9722 H   0  0  0  0  0  0  0  0  0  0  0  0  # atno 10167 bound_to 10162
  156.9105  130.9908  151.3021 H   0  0  0  0  0  0  0  0  0  0  0  0  # atno 10718 bound_to 10713
  154.8726  135.3751  154.4649 H   0  0  0  0  0  0  0  0  0  0  0  0  # atno 10763 bound_to 10752
  153.5314  135.7028  153.5686 H   0  0  0  0  0  0  0  0  0  0  0  0  # atno 10764 bound_to 10752
  153.3889  135.3977  155.1875 H   0  0  0  0  0  0  0  0  0  0  0  0  # atno 10765 bound_to 10752
  140.7909  133.8288  155.9379 H   0  0  0  0  0  0  0  0  0  0  0  0  # atno 11005 bound_to 11000
  144.9596  139.3994  143.6362 LP  0  0  0  0  0  0  0  0  0  0  0  0  # atno 17320 bound_to 7965
  146.3330  139.8642  142.8851 LP  0  0  0  0  0  0  0  0  0  0  0  0  # atno 17321 bound_to 7965
  140.3148  144.3496  150.6024 LP  0  0  0  0  0  0  0  0  0  0  0  0  # atno 17342 bound_to 10162
  140.5770  143.2175  151.7498 LP  0  0  0  0  0  0  0  0  0  0  0  0  # atno 17343 bound_to 10162
  157.5970  130.8485  149.8744 LP  0  0  0  0  0  0  0  0  0  0  0  0  # atno 17370 bound_to 10713
  156.0538  130.3712  150.1139 LP  0  0  0  0  0  0  0  0  0  0  0  0  # atno 17371 bound_to 10713
  140.9390  134.1925  157.4811 LP  0  0  0  0  0  0  0  0  0  0  0  0  # atno 17394 bound_to 11000
  139.8731  134.9864  156.5323 LP  0  0  0  0  0  0  0  0  0  0  0  0  # atno 17395 bound_to 11000

$$$$
