AV-unprocessed.smi:3340|AV-procd|sdf|12880|dock8
  -GOLD-   2272019283D 1   1.00000     0.00000
 Structure written by MMmdl.
 42 43  0  0  0  0  0  0  0  0  2 V2000
  150.9230  135.4412  155.0305 C   0  0  0  0  0  0  0  0  0  0  0  0
  150.1962  136.3271  156.0447 C   0  0  0  0  0  0  0  0  0  0  0  0
  148.9674  136.3785  155.9889 O   0  0  0  0  0  0  0  0  0  0  0  0
  150.9173  137.0192  156.9595 N   0  0  0  0  0  0  0  0  0  0  0  0
  150.2994  137.9313  157.9344 C   0  0  0  0  0  0  0  0  0  0  0  0
  150.7988  139.3658  157.6689 C   0  0  0  0  0  0  0  0  0  0  0  0
  152.2707  139.3853  157.7704 N   0  0  0  0  0  0  0  0  0  0  0  0
  153.0003  139.9778  158.7489 C   0  0  0  0  0  0  0  0  0  0  0  0
  154.1868  139.7197  158.9522 O   0  0  0  0  0  0  0  0  0  0  0  0
  152.3373  140.9173  159.4487 N   0  0  0  0  0  0  0  0  0  0  0  0
  152.8445  141.7457  160.5469 C   0  0  1  0  0  0  0  0  0  0  0  0
  153.8973  140.9906  161.3759 C   0  0  0  0  0  0  0  0  0  0  0  0
  153.3531  143.1293  160.0803 C   0  0  0  0  0  0  0  0  0  0  0  0
  152.3352  143.8978  159.3571 N   0  0  0  0  0  0  0  0  0  0  0  0
  151.6262  144.9773  159.8178 C   0  0  0  0  0  0  0  0  0  0  0  0
  150.7947  145.3625  158.7979 C   0  0  0  0  0  0  0  0  0  0  0  0
  151.0296  144.5009  157.7598 N   0  3  0  0  0  0  0  0  0  0  0  0
  151.9649  143.6092  158.1030 C   0  0  0  0  0  0  0  0  0  0  0  0
  152.8780  138.4804  156.7828 C   0  0  0  0  0  0  0  0  0  0  0  0
  152.3861  137.0437  157.0479 C   0  0  0  0  0  0  0  0  0  0  0  0
  151.5991  136.0337  154.4138 H   0  0  0  0  0  0  0  0  0  0  0  0
  150.2092  134.9532  154.3659 H   0  0  0  0  0  0  0  0  0  0  0  0
  151.4927  134.6609  155.5358 H   0  0  0  0  0  0  0  0  0  0  0  0
  149.2093  137.9143  157.8977 H   0  0  0  0  0  0  0  0  0  0  0  0
  150.5703  137.6163  158.9433 H   0  0  0  0  0  0  0  0  0  0  0  0
  150.5069  139.6837  156.6667 H   0  0  0  0  0  0  0  0  0  0  0  0
  150.2963  140.0517  158.3502 H   0  0  0  0  0  0  0  0  0  0  0  0
  151.3705  141.0664  159.1979 H   0  0  0  0  0  0  0  0  0  0  0  0
  151.9884  141.9135  161.2012 H   0  0  0  0  0  0  0  0  0  0  0  0
  154.1792  141.5624  162.2602 H   0  0  0  0  0  0  0  0  0  0  0  0
  154.8065  140.8039  160.8039 H   0  0  0  0  0  0  0  0  0  0  0  0
  153.5138  140.0282  161.7166 H   0  0  0  0  0  0  0  0  0  0  0  0
  153.6636  143.7249  160.9401 H   0  0  0  0  0  0  0  0  0  0  0  0
  154.2297  143.0401  159.4381 H   0  0  0  0  0  0  0  0  0  0  0  0
  151.7651  145.3814  160.8105 H   0  0  0  0  0  0  0  0  0  0  0  0
  150.0725  146.1634  158.7349 H   0  0  0  0  0  0  0  0  0  0  0  0
  152.3479  142.8147  157.4875 H   0  0  0  0  0  0  0  0  0  0  0  0
  152.5909  138.7978  155.7793 H   0  0  0  0  0  0  0  0  0  0  0  0
  153.9683  138.5064  156.8004 H   0  0  0  0  0  0  0  0  0  0  0  0
  152.6884  136.7206  158.0453 H   0  0  0  0  0  0  0  0  0  0  0  0
  152.8781  136.3611  156.3569 H   0  0  0  0  0  0  0  0  0  0  0  0
  150.5630  144.5308  156.8618 H   0  0  0  0  0  0  0  0  0  0  0  0
  1  2  1  0  0  0  0
  1 21  1  0  0  0  0
  1 22  1  0  0  0  0
  1 23  1  0  0  0  0
  2  3  2  0  0  0  0
  2  4  1  0  0  0  0
  4 20  1  0  0  0  0
  4  5  1  0  0  0  0
  5  6  1  0  0  0  0
  5 24  1  0  0  0  0
  5 25  1  0  0  0  0
  6  7  1  0  0  0  0
  6 26  1  0  0  0  0
  6 27  1  0  0  0  0
  7  8  1  0  0  0  0
  7 19  1  0  0  0  0
  8  9  2  0  0  0  0
  8 10  1  0  0  0  0
 10 11  1  0  0  0  0
 10 28  1  0  0  0  0
 11 12  1  0  0  0  0
 11 13  1  0  0  0  0
 11 29  1  0  0  0  0
 12 30  1  0  0  0  0
 12 31  1  0  0  0  0
 12 32  1  0  0  0  0
 13 14  1  0  0  0  0
 13 33  1  0  0  0  0
 13 34  1  0  0  0  0
 14 18  1  0  0  0  0
 14 15  1  0  0  0  0
 15 16  2  0  0  0  0
 15 35  1  0  0  0  0
 16 17  1  0  0  0  0
 16 36  1  0  0  0  0
 17 18  2  0  0  0  0
 17 42  1  0  0  0  0
 18 37  1  0  0  0  0
 19 20  1  0  0  0  0
 19 38  1  0  0  0  0
 19 39  1  0  0  0  0
 20 40  1  0  0  0  0
 20 41  1  0  0  0  0
M  CHG  1  17   1
M  END
> <s_m_source_file>
AV-unprocessed.smi

> <i_m_source_file_index>
3340

> <i_lp_mmshare_version>
43012

> <i_f3d_flags>
0

> <s_epik_input>
W0NIM11DKD1PKU4xW0NIMl1bQ0gyXU4oW0NIMl1bQ0gyXTEpQyg9TylbTkhdW0NASF0oW0NIM10pW0NIMl1uMltjSF1bY0hdbltjSF0y

> <s_epik_cmdline>
J2VwaWtfcHl0aG9uJywgJy1waCcsICc3LjAnLCAnLXRuJywgJzgnLCAnLW1hJywgJzIwMCcsICctbWV0YWxfYmluZGluZycsICctaW1hZScsICc8aW5maWxlLm1hZT4nLCAnLW9tYWUnLCAnPG91dGZpbGUubWFlPic=

> <r_lp_tautomer_probability>
1

> <r_epik_Ionization_Penalty>
0.254791

> <r_epik_Ionization_Penalty_Charging>
0

> <r_epik_Ionization_Penalty_Neutral>
0.254791

> <r_epik_State_Penalty>
0.246235

> <r_epik_Charging_Adjusted_Penalty>
0.246235

> <i_epik_Tot_Q>
1

> <i_epik_Tot_abs_Q>
1

> <r_epik_Metal_State_Penalty>
0.536161

> <b_epik_Metal_Only>
0

> <s_lp_Force_Field>
OPLS_2005

> <r_lp_Energy>
52.654

> <b_lp_Chiralities_Consistent>
1

> <s_lp_Variant>
AV-unprocessed.smi:3340-2

> <Gold.Version>
5.8.1

> <Gold.Id.Protein>
6NUR|6NUR_protein|mol2

> <Gold.PLP.Fitness>
44.9335

> <Gold.PLP.PLP>
-37.1092

> <Gold.PLP.part.hbond>
-2.0000

> <Gold.PLP.part.metal>
0.0000

> <Gold.PLP.part.buried>
-5.6201

> <Gold.PLP.part.nonpolar>
-30.1618

> <Gold.PLP.part.repulsive>
0.2324

> <Gold.PLP.ligand.clash>
0.0000

> <Gold.PLP.ligand.torsion>
0.6265

> <Gold.PLP.Chemscore.Hbond>
3.0000

> <Gold.PLP.Chemscore.CHOScore>
0.0000

> <Gold.PLP.Chemscore.Metal>
0.0000

> <Gold.Chemscore.Hbonds>
donor molecule, donor type, donor heavy atom, donor atom, acceptor molecule, acceptor atom, score
      L1  H    17    42       P1  8028  1.95
      P1  H  7997  8010       L1     9  0.95

> <Gold.PLP.Chemscore.Internal.Correction>
0.0773

> <Gold.Rescore>
     Score         DG    S(hbond)    S(metal)    S(lipo)     H(rot)  DE(clash)    DE(int)     intcor
     13.12     -16.14       1.93        0.00      73.06       1.70       0.00       3.02       ----

> <Gold.Chemscore.Fitness>
13.1245

> <Gold.Chemscore.DG>
-16.1444

> <Gold.Chemscore.ZeroCoef>
-5.4800

> <Gold.Chemscore.Hbond>
1.9349

> <Gold.Chemscore.Metal>
0.0000

> <Gold.Chemscore.Lipo>
73.0552

> <Gold.Chemscore.Internal_Hbond>
0.0000

> <Gold.Chemscore.DEClash>
0.0000

> <Gold.Chemscore.DEInternal>
3.0199

> <Gold.Chemscore.Rot>
1.6975

> <Gold.Chemscore.Internal.Correction>
   9.000000E+99

> <Gold.Chemscore.Hbonds>
donor molecule, donor type, donor heavy atom, donor atom, acceptor molecule, acceptor atom, score
      L1  H    17    42       P1  8028  0.81
      P1  H  7997  8010       L1     9  0.21

> <Gold.Chemscore.Hbond.Weighted>
-6.4625

> <Gold.Chemscore.Metal.Weighted>
-0.0000

> <Gold.Chemscore.Lipo.Weighted>
-8.5475

> <Gold.Chemscore.Internal_Hbond.Weighted>
0.0000

> <Gold.Chemscore.DEClash.Weighted>
0.0000

> <Gold.Chemscore.DEInternal.Weighted>
3.0199

> <Gold.Chemscore.Rot.Weighted>
4.3455

> <Gold.Chemscore.Internal.Correction.Weighted>
   9.000000E+99

> <Gold.Protein.RotatedTorsions>
[ 6907 6896 6895 6894 ] final  -35.67 input  -60.11 | X-H torsion
[ 7974 7965 7964 7962 ] final -170.44 input  175.53 | X-H torsion
[ 8008 7997 7996 7995 ] final   16.31 input   59.86 | X-H torsion
[ 10167 10162 10161 10158 ] final  141.42 input  -65.29 | X-H torsion
[ 10718 10713 10712 10709 ] final   16.28 input   66.30 | X-H torsion
[ 10763 10752 10751 10750 ] final   -6.45 input  -60.55 | X-H torsion
[ 11005 11000 10999 10996 ] final  -58.82 input  -57.11 | X-H torsion

> <Gold.Protein.ActiveResidues>
 VAL166  LYS551  ARG553  GLY616  TRP617  ASP618  TYR619  PRO620  LYS621  CYS622 
 ASP623  PHE694  ASN695  SER759  ASP760  ASP761  ALA762  ILE779  LEU786  VAL792 
 PHE793  MET794  SER795  GLU796  ALA797  LYS798  CYS799  TRP800  GLU811  SER814 

> <Gold.Protein.RotatedAtoms>
  151.0369  134.9579  159.8140 H   0  0  0  0  0  0  0  0  0  0  0  0  # atno 6907 bound_to 6896
  152.5356  134.2708  159.8981 H   0  0  0  0  0  0  0  0  0  0  0  0  # atno 6908 bound_to 6896
  151.2719  133.4208  159.2656 H   0  0  0  0  0  0  0  0  0  0  0  0  # atno 6909 bound_to 6896
  144.7170  140.2072  143.6331 H   0  0  0  0  0  0  0  0  0  0  0  0  # atno 7974 bound_to 7965
  154.8751  140.2964  155.5458 H   0  0  0  0  0  0  0  0  0  0  0  0  # atno 8008 bound_to 7997
  156.3022  140.2453  156.3679 H   0  0  0  0  0  0  0  0  0  0  0  0  # atno 8009 bound_to 7997
  154.8776  140.0399  157.1752 H   0  0  0  0  0  0  0  0  0  0  0  0  # atno 8010 bound_to 7997
  139.5021  144.6172  151.6135 H   0  0  0  0  0  0  0  0  0  0  0  0  # atno 10167 bound_to 10162
  157.0657  130.6327  149.5795 H   0  0  0  0  0  0  0  0  0  0  0  0  # atno 10718 bound_to 10713
  153.4126  135.7008  153.6349 H   0  0  0  0  0  0  0  0  0  0  0  0  # atno 10763 bound_to 10752
  153.4837  135.3688  155.2456 H   0  0  0  0  0  0  0  0  0  0  0  0  # atno 10764 bound_to 10752
  154.8718  135.4072  154.3480 H   0  0  0  0  0  0  0  0  0  0  0  0  # atno 10765 bound_to 10752
  141.1223  133.6613  156.4978 H   0  0  0  0  0  0  0  0  0  0  0  0  # atno 11005 bound_to 11000
  145.8625  139.2230  143.1708 LP  0  0  0  0  0  0  0  0  0  0  0  0  # atno 17320 bound_to 7965
  146.0160  140.8392  142.9947 LP  0  0  0  0  0  0  0  0  0  0  0  0  # atno 17321 bound_to 7965
  140.5864  143.9857  150.6298 LP  0  0  0  0  0  0  0  0  0  0  0  0  # atno 17342 bound_to 10162
  140.3023  143.3252  152.0960 LP  0  0  0  0  0  0  0  0  0  0  0  0  # atno 17343 bound_to 10162
  155.9965  130.5035  150.7500 LP  0  0  0  0  0  0  0  0  0  0  0  0  # atno 17370 bound_to 10713
  157.4919  131.0911  151.0417 LP  0  0  0  0  0  0  0  0  0  0  0  0  # atno 17371 bound_to 10713
  140.4470  134.6963  157.5021 LP  0  0  0  0  0  0  0  0  0  0  0  0  # atno 17394 bound_to 11000
  140.0191  134.6575  155.9266 LP  0  0  0  0  0  0  0  0  0  0  0  0  # atno 17395 bound_to 11000

$$$$
