#       Name:                AV-unprocessed.smi:2780
#       Creating user name   scv26
#       Creation time:       Fri Mar 27 15:15:28 2020


#       File generated by GOLD software.
#

@<TRIPOS>MOLECULE
AV-unprocessed.smi:2780
    49    51     1
SMALL
NO_CHARGES


@<TRIPOS>ATOM
      1 ****        -0.6537   0.6620   2.3528 C.3            1 S1                 0.0000
      2 ****        -1.8097   1.0492   1.4457 C.2            1 S1                 0.0000
      3 ****        -2.8726   1.6980   1.9587 C.2            1 S1                 0.0000
      4 ****        -4.0419   2.1976   1.1424 C.3            1 S1                 0.0000
      5 ****        -3.6619   2.3357  -0.3336 C.3            1 S1                 0.0000
      6 ****        -2.9825   1.0610  -0.8601 C.3            1 S1                 0.0000
      7 ****        -2.7065   1.2141  -2.3687 C.3            1 S1                 0.0000
      8 ****        -1.6983   0.6969  -0.0522 C.3            1 S1                 0.0000
      9 ****        -1.3233  -0.7898  -0.2894 C.3            1 S1                 0.0000
     10 ****         0.1014  -1.0720  -0.0201 N.4            1 S1                 1.0000
     11 ****         0.4627  -2.4997  -0.1192 C.3            1 S1                 0.0000
     12 ****         1.9612  -2.7234   0.1376 C.3            1 S1                 0.0000
     13 ****         2.7943  -2.1528  -0.9088 N.pl3          1 S1                 0.0000
     14 ****         2.8825  -2.5233  -2.1962 C.2            1 S1                 0.0000
     15 ****         3.7599  -1.8340  -2.9234 N.2            1 S1                 0.0000
     16 ****         4.3159  -0.9352  -2.0359 N.2            1 S1                 0.0000
     17 ****         3.7070  -1.1596  -0.8657 C.2            1 S1                 0.0000
     18 ****         4.0352  -0.4232   0.3940 C.3            1 S1                 0.0000
     19 ****         3.0792   0.6046   0.9569 C.3            1 S1                 0.0000
     20 ****         4.3989   1.0456   0.3813 C.3            1 S1                 0.0000
     21 ****         0.2884   1.0273   1.9454 H              1 S1                 0.0000
     22 ****        -0.5952  -0.4193   2.4740 H              1 S1                 0.0000
     23 ****        -0.7693   1.0933   3.3480 H              1 S1                 0.0000
     24 ****        -2.9187   1.9049   3.0183 H              1 S1                 0.0000
     25 ****        -4.8765   1.5071   1.2673 H              1 S1                 0.0000
     26 ****        -4.3634   3.1641   1.5317 H              1 S1                 0.0000
     27 ****        -4.5556   2.5623  -0.9165 H              1 S1                 0.0000
     28 ****        -2.9891   3.1854  -0.4582 H              1 S1                 0.0000
     29 ****        -3.7009   0.2487  -0.7363 H              1 S1                 0.0000
     30 ****        -1.9844   2.0088  -2.5594 H              1 S1                 0.0000
     31 ****        -3.6204   1.4664  -2.9077 H              1 S1                 0.0000
     32 ****        -2.3188   0.3011  -2.8173 H              1 S1                 0.0000
     33 ****        -0.8891   1.3197  -0.4371 H              1 S1                 0.0000
     34 ****        -1.9504  -1.4299   0.3329 H              1 S1                 0.0000
     35 ****        -1.5138  -1.0863  -1.3196 H              1 S1                 0.0000
     36 ****         0.6612  -0.5491  -0.6786 H              1 S1                 0.0000
     37 ****        -0.1179  -3.0579   0.6163 H              1 S1                 0.0000
     38 ****         0.1834  -2.8839  -1.1013 H              1 S1                 0.0000
     39 ****         2.2495  -2.3130   1.1056 H              1 S1                 0.0000
     40 ****         2.1701  -3.7929   0.1809 H              1 S1                 0.0000
     41 ****         2.2893  -3.3234  -2.6146 H              1 S1                 0.0000
     42 ****         4.5628  -1.0697   1.0928 H              1 S1                 0.0000
     43 ****         2.1886   0.8449   0.3803 H              1 S1                 0.0000
     44 ****         2.9622   0.6433   2.0379 H              1 S1                 0.0000
     45 ****         5.1653   1.3782   1.0783 H              1 S1                 0.0000
     46 ****         4.3784   1.5693  -0.5725 H              1 S1                 0.0000
     47 ****         0.3180  -0.7525   0.9132 H              1 S1                 0.0000
     48 ****         3.9690  -1.9432  -3.8952 LP             1 S1                 0.0000
     49 ****         5.0258  -0.2575  -2.2274 LP             1 S1                 0.0000
@<TRIPOS>BOND
    1    1    2 1     
    2    1   21 1     
    3    1   22 1     
    4    1   23 1     
    5    2    8 1     
    6    2    3 2     
    7    3    4 1     
    8    3   24 1     
    9    4    5 1     
   10    4   25 1     
   11    4   26 1     
   12    5    6 1     
   13    5   27 1     
   14    5   28 1     
   15    6    7 1     
   16    6    8 1     
   17    6   29 1     
   18    7   30 1     
   19    7   31 1     
   20    7   32 1     
   21    8    9 1     
   22    8   33 1     
   23    9   10 1     
   24    9   34 1     
   25    9   35 1     
   26   10   11 1     
   27   10   36 1     
   28   10   47 1     
   29   11   12 1     
   30   11   37 1     
   31   11   38 1     
   32   12   13 1     
   33   12   39 1     
   34   12   40 1     
   35   13   17 1     
   36   13   14 1     
   37   14   15 2     
   38   14   41 1     
   39   15   16 1     
   40   16   17 2     
   41   17   18 1     
   42   18   20 1     
   43   18   19 1     
   44   18   42 1     
   45   19   20 1     
   46   19   43 1     
   47   19   44 1     
   48   20   45 1     
   49   20   46 1     
   50   15   48 1     
   51   16   49 1     
@<TRIPOS>SUBSTRUCTURE
      1 S1             1
@<TRIPOS>SET
LONE_PAIRS      STATIC     ATOMS    <user>   **** ""
2 48 49
DONOR_HYDROGENS      STATIC     ATOMS    <user>   **** ""
2 36 47
ATOM$BLUE        STATIC     ATOMS    COLORGROUP SYSTEM
2 48 49
ATOM$RED        STATIC     ATOMS    COLORGROUP SYSTEM
2 36 47
