#       Name:                AV-unprocessed.smi:2678
#       Creating user name   scv26
#       Creation time:       Fri Mar 27 14:39:34 2020


#       File generated by GOLD software.
#

@<TRIPOS>MOLECULE
AV-unprocessed.smi:2678
    51    52     1
SMALL
NO_CHARGES


@<TRIPOS>ATOM
      1 ****         9.7007   2.2993   2.6730 C.3            1 S1                 0.0000
      2 ****         9.1892   3.7169   2.3705 C.3            1 S1                 0.0000
      3 ****         9.6837   4.7305   3.4108 C.3            1 S1                 0.0000
      4 ****         7.7299   3.7369   2.3311 N.am           1 S1                 0.0000
      5 ****         6.9729   3.3975   1.2755 C.2            1 S1                 0.0000
      6 ****         7.4411   3.0207   0.2006 O.2            1 S1                 0.0000
      7 ****         5.4535   3.4963   1.4660 C.3            1 S1                 0.0000
      8 ****         4.8301   4.4895   0.4627 C.3            1 S1                 0.0000
      9 ****         3.3059   4.5787   0.6401 C.3            1 S1                 0.0000
     10 ****         2.6482   3.1944   0.5248 C.3            1 S1                 0.0000
     11 ****         3.2611   2.1971   1.5250 C.3            1 S1                 0.0000
     12 ****         2.6350   0.8844   1.3517 N.am           1 S1                 0.0000
     13 ****         2.5738  -0.1367   2.2264 C.2            1 S1                 0.0000
     14 ****         3.0991  -0.0551   3.3344 O.2            1 S1                 0.0000
     15 ****         1.9217  -1.2220   1.7646 N.am           1 S1                 0.0000
     16 ****         1.6320  -2.4407   2.4348 C.ar           1 S1                 0.0000
     17 ****         1.6151  -2.5933   3.8424 C.ar           1 S1                 0.0000
     18 ****         1.2914  -3.8516   4.3854 C.ar           1 S1                 0.0000
     19 ****         0.9901  -4.9079   3.5039 C.ar           1 S1                 0.0000
     20 ****         0.9892  -4.7733   2.1610 N.ar           1 S1                 0.0000
     21 ****         1.2994  -3.5636   1.6476 C.ar           1 S1                 0.0000
     22 ****         4.7899   2.1099   1.3292 C.3            1 S1                 0.0000
     23 ****        10.7904   2.2752   2.7021 H              1 S1                 0.0000
     24 ****         9.3788   1.5897   1.9101 H              1 S1                 0.0000
     25 ****         9.3345   1.9419   3.6362 H              1 S1                 0.0000
     26 ****         9.5748   4.0260   1.3973 H              1 S1                 0.0000
     27 ****        10.7732   4.7629   3.4384 H              1 S1                 0.0000
     28 ****         9.3331   4.4775   4.4119 H              1 S1                 0.0000
     29 ****         9.3312   5.7360   3.1782 H              1 S1                 0.0000
     30 ****         7.2581   4.0334   3.1731 H              1 S1                 0.0000
     31 ****         5.2588   3.8663   2.4744 H              1 S1                 0.0000
     32 ****         5.2701   5.4795   0.5913 H              1 S1                 0.0000
     33 ****         5.0538   4.1834  -0.5606 H              1 S1                 0.0000
     34 ****         3.0759   5.0127   1.6140 H              1 S1                 0.0000
     35 ****         2.8843   5.2528  -0.1059 H              1 S1                 0.0000
     36 ****         1.5747   3.2842   0.6947 H              1 S1                 0.0000
     37 ****         2.7700   2.8211  -0.4932 H              1 S1                 0.0000
     38 ****         3.0488   2.5668   2.5297 H              1 S1                 0.0000
     39 ****         2.2004   0.7263   0.4539 H              1 S1                 0.0000
     40 ****         1.6239  -1.1783   0.8010 H              1 S1                 0.0000
     41 ****         1.8267  -1.7750   4.5128 H              1 S1                 0.0000
     42 ****         1.2704  -4.0017   5.4548 H              1 S1                 0.0000
     43 ****         0.7367  -5.8851   3.8875 H              1 S1                 0.0000
     44 ****         1.2846  -3.4917   0.5697 H              1 S1                 0.0000
     45 ****         5.0057   1.6878   0.3459 H              1 S1                 0.0000
     46 ****         5.2236   1.4239   2.0578 H              1 S1                 0.0000
     47 ****         8.4319   2.9555   0.0821 LP             1 S1                 0.0000
     48 ****         6.8304   2.7799  -0.5538 LP             1 S1                 0.0000
     49 ****         3.5819   0.7799   3.5986 LP             1 S1                 0.0000
     50 ****         3.0438  -0.8236   3.9718 LP             1 S1                 0.0000
     51 ****         0.7659  -5.5448   1.5653 LP             1 S1                 0.0000
@<TRIPOS>BOND
    1    1    2 1     
    2    1   23 1     
    3    1   24 1     
    4    1   25 1     
    5    2    3 1     
    6    2    4 1     
    7    2   26 1     
    8    3   27 1     
    9    3   28 1     
   10    3   29 1     
   11    4    5 am    
   12    4   30 1     
   13    5    6 2     
   14    5    7 1     
   15    7   22 1     
   16    7    8 1     
   17    7   31 1     
   18    8    9 1     
   19    8   32 1     
   20    8   33 1     
   21    9   10 1     
   22    9   34 1     
   23    9   35 1     
   24   10   11 1     
   25   10   36 1     
   26   10   37 1     
   27   11   12 1     
   28   11   22 1     
   29   11   38 1     
   30   12   13 am    
   31   12   39 1     
   32   13   14 2     
   33   13   15 am    
   34   15   16 1     
   35   15   40 1     
   36   16   21 ar    
   37   16   17 ar    
   38   17   18 ar    
   39   17   41 1     
   40   18   19 ar    
   41   18   42 1     
   42   19   20 ar    
   43   19   43 1     
   44   20   21 ar    
   45   21   44 1     
   46   22   45 1     
   47   22   46 1     
   48    6   47 1     
   49    6   48 1     
   50   14   49 1     
   51   14   50 1     
   52   20   51 1     
@<TRIPOS>SUBSTRUCTURE
      1 S1             1
@<TRIPOS>SET
LONE_PAIRS      STATIC     ATOMS    <user>   **** ""
5 47 48 49 50 51
DONOR_HYDROGENS      STATIC     ATOMS    <user>   **** ""
3 30 39 40
ATOM$BLUE        STATIC     ATOMS    COLORGROUP SYSTEM
5 47 48 49 50 51
ATOM$RED        STATIC     ATOMS    COLORGROUP SYSTEM
3 30 39 40
