#       Name:                AV-unprocessed.smi:2618
#       Creating user name   scv26
#       Creation time:       Fri Mar 27 14:22:45 2020


#       File generated by GOLD software.
#

@<TRIPOS>MOLECULE
AV-unprocessed.smi:2618
    43    44     1
SMALL
NO_CHARGES


@<TRIPOS>ATOM
      1 ****        -5.4270   2.5765  -2.1370 C.3            1 S1                 0.0000
      2 ****        -4.9235   1.3896  -1.5501 O.3            1 S1                 0.0000
      3 ****        -3.5090   1.3110  -1.6136 C.3            1 S1                 0.0000
      4 ****        -3.0563   0.0027  -0.9508 C.3            1 S1                 0.0000
      5 ****        -1.5585  -0.1313  -0.9484 C.2            1 S1                 0.0000
      6 ****        -0.8565  -0.0739   0.1221 N.2            1 S1                 0.0000
      7 ****         0.4421  -0.2178  -0.1456 N.pl3          1 S1                 0.0000
      8 ****         1.4013  -0.3033   0.8793 C.ar           1 S1                 0.0000
      9 ****         1.0235  -0.9706   1.9811 N.ar           1 S1                 0.0000
     10 ****         1.9095  -1.0671   2.9950 C.ar           1 S1                 0.0000
     11 ****         1.4537  -1.8273   4.2219 C.3            1 S1                 0.0000
     12 ****         3.1933  -0.4912   2.9185 C.ar           1 S1                 0.0000
     13 ****         3.4919   0.1925   1.7229 C.ar           1 S1                 0.0000
     14 ****         4.8331   0.8581   1.5027 C.3            1 S1                 0.0000
     15 ****         2.5983   0.2882   0.7165 N.ar           1 S1                 0.0000
     16 ****         0.6753  -0.4110  -1.5929 C.3            1 S1                 0.0000
     17 ****         1.3743   0.5784  -2.1027 O.co2          1 S1                -1.0000
     18 ****         1.3681  -1.7670  -1.9049 C.3            1 S1                 0.0000
     19 ****         0.6835  -2.7700  -1.3514 F              1 S1                 0.0000
     20 ****         1.4140  -1.9755  -3.2225 F              1 S1                 0.0000
     21 ****         2.6146  -1.8080  -1.4307 F              1 S1                 0.0000
     22 ****        -0.7438  -0.3472  -2.1752 C.3            1 S1                 0.0000
     23 ****        -6.5144   2.5885  -2.0639 H              1 S1                 0.0000
     24 ****        -5.1601   2.6385  -3.1927 H              1 S1                 0.0000
     25 ****        -5.0459   3.4617  -1.6262 H              1 S1                 0.0000
     26 ****        -3.1859   1.3430  -2.6554 H              1 S1                 0.0000
     27 ****        -3.0667   2.1682  -1.1029 H              1 S1                 0.0000
     28 ****        -3.4318  -0.0289   0.0729 H              1 S1                 0.0000
     29 ****        -3.4968  -0.8503  -1.4671 H              1 S1                 0.0000
     30 ****         2.2223  -1.8249   4.9951 H              1 S1                 0.0000
     31 ****         1.2317  -2.8631   3.9641 H              1 S1                 0.0000
     32 ****         0.5525  -1.3737   4.6354 H              1 S1                 0.0000
     33 ****         3.9051  -0.5679   3.7271 H              1 S1                 0.0000
     34 ****         5.5008   0.6886   2.3477 H              1 S1                 0.0000
     35 ****         4.7052   1.9336   1.3777 H              1 S1                 0.0000
     36 ****         5.3099   0.4614   0.6060 H              1 S1                 0.0000
     37 ****        -1.0354  -1.2769  -2.6642 H              1 S1                 0.0000
     38 ****        -0.8919   0.4667  -2.8879 H              1 S1                 0.0000
     39 ****        -5.3105   0.6039  -2.0327 LP             1 S1                 0.0000
     40 ****        -5.2036   1.3624  -0.5905 LP             1 S1                 0.0000
     41 ****        -1.2332   0.0611   1.0385 LP             1 S1                 0.0000
     42 ****         0.1150  -1.3829   2.0486 LP             1 S1                 0.0000
     43 ****         2.8190   0.7832  -0.1239 LP             1 S1                 0.0000
@<TRIPOS>BOND
    1    1    2 1     
    2    1   23 1     
    3    1   24 1     
    4    1   25 1     
    5    2    3 1     
    6    3    4 1     
    7    3   26 1     
    8    3   27 1     
    9    4    5 1     
   10    4   28 1     
   11    4   29 1     
   12    5   22 1     
   13    5    6 2     
   14    6    7 1     
   15    7    8 1     
   16    7   16 1     
   17    8   15 ar    
   18    8    9 ar    
   19    9   10 ar    
   20   10   11 1     
   21   10   12 ar    
   22   11   30 1     
   23   11   31 1     
   24   11   32 1     
   25   12   13 ar    
   26   12   33 1     
   27   13   14 1     
   28   13   15 ar    
   29   14   34 1     
   30   14   35 1     
   31   14   36 1     
   32   16   17 1     
   33   16   18 1     
   34   16   22 1     
   35   18   19 1     
   36   18   20 1     
   37   18   21 1     
   38   22   37 1     
   39   22   38 1     
   40    2   39 1     
   41    2   40 1     
   42    6   41 1     
   43    9   42 1     
   44   15   43 1     
@<TRIPOS>SUBSTRUCTURE
      1 S1             1
@<TRIPOS>SET
LONE_PAIRS      STATIC     ATOMS    <user>   **** ""
6 39 40 41 42 43 17
ATOM$BLUE        STATIC     ATOMS    COLORGROUP SYSTEM
6 39 40 41 42 43 17
