#       Name:                AV-unprocessed.smi:1998
#       Creating user name   scv26
#       Creation time:       Fri Mar 27 10:30:56 2020


#       File generated by GOLD software.
#

@<TRIPOS>MOLECULE
AV-unprocessed.smi:1998
    53    54     1
SMALL
NO_CHARGES


@<TRIPOS>ATOM
      1 ****        -5.6318   3.6393   1.1326 C.3            1 S1                 0.0000
      2 ****        -4.8670   2.4186   1.5521 C.2            1 S1                 0.0000
      3 ****        -4.6980   1.8916   2.8630 C.2            1 S1                 0.0000
      4 ****        -3.9221   0.7813   2.6830 C.2            1 S1                 0.0000
      5 ****        -3.3996  -0.2020   3.6780 C.3            1 S1                 0.0000
      6 ****        -3.6644   0.6877   1.3268 N.pl3          1 S1                 0.0000
      7 ****        -2.8840  -0.3095   0.6077 C.3            1 S1                 0.0000
      8 ****        -1.3770  -0.0269   0.6434 C.2            1 S1                 0.0000
      9 ****        -0.9439   1.0840   0.9527 O.2            1 S1                 0.0000
     10 ****        -0.5837  -1.0557   0.3059 N.am           1 S1                 0.0000
     11 ****         0.8777  -1.0231   0.2395 C.3            1 S1                 0.0000
     12 ****         1.4435  -0.8735  -1.2067 C.3            1 S1                 0.0000
     13 ****         0.9063  -2.0637  -2.0456 C.3            1 S1                 0.0000
     14 ****         0.9342   0.4333  -1.8635 C.3            1 S1                 0.0000
     15 ****         2.9521  -0.8937  -1.1350 N.4            1 S1                 1.0000
     16 ****         3.6695  -1.2565  -2.3916 C.3            1 S1                 0.0000
     17 ****         5.1842  -1.3780  -2.1458 C.3            1 S1                 0.0000
     18 ****         5.6902  -0.1715  -1.5949 O.3            1 S1                 0.0000
     19 ****         5.0872   0.1228  -0.3441 C.3            1 S1                 0.0000
     20 ****         3.5778   0.3263  -0.5466 C.3            1 S1                 0.0000
     21 ****        -4.2471   1.6924   0.6365 N.2            1 S1                 0.0000
     22 ****        -6.1103   4.1172   1.9876 H              1 S1                 0.0000
     23 ****        -6.4123   3.3869   0.4144 H              1 S1                 0.0000
     24 ****        -4.9743   4.3740   0.6672 H              1 S1                 0.0000
     25 ****        -5.0874   2.2725   3.7957 H              1 S1                 0.0000
     26 ****        -3.6783   0.0850   4.6920 H              1 S1                 0.0000
     27 ****        -2.3121  -0.2612   3.6333 H              1 S1                 0.0000
     28 ****        -3.8027  -1.1969   3.4884 H              1 S1                 0.0000
     29 ****        -3.0884  -1.2898   1.0397 H              1 S1                 0.0000
     30 ****        -3.2155  -0.3450  -0.4312 H              1 S1                 0.0000
     31 ****        -1.0284  -1.9293   0.0634 H              1 S1                 0.0000
     32 ****         1.2402  -0.2363   0.8994 H              1 S1                 0.0000
     33 ****         1.2398  -1.9549   0.6753 H              1 S1                 0.0000
     34 ****        -0.1820  -2.1213  -2.0259 H              1 S1                 0.0000
     35 ****         1.2858  -3.0172  -1.6767 H              1 S1                 0.0000
     36 ****         1.1704  -1.9771  -3.0997 H              1 S1                 0.0000
     37 ****        -0.1402   0.3962  -2.0458 H              1 S1                 0.0000
     38 ****         1.4102   0.6134  -2.8273 H              1 S1                 0.0000
     39 ****         1.1138   1.3051  -1.2340 H              1 S1                 0.0000
     40 ****         3.3386  -2.2178  -2.7809 H              1 S1                 0.0000
     41 ****         3.4751  -0.5082  -3.1607 H              1 S1                 0.0000
     42 ****         5.4036  -2.2137  -1.4792 H              1 S1                 0.0000
     43 ****         5.7006  -1.5790  -3.0846 H              1 S1                 0.0000
     44 ****         5.2847  -0.6758   0.3730 H              1 S1                 0.0000
     45 ****         5.5378   1.0303   0.0579 H              1 S1                 0.0000
     46 ****         3.4276   1.1818  -1.2061 H              1 S1                 0.0000
     47 ****         3.1356   0.5847   0.4128 H              1 S1                 0.0000
     48 ****         3.1663  -1.6448  -0.4944 H              1 S1                 0.0000
     49 ****        -1.5785   1.8207   1.1862 LP             1 S1                 0.0000
     50 ****         0.0422   1.2490   0.9703 LP             1 S1                 0.0000
     51 ****         5.5043   0.5785  -2.2297 LP             1 S1                 0.0000
     52 ****         6.6777  -0.2622  -1.4662 LP             1 S1                 0.0000
     53 ****        -4.2165   1.8520  -0.3502 LP             1 S1                 0.0000
@<TRIPOS>BOND
    1    1    2 1     
    2    1   22 1     
    3    1   23 1     
    4    1   24 1     
    5    2   21 2     
    6    2    3 1     
    7    3    4 2     
    8    3   25 1     
    9    4    5 1     
   10    4    6 1     
   11    5   26 1     
   12    5   27 1     
   13    5   28 1     
   14    6    7 1     
   15    6   21 1     
   16    7    8 1     
   17    7   29 1     
   18    7   30 1     
   19    8    9 2     
   20    8   10 am    
   21   10   11 1     
   22   10   31 1     
   23   11   12 1     
   24   11   32 1     
   25   11   33 1     
   26   12   13 1     
   27   12   14 1     
   28   12   15 1     
   29   13   34 1     
   30   13   35 1     
   31   13   36 1     
   32   14   37 1     
   33   14   38 1     
   34   14   39 1     
   35   15   20 1     
   36   15   16 1     
   37   15   48 1     
   38   16   17 1     
   39   16   40 1     
   40   16   41 1     
   41   17   18 1     
   42   17   42 1     
   43   17   43 1     
   44   18   19 1     
   45   19   20 1     
   46   19   44 1     
   47   19   45 1     
   48   20   46 1     
   49   20   47 1     
   50    9   49 1     
   51    9   50 1     
   52   18   51 1     
   53   18   52 1     
   54   21   53 1     
@<TRIPOS>SUBSTRUCTURE
      1 S1             1
@<TRIPOS>SET
LONE_PAIRS      STATIC     ATOMS    <user>   **** ""
5 49 50 51 52 53
DONOR_HYDROGENS      STATIC     ATOMS    <user>   **** ""
2 31 48
ATOM$BLUE        STATIC     ATOMS    COLORGROUP SYSTEM
5 49 50 51 52 53
ATOM$RED        STATIC     ATOMS    COLORGROUP SYSTEM
2 31 48
