#       Name:                AV-unprocessed.smi:1947
#       Creating user name   scv26
#       Creation time:       Fri Mar 27 10:01:59 2020


#       File generated by GOLD software.
#

@<TRIPOS>MOLECULE
AV-unprocessed.smi:1947
    45    46     1
SMALL
NO_CHARGES


@<TRIPOS>ATOM
      1 ****        -1.2990   0.8409   3.6137 C.3            1 S1                 0.0000
      2 ****        -1.6333   1.1039   2.1364 C.3            1 S1                 0.0000
      3 ****        -2.5267   2.3525   1.9951 C.3            1 S1                 0.0000
      4 ****        -2.8751   2.6408   0.5273 C.3            1 S1                 0.0000
      5 ****        -1.6045   2.7883  -0.3209 C.3            1 S1                 0.0000
      6 ****        -0.7100   1.5463  -0.1955 C.3            1 S1                 0.0000
      7 ****        -0.3564   1.2448   1.2769 C.3            1 S1                 0.0000
      8 ****         0.3532   0.0149   1.3489 O.3            1 S1                 0.0000
      9 ****         1.7480   0.1234   1.1046 C.3            1 S1                 0.0000
     10 ****         2.3587  -1.2852   1.0992 C.3            1 S1                 0.0000
     11 ****         1.7913  -2.1105   0.0385 N.am           1 S1                 0.0000
     12 ****         2.1088  -2.0216  -1.2605 C.2            1 S1                 0.0000
     13 ****         2.9549  -1.2432  -1.6998 O.2            1 S1                 0.0000
     14 ****         1.3828  -2.8779  -1.9969 N.am           1 S1                 0.0000
     15 ****         1.4171  -3.0656  -3.4011 C.2            1 S1                 0.0000
     16 ****         0.5823  -3.9648  -3.9354 N.2            1 S1                 0.0000
     17 ****         0.7199  -4.0472  -5.3156 N.2            1 S1                 0.0000
     18 ****         1.6545  -3.2061  -5.7684 C.2            1 S1                 0.0000
     19 ****         2.4609  -2.2289  -4.5544 S.3            1 S1                 0.0000
     20 ****        -0.7128   1.6562   4.0385 H              1 S1                 0.0000
     21 ****        -0.7253  -0.0783   3.7340 H              1 S1                 0.0000
     22 ****        -2.2066   0.7383   4.2088 H              1 S1                 0.0000
     23 ****        -2.1977   0.2464   1.7666 H              1 S1                 0.0000
     24 ****        -3.4457   2.2198   2.5670 H              1 S1                 0.0000
     25 ****        -2.0201   3.2185   2.4234 H              1 S1                 0.0000
     26 ****        -3.4901   1.8321   0.1304 H              1 S1                 0.0000
     27 ****        -3.4754   3.5484   0.4591 H              1 S1                 0.0000
     28 ****        -1.8717   2.9503  -1.3656 H              1 S1                 0.0000
     29 ****        -1.0509   3.6723  -0.0018 H              1 S1                 0.0000
     30 ****        -1.2214   0.6865  -0.6302 H              1 S1                 0.0000
     31 ****         0.1933   1.6960  -0.7861 H              1 S1                 0.0000
     32 ****         0.2499   2.0562   1.6848 H              1 S1                 0.0000
     33 ****         1.9481   0.6247   0.1576 H              1 S1                 0.0000
     34 ****         2.2103   0.7227   1.8899 H              1 S1                 0.0000
     35 ****         3.4423  -1.2273   0.9858 H              1 S1                 0.0000
     36 ****         2.1717  -1.7747   2.0553 H              1 S1                 0.0000
     37 ****         1.0831  -2.7756   0.3125 H              1 S1                 0.0000
     38 ****         0.7218  -3.4550  -1.4979 H              1 S1                 0.0000
     39 ****         1.8711  -3.1613  -6.8253 H              1 S1                 0.0000
     40 ****        -0.0348  -0.6095   0.6710 LP             1 S1                 0.0000
     41 ****         0.2254  -0.3661   2.2646 LP             1 S1                 0.0000
     42 ****         3.4457  -0.6344  -1.0765 LP             1 S1                 0.0000
     43 ****         3.1515  -1.2196  -2.6800 LP             1 S1                 0.0000
     44 ****        -0.0641  -4.5126  -3.4042 LP             1 S1                 0.0000
     45 ****         0.1857  -4.6600  -5.8979 LP             1 S1                 0.0000
@<TRIPOS>BOND
    1    1    2 1     
    2    1   20 1     
    3    1   21 1     
    4    1   22 1     
    5    2    7 1     
    6    2    3 1     
    7    2   23 1     
    8    3    4 1     
    9    3   24 1     
   10    3   25 1     
   11    4    5 1     
   12    4   26 1     
   13    4   27 1     
   14    5    6 1     
   15    5   28 1     
   16    5   29 1     
   17    6    7 1     
   18    6   30 1     
   19    6   31 1     
   20    7    8 1     
   21    7   32 1     
   22    8    9 1     
   23    9   10 1     
   24    9   33 1     
   25    9   34 1     
   26   10   11 1     
   27   10   35 1     
   28   10   36 1     
   29   11   12 am    
   30   11   37 1     
   31   12   13 2     
   32   12   14 am    
   33   14   15 1     
   34   14   38 1     
   35   15   19 1     
   36   15   16 2     
   37   16   17 1     
   38   17   18 2     
   39   18   19 1     
   40   18   39 1     
   41    8   40 1     
   42    8   41 1     
   43   13   42 1     
   44   13   43 1     
   45   16   44 1     
   46   17   45 1     
@<TRIPOS>SUBSTRUCTURE
      1 S1             1
@<TRIPOS>SET
LONE_PAIRS      STATIC     ATOMS    <user>   **** ""
6 40 41 42 43 44 45
DONOR_HYDROGENS      STATIC     ATOMS    <user>   **** ""
2 37 38
ATOM$BLUE        STATIC     ATOMS    COLORGROUP SYSTEM
6 40 41 42 43 44 45
ATOM$RED        STATIC     ATOMS    COLORGROUP SYSTEM
2 37 38
