#       Name:                AV-unprocessed.smi:155
#       Creating user name   scv26
#       Creation time:       Thu Mar 26 18:54:51 2020


#       File generated by GOLD software.
#

@<TRIPOS>MOLECULE
AV-unprocessed.smi:155
    71    74     1
SMALL
NO_CHARGES


@<TRIPOS>ATOM
      1 ****        -4.9322   2.4424   1.6199 C.3            1 S1                 0.0000
      2 ****        -5.3069   1.0710   1.2087 N.4            1 S1                 1.0000
      3 ****        -6.5545   0.6270   1.8722 C.3            1 S1                 0.0000
      4 ****        -4.1835   0.1135   1.3713 C.3            1 S1                 0.0000
      5 ****        -4.3984  -1.1968   0.5845 C.3            1 S1                 0.0000
      6 ****        -3.1482  -1.9885   0.4327 N.4            1 S1                 1.0000
      7 ****        -3.2417  -3.0186  -0.6369 C.3            1 S1                 0.0000
      8 ****        -1.9522  -3.0495  -1.4760 C.3            1 S1                 0.0000
      9 ****        -0.7511  -3.6752  -0.7476 C.3            1 S1                 0.0000
     10 ****        -0.4682  -3.0274   0.5316 N.pl3          1 S1                 0.0000
     11 ****         0.2555  -1.8688   0.6113 C.ar           1 S1                 0.0000
     12 ****         0.3740  -1.2809   1.8332 N.ar           1 S1                 0.0000
     13 ****         1.0615  -0.1484   1.9937 C.ar           1 S1                 0.0000
     14 ****         1.7054   0.5690   1.0755 N.ar           1 S1                 0.0000
     15 ****         1.6006  -0.0025  -0.1568 C.ar           1 S1                 0.0000
     16 ****         0.9029  -1.2052  -0.4801 C.ar           1 S1                 0.0000
     17 ****         1.0254  -1.4440  -1.8465 N.2            1 S1                 0.0000
     18 ****         1.7546  -0.4606  -2.2952 C.2            1 S1                 0.0000
     19 ****         2.1450   0.4512  -1.3451 N.pl3          1 S1                 0.0000
     20 ****         2.9645   1.6309  -1.5606 C.3            1 S1                 0.0000
     21 ****         4.4708   1.3032  -1.5679 C.3            1 S1                 0.0000
     22 ****         4.8575   0.6817  -0.3562 O.3            1 S1                 0.0000
     23 ****         5.3549   2.5367  -1.8417 C.3            1 S1                 0.0000
     24 ****         6.8743   2.3005  -1.7790 C.3            1 S1                 0.0000
     25 ****         7.3460   3.2705  -0.7105 C.3            1 S1                 0.0000
     26 ****         6.2570   4.3350  -0.7218 C.3            1 S1                 0.0000
     27 ****         5.0732   3.5777  -0.9102 O.3            1 S1                 0.0000
     28 ****        -1.3678  -3.3937   1.6296 C.3            1 S1                 0.0000
     29 ****        -2.6360  -2.5151   1.7304 C.3            1 S1                 0.0000
     30 ****        -4.6883   2.4796   2.6827 H              1 S1                 0.0000
     31 ****        -5.7500   3.1393   1.4326 H              1 S1                 0.0000
     32 ****        -4.0666   2.7943   1.0574 H              1 S1                 0.0000
     33 ****        -6.4085   0.5170   2.9478 H              1 S1                 0.0000
     34 ****        -6.8998  -0.3266   1.4733 H              1 S1                 0.0000
     35 ****        -7.3535   1.3519   1.7114 H              1 S1                 0.0000
     36 ****        -3.2737   0.5880   0.9996 H              1 S1                 0.0000
     37 ****        -4.0233  -0.0810   2.4324 H              1 S1                 0.0000
     38 ****        -5.1697  -1.8154   1.0448 H              1 S1                 0.0000
     39 ****        -4.7623  -0.9268  -0.4080 H              1 S1                 0.0000
     40 ****        -3.4750  -3.9996  -0.2201 H              1 S1                 0.0000
     41 ****        -4.0622  -2.7857  -1.3163 H              1 S1                 0.0000
     42 ****        -2.1358  -3.6256  -2.3833 H              1 S1                 0.0000
     43 ****        -1.7098  -2.0401  -1.8099 H              1 S1                 0.0000
     44 ****        -0.9691  -4.7266  -0.5568 H              1 S1                 0.0000
     45 ****         0.1323  -3.6978  -1.3826 H              1 S1                 0.0000
     46 ****         1.1030   0.2369   3.0019 H              1 S1                 0.0000
     47 ****         2.0327  -0.3747  -3.3359 H              1 S1                 0.0000
     48 ****         2.6729   2.0817  -2.5099 H              1 S1                 0.0000
     49 ****         2.7322   2.3625  -0.7858 H              1 S1                 0.0000
     50 ****         4.6596   0.5768  -2.3596 H              1 S1                 0.0000
     51 ****         4.7151   1.2932   0.3506 H              1 S1                 0.0000
     52 ****         5.1116   2.9250  -2.8320 H              1 S1                 0.0000
     53 ****         7.1503   1.2722  -1.5432 H              1 S1                 0.0000
     54 ****         7.3273   2.5474  -2.7398 H              1 S1                 0.0000
     55 ****         7.3646   2.7733   0.2602 H              1 S1                 0.0000
     56 ****         8.3398   3.6740  -0.9063 H              1 S1                 0.0000
     57 ****         6.2219   4.9149   0.2006 H              1 S1                 0.0000
     58 ****         6.3908   5.0219  -1.5589 H              1 S1                 0.0000
     59 ****        -1.6788  -4.4278   1.4781 H              1 S1                 0.0000
     60 ****        -0.8346  -3.4053   2.5810 H              1 S1                 0.0000
     61 ****        -2.3968  -1.6663   2.3700 H              1 S1                 0.0000
     62 ****        -3.4205  -3.0728   2.2438 H              1 S1                 0.0000
     63 ****        -5.5058   1.1228   0.2195 H              1 S1                 0.0000
     64 ****        -2.4533  -1.3351   0.1000 H              1 S1                 0.0000
     65 ****        -0.0626  -1.7059   2.6261 LP             1 S1                 0.0000
     66 ****         2.2011   1.4164   1.2654 LP             1 S1                 0.0000
     67 ****         0.6387  -2.2037  -2.3694 LP             1 S1                 0.0000
     68 ****         5.8251   0.4327  -0.3979 LP             1 S1                 0.0000
     69 ****         4.3079  -0.1404  -0.2077 LP             1 S1                 0.0000
     70 ****         4.7816   3.1828  -0.0390 LP             1 S1                 0.0000
     71 ****         4.3484   4.1659  -1.2688 LP             1 S1                 0.0000
@<TRIPOS>BOND
    1    1    2 1     
    2    1   30 1     
    3    1   31 1     
    4    1   32 1     
    5    2    3 1     
    6    2    4 1     
    7    2   63 1     
    8    3   33 1     
    9    3   34 1     
   10    3   35 1     
   11    4    5 1     
   12    4   36 1     
   13    4   37 1     
   14    5    6 1     
   15    5   38 1     
   16    5   39 1     
   17    6   29 1     
   18    6    7 1     
   19    6   64 1     
   20    7    8 1     
   21    7   40 1     
   22    7   41 1     
   23    8    9 1     
   24    8   42 1     
   25    8   43 1     
   26    9   10 1     
   27    9   44 1     
   28    9   45 1     
   29   10   11 1     
   30   10   28 1     
   31   11   16 ar    
   32   11   12 ar    
   33   12   13 ar    
   34   13   14 ar    
   35   13   46 1     
   36   14   15 ar    
   37   15   19 1     
   38   15   16 ar    
   39   16   17 1     
   40   17   18 2     
   41   18   19 1     
   42   18   47 1     
   43   19   20 1     
   44   20   21 1     
   45   20   48 1     
   46   20   49 1     
   47   21   22 1     
   48   21   23 1     
   49   21   50 1     
   50   22   51 1     
   51   23   27 1     
   52   23   24 1     
   53   23   52 1     
   54   24   25 1     
   55   24   53 1     
   56   24   54 1     
   57   25   26 1     
   58   25   55 1     
   59   25   56 1     
   60   26   27 1     
   61   26   57 1     
   62   26   58 1     
   63   28   29 1     
   64   28   59 1     
   65   28   60 1     
   66   29   61 1     
   67   29   62 1     
   68   12   65 1     
   69   14   66 1     
   70   17   67 1     
   71   22   68 1     
   72   22   69 1     
   73   27   70 1     
   74   27   71 1     
@<TRIPOS>SUBSTRUCTURE
      1 S1             1
@<TRIPOS>SET
LONE_PAIRS      STATIC     ATOMS    <user>   **** ""
7 65 66 67 68 69 70 71
DONOR_HYDROGENS      STATIC     ATOMS    <user>   **** ""
3 63 64 51
ATOM$BLUE        STATIC     ATOMS    COLORGROUP SYSTEM
7 65 66 67 68 69 70 71
ATOM$RED        STATIC     ATOMS    COLORGROUP SYSTEM
3 63 64 51
