AV-unprocessed.smi:224|AV-procd|sdf|1716|dock9
  -GOLD-   2262020193D 1   1.00000     0.00000
 Structure written by MMmdl.
 56 59  0  0  0  0  0  0  0  0  2 V2000
  145.1034  131.7135  150.5406 C   0  0  0  0  0  0  0  0  0  0  0  0
  143.8239  132.4274  150.0854 C   0  0  1  0  0  0  0  0  0  0  0  0
  143.0118  131.4782  149.4239 O   0  0  0  0  0  0  0  0  0  0  0  0
  143.0488  133.0246  151.2770 C   0  0  0  0  0  0  0  0  0  0  0  0
  143.3088  134.4761  151.4653 N   0  3  2  0  0  0  0  0  0  0  0  0
  144.7397  134.8551  151.3124 C   0  0  0  0  0  0  0  0  0  0  0  0
  144.9152  136.3832  151.3754 C   0  0  0  0  0  0  0  0  0  0  0  0
  144.2999  136.9377  152.5798 N   0  0  0  0  0  0  0  0  0  0  0  0
  145.0489  137.0849  153.7062 C   0  0  0  0  0  0  0  0  0  0  0  0
  144.6721  136.4534  154.8506 N   0  0  0  0  0  0  0  0  0  0  0  0
  145.3781  136.6052  155.9743 C   0  0  0  0  0  0  0  0  0  0  0  0
  146.4815  137.3266  156.1733 N   0  0  0  0  0  0  0  0  0  0  0  0
  146.8805  137.9471  155.0269 C   0  0  0  0  0  0  0  0  0  0  0  0
  146.2290  137.8821  153.7621 C   0  0  0  0  0  0  0  0  0  0  0  0
  146.9345  138.6379  152.8324 N   0  0  0  0  0  0  0  0  0  0  0  0
  147.9357  139.1289  153.5100 C   0  0  0  0  0  0  0  0  0  0  0  0
  147.9837  138.7597  154.8350 N   0  0  0  0  0  0  0  0  0  0  0  0
  148.9847  139.1535  155.8143 C   0  0  0  0  0  0  0  0  0  0  0  0
  150.4088  139.2769  155.2237 C   0  0  1  0  0  0  0  0  0  0  0  0
  150.5099  140.4940  154.5049 O   0  0  0  0  0  0  0  0  0  0  0  0
  151.5219  139.2387  156.2677 C   0  0  0  0  0  0  0  0  0  0  0  0
  152.6623  138.5574  155.5245 C   0  0  0  0  0  0  0  0  0  0  0  0
  151.9876  137.5604  154.7771 O   0  0  0  0  0  0  0  0  0  0  0  0
  150.7773  138.1181  154.2756 C   0  0  0  0  0  0  0  0  0  0  0  0
  142.8938  136.5768  152.7548 C   0  0  0  0  0  0  0  0  0  0  0  0
  142.6794  135.0475  152.6934 C   0  0  2  0  0  0  0  0  0  0  0  0
  143.1227  134.3419  153.9938 C   0  0  0  0  0  0  0  0  0  0  0  0
  145.7801  132.4056  151.0426 H   0  0  0  0  0  0  0  0  0  0  0  0
  145.6400  131.2875  149.6919 H   0  0  0  0  0  0  0  0  0  0  0  0
  144.8821  130.9026  151.2355 H   0  0  0  0  0  0  0  0  0  0  0  0
  144.1015  133.2012  149.3707 H   0  0  0  0  0  0  0  0  0  0  0  0
  142.1763  131.4274  149.8619 H   0  0  0  0  0  0  0  0  0  0  0  0
  141.9831  132.8564  151.1128 H   0  0  0  0  0  0  0  0  0  0  0  0
  143.3024  132.4960  152.1973 H   0  0  0  0  0  0  0  0  0  0  0  0
  145.3347  134.3709  152.0875 H   0  0  0  0  0  0  0  0  0  0  0  0
  145.1285  134.4975  150.3602 H   0  0  0  0  0  0  0  0  0  0  0  0
  145.9691  136.6559  151.3061 H   0  0  0  0  0  0  0  0  0  0  0  0
  144.4319  136.8404  150.5112 H   0  0  0  0  0  0  0  0  0  0  0  0
  145.0060  136.0738  156.8378 H   0  0  0  0  0  0  0  0  0  0  0  0
  148.6745  139.7738  153.0571 H   0  0  0  0  0  0  0  0  0  0  0  0
  148.6762  140.1059  156.2477 H   0  0  0  0  0  0  0  0  0  0  0  0
  148.9743  138.4302  156.6307 H   0  0  0  0  0  0  0  0  0  0  0  0
  149.6775  140.9392  154.5499 H   0  0  0  0  0  0  0  0  0  0  0  0
  151.7897  140.2191  156.6644 H   0  0  0  0  0  0  0  0  0  0  0  0
  151.2296  138.6087  157.1085 H   0  0  0  0  0  0  0  0  0  0  0  0
  153.1627  139.2520  154.8483 H   0  0  0  0  0  0  0  0  0  0  0  0
  153.4064  138.1263  156.1943 H   0  0  0  0  0  0  0  0  0  0  0  0
  150.0109  137.3429  154.2470 H   0  0  0  0  0  0  0  0  0  0  0  0
  150.9318  138.4598  153.2506 H   0  0  0  0  0  0  0  0  0  0  0  0
  142.4753  136.9689  153.6803 H   0  0  0  0  0  0  0  0  0  0  0  0
  142.3315  137.0526  151.9506 H   0  0  0  0  0  0  0  0  0  0  0  0
  141.6041  134.8882  152.6019 H   0  0  0  0  0  0  0  0  0  0  0  0
  142.6592  134.8099  154.8626 H   0  0  0  0  0  0  0  0  0  0  0  0
  144.2009  134.3827  154.1411 H   0  0  0  0  0  0  0  0  0  0  0  0
  142.8295  133.2924  154.0052 H   0  0  0  0  0  0  0  0  0  0  0  0
  142.8278  134.9310  150.7029 H   0  0  0  0  0  0  0  0  0  0  0  0
  1  2  1  0  0  0  0
  1 28  1  0  0  0  0
  1 29  1  0  0  0  0
  1 30  1  0  0  0  0
  2  3  1  0  0  0  0
  2  4  1  0  0  0  0
  2 31  1  0  0  0  0
  3 32  1  0  0  0  0
  4  5  1  0  0  0  0
  4 33  1  0  0  0  0
  4 34  1  0  0  0  0
  5 26  1  0  0  0  0
  5  6  1  0  0  0  0
  5 56  1  0  0  0  0
  6  7  1  0  0  0  0
  6 35  1  0  0  0  0
  6 36  1  0  0  0  0
  7  8  1  0  0  0  0
  7 37  1  0  0  0  0
  7 38  1  0  0  0  0
  8  9  1  0  0  0  0
  8 25  1  0  0  0  0
  9 14  1  0  0  0  0
  9 10  2  0  0  0  0
 10 11  1  0  0  0  0
 11 12  2  0  0  0  0
 11 39  1  0  0  0  0
 12 13  1  0  0  0  0
 13 17  1  0  0  0  0
 13 14  2  0  0  0  0
 14 15  1  0  0  0  0
 15 16  2  0  0  0  0
 16 17  1  0  0  0  0
 16 40  1  0  0  0  0
 17 18  1  0  0  0  0
 18 19  1  0  0  0  0
 18 41  1  0  0  0  0
 18 42  1  0  0  0  0
 19 24  1  0  0  0  0
 19 20  1  0  0  0  0
 19 21  1  0  0  0  0
 20 43  1  0  0  0  0
 21 22  1  0  0  0  0
 21 44  1  0  0  0  0
 21 45  1  0  0  0  0
 22 23  1  0  0  0  0
 22 46  1  0  0  0  0
 22 47  1  0  0  0  0
 23 24  1  0  0  0  0
 24 48  1  0  0  0  0
 24 49  1  0  0  0  0
 25 26  1  0  0  0  0
 25 50  1  0  0  0  0
 25 51  1  0  0  0  0
 26 27  1  0  0  0  0
 26 52  1  0  0  0  0
 27 53  1  0  0  0  0
 27 54  1  0  0  0  0
 27 55  1  0  0  0  0
M  CHG  1   5   1
M  END
> <s_m_source_file>
AV-unprocessed.smi

> <i_m_source_file_index>
224

> <i_lp_mmshare_version>
43012

> <i_f3d_flags>
0

> <s_epik_input>
W0NIM11bQ0BIXShbT0hdKVtDSDJdTjFbQ0gyXVtDSDJdTihbQ0gyXVtDQEhdMVtDSDNdKWMobltjSF1uMiljKGMyMyluW2NIXW4zW0NIMl1bQ0BAXTQoW09IXSlbQ0gyXVtDSDJdT1tDSDJdNA==

> <s_epik_cmdline>
J2VwaWtfcHl0aG9uJywgJy1waCcsICc3LjAnLCAnLXRuJywgJzgnLCAnLW1hJywgJzIwMCcsICctbWV0YWxfYmluZGluZycsICctaW1hZScsICc8aW5maWxlLm1hZT4nLCAnLW9tYWUnLCAnPG91dGZpbGUubWFlPic=

> <r_lp_tautomer_probability>
1

> <r_epik_Ionization_Penalty>
0.00516958

> <r_epik_Ionization_Penalty_Charging>
0.00509693

> <r_epik_Ionization_Penalty_Neutral>
7.26542e-05

> <r_epik_State_Penalty>
-0

> <r_epik_Charging_Adjusted_Penalty>
0.00509693

> <i_epik_Tot_Q>
1

> <i_epik_Tot_abs_Q>
1

> <r_epik_Metal_State_Penalty>
-0

> <b_epik_Metal_Only>
0

> <s_lp_Force_Field>
OPLS_2005

> <r_lp_Energy>
50.5155

> <b_lp_Chiralities_Consistent>
1

> <s_lp_Variant>
AV-unprocessed.smi:224-10

> <Gold.Version>
5.8.1

> <Gold.Id.Protein>
6NUR|6NUR_protein|mol2

> <Gold.PLP.Fitness>
45.2319

> <Gold.PLP.PLP>
-33.5151

> <Gold.PLP.part.hbond>
-4.7604

> <Gold.PLP.part.metal>
0.0000

> <Gold.PLP.part.buried>
1.1096

> <Gold.PLP.part.nonpolar>
-32.7787

> <Gold.PLP.part.repulsive>
0.3965

> <Gold.PLP.ligand.clash>
0.0000

> <Gold.PLP.ligand.torsion>
1.8514

> <Gold.PLP.Chemscore.Hbond>
4.0292

> <Gold.PLP.Chemscore.CHOScore>
1.0000

> <Gold.PLP.Chemscore.Metal>
0.0000

> <Gold.Chemscore.Hbonds>
donor molecule, donor type, donor heavy atom, donor atom, acceptor molecule, acceptor atom, score
      L1  H     3    32       P1 10952  0.61
      L1  H     5    56       P1 10186  0.51
      P1  H  7989  7998       L1    20  1.00
      P1  H 10752 10764       L1    23  0.55
      P1  H 10785 10796       L1     3  0.96
      L1  C    16    40       P1  7957  1.00

> <Gold.PLP.Chemscore.Internal.Correction>
0.3321

> <Gold.Rescore>
     Score         DG    S(hbond)    S(metal)    S(lipo)     H(rot)  DE(clash)    DE(int)     intcor
     11.67     -16.79       2.84        0.00      81.67       3.02       1.70       3.42       ----

> <Gold.Chemscore.Fitness>
11.6689

> <Gold.Chemscore.DG>
-16.7873

> <Gold.Chemscore.ZeroCoef>
-5.4800

> <Gold.Chemscore.Hbond>
2.8417

> <Gold.Chemscore.Metal>
0.0000

> <Gold.Chemscore.Lipo>
81.6666

> <Gold.Chemscore.Internal_Hbond>
0.0000

> <Gold.Chemscore.DEClash>
1.6989

> <Gold.Chemscore.DEInternal>
3.4194

> <Gold.Chemscore.Rot>
3.0231

> <Gold.Chemscore.Internal.Correction>
   9.000000E+99

> <Gold.Chemscore.Hbonds>
donor molecule, donor type, donor heavy atom, donor atom, acceptor molecule, acceptor atom, score
      L1  H     3    32       P1 10952  0.58
      L1  H     5    56       P1 10186  0.02
      P1  H  7989  7998       L1    20  0.90
      P1  H 10752 10764       L1    23  0.54
      P1  H 10785 10796       L1     3  0.45

> <Gold.Chemscore.Hbond.Weighted>
-9.4914

> <Gold.Chemscore.Metal.Weighted>
-0.0000

> <Gold.Chemscore.Lipo.Weighted>
-9.5550

> <Gold.Chemscore.Internal_Hbond.Weighted>
0.0000

> <Gold.Chemscore.DEClash.Weighted>
1.6989

> <Gold.Chemscore.DEInternal.Weighted>
3.4194

> <Gold.Chemscore.Rot.Weighted>
7.7391

> <Gold.Chemscore.Internal.Correction.Weighted>
   9.000000E+99

> <Gold.Protein.RotatedTorsions>
[ 6907 6896 6895 6894 ] final -156.41 input  -60.11 | X-H torsion
[ 7974 7965 7964 7962 ] final  144.61 input  175.53 | X-H torsion
[ 8008 7997 7996 7995 ] final  -95.23 input   59.86 | X-H torsion
[ 10167 10162 10161 10158 ] final  169.55 input  -65.29 | X-H torsion
[ 10718 10713 10712 10709 ] final   76.99 input   66.30 | X-H torsion
[ 10763 10752 10751 10750 ] final  -71.57 input  -60.55 | X-H torsion
[ 11005 11000 10999 10996 ] final  138.77 input  -57.11 | X-H torsion

> <Gold.Protein.ActiveResidues>
 VAL166  LYS551  ARG553  GLY616  TRP617  ASP618  TYR619  PRO620  LYS621  CYS622 
 ASP623  PHE694  ASN695  SER759  ASP760  ASP761  ALA762  ILE779  LEU786  VAL792 
 PHE793  MET794  SER795  GLU796  ALA797  LYS798  CYS799  TRP800  GLU811  SER814 

> <Gold.Protein.RotatedAtoms>
  151.2872  133.4182  159.2630 H   0  0  0  0  0  0  0  0  0  0  0  0  # atno 6907 bound_to 6896
  151.0309  134.9539  159.8120 H   0  0  0  0  0  0  0  0  0  0  0  0  # atno 6908 bound_to 6896
  152.5345  134.2833  159.9068 H   0  0  0  0  0  0  0  0  0  0  0  0  # atno 6909 bound_to 6896
  144.8821  139.5684  143.5838 H   0  0  0  0  0  0  0  0  0  0  0  0  # atno 7974 bound_to 7965
  154.7586  140.0482  157.0954 H   0  0  0  0  0  0  0  0  0  0  0  0  # atno 8008 bound_to 7997
  154.9966  140.3119  155.4865 H   0  0  0  0  0  0  0  0  0  0  0  0  # atno 8009 bound_to 7997
  156.2900  140.2209  156.5073 H   0  0  0  0  0  0  0  0  0  0  0  0  # atno 8010 bound_to 7997
  139.4995  144.3693  151.9741 H   0  0  0  0  0  0  0  0  0  0  0  0  # atno 10167 bound_to 10162
  157.6694  130.9800  150.1577 H   0  0  0  0  0  0  0  0  0  0  0  0  # atno 10718 bound_to 10713
  154.4335  135.5958  153.6084 H   0  0  0  0  0  0  0  0  0  0  0  0  # atno 10763 bound_to 10752
  152.9800  135.5981  154.3809 H   0  0  0  0  0  0  0  0  0  0  0  0  # atno 10764 bound_to 10752
  154.3650  135.2841  155.2277 H   0  0  0  0  0  0  0  0  0  0  0  0  # atno 10765 bound_to 10752
  140.0207  134.9398  157.0468 H   0  0  0  0  0  0  0  0  0  0  0  0  # atno 11005 bound_to 11000
  146.3001  139.7399  142.9098 LP  0  0  0  0  0  0  0  0  0  0  0  0  # atno 17320 bound_to 7965
  145.3935  141.0375  143.3110 LP  0  0  0  0  0  0  0  0  0  0  0  0  # atno 17321 bound_to 7965
  140.3130  144.3516  150.6029 LP  0  0  0  0  0  0  0  0  0  0  0  0  # atno 17342 bound_to 10162
  140.5784  143.2174  151.7473 LP  0  0  0  0  0  0  0  0  0  0  0  0  # atno 17343 bound_to 10162
  156.2361  130.3686  149.8390 LP  0  0  0  0  0  0  0  0  0  0  0  0  # atno 17370 bound_to 10713
  156.6203  130.8623  151.3474 LP  0  0  0  0  0  0  0  0  0  0  0  0  # atno 17371 bound_to 10713
  140.4392  134.1698  155.7173 LP  0  0  0  0  0  0  0  0  0  0  0  0  # atno 17394 bound_to 11000
  141.1772  133.8490  157.1382 LP  0  0  0  0  0  0  0  0  0  0  0  0  # atno 17395 bound_to 11000

$$$$
