AV-unprocessed.smi:3116|AV-procd|sdf|11865|dock7
  -GOLD-   2272017243D 1   1.00000     0.00000
 Structure written by MMmdl.
 34 34  0  0  0  0  0  0  0  0  2 V2000
  146.5354  137.5818  154.5972 C   0  0  0  0  0  0  0  0  0  0  0  0
  146.8826  138.6535  153.5529 C   0  0  1  0  0  0  0  0  0  0  0  0
  148.3434  138.6497  153.3036 N   0  3  0  0  0  0  0  0  0  0  0  0
  149.2070  138.9390  154.4756 C   0  0  1  0  0  0  0  0  0  0  0  0
  150.6858  138.8977  154.0454 C   0  0  0  0  0  0  0  0  0  0  0  0
  148.8062  140.2994  155.1045 C   0  0  2  0  0  0  0  0  0  0  0  0
  148.5359  141.4021  154.0627 C   0  0  0  0  0  0  0  0  0  0  0  0
  149.8210  140.7498  156.0517 N   0  0  0  0  0  0  0  0  0  0  0  0
  150.5448  141.9266  156.0556 C   0  0  0  0  0  0  0  0  0  0  0  0
  151.4036  141.8755  157.1157 C   0  0  0  0  0  0  0  0  0  0  0  0
  151.1406  140.6072  157.7029 C   0  0  0  0  0  0  0  0  0  0  0  0
  150.2003  139.9337  157.0600 N   0  0  0  0  0  0  0  0  0  0  0  0
  146.0910  138.4021  152.2615 C   0  0  0  0  0  0  0  0  0  0  0  0
  144.7842  138.1566  152.3858 N   0  0  0  0  0  0  0  0  0  0  0  0
  146.6517  138.4150  151.1672 O   0  0  0  0  0  0  0  0  0  0  0  0
  145.4671  137.5742  154.8183 H   0  0  0  0  0  0  0  0  0  0  0  0
  147.0595  137.7666  155.5356 H   0  0  0  0  0  0  0  0  0  0  0  0
  146.8112  136.5831  154.2553 H   0  0  0  0  0  0  0  0  0  0  0  0
  146.5963  139.6240  153.9604 H   0  0  0  0  0  0  0  0  0  0  0  0
  148.6127  137.7498  152.9332 H   0  0  0  0  0  0  0  0  0  0  0  0
  149.0464  138.1657  155.2285 H   0  0  0  0  0  0  0  0  0  0  0  0
  151.3567  139.0062  154.8971 H   0  0  0  0  0  0  0  0  0  0  0  0
  150.9139  139.6948  153.3369 H   0  0  0  0  0  0  0  0  0  0  0  0
  150.9405  137.9513  153.5688 H   0  0  0  0  0  0  0  0  0  0  0  0
  147.8787  140.1568  155.6630 H   0  0  0  0  0  0  0  0  0  0  0  0
  147.6544  141.1807  153.4616 H   0  0  0  0  0  0  0  0  0  0  0  0
  149.3789  141.5285  153.3830 H   0  0  0  0  0  0  0  0  0  0  0  0
  148.3529  142.3619  154.5476 H   0  0  0  0  0  0  0  0  0  0  0  0
  150.3937  142.6949  155.3118 H   0  0  0  0  0  0  0  0  0  0  0  0
  152.1165  142.6270  157.4214 H   0  0  0  0  0  0  0  0  0  0  0  0
  151.6052  140.1569  158.5678 H   0  0  0  0  0  0  0  0  0  0  0  0
  144.2166  137.9927  151.5667 H   0  0  0  0  0  0  0  0  0  0  0  0
  144.3635  138.1435  153.3042 H   0  0  0  0  0  0  0  0  0  0  0  0
  148.5252  139.3505  152.5978 H   0  0  0  0  0  0  0  0  0  0  0  0
  1  2  1  0  0  0  0
  1 16  1  0  0  0  0
  1 17  1  0  0  0  0
  1 18  1  0  0  0  0
  2  3  1  0  0  0  0
  2 13  1  0  0  0  0
  2 19  1  0  0  0  0
  3  4  1  0  0  0  0
  3 20  1  0  0  0  0
  3 34  1  0  0  0  0
  4  5  1  0  0  0  0
  4  6  1  0  0  0  0
  4 21  1  0  0  0  0
  5 22  1  0  0  0  0
  5 23  1  0  0  0  0
  5 24  1  0  0  0  0
  6  7  1  0  0  0  0
  6  8  1  0  0  0  0
  6 25  1  0  0  0  0
  7 26  1  0  0  0  0
  7 27  1  0  0  0  0
  7 28  1  0  0  0  0
  8 12  1  0  0  0  0
  8  9  1  0  0  0  0
  9 10  2  0  0  0  0
  9 29  1  0  0  0  0
 10 11  1  0  0  0  0
 10 30  1  0  0  0  0
 11 12  2  0  0  0  0
 11 31  1  0  0  0  0
 13 14  1  0  0  0  0
 13 15  2  0  0  0  0
 14 32  1  0  0  0  0
 14 33  1  0  0  0  0
M  CHG  1   3   1
M  END
> <s_m_source_file>
AV-unprocessed.smi

> <i_m_source_file_index>
3116

> <i_lp_mmshare_version>
43012

> <i_f3d_flags>
0

> <s_epik_input>
W05IMl1DKD1PKVtDQEhdKFtDSDNdKVtOSF1bQ0BIXShbQ0gzXSlbQ0BIXShbQ0gzXSluMVtjSF1bY0hdW2NIXW4x

> <s_epik_cmdline>
J2VwaWtfcHl0aG9uJywgJy1waCcsICc3LjAnLCAnLXRuJywgJzgnLCAnLW1hJywgJzIwMCcsICctbWV0YWxfYmluZGluZycsICctaW1hZScsICc8aW5maWxlLm1hZT4nLCAnLW9tYWUnLCAnPG91dGZpbGUubWFlPic=

> <r_lp_tautomer_probability>
1

> <r_epik_Ionization_Penalty>
0.15658

> <r_epik_Ionization_Penalty_Charging>
0.156568

> <r_epik_Ionization_Penalty_Neutral>
1.19778e-05

> <r_epik_State_Penalty>
0.145866

> <r_epik_Charging_Adjusted_Penalty>
0.302434

> <i_epik_Tot_Q>
1

> <i_epik_Tot_abs_Q>
1

> <r_epik_Metal_State_Penalty>
0.146064

> <b_epik_Metal_Only>
0

> <s_lp_Force_Field>
OPLS_2005

> <r_lp_Energy>
9.00386

> <b_lp_Chiralities_Consistent>
1

> <s_lp_Variant>
AV-unprocessed.smi:3116-4

> <Gold.Version>
5.8.1

> <Gold.Id.Protein>
6NUR|6NUR_protein|mol2

> <Gold.PLP.Fitness>
43.9851

> <Gold.PLP.PLP>
-26.9813

> <Gold.PLP.part.hbond>
-5.0000

> <Gold.PLP.part.metal>
0.0000

> <Gold.PLP.part.buried>
-4.4329

> <Gold.PLP.part.nonpolar>
-19.3708

> <Gold.PLP.part.repulsive>
0.4417

> <Gold.PLP.ligand.clash>
0.0000

> <Gold.PLP.ligand.torsion>
0.5353

> <Gold.PLP.Chemscore.Hbond>
4.9840

> <Gold.PLP.Chemscore.CHOScore>
1.0000

> <Gold.PLP.Chemscore.Metal>
0.0000

> <Gold.Chemscore.Hbonds>
donor molecule, donor type, donor heavy atom, donor atom, acceptor molecule, acceptor atom, score
      L1  H     3    20       P1  7948  2.00
      L1  H     3    34       P1  7957  1.00
      L1  H    14    32       P1 10171  0.88
      P1  H  7954  7966       L1    15  0.96
      L1  C     9    29       P1  8028  0.86

> <Gold.PLP.Chemscore.Internal.Correction>
0.1225

> <Gold.Rescore>
     Score         DG    S(hbond)    S(metal)    S(lipo)     H(rot)  DE(clash)    DE(int)     intcor
     18.09     -18.80       3.95        0.00      54.59       2.45       0.18       0.54       ----

> <Gold.Chemscore.Fitness>
18.0861

> <Gold.Chemscore.DG>
-18.8034

> <Gold.Chemscore.ZeroCoef>
-5.4800

> <Gold.Chemscore.Hbond>
3.9521

> <Gold.Chemscore.Metal>
0.0000

> <Gold.Chemscore.Lipo>
54.5854

> <Gold.Chemscore.Internal_Hbond>
0.0000

> <Gold.Chemscore.DEClash>
0.1797

> <Gold.Chemscore.DEInternal>
0.5376

> <Gold.Chemscore.Rot>
2.4465

> <Gold.Chemscore.Internal.Correction>
   9.000000E+99

> <Gold.Chemscore.Hbonds>
donor molecule, donor type, donor heavy atom, donor atom, acceptor molecule, acceptor atom, score
      L1  H     3    20       P1  7948  1.00
      L1  H     3    34       P1  7957  0.94
      L1  H    14    32       P1 10171  0.86
      P1  H  7954  7966       L1    15  0.89

> <Gold.Chemscore.Hbond.Weighted>
-13.2000

> <Gold.Chemscore.Metal.Weighted>
-0.0000

> <Gold.Chemscore.Lipo.Weighted>
-6.3865

> <Gold.Chemscore.Internal_Hbond.Weighted>
0.0000

> <Gold.Chemscore.DEClash.Weighted>
0.1797

> <Gold.Chemscore.DEInternal.Weighted>
0.5376

> <Gold.Chemscore.Rot.Weighted>
6.2631

> <Gold.Chemscore.Internal.Correction.Weighted>
   9.000000E+99

> <Gold.Protein.RotatedTorsions>
[ 6907 6896 6895 6894 ] final  144.56 input  -60.11 | X-H torsion
[ 7974 7965 7964 7962 ] final  -76.93 input  175.53 | X-H torsion
[ 8008 7997 7996 7995 ] final -178.45 input   59.86 | X-H torsion
[ 10167 10162 10161 10158 ] final  150.72 input  -65.29 | X-H torsion
[ 10718 10713 10712 10709 ] final  140.97 input   66.30 | X-H torsion
[ 10763 10752 10751 10750 ] final -145.98 input  -60.55 | X-H torsion
[ 11005 11000 10999 10996 ] final   33.47 input  -57.11 | X-H torsion

> <Gold.Protein.ActiveResidues>
 VAL166  LYS551  ARG553  GLY616  TRP617  ASP618  TYR619  PRO620  LYS621  CYS622 
 ASP623  PHE694  ASN695  SER759  ASP760  ASP761  ALA762  ILE779  LEU786  VAL792 
 PHE793  MET794  SER795  GLU796  ALA797  LYS798  CYS799  TRP800  GLU811  SER814 

> <Gold.Protein.RotatedAtoms>
  152.1921  133.4780  159.5012 H   0  0  0  0  0  0  0  0  0  0  0  0  # atno 6907 bound_to 6896
  150.6953  134.1700  159.4217 H   0  0  0  0  0  0  0  0  0  0  0  0  # atno 6908 bound_to 6896
  151.9614  135.0121  160.0598 H   0  0  0  0  0  0  0  0  0  0  0  0  # atno 6909 bound_to 6896
  145.6063  140.9397  143.1213 H   0  0  0  0  0  0  0  0  0  0  0  0  # atno 7974 bound_to 7965
  156.0190  140.1257  157.0377 H   0  0  0  0  0  0  0  0  0  0  0  0  # atno 8008 bound_to 7997
  154.4304  140.1072  156.6007 H   0  0  0  0  0  0  0  0  0  0  0  0  # atno 8009 bound_to 7997
  155.5972  140.3470  155.4585 H   0  0  0  0  0  0  0  0  0  0  0  0  # atno 8010 bound_to 7997
  139.4847  144.5499  151.7419 H   0  0  0  0  0  0  0  0  0  0  0  0  # atno 10167 bound_to 10162
  157.3973  131.1012  151.0587 H   0  0  0  0  0  0  0  0  0  0  0  0  # atno 10718 bound_to 10713
  154.8358  135.3398  154.6590 H   0  0  0  0  0  0  0  0  0  0  0  0  # atno 10763 bound_to 10752
  153.7205  135.6958  153.5018 H   0  0  0  0  0  0  0  0  0  0  0  0  # atno 10764 bound_to 10752
  153.2385  135.4392  155.0625 H   0  0  0  0  0  0  0  0  0  0  0  0  # atno 10765 bound_to 10752
  140.2628  134.3172  155.7852 H   0  0  0  0  0  0  0  0  0  0  0  0  # atno 11005 bound_to 11000
  144.7288  139.7790  143.7355 LP  0  0  0  0  0  0  0  0  0  0  0  0  # atno 17320 bound_to 7965
  146.1538  139.4629  143.0032 LP  0  0  0  0  0  0  0  0  0  0  0  0  # atno 17321 bound_to 7965
  140.5051  144.1110  150.5980 LP  0  0  0  0  0  0  0  0  0  0  0  0  # atno 17342 bound_to 10162
  140.4016  143.2701  151.9941 LP  0  0  0  0  0  0  0  0  0  0  0  0  # atno 17343 bound_to 10162
  157.1598  130.6221  149.5607 LP  0  0  0  0  0  0  0  0  0  0  0  0  # atno 17370 bound_to 10713
  155.9814  130.4821  150.6824 LP  0  0  0  0  0  0  0  0  0  0  0  0  # atno 17371 bound_to 10713
  141.2188  133.7420  156.9214 LP  0  0  0  0  0  0  0  0  0  0  0  0  # atno 17394 bound_to 11000
  140.1448  134.9270  157.2515 LP  0  0  0  0  0  0  0  0  0  0  0  0  # atno 17395 bound_to 11000

$$$$
