AV-unprocessed.smi:2327|AV-procd|sdf|9298|dock10
  -GOLD-   2272012523D 1   1.00000     0.00000
 Structure written by MMmdl.
 40 41  0  0  0  0  0  0  0  0  1 V2000
  151.9662  138.1398  154.8629 C   0  0  0  0  0  0  0  0  0  0  0  0
  150.8834  139.1723  154.8314 C   0  0  0  0  0  0  0  0  0  0  0  0
  150.8876  140.3922  155.4602 C   0  0  0  0  0  0  0  0  0  0  0  0
  149.4203  141.2820  155.1609 S   0  0  0  0  0  0  0  0  0  0  0  0
  148.8419  139.9403  154.1784 C   0  0  0  0  0  0  0  0  0  0  0  0
  147.5221  139.9554  153.4665 C   0  0  2  0  0  0  0  0  0  0  0  0
  146.8691  141.3446  153.4807 C   0  0  0  0  0  0  0  0  0  0  0  0
  146.5715  138.8351  153.9398 C   0  0  0  0  0  0  0  0  0  0  0  0
  146.8536  137.5665  153.2773 N   0  0  0  0  0  0  0  0  0  0  0  0
  145.9641  136.5806  153.0786 C   0  0  0  0  0  0  0  0  0  0  0  0
  144.8312  136.5827  153.5562 O   0  0  0  0  0  0  0  0  0  0  0  0
  146.4131  135.5701  152.3134 N   0  0  0  0  0  0  0  0  0  0  0  0
  145.6947  134.3578  151.9142 C   0  0  0  0  0  0  0  0  0  0  0  0
  146.7007  133.2494  151.5707 C   0  0  0  0  0  0  0  0  0  0  0  0
  145.9770  132.0127  151.0144 C   0  0  0  0  0  0  0  0  0  0  0  0
  145.2003  132.3745  149.8775 O   0  0  0  0  0  0  0  0  0  0  0  0
  144.1751  133.3142  150.1823 C   0  0  0  0  0  0  0  0  0  0  0  0
  144.7949  134.6242  150.6951 C   0  0  0  0  0  0  0  0  0  0  0  0
  149.7165  138.9323  154.1008 N   0  0  0  0  0  0  0  0  0  0  0  0
  152.7684  138.4237  155.5444 H   0  0  0  0  0  0  0  0  0  0  0  0
  152.4061  138.0008  153.8752 H   0  0  0  0  0  0  0  0  0  0  0  0
  151.5811  137.1748  155.1932 H   0  0  0  0  0  0  0  0  0  0  0  0
  151.6613  140.8200  156.0804 H   0  0  0  0  0  0  0  0  0  0  0  0
  147.7463  139.7439  152.4198 H   0  0  0  0  0  0  0  0  0  0  0  0
  147.5311  142.0937  153.0457 H   0  0  0  0  0  0  0  0  0  0  0  0
  146.6296  141.6601  154.4968 H   0  0  0  0  0  0  0  0  0  0  0  0
  145.9431  141.3480  152.9050 H   0  0  0  0  0  0  0  0  0  0  0  0
  146.6993  138.6757  155.0109 H   0  0  0  0  0  0  0  0  0  0  0  0
  145.5293  139.1227  153.7924 H   0  0  0  0  0  0  0  0  0  0  0  0
  147.7699  137.4649  152.8657 H   0  0  0  0  0  0  0  0  0  0  0  0
  147.3909  135.5999  152.0621 H   0  0  0  0  0  0  0  0  0  0  0  0
  145.0803  133.9999  152.7430 H   0  0  0  0  0  0  0  0  0  0  0  0
  147.4139  133.6102  150.8281 H   0  0  0  0  0  0  0  0  0  0  0  0
  147.2794  132.9772  152.4543 H   0  0  0  0  0  0  0  0  0  0  0  0
  146.7037  131.2561  150.7179 H   0  0  0  0  0  0  0  0  0  0  0  0
  145.3393  131.5598  151.7753 H   0  0  0  0  0  0  0  0  0  0  0  0
  143.5928  133.5041  149.2805 H   0  0  0  0  0  0  0  0  0  0  0  0
  143.4900  132.8939  150.9204 H   0  0  0  0  0  0  0  0  0  0  0  0
  144.0052  135.3327  150.9471 H   0  0  0  0  0  0  0  0  0  0  0  0
  145.3799  135.0811  149.8957 H   0  0  0  0  0  0  0  0  0  0  0  0
  1  2  1  0  0  0  0
  1 20  1  0  0  0  0
  1 21  1  0  0  0  0
  1 22  1  0  0  0  0
  2 19  1  0  0  0  0
  2  3  2  0  0  0  0
  3  4  1  0  0  0  0
  3 23  1  0  0  0  0
  4  5  1  0  0  0  0
  5  6  1  0  0  0  0
  5 19  2  0  0  0  0
  6  7  1  0  0  0  0
  6  8  1  0  0  0  0
  6 24  1  0  0  0  0
  7 25  1  0  0  0  0
  7 26  1  0  0  0  0
  7 27  1  0  0  0  0
  8  9  1  0  0  0  0
  8 28  1  0  0  0  0
  8 29  1  0  0  0  0
  9 10  1  0  0  0  0
  9 30  1  0  0  0  0
 10 11  2  0  0  0  0
 10 12  1  0  0  0  0
 12 13  1  0  0  0  0
 12 31  1  0  0  0  0
 13 18  1  0  0  0  0
 13 14  1  0  0  0  0
 13 32  1  0  0  0  0
 14 15  1  0  0  0  0
 14 33  1  0  0  0  0
 14 34  1  0  0  0  0
 15 16  1  0  0  0  0
 15 35  1  0  0  0  0
 15 36  1  0  0  0  0
 16 17  1  0  0  0  0
 17 18  1  0  0  0  0
 17 37  1  0  0  0  0
 17 38  1  0  0  0  0
 18 39  1  0  0  0  0
 18 40  1  0  0  0  0
M  END
> <s_m_source_file>
AV-unprocessed.smi

> <i_m_source_file_index>
2327

> <i_lp_mmshare_version>
43012

> <i_f3d_flags>
0

> <s_epik_input>
W0NIM11jMVtjSF1zYyhuMSlbQ0BIXShbQ0gzXSlbQ0gyXVtOSF1DKD1PKVtOSF1bQ0hdMltDSDJdW0NIMl1PW0NIMl1bQ0gyXTI=

> <s_epik_cmdline>
J2VwaWtfcHl0aG9uJywgJy1waCcsICc3LjAnLCAnLXRuJywgJzgnLCAnLW1hJywgJzIwMCcsICctbWV0YWxfYmluZGluZycsICctaW1hZScsICc8aW5maWxlLm1hZT4nLCAnLW9tYWUnLCAnPG91dGZpbGUubWFlPic=

> <r_epik_Ionization_Penalty>
0.0015425

> <r_epik_Ionization_Penalty_Charging>
0

> <r_epik_Ionization_Penalty_Neutral>
0.0015425

> <r_epik_State_Penalty>
0.000998134

> <r_epik_Charging_Adjusted_Penalty>
0.000998134

> <i_epik_Tot_Q>
0

> <i_epik_Tot_abs_Q>
0

> <r_epik_Metal_State_Penalty>
-0

> <b_epik_Metal_Only>
0

> <s_lp_Force_Field>
OPLS_2005

> <r_lp_Energy>
7.05585

> <b_lp_Chiralities_Consistent>
1

> <s_lp_Variant>
AV-unprocessed.smi:2327-1

> <Gold.Version>
5.8.1

> <Gold.Id.Protein>
6NUR|6NUR_protein|mol2

> <Gold.PLP.Fitness>
37.7374

> <Gold.PLP.PLP>
-33.7972

> <Gold.PLP.part.hbond>
-2.0000

> <Gold.PLP.part.metal>
0.0000

> <Gold.PLP.part.buried>
-3.2083

> <Gold.PLP.part.nonpolar>
-29.8341

> <Gold.PLP.part.repulsive>
0.5017

> <Gold.PLP.ligand.clash>
0.0000

> <Gold.PLP.ligand.torsion>
0.9575

> <Gold.PLP.Chemscore.Hbond>
1.9120

> <Gold.PLP.Chemscore.CHOScore>
0.0000

> <Gold.PLP.Chemscore.Metal>
0.0000

> <Gold.Chemscore.Hbonds>
donor molecule, donor type, donor heavy atom, donor atom, acceptor molecule, acceptor atom, score
      L1  H     9    30       P1  7948  0.90
      L1  H    12    31       P1  7948  1.00

> <Gold.PLP.Chemscore.Internal.Correction>
0.1192

> <Gold.Rescore>
     Score         DG    S(hbond)    S(metal)    S(lipo)     H(rot)  DE(clash)    DE(int)     intcor
     16.96     -18.16       1.92        0.00      87.10       1.53       0.14       1.06       ----

> <Gold.Chemscore.Fitness>
16.9577

> <Gold.Chemscore.DG>
-18.1574

> <Gold.Chemscore.ZeroCoef>
-5.4800

> <Gold.Chemscore.Hbond>
1.9190

> <Gold.Chemscore.Metal>
0.0000

> <Gold.Chemscore.Lipo>
87.1036

> <Gold.Chemscore.Internal_Hbond>
0.0000

> <Gold.Chemscore.DEClash>
0.1412

> <Gold.Chemscore.DEInternal>
1.0584

> <Gold.Chemscore.Rot>
1.5325

> <Gold.Chemscore.Internal.Correction>
   9.000000E+99

> <Gold.Chemscore.Hbonds>
donor molecule, donor type, donor heavy atom, donor atom, acceptor molecule, acceptor atom, score
      L1  H     9    30       P1  7948  0.86
      L1  H    12    31       P1  7948  0.99

> <Gold.Chemscore.Hbond.Weighted>
-6.4096

> <Gold.Chemscore.Metal.Weighted>
-0.0000

> <Gold.Chemscore.Lipo.Weighted>
-10.1911

> <Gold.Chemscore.Internal_Hbond.Weighted>
0.0000

> <Gold.Chemscore.DEClash.Weighted>
0.1412

> <Gold.Chemscore.DEInternal.Weighted>
1.0584

> <Gold.Chemscore.Rot.Weighted>
3.9233

> <Gold.Chemscore.Internal.Correction.Weighted>
   9.000000E+99

> <Gold.Protein.RotatedTorsions>
[ 6907 6896 6895 6894 ] final -144.04 input  -60.11 | X-H torsion
[ 7974 7965 7964 7962 ] final  -77.09 input  175.53 | X-H torsion
[ 8008 7997 7996 7995 ] final -141.09 input   59.86 | X-H torsion
[ 10167 10162 10161 10158 ] final  144.74 input  -65.29 | X-H torsion
[ 10718 10713 10712 10709 ] final  174.11 input   66.30 | X-H torsion
[ 10763 10752 10751 10750 ] final  107.33 input  -60.55 | X-H torsion
[ 11005 11000 10999 10996 ] final  171.84 input  -57.11 | X-H torsion

> <Gold.Protein.ActiveResidues>
 VAL166  LYS551  ARG553  GLY616  TRP617  ASP618  TYR619  PRO620  LYS621  CYS622 
 ASP623  PHE694  ASN695  SER759  ASP760  ASP761  ALA762  ILE779  LEU786  VAL792 
 PHE793  MET794  SER795  GLU796  ALA797  LYS798  CYS799  TRP800  GLU811  SER814 

> <Gold.Protein.RotatedAtoms>
  151.1087  133.5189  159.2606 H   0  0  0  0  0  0  0  0  0  0  0  0  # atno 6907 bound_to 6896
  151.1992  135.0435  159.8875 H   0  0  0  0  0  0  0  0  0  0  0  0  # atno 6908 bound_to 6896
  152.5448  134.0917  159.8333 H   0  0  0  0  0  0  0  0  0  0  0  0  # atno 6909 bound_to 6896
  145.6042  140.9402  143.1224 H   0  0  0  0  0  0  0  0  0  0  0  0  # atno 7974 bound_to 7965
  155.4721  140.0554  157.2978 H   0  0  0  0  0  0  0  0  0  0  0  0  # atno 8008 bound_to 7997
  154.4694  140.2033  155.9987 H   0  0  0  0  0  0  0  0  0  0  0  0  # atno 8009 bound_to 7997
  156.1030  140.3216  155.7972 H   0  0  0  0  0  0  0  0  0  0  0  0  # atno 8010 bound_to 7997
  139.4940  144.5951  151.6600 H   0  0  0  0  0  0  0  0  0  0  0  0  # atno 10167 bound_to 10162
  156.9543  131.0041  151.2941 H   0  0  0  0  0  0  0  0  0  0  0  0  # atno 10718 bound_to 10713
  153.4053  135.3848  155.2014 H   0  0  0  0  0  0  0  0  0  0  0  0  # atno 10763 bound_to 10752
  154.8733  135.3781  154.4568 H   0  0  0  0  0  0  0  0  0  0  0  0  # atno 10764 bound_to 10752
  153.5070  135.7087  153.5863 H   0  0  0  0  0  0  0  0  0  0  0  0  # atno 10765 bound_to 10752
  140.3233  134.7419  157.4080 H   0  0  0  0  0  0  0  0  0  0  0  0  # atno 11005 bound_to 11000
  144.7297  139.7765  143.7352 LP  0  0  0  0  0  0  0  0  0  0  0  0  # atno 17320 bound_to 7965
  146.1553  139.4649  143.0023 LP  0  0  0  0  0  0  0  0  0  0  0  0  # atno 17321 bound_to 7965
  140.5587  144.0305  150.6159 LP  0  0  0  0  0  0  0  0  0  0  0  0  # atno 17342 bound_to 10162
  140.3384  143.3035  152.0614 LP  0  0  0  0  0  0  0  0  0  0  0  0  # atno 17343 bound_to 10162
  157.5700  130.8304  149.8379 LP  0  0  0  0  0  0  0  0  0  0  0  0  # atno 17370 bound_to 10713
  156.0349  130.3754  150.1587 LP  0  0  0  0  0  0  0  0  0  0  0  0  # atno 17371 bound_to 10713
  140.0923  134.5584  155.8432 LP  0  0  0  0  0  0  0  0  0  0  0  0  # atno 17394 bound_to 11000
  141.2081  133.6670  156.6350 LP  0  0  0  0  0  0  0  0  0  0  0  0  # atno 17395 bound_to 11000

$$$$
