AV-unprocessed.smi:733|AV-procd|sdf|3529|dock6
  -GOLD-   22720 0523D 1   1.00000     0.00000
 Structure written by MMmdl.
 43 44  0  0  0  0  0  0  0  0  1 V2000
  144.7033  131.5078  151.0930 C   0  0  0  0  0  0  0  0  0  0  0  0
  145.9074  131.7080  151.9612 C   0  0  0  0  0  0  0  0  0  0  0  0
  146.4327  132.9927  152.1285 N   0  0  0  0  0  0  0  0  0  0  0  0
  147.5022  133.0019  152.9306 C   0  0  0  0  0  0  0  0  0  0  0  0
  148.2344  134.1675  153.2774 N   0  0  0  0  0  0  0  0  0  0  0  0
  148.7946  134.4761  154.4599 C   0  0  0  0  0  0  0  0  0  0  0  0
  148.7491  133.7767  155.4723 O   0  0  0  0  0  0  0  0  0  0  0  0
  149.4247  135.6584  154.4008 N   0  0  0  0  0  0  0  0  0  0  0  0
  150.1600  136.2941  155.4935 C   0  0  0  0  0  0  0  0  0  0  0  0
  150.6504  137.7268  155.1416 C   0  0  0  0  0  0  0  0  0  0  0  0
  149.4761  138.6620  154.7237 C   0  0  0  0  0  0  0  0  0  0  0  0
  149.7334  140.1835  154.7707 C   0  0  0  0  0  0  0  0  0  0  0  0
  149.9548  140.7236  153.4857 O   0  0  0  0  0  0  0  0  0  0  0  0
  151.4413  138.3109  156.3379 C   0  0  0  0  0  0  0  0  0  0  0  0
  152.9149  138.0397  156.0523 C   0  0  0  0  0  0  0  0  0  0  0  0
  153.0150  138.2417  154.5478 C   0  0  0  0  0  0  0  0  0  0  0  0
  151.7061  137.6676  153.9998 C   0  0  0  0  0  0  0  0  0  0  0  0
  147.9392  131.4150  153.5395 S   0  0  0  0  0  0  0  0  0  0  0  0
  146.5980  130.7374  152.6500 C   0  0  0  0  0  0  0  0  0  0  0  0
  146.3117  129.2731  152.6922 C   0  0  0  0  0  0  0  0  0  0  0  0
  144.9460  130.9008  150.2208 H   0  0  0  0  0  0  0  0  0  0  0  0
  144.3023  132.4559  150.7329 H   0  0  0  0  0  0  0  0  0  0  0  0
  143.9066  131.0012  151.6378 H   0  0  0  0  0  0  0  0  0  0  0  0
  148.3522  134.8415  152.5356 H   0  0  0  0  0  0  0  0  0  0  0  0
  149.4047  136.1581  153.5240 H   0  0  0  0  0  0  0  0  0  0  0  0
  149.4966  136.3240  156.3577 H   0  0  0  0  0  0  0  0  0  0  0  0
  151.0039  135.6773  155.8078 H   0  0  0  0  0  0  0  0  0  0  0  0
  149.1333  138.3924  153.7236 H   0  0  0  0  0  0  0  0  0  0  0  0
  148.6246  138.4583  155.3742 H   0  0  0  0  0  0  0  0  0  0  0  0
  148.8590  140.6819  155.1899 H   0  0  0  0  0  0  0  0  0  0  0  0
  150.5691  140.4338  155.4230 H   0  0  0  0  0  0  0  0  0  0  0  0
  149.7649  140.0583  152.8419 H   0  0  0  0  0  0  0  0  0  0  0  0
  151.3041  139.3917  156.3927 H   0  0  0  0  0  0  0  0  0  0  0  0
  151.1274  137.9037  157.2997 H   0  0  0  0  0  0  0  0  0  0  0  0
  153.5808  138.6983  156.6106 H   0  0  0  0  0  0  0  0  0  0  0  0
  153.1640  137.0093  156.3096 H   0  0  0  0  0  0  0  0  0  0  0  0
  153.0720  139.3077  154.3234 H   0  0  0  0  0  0  0  0  0  0  0  0
  153.8955  137.7634  154.1174 H   0  0  0  0  0  0  0  0  0  0  0  0
  151.8881  136.6399  153.6864 H   0  0  0  0  0  0  0  0  0  0  0  0
  151.3938  138.2065  153.1045 H   0  0  0  0  0  0  0  0  0  0  0  0
  145.3485  129.0814  153.1659 H   0  0  0  0  0  0  0  0  0  0  0  0
  147.0758  128.7365  153.2549 H   0  0  0  0  0  0  0  0  0  0  0  0
  146.2821  128.8559  151.6855 H   0  0  0  0  0  0  0  0  0  0  0  0
  1  2  1  0  0  0  0
  1 21  1  0  0  0  0
  1 22  1  0  0  0  0
  1 23  1  0  0  0  0
  2 19  2  0  0  0  0
  2  3  1  0  0  0  0
  3  4  2  0  0  0  0
  4  5  1  0  0  0  0
  4 18  1  0  0  0  0
  5  6  1  0  0  0  0
  5 24  1  0  0  0  0
  6  7  2  0  0  0  0
  6  8  1  0  0  0  0
  8  9  1  0  0  0  0
  8 25  1  0  0  0  0
  9 10  1  0  0  0  0
  9 26  1  0  0  0  0
  9 27  1  0  0  0  0
 10 17  1  0  0  0  0
 10 11  1  0  0  0  0
 10 14  1  0  0  0  0
 11 12  1  0  0  0  0
 11 28  1  0  0  0  0
 11 29  1  0  0  0  0
 12 13  1  0  0  0  0
 12 30  1  0  0  0  0
 12 31  1  0  0  0  0
 13 32  1  0  0  0  0
 14 15  1  0  0  0  0
 14 33  1  0  0  0  0
 14 34  1  0  0  0  0
 15 16  1  0  0  0  0
 15 35  1  0  0  0  0
 15 36  1  0  0  0  0
 16 17  1  0  0  0  0
 16 37  1  0  0  0  0
 16 38  1  0  0  0  0
 17 39  1  0  0  0  0
 17 40  1  0  0  0  0
 18 19  1  0  0  0  0
 19 20  1  0  0  0  0
 20 41  1  0  0  0  0
 20 42  1  0  0  0  0
 20 43  1  0  0  0  0
M  END
> <s_m_source_file>
AV-unprocessed.smi

> <i_m_source_file_index>
733

> <i_lp_mmshare_version>
43012

> <i_f3d_flags>
0

> <s_epik_input>
W0NIM11jMW5jKHNjMVtDSDNdKVtOSF1DKD1PKVtOSF1bQ0gyXUMyKFtDSDJdW0NIMl1bT0hdKVtDSDJdW0NIMl1bQ0gyXVtDSDJdMg==

> <s_epik_cmdline>
J2VwaWtfcHl0aG9uJywgJy1waCcsICc3LjAnLCAnLXRuJywgJzgnLCAnLW1hJywgJzIwMCcsICctbWV0YWxfYmluZGluZycsICctaW1hZScsICc8aW5maWxlLm1hZT4nLCAnLW9tYWUnLCAnPG91dGZpbGUubWFlPic=

> <r_lp_tautomer_probability>
0.999

> <r_epik_Ionization_Penalty>
0.000695797

> <r_epik_Ionization_Penalty_Charging>
0

> <r_epik_Ionization_Penalty_Neutral>
0.000695797

> <r_epik_State_Penalty>
0.000177984

> <r_epik_Charging_Adjusted_Penalty>
0.000177984

> <i_epik_Tot_Q>
0

> <i_epik_Tot_abs_Q>
0

> <r_epik_Metal_State_Penalty>
-0

> <b_epik_Metal_Only>
0

> <s_lp_Force_Field>
OPLS_2005

> <r_lp_Energy>
29.226

> <b_lp_Chiralities_Consistent>
1

> <s_lp_Variant>
AV-unprocessed.smi:733-1

> <Gold.Version>
5.8.1

> <Gold.Id.Protein>
6NUR|6NUR_protein|mol2

> <Gold.PLP.Fitness>
45.3863

> <Gold.PLP.PLP>
-34.8964

> <Gold.PLP.part.hbond>
-4.6931

> <Gold.PLP.part.metal>
0.0000

> <Gold.PLP.part.buried>
-1.5116

> <Gold.PLP.part.nonpolar>
-27.7449

> <Gold.PLP.part.repulsive>
0.1865

> <Gold.PLP.ligand.clash>
0.0000

> <Gold.PLP.ligand.torsion>
0.8585

> <Gold.PLP.Chemscore.Hbond>
4.0480

> <Gold.PLP.Chemscore.CHOScore>
0.0000

> <Gold.PLP.Chemscore.Metal>
0.0000

> <Gold.Chemscore.Hbonds>
donor molecule, donor type, donor heavy atom, donor atom, acceptor molecule, acceptor atom, score
      L1  H     5    24       P1  7948  1.00
      L1  H     8    25       P1  7948  0.99
      L1  H    13    32       P1  7957  0.69
      P1  H  7989  7998       L1    13  0.38
      P1  H  8011  8017       L1    13  0.96

> <Gold.PLP.Chemscore.Internal.Correction>
0.0628

> <Gold.Rescore>
     Score         DG    S(hbond)    S(metal)    S(lipo)     H(rot)  DE(clash)    DE(int)     intcor
     18.14     -19.13       2.92        0.00      83.65       2.30       0.16       0.83       ----

> <Gold.Chemscore.Fitness>
18.1362

> <Gold.Chemscore.DG>
-19.1311

> <Gold.Chemscore.ZeroCoef>
-5.4800

> <Gold.Chemscore.Hbond>
2.9188

> <Gold.Chemscore.Metal>
0.0000

> <Gold.Chemscore.Lipo>
83.6546

> <Gold.Chemscore.Internal_Hbond>
0.0000

> <Gold.Chemscore.DEClash>
0.1640

> <Gold.Chemscore.DEInternal>
0.8309

> <Gold.Chemscore.Rot>
2.2990

> <Gold.Chemscore.Internal.Correction>
   9.000000E+99

> <Gold.Chemscore.Hbonds>
donor molecule, donor type, donor heavy atom, donor atom, acceptor molecule, acceptor atom, score
      L1  H     5    24       P1  7948  0.38
      L1  H     8    25       P1  7948  0.62
      L1  H    13    32       P1  7957  0.70
      P1  H  7989  7998       L1    13  0.08
      P1  H  8011  8017       L1    13  0.23

> <Gold.Chemscore.Hbond.Weighted>
-9.7489

> <Gold.Chemscore.Metal.Weighted>
-0.0000

> <Gold.Chemscore.Lipo.Weighted>
-9.7876

> <Gold.Chemscore.Internal_Hbond.Weighted>
0.0000

> <Gold.Chemscore.DEClash.Weighted>
0.1640

> <Gold.Chemscore.DEInternal.Weighted>
0.8309

> <Gold.Chemscore.Rot.Weighted>
5.8854

> <Gold.Chemscore.Internal.Correction.Weighted>
   9.000000E+99

> <Gold.Protein.RotatedTorsions>
[ 6907 6896 6895 6894 ] final   19.52 input  -60.11 | X-H torsion
[ 7974 7965 7964 7962 ] final -161.23 input  175.53 | X-H torsion
[ 8008 7997 7996 7995 ] final  -36.88 input   59.86 | X-H torsion
[ 10167 10162 10161 10158 ] final  134.57 input  -65.29 | X-H torsion
[ 10718 10713 10712 10709 ] final  164.42 input   66.30 | X-H torsion
[ 10763 10752 10751 10750 ] final    2.15 input  -60.55 | X-H torsion
[ 11005 11000 10999 10996 ] final  102.14 input  -57.11 | X-H torsion

> <Gold.Protein.ActiveResidues>
 VAL166  LYS551  ARG553  GLY616  TRP617  ASP618  TYR619  PRO620  LYS621  CYS622 
 ASP623  PHE694  ASN695  SER759  ASP760  ASP761  ALA762  ILE779  LEU786  VAL792 
 PHE793  MET794  SER795  GLU796  ALA797  LYS798  CYS799  TRP800  GLU811  SER814 

> <Gold.Protein.RotatedAtoms>
  151.8822  135.0449  160.0489 H   0  0  0  0  0  0  0  0  0  0  0  0  # atno 6907 bound_to 6896
  152.2503  133.5205  159.5330 H   0  0  0  0  0  0  0  0  0  0  0  0  # atno 6908 bound_to 6896
  150.7082  134.0885  159.3965 H   0  0  0  0  0  0  0  0  0  0  0  0  # atno 6909 bound_to 6896
  144.7398  140.3428  143.6131 H   0  0  0  0  0  0  0  0  0  0  0  0  # atno 7974 bound_to 7965
  154.4064  140.1619  156.2446 H   0  0  0  0  0  0  0  0  0  0  0  0  # atno 8008 bound_to 7997
  155.9172  140.3423  155.6122 H   0  0  0  0  0  0  0  0  0  0  0  0  # atno 8009 bound_to 7997
  155.7266  140.0775  157.2298 H   0  0  0  0  0  0  0  0  0  0  0  0  # atno 8010 bound_to 7997
  139.5251  144.6561  151.5158 H   0  0  0  0  0  0  0  0  0  0  0  0  # atno 10167 bound_to 10162
  157.0947  131.0427  151.2523 H   0  0  0  0  0  0  0  0  0  0  0  0  # atno 10718 bound_to 10713
  153.2992  135.6954  153.7219 H   0  0  0  0  0  0  0  0  0  0  0  0  # atno 10763 bound_to 10752
  153.6140  135.3439  155.2989 H   0  0  0  0  0  0  0  0  0  0  0  0  # atno 10764 bound_to 10752
  154.8546  135.4370  154.2098 H   0  0  0  0  0  0  0  0  0  0  0  0  # atno 10765 bound_to 10752
  139.8776  134.9212  156.5012 H   0  0  0  0  0  0  0  0  0  0  0  0  # atno 11005 bound_to 11000
  145.7357  139.1749  143.2405 LP  0  0  0  0  0  0  0  0  0  0  0  0  # atno 17320 bound_to 7965
  146.1172  140.7354  142.9475 LP  0  0  0  0  0  0  0  0  0  0  0  0  # atno 17321 bound_to 7965
  140.6387  143.8933  150.6671 LP  0  0  0  0  0  0  0  0  0  0  0  0  # atno 17342 bound_to 10162
  140.2260  143.3772  152.1604 LP  0  0  0  0  0  0  0  0  0  0  0  0  # atno 17343 bound_to 10162
  157.4692  130.7698  149.7307 LP  0  0  0  0  0  0  0  0  0  0  0  0  # atno 17370 bound_to 10713
  155.9889  130.3956  150.3098 LP  0  0  0  0  0  0  0  0  0  0  0  0  # atno 17371 bound_to 10713
  140.8588  133.8076  155.9243 LP  0  0  0  0  0  0  0  0  0  0  0  0  # atno 17394 bound_to 11000
  140.9070  134.2307  157.5008 LP  0  0  0  0  0  0  0  0  0  0  0  0  # atno 17395 bound_to 11000

$$$$
