AV-unprocessed.smi:981|AV-procd|sdf|4313|dock5
  -GOLD-   22720 2223D 1   1.00000     0.00000
 Structure written by MMmdl.
 36 37  0  0  0  0  0  0  0  0  1 V2000
  151.4585  138.5515  158.4445 C   0  0  0  0  0  0  0  0  0  0  0  0
  152.6101  139.5624  158.5433 C   0  0  0  0  0  0  0  0  0  0  0  0
  153.4746  139.3710  159.7981 C   0  0  0  0  0  0  0  0  0  0  0  0
  152.1348  140.9739  158.3968 C   0  0  0  0  0  0  0  0  0  0  0  0
  152.3621  141.9321  159.3006 N   0  0  0  0  0  0  0  0  0  0  0  0
  151.8147  143.1646  158.9317 C   0  0  0  0  0  0  0  0  0  0  0  0
  151.9698  144.3518  159.8329 C   0  0  0  0  0  0  0  0  0  0  0  0
  151.2470  145.5919  159.2892 C   0  0  0  0  0  0  0  0  0  0  0  0
  149.8121  145.3568  159.2125 N   0  0  0  0  0  0  0  0  0  0  0  0
  149.0904  144.7405  160.1619 C   0  0  0  0  0  0  0  0  0  0  0  0
  149.5804  144.2963  161.1987 O   0  0  0  0  0  0  0  0  0  0  0  0
  147.7779  144.6220  159.8917 N   0  0  0  0  0  0  0  0  0  0  0  0
  146.7587  144.0196  160.6987 C   0  0  0  0  0  0  0  0  0  0  0  0
  145.5749  144.8838  161.0766 C   0  0  0  0  0  0  0  0  0  0  0  0
  146.5958  144.5185  162.1183 C   0  0  0  0  0  0  0  0  0  0  0  0
  151.1628  143.1273  157.7247 C   0  0  0  0  0  0  0  0  0  0  0  0
  151.2141  141.5408  157.0074 S   0  0  0  0  0  0  0  0  0  0  0  0
  150.9183  138.6637  157.5040 H   0  0  0  0  0  0  0  0  0  0  0  0
  150.7435  138.6836  159.2572 H   0  0  0  0  0  0  0  0  0  0  0  0
  151.8298  137.5276  158.4917 H   0  0  0  0  0  0  0  0  0  0  0  0
  153.2616  139.3686  157.6903 H   0  0  0  0  0  0  0  0  0  0  0  0
  154.3280  140.0498  159.7935 H   0  0  0  0  0  0  0  0  0  0  0  0
  153.8621  138.3537  159.8569 H   0  0  0  0  0  0  0  0  0  0  0  0
  152.9023  139.5614  160.7067 H   0  0  0  0  0  0  0  0  0  0  0  0
  151.5878  144.1136  160.8266 H   0  0  0  0  0  0  0  0  0  0  0  0
  153.0283  144.5790  159.9666 H   0  0  0  0  0  0  0  0  0  0  0  0
  151.4411  146.4504  159.9345 H   0  0  0  0  0  0  0  0  0  0  0  0
  151.6229  145.8422  158.2958 H   0  0  0  0  0  0  0  0  0  0  0  0
  149.3341  145.6871  158.3867 H   0  0  0  0  0  0  0  0  0  0  0  0
  147.4741  144.9679  158.9929 H   0  0  0  0  0  0  0  0  0  0  0  0
  146.5252  142.9698  160.5281 H   0  0  0  0  0  0  0  0  0  0  0  0
  145.5622  145.9144  160.7266 H   0  0  0  0  0  0  0  0  0  0  0  0
  144.6016  144.4016  161.1373 H   0  0  0  0  0  0  0  0  0  0  0  0
  146.3042  143.7924  162.8745 H   0  0  0  0  0  0  0  0  0  0  0  0
  147.2668  145.3037  162.4617 H   0  0  0  0  0  0  0  0  0  0  0  0
  150.6558  143.9341  157.2165 H   0  0  0  0  0  0  0  0  0  0  0  0
  1  2  1  0  0  0  0
  1 18  1  0  0  0  0
  1 19  1  0  0  0  0
  1 20  1  0  0  0  0
  2  3  1  0  0  0  0
  2  4  1  0  0  0  0
  2 21  1  0  0  0  0
  3 22  1  0  0  0  0
  3 23  1  0  0  0  0
  3 24  1  0  0  0  0
  4 17  1  0  0  0  0
  4  5  2  0  0  0  0
  5  6  1  0  0  0  0
  6  7  1  0  0  0  0
  6 16  2  0  0  0  0
  7  8  1  0  0  0  0
  7 25  1  0  0  0  0
  7 26  1  0  0  0  0
  8  9  1  0  0  0  0
  8 27  1  0  0  0  0
  8 28  1  0  0  0  0
  9 10  1  0  0  0  0
  9 29  1  0  0  0  0
 10 11  2  0  0  0  0
 10 12  1  0  0  0  0
 12 13  1  0  0  0  0
 12 30  1  0  0  0  0
 13 15  1  0  0  0  0
 13 14  1  0  0  0  0
 13 31  1  0  0  0  0
 14 15  1  0  0  0  0
 14 32  1  0  0  0  0
 14 33  1  0  0  0  0
 15 34  1  0  0  0  0
 15 35  1  0  0  0  0
 16 17  1  0  0  0  0
 16 36  1  0  0  0  0
M  END
> <s_m_source_file>
AV-unprocessed.smi

> <i_m_source_file_index>
981

> <i_lp_mmshare_version>
43012

> <i_f3d_flags>
0

> <s_epik_input>
W0NIM11bQ0hdKFtDSDNdKWMxbmMoW2NIXXMxKVtDSDJdW0NIMl1bTkhdQyg9TylbTkhdW0NIXTJbQ0gyXVtDSDJdMg==

> <s_epik_cmdline>
J2VwaWtfcHl0aG9uJywgJy1waCcsICc3LjAnLCAnLXRuJywgJzgnLCAnLW1hJywgJzIwMCcsICctbWV0YWxfYmluZGluZycsICctaW1hZScsICc8aW5maWxlLm1hZT4nLCAnLW9tYWUnLCAnPG91dGZpbGUubWFlPic=

> <r_epik_Ionization_Penalty>
0.00156572

> <r_epik_Ionization_Penalty_Charging>
0

> <r_epik_Ionization_Penalty_Neutral>
0.00156572

> <r_epik_State_Penalty>
0.0010059

> <r_epik_Charging_Adjusted_Penalty>
0.0010059

> <i_epik_Tot_Q>
0

> <i_epik_Tot_abs_Q>
0

> <r_epik_Metal_State_Penalty>
-0

> <b_epik_Metal_Only>
0

> <s_lp_Force_Field>
OPLS_2005

> <r_lp_Energy>
12.4684

> <b_lp_Chiralities_Consistent>
1

> <s_lp_Variant>
AV-unprocessed.smi:981-1

> <Gold.Version>
5.8.1

> <Gold.Id.Protein>
6NUR|6NUR_protein|mol2

> <Gold.PLP.Fitness>
42.0729

> <Gold.PLP.PLP>
-32.0057

> <Gold.PLP.part.hbond>
-3.0000

> <Gold.PLP.part.metal>
0.0000

> <Gold.PLP.part.buried>
-5.2246

> <Gold.PLP.part.nonpolar>
-24.7695

> <Gold.PLP.part.repulsive>
0.5704

> <Gold.PLP.ligand.clash>
0.0000

> <Gold.PLP.ligand.torsion>
0.1812

> <Gold.PLP.Chemscore.Hbond>
2.4320

> <Gold.PLP.Chemscore.CHOScore>
1.0000

> <Gold.PLP.Chemscore.Metal>
0.0000

> <Gold.Chemscore.Hbonds>
donor molecule, donor type, donor heavy atom, donor atom, acceptor molecule, acceptor atom, score
      L1  H     9    29       P1  8029  1.00
      L1  H    12    30       P1  8029  1.00
      P1  H  6933  6944       L1    11  0.20
      L1  C    16    36       P1  8028  1.00

> <Gold.PLP.Chemscore.Internal.Correction>
0.1335

> <Gold.Rescore>
     Score         DG    S(hbond)    S(metal)    S(lipo)     H(rot)  DE(clash)    DE(int)     intcor
     16.87     -19.63       2.40        0.00      89.56       1.70       0.08       2.68       ----

> <Gold.Chemscore.Fitness>
16.8677

> <Gold.Chemscore.DG>
-19.6279

> <Gold.Chemscore.ZeroCoef>
-5.4800

> <Gold.Chemscore.Hbond>
2.4049

> <Gold.Chemscore.Metal>
0.0000

> <Gold.Chemscore.Lipo>
89.5645

> <Gold.Chemscore.Internal_Hbond>
0.0000

> <Gold.Chemscore.DEClash>
0.0754

> <Gold.Chemscore.DEInternal>
2.6849

> <Gold.Chemscore.Rot>
1.7045

> <Gold.Chemscore.Internal.Correction>
   9.000000E+99

> <Gold.Chemscore.Hbonds>
donor molecule, donor type, donor heavy atom, donor atom, acceptor molecule, acceptor atom, score
      L1  H     9    29       P1  8029  0.92
      L1  H    12    30       P1  8029  0.90
      P1  H  6933  6944       L1    11  0.09

> <Gold.Chemscore.Hbond.Weighted>
-8.0325

> <Gold.Chemscore.Metal.Weighted>
-0.0000

> <Gold.Chemscore.Lipo.Weighted>
-10.4791

> <Gold.Chemscore.Internal_Hbond.Weighted>
0.0000

> <Gold.Chemscore.DEClash.Weighted>
0.0754

> <Gold.Chemscore.DEInternal.Weighted>
2.6849

> <Gold.Chemscore.Rot.Weighted>
4.3636

> <Gold.Chemscore.Internal.Correction.Weighted>
   9.000000E+99

> <Gold.Protein.RotatedTorsions>
[ 6907 6896 6895 6894 ] final  -39.37 input  -60.11 | X-H torsion
[ 7974 7965 7964 7962 ] final  -93.90 input  175.53 | X-H torsion
[ 8008 7997 7996 7995 ] final  -44.31 input   59.86 | X-H torsion
[ 10167 10162 10161 10158 ] final  -97.89 input  -65.29 | X-H torsion
[ 10718 10713 10712 10709 ] final -174.48 input   66.30 | X-H torsion
[ 10763 10752 10751 10750 ] final  -91.56 input  -60.55 | X-H torsion
[ 11005 11000 10999 10996 ] final -165.16 input  -57.11 | X-H torsion

> <Gold.Protein.ActiveResidues>
 VAL166  LYS551  ARG553  GLY616  TRP617  ASP618  TYR619  PRO620  LYS621  CYS622 
 ASP623  PHE694  ASN695  SER759  ASP760  ASP761  ALA762  ILE779  LEU786  VAL792 
 PHE793  MET794  SER795  GLU796  ALA797  LYS798  CYS799  TRP800  GLU811  SER814 

> <Gold.Protein.RotatedAtoms>
  150.9912  134.9246  159.7900 H   0  0  0  0  0  0  0  0  0  0  0  0  # atno 6907 bound_to 6896
  152.5251  134.3279  159.9182 H   0  0  0  0  0  0  0  0  0  0  0  0  # atno 6908 bound_to 6896
  151.3285  133.3969  159.2695 H   0  0  0  0  0  0  0  0  0  0  0  0  # atno 6909 bound_to 6896
  145.3804  140.9517  143.2397 H   0  0  0  0  0  0  0  0  0  0  0  0  # atno 7974 bound_to 7965
  154.3997  140.1425  156.3662 H   0  0  0  0  0  0  0  0  0  0  0  0  # atno 8008 bound_to 7997
  155.8135  140.3472  155.5451 H   0  0  0  0  0  0  0  0  0  0  0  0  # atno 8009 bound_to 7997
  155.8362  140.0919  157.1753 H   0  0  0  0  0  0  0  0  0  0  0  0  # atno 8010 bound_to 7997
  140.2787  143.3296  152.0463 H   0  0  0  0  0  0  0  0  0  0  0  0  # atno 10167 bound_to 10162
  156.7857  130.9500  151.3120 H   0  0  0  0  0  0  0  0  0  0  0  0  # atno 10718 bound_to 10713
  154.6772  135.5263  153.8216 H   0  0  0  0  0  0  0  0  0  0  0  0  # atno 10763 bound_to 10752
  153.0540  135.6543  154.0632 H   0  0  0  0  0  0  0  0  0  0  0  0  # atno 10764 bound_to 10752
  154.0523  135.2968  155.3318 H   0  0  0  0  0  0  0  0  0  0  0  0  # atno 10765 bound_to 10752
  140.5788  134.5163  157.5175 H   0  0  0  0  0  0  0  0  0  0  0  0  # atno 11005 bound_to 11000
  144.8512  139.5319  143.6855 LP  0  0  0  0  0  0  0  0  0  0  0  0  # atno 17320 bound_to 7965
  146.2845  139.6966  142.9205 LP  0  0  0  0  0  0  0  0  0  0  0  0  # atno 17321 bound_to 7965
  139.4968  144.6607  151.6471 LP  0  0  0  0  0  0  0  0  0  0  0  0  # atno 17342 bound_to 10162
  140.5830  143.9913  150.6279 LP  0  0  0  0  0  0  0  0  0  0  0  0  # atno 17343 bound_to 10162
  157.6625  130.8978  149.9860 LP  0  0  0  0  0  0  0  0  0  0  0  0  # atno 17370 bound_to 10713
  156.1190  130.3646  149.9919 LP  0  0  0  0  0  0  0  0  0  0  0  0  # atno 17371 bound_to 10713
  139.9327  134.7933  156.0886 LP  0  0  0  0  0  0  0  0  0  0  0  0  # atno 17394 bound_to 11000
  141.1010  133.6677  156.2753 LP  0  0  0  0  0  0  0  0  0  0  0  0  # atno 17395 bound_to 11000

$$$$
