AV-unprocessed.smi:3110|AV-procd|sdf|11829|dock4
  -GOLD-   2272017203D 1   1.00000     0.00000
 Structure written by MMmdl.
 34 35  0  0  0  0  0  0  0  0  2 V2000
  150.1593  142.7459  158.8735 O   0  0  0  0  0  0  0  0  0  0  0  0
  150.8181  143.0915  157.8924 C   0  0  0  0  0  0  0  0  0  0  0  0
  151.8464  144.2216  158.0078 C   0  0  0  0  0  0  0  0  0  0  0  0
  152.7095  144.1290  159.2832 C   0  0  1  0  0  0  0  0  0  0  0  0
  151.9758  144.6147  160.5064 C   0  0  0  0  0  0  0  0  0  0  0  0
  152.0263  143.7477  161.5154 C   0  0  0  0  0  0  0  0  0  0  0  0
  152.8021  142.5072  161.1695 C   0  0  0  0  0  0  0  0  0  0  0  0
  153.1331  142.6865  159.6715 C   0  0  0  0  0  0  0  0  0  0  0  0
  150.6864  142.5240  156.6836 N   0  0  0  0  0  0  0  0  0  0  0  0
  149.7515  141.4519  156.3655 C   0  0  0  0  0  0  0  0  0  0  0  0
  149.6148  141.2570  154.8462 C   0  0  0  0  0  0  0  0  0  0  0  0
  148.2446  141.4946  154.3909 N   0  0  0  0  0  0  0  0  0  0  0  0
  147.3956  142.4947  154.7891 C   0  0  0  0  0  0  0  0  0  0  0  0
  146.2282  142.3160  154.0921 C   0  0  0  0  0  0  0  0  0  0  0  0
  146.4151  141.2162  153.2978 N   0  3  0  0  0  0  0  0  0  0  0  0
  147.6422  140.7180  153.4813 C   0  0  0  0  0  0  0  0  0  0  0  0
  152.4872  144.1815  157.1264 H   0  0  0  0  0  0  0  0  0  0  0  0
  151.3382  145.1869  157.9762 H   0  0  0  0  0  0  0  0  0  0  0  0
  153.5953  144.7574  159.1782 H   0  0  0  0  0  0  0  0  0  0  0  0
  151.4855  145.5765  160.5388 H   0  0  0  0  0  0  0  0  0  0  0  0
  151.5838  143.8979  162.4891 H   0  0  0  0  0  0  0  0  0  0  0  0
  153.7048  142.4553  161.7789 H   0  0  0  0  0  0  0  0  0  0  0  0
  152.2055  141.6124  161.3505 H   0  0  0  0  0  0  0  0  0  0  0  0
  152.5734  141.9509  159.0922 H   0  0  0  0  0  0  0  0  0  0  0  0
  154.1905  142.5127  159.4700 H   0  0  0  0  0  0  0  0  0  0  0  0
  151.2699  142.8636  155.9325 H   0  0  0  0  0  0  0  0  0  0  0  0
  150.1152  140.5338  156.8276 H   0  0  0  0  0  0  0  0  0  0  0  0
  148.7797  141.6620  156.8160 H   0  0  0  0  0  0  0  0  0  0  0  0
  150.2729  141.9351  154.3006 H   0  0  0  0  0  0  0  0  0  0  0  0
  149.8934  140.2417  154.5607 H   0  0  0  0  0  0  0  0  0  0  0  0
  147.6777  143.2397  155.5191 H   0  0  0  0  0  0  0  0  0  0  0  0
  145.3035  142.8747  154.1007 H   0  0  0  0  0  0  0  0  0  0  0  0
  148.0640  139.8586  152.9906 H   0  0  0  0  0  0  0  0  0  0  0  0
  145.7261  140.8330  152.6628 H   0  0  0  0  0  0  0  0  0  0  0  0
  1  2  2  0  0  0  0
  2  3  1  0  0  0  0
  2  9  1  0  0  0  0
  3  4  1  0  0  0  0
  3 17  1  0  0  0  0
  3 18  1  0  0  0  0
  4  8  1  0  0  0  0
  4  5  1  0  0  0  0
  4 19  1  0  0  0  0
  5  6  2  0  0  0  0
  5 20  1  0  0  0  0
  6  7  1  0  0  0  0
  6 21  1  0  0  0  0
  7  8  1  0  0  0  0
  7 22  1  0  0  0  0
  7 23  1  0  0  0  0
  8 24  1  0  0  0  0
  8 25  1  0  0  0  0
  9 10  1  0  0  0  0
  9 26  1  0  0  0  0
 10 11  1  0  0  0  0
 10 27  1  0  0  0  0
 10 28  1  0  0  0  0
 11 12  1  0  0  0  0
 11 29  1  0  0  0  0
 11 30  1  0  0  0  0
 12 16  1  0  0  0  0
 12 13  1  0  0  0  0
 13 14  2  0  0  0  0
 13 31  1  0  0  0  0
 14 15  1  0  0  0  0
 14 32  1  0  0  0  0
 15 16  2  0  0  0  0
 15 34  1  0  0  0  0
 16 33  1  0  0  0  0
M  CHG  1  15   1
M  END
> <s_m_source_file>
AV-unprocessed.smi

> <i_m_source_file_index>
3110

> <i_lp_mmshare_version>
43012

> <i_f3d_flags>
0

> <s_epik_input>
W0NIMl0xW0NIMl1bQ0hdPVtDSF1bQ0BIXTFbQ0gyXUMoPU8pW05IXVtDSDJdW0NIMl1uMltjSF1bY0hdbltjSF0y

> <s_epik_cmdline>
J2VwaWtfcHl0aG9uJywgJy1waCcsICc3LjAnLCAnLXRuJywgJzgnLCAnLW1hJywgJzIwMCcsICctbWV0YWxfYmluZGluZycsICctaW1hZScsICc8aW5maWxlLm1hZT4nLCAnLW9tYWUnLCAnPG91dGZpbGUubWFlPic=

> <r_lp_tautomer_probability>
1

> <r_epik_Ionization_Penalty>
0.271094

> <r_epik_Ionization_Penalty_Charging>
0

> <r_epik_Ionization_Penalty_Neutral>
0.271094

> <r_epik_State_Penalty>
0.263241

> <r_epik_Charging_Adjusted_Penalty>
0.263241

> <i_epik_Tot_Q>
1

> <i_epik_Tot_abs_Q>
1

> <r_epik_Metal_State_Penalty>
0.547832

> <b_epik_Metal_Only>
0

> <s_lp_Force_Field>
OPLS_2005

> <r_lp_Energy>
18.3702

> <b_lp_Chiralities_Consistent>
1

> <s_lp_Variant>
AV-unprocessed.smi:3110-2

> <Gold.Version>
5.8.1

> <Gold.Id.Protein>
6NUR|6NUR_protein|mol2

> <Gold.PLP.Fitness>
53.1361

> <Gold.PLP.PLP>
-43.7550

> <Gold.PLP.part.hbond>
-2.3843

> <Gold.PLP.part.metal>
0.0000

> <Gold.PLP.part.buried>
-2.5008

> <Gold.PLP.part.nonpolar>
-39.8132

> <Gold.PLP.part.repulsive>
0.1574

> <Gold.PLP.ligand.clash>
0.0000

> <Gold.PLP.ligand.torsion>
1.1020

> <Gold.PLP.Chemscore.Hbond>
2.0000

> <Gold.PLP.Chemscore.CHOScore>
1.8434

> <Gold.PLP.Chemscore.Metal>
0.0000

> <Gold.Chemscore.Hbonds>
donor molecule, donor type, donor heavy atom, donor atom, acceptor molecule, acceptor atom, score
      L1  H    15    34       P1 10175  1.54
      L1  C    13    31       P1  8028  0.63
      L1  C    16    33       P1  7957  0.85

> <Gold.PLP.Chemscore.Internal.Correction>
0.0551

> <Gold.Rescore>
     Score         DG    S(hbond)    S(metal)    S(lipo)     H(rot)  DE(clash)    DE(int)     intcor
     13.29     -15.09       0.96        0.00     100.63       2.10       0.09       1.71       ----

> <Gold.Chemscore.Fitness>
13.2920

> <Gold.Chemscore.DG>
-15.0893

> <Gold.Chemscore.ZeroCoef>
-5.4800

> <Gold.Chemscore.Hbond>
0.9587

> <Gold.Chemscore.Metal>
0.0000

> <Gold.Chemscore.Lipo>
100.6289

> <Gold.Chemscore.Internal_Hbond>
0.0000

> <Gold.Chemscore.DEClash>
0.0859

> <Gold.Chemscore.DEInternal>
1.7115

> <Gold.Chemscore.Rot>
2.0963

> <Gold.Chemscore.Internal.Correction>
   9.000000E+99

> <Gold.Chemscore.Hbonds>
donor molecule, donor type, donor heavy atom, donor atom, acceptor molecule, acceptor atom, score
      L1  H    15    34       P1 10175  0.19

> <Gold.Chemscore.Hbond.Weighted>
-3.2022

> <Gold.Chemscore.Metal.Weighted>
-0.0000

> <Gold.Chemscore.Lipo.Weighted>
-11.7736

> <Gold.Chemscore.Internal_Hbond.Weighted>
0.0000

> <Gold.Chemscore.DEClash.Weighted>
0.0859

> <Gold.Chemscore.DEInternal.Weighted>
1.7115

> <Gold.Chemscore.Rot.Weighted>
5.3665

> <Gold.Chemscore.Internal.Correction.Weighted>
   9.000000E+99

> <Gold.Protein.RotatedTorsions>
[ 6907 6896 6895 6894 ] final -167.01 input  -60.11 | X-H torsion
[ 7974 7965 7964 7962 ] final  134.74 input  175.53 | X-H torsion
[ 8008 7997 7996 7995 ] final -106.26 input   59.86 | X-H torsion
[ 10167 10162 10161 10158 ] final  -19.50 input  -65.29 | X-H torsion
[ 10718 10713 10712 10709 ] final  173.36 input   66.30 | X-H torsion
[ 10763 10752 10751 10750 ] final  -96.75 input  -60.55 | X-H torsion
[ 11005 11000 10999 10996 ] final  134.67 input  -57.11 | X-H torsion

> <Gold.Protein.ActiveResidues>
 VAL166  LYS551  ARG553  GLY616  TRP617  ASP618  TYR619  PRO620  LYS621  CYS622 
 ASP623  PHE694  ASN695  SER759  ASP760  ASP761  ALA762  ILE779  LEU786  VAL792 
 PHE793  MET794  SER795  GLU796  ALA797  LYS798  CYS799  TRP800  GLU811  SER814 

> <Gold.Protein.RotatedAtoms>
  151.4526  133.3613  159.2797 H   0  0  0  0  0  0  0  0  0  0  0  0  # atno 6907 bound_to 6896
  150.9080  134.8497  159.7416 H   0  0  0  0  0  0  0  0  0  0  0  0  # atno 6908 bound_to 6896
  152.4917  134.4453  159.9609 H   0  0  0  0  0  0  0  0  0  0  0  0  # atno 6909 bound_to 6896
  144.9733  139.4582  143.5422 H   0  0  0  0  0  0  0  0  0  0  0  0  # atno 7974 bound_to 7965
  154.9119  140.0409  157.1951 H   0  0  0  0  0  0  0  0  0  0  0  0  # atno 8008 bound_to 7997
  154.8339  140.2903  155.5682 H   0  0  0  0  0  0  0  0  0  0  0  0  # atno 8009 bound_to 7997
  156.2988  140.2495  156.3270 H   0  0  0  0  0  0  0  0  0  0  0  0  # atno 8010 bound_to 7997
  140.7269  143.4812  151.0115 H   0  0  0  0  0  0  0  0  0  0  0  0  # atno 10167 bound_to 10162
  156.9655  131.0074  151.2917 H   0  0  0  0  0  0  0  0  0  0  0  0  # atno 10718 bound_to 10713
  154.7268  135.5072  153.8899 H   0  0  0  0  0  0  0  0  0  0  0  0  # atno 10763 bound_to 10752
  153.0912  135.6659  153.9859 H   0  0  0  0  0  0  0  0  0  0  0  0  # atno 10764 bound_to 10752
  153.9670  135.3042  155.3409 H   0  0  0  0  0  0  0  0  0  0  0  0  # atno 10765 bound_to 10752
  139.9929  134.9508  156.9899 H   0  0  0  0  0  0  0  0  0  0  0  0  # atno 11005 bound_to 11000
  146.3388  139.8959  142.8802 LP  0  0  0  0  0  0  0  0  0  0  0  0  # atno 17320 bound_to 7965
  145.2527  141.0049  143.3872 LP  0  0  0  0  0  0  0  0  0  0  0  0  # atno 17321 bound_to 7965
  139.8511  143.7437  152.3178 LP  0  0  0  0  0  0  0  0  0  0  0  0  # atno 17342 bound_to 10162
  139.7619  144.7504  151.0351 LP  0  0  0  0  0  0  0  0  0  0  0  0  # atno 17343 bound_to 10162
  157.5629  130.8258  149.8289 LP  0  0  0  0  0  0  0  0  0  0  0  0  # atno 17370 bound_to 10713
  156.0304  130.3766  150.1703 LP  0  0  0  0  0  0  0  0  0  0  0  0  # atno 17371 bound_to 10713
  140.4873  134.1229  155.7226 LP  0  0  0  0  0  0  0  0  0  0  0  0  # atno 17394 bound_to 11000
  141.1581  133.8844  157.1923 LP  0  0  0  0  0  0  0  0  0  0  0  0  # atno 17395 bound_to 11000

$$$$
