AV-unprocessed.smi:3040|AV-procd|sdf|11596|dock8
  -GOLD-   2272016573D 1   1.00000     0.00000
 Structure written by MMmdl.
 39 40  0  0  0  0  0  0  0  0  1 V2000
  152.5285  143.2640  161.0619 C   0  0  0  0  0  0  0  0  0  0  0  0
  152.0900  142.7705  159.7551 N   0  0  0  0  0  0  0  0  0  0  0  0
  151.0868  143.6065  159.0802 C   0  0  0  0  0  0  0  0  0  0  0  0
  150.3287  142.8732  157.9665 C   0  0  0  0  0  0  0  0  0  0  0  0
  151.3197  142.1487  157.0468 C   0  0  2  0  0  0  0  0  0  0  0  0
  150.5902  141.4364  155.9008 C   0  0  0  0  0  0  0  0  0  0  0  0
  151.0742  140.4256  155.3904 O   0  0  0  0  0  0  0  0  0  0  0  0
  149.4445  141.9982  155.4818 N   0  0  0  0  0  0  0  0  0  0  0  0
  148.6842  141.5903  154.3015 C   0  0  0  0  0  0  0  0  0  0  0  0
  147.2392  141.1849  154.6575 C   0  0  0  0  0  0  0  0  0  0  0  0
  146.2969  142.3598  154.7065 C   0  0  0  0  0  0  0  0  0  0  0  0
  145.4638  142.7721  155.7858 C   0  0  0  0  0  0  0  0  0  0  0  0
  144.7116  143.8181  155.4839 N   0  0  0  0  0  0  0  0  0  0  0  0
  145.0404  144.1118  154.2093 N   0  0  0  0  0  0  0  0  0  0  0  0
  144.3794  145.2073  153.5331 C   0  0  0  0  0  0  0  0  0  0  0  0
  146.0035  143.2578  153.7190 C   0  0  0  0  0  0  0  0  0  0  0  0
  152.1481  141.1347  157.8629 C   0  0  0  0  0  0  0  0  0  0  0  0
  152.6482  141.6584  159.2189 C   0  0  0  0  0  0  0  0  0  0  0  0
  153.5338  141.0219  159.7910 O   0  0  0  0  0  0  0  0  0  0  0  0
  153.6125  143.3848  161.0902 H   0  0  0  0  0  0  0  0  0  0  0  0
  152.2422  142.5637  161.8477 H   0  0  0  0  0  0  0  0  0  0  0  0
  152.0903  144.2329  161.3045 H   0  0  0  0  0  0  0  0  0  0  0  0
  150.3664  143.9870  159.8058 H   0  0  0  0  0  0  0  0  0  0  0  0
  151.5986  144.4751  158.6635 H   0  0  0  0  0  0  0  0  0  0  0  0
  149.6354  142.1586  158.4137 H   0  0  0  0  0  0  0  0  0  0  0  0
  149.7238  143.5838  157.4017 H   0  0  0  0  0  0  0  0  0  0  0  0
  151.9977  142.8906  156.6202 H   0  0  0  0  0  0  0  0  0  0  0  0
  149.1180  142.8202  155.9687 H   0  0  0  0  0  0  0  0  0  0  0  0
  148.6713  142.3890  153.5580 H   0  0  0  0  0  0  0  0  0  0  0  0
  149.1970  140.7505  153.8322 H   0  0  0  0  0  0  0  0  0  0  0  0
  146.8915  140.4454  153.9359 H   0  0  0  0  0  0  0  0  0  0  0  0
  147.2474  140.6700  155.6189 H   0  0  0  0  0  0  0  0  0  0  0  0
  145.3704  142.3315  156.7674 H   0  0  0  0  0  0  0  0  0  0  0  0
  144.9651  145.5180  152.6675 H   0  0  0  0  0  0  0  0  0  0  0  0
  144.2715  146.0558  154.2098 H   0  0  0  0  0  0  0  0  0  0  0  0
  143.3925  144.8869  153.1976 H   0  0  0  0  0  0  0  0  0  0  0  0
  146.3787  143.3423  152.7097 H   0  0  0  0  0  0  0  0  0  0  0  0
  151.5612  140.2373  158.0669 H   0  0  0  0  0  0  0  0  0  0  0  0
  153.0089  140.8090  157.2775 H   0  0  0  0  0  0  0  0  0  0  0  0
  1  2  1  0  0  0  0
  1 20  1  0  0  0  0
  1 21  1  0  0  0  0
  1 22  1  0  0  0  0
  2 18  1  0  0  0  0
  2  3  1  0  0  0  0
  3  4  1  0  0  0  0
  3 23  1  0  0  0  0
  3 24  1  0  0  0  0
  4  5  1  0  0  0  0
  4 25  1  0  0  0  0
  4 26  1  0  0  0  0
  5  6  1  0  0  0  0
  5 17  1  0  0  0  0
  5 27  1  0  0  0  0
  6  7  2  0  0  0  0
  6  8  1  0  0  0  0
  8  9  1  0  0  0  0
  8 28  1  0  0  0  0
  9 10  1  0  0  0  0
  9 29  1  0  0  0  0
  9 30  1  0  0  0  0
 10 11  1  0  0  0  0
 10 31  1  0  0  0  0
 10 32  1  0  0  0  0
 11 16  2  0  0  0  0
 11 12  1  0  0  0  0
 12 13  2  0  0  0  0
 12 33  1  0  0  0  0
 13 14  1  0  0  0  0
 14 15  1  0  0  0  0
 14 16  1  0  0  0  0
 15 34  1  0  0  0  0
 15 35  1  0  0  0  0
 15 36  1  0  0  0  0
 16 37  1  0  0  0  0
 17 18  1  0  0  0  0
 17 38  1  0  0  0  0
 17 39  1  0  0  0  0
 18 19  2  0  0  0  0
M  END
> <s_m_source_file>
AV-unprocessed.smi

> <i_m_source_file_index>
3040

> <i_lp_mmshare_version>
43012

> <i_f3d_flags>
0

> <s_epik_input>
W0NIM11OMVtDSDJdW0NIMl1bQ0BIXShbQ0gyXUMxPU8pQyg9TylbTkhdW0NIMl1bQ0gyXWMyW2NIXW5uKFtDSDNdKVtjSF0y

> <s_epik_cmdline>
J2VwaWtfcHl0aG9uJywgJy1waCcsICc3LjAnLCAnLXRuJywgJzgnLCAnLW1hJywgJzIwMCcsICctbWV0YWxfYmluZGluZycsICctaW1hZScsICc8aW5maWxlLm1hZT4nLCAnLW9tYWUnLCAnPG91dGZpbGUubWFlPic=

> <r_lp_tautomer_probability>
1

> <r_epik_Ionization_Penalty>
0.000456436

> <r_epik_Ionization_Penalty_Charging>
0

> <r_epik_Ionization_Penalty_Neutral>
0.000456436

> <r_epik_State_Penalty>
-0

> <r_epik_Charging_Adjusted_Penalty>
0

> <i_epik_Tot_Q>
0

> <i_epik_Tot_abs_Q>
0

> <r_epik_Metal_State_Penalty>
-0

> <b_epik_Metal_Only>
0

> <s_lp_Force_Field>
OPLS_2005

> <r_lp_Energy>
9.8739

> <b_lp_Chiralities_Consistent>
1

> <s_lp_Variant>
AV-unprocessed.smi:3040-2

> <Gold.Version>
5.8.1

> <Gold.Id.Protein>
6NUR|6NUR_protein|mol2

> <Gold.PLP.Fitness>
46.4365

> <Gold.PLP.PLP>
-42.8526

> <Gold.PLP.part.hbond>
-2.0000

> <Gold.PLP.part.metal>
0.0000

> <Gold.PLP.part.buried>
-7.1172

> <Gold.PLP.part.nonpolar>
-33.5296

> <Gold.PLP.part.repulsive>
0.3466

> <Gold.PLP.ligand.clash>
0.0000

> <Gold.PLP.ligand.torsion>
0.9042

> <Gold.PLP.Chemscore.Hbond>
1.7920

> <Gold.PLP.Chemscore.CHOScore>
0.0000

> <Gold.PLP.Chemscore.Metal>
0.0000

> <Gold.Chemscore.Hbonds>
donor molecule, donor type, donor heavy atom, donor atom, acceptor molecule, acceptor atom, score
      L1  H     8    28       P1  8028  0.78
      P1  H  7989  7998       L1     7  0.98

> <Gold.PLP.Chemscore.Internal.Correction>
0.0164

> <Gold.Rescore>
     Score         DG    S(hbond)    S(metal)    S(lipo)     H(rot)  DE(clash)    DE(int)     intcor
     14.88     -16.02       1.56        0.00      81.62       1.65       0.24       0.90       ----

> <Gold.Chemscore.Fitness>
14.8774

> <Gold.Chemscore.DG>
-16.0172

> <Gold.Chemscore.ZeroCoef>
-5.4800

> <Gold.Chemscore.Hbond>
1.5632

> <Gold.Chemscore.Metal>
0.0000

> <Gold.Chemscore.Lipo>
81.6188

> <Gold.Chemscore.Internal_Hbond>
0.0000

> <Gold.Chemscore.DEClash>
0.2373

> <Gold.Chemscore.DEInternal>
0.9025

> <Gold.Chemscore.Rot>
1.6536

> <Gold.Chemscore.Internal.Correction>
   9.000000E+99

> <Gold.Chemscore.Hbonds>
donor molecule, donor type, donor heavy atom, donor atom, acceptor molecule, acceptor atom, score
      L1  H     8    28       P1  8028  0.77
      P1  H  7989  7998       L1     7  0.58

> <Gold.Chemscore.Hbond.Weighted>
-5.2210

> <Gold.Chemscore.Metal.Weighted>
-0.0000

> <Gold.Chemscore.Lipo.Weighted>
-9.5494

> <Gold.Chemscore.Internal_Hbond.Weighted>
0.0000

> <Gold.Chemscore.DEClash.Weighted>
0.2373

> <Gold.Chemscore.DEInternal.Weighted>
0.9025

> <Gold.Chemscore.Rot.Weighted>
4.2332

> <Gold.Chemscore.Internal.Correction.Weighted>
   9.000000E+99

> <Gold.Protein.RotatedTorsions>
[ 6907 6896 6895 6894 ] final  128.17 input  -60.11 | X-H torsion
[ 7974 7965 7964 7962 ] final   51.05 input  175.53 | X-H torsion
[ 8008 7997 7996 7995 ] final  -94.76 input   59.86 | X-H torsion
[ 10167 10162 10161 10158 ] final   96.66 input  -65.29 | X-H torsion
[ 10718 10713 10712 10709 ] final   75.18 input   66.30 | X-H torsion
[ 10763 10752 10751 10750 ] final   15.45 input  -60.55 | X-H torsion
[ 11005 11000 10999 10996 ] final -141.64 input  -57.11 | X-H torsion

> <Gold.Protein.ActiveResidues>
 VAL166  LYS551  ARG553  GLY616  TRP617  ASP618  TYR619  PRO620  LYS621  CYS622 
 ASP623  PHE694  ASN695  SER759  ASP760  ASP761  ALA762  ILE779  LEU786  VAL792 
 PHE793  MET794  SER795  GLU796  ALA797  LYS798  CYS799  TRP800  GLU811  SER814 

> <Gold.Protein.RotatedAtoms>
  152.3744  133.6462  159.6112 H   0  0  0  0  0  0  0  0  0  0  0  0  # atno 6907 bound_to 6896
  150.7693  133.9217  159.3409 H   0  0  0  0  0  0  0  0  0  0  0  0  # atno 6908 bound_to 6896
  151.7034  135.0927  160.0306 H   0  0  0  0  0  0  0  0  0  0  0  0  # atno 6909 bound_to 6896
  145.9952  139.4381  143.0049 H   0  0  0  0  0  0  0  0  0  0  0  0  # atno 7974 bound_to 7965
  154.7525  140.0486  157.0906 H   0  0  0  0  0  0  0  0  0  0  0  0  # atno 8008 bound_to 7997
  155.0039  140.3128  155.4837 H   0  0  0  0  0  0  0  0  0  0  0  0  # atno 8009 bound_to 7997
  156.2888  140.2196  156.5150 H   0  0  0  0  0  0  0  0  0  0  0  0  # atno 8010 bound_to 7997
  139.7873  144.6865  150.9940 H   0  0  0  0  0  0  0  0  0  0  0  0  # atno 10167 bound_to 10162
  157.6623  130.9714  150.1316 H   0  0  0  0  0  0  0  0  0  0  0  0  # atno 10718 bound_to 10713
  153.1524  135.6781  153.8862 H   0  0  0  0  0  0  0  0  0  0  0  0  # atno 10763 bound_to 10752
  153.8284  135.3121  155.3418 H   0  0  0  0  0  0  0  0  0  0  0  0  # atno 10764 bound_to 10752
  154.7872  135.4855  154.0059 H   0  0  0  0  0  0  0  0  0  0  0  0  # atno 10765 bound_to 10752
  140.8304  134.2524  157.4859 H   0  0  0  0  0  0  0  0  0  0  0  0  # atno 11005 bound_to 11000
  145.7570  140.9950  143.1220 LP  0  0  0  0  0  0  0  0  0  0  0  0  # atno 17320 bound_to 7965
  144.6901  139.9284  143.7471 LP  0  0  0  0  0  0  0  0  0  0  0  0  # atno 17321 bound_to 7965
  140.7820  143.4418  151.0540 LP  0  0  0  0  0  0  0  0  0  0  0  0  # atno 17342 bound_to 10162
  139.8096  143.7969  152.3170 LP  0  0  0  0  0  0  0  0  0  0  0  0  # atno 17343 bound_to 10162
  156.2161  130.3670  149.8611 LP  0  0  0  0  0  0  0  0  0  0  0  0  # atno 17370 bound_to 10713
  156.6477  130.8731  151.3525 LP  0  0  0  0  0  0  0  0  0  0  0  0  # atno 17371 bound_to 10713
  139.8705  134.9583  156.4296 LP  0  0  0  0  0  0  0  0  0  0  0  0  # atno 17394 bound_to 11000
  140.9004  133.7784  155.9673 LP  0  0  0  0  0  0  0  0  0  0  0  0  # atno 17395 bound_to 11000

$$$$
