AV-unprocessed.smi:1803|AV-procd|sdf|7294|dock2
  -GOLD-   22720 8553D 1   1.00000     0.00000
 Structure written by MMmdl.
 35 37  0  0  0  0  0  0  0  0  3 V2000
  147.4495  132.0389  153.2758 O   0  0  0  0  0  0  0  0  0  0  0  0
  148.0659  133.1015  153.3408 C   0  0  0  0  0  0  0  0  0  0  0  0
  149.3067  133.2147  153.8823 N   0  5  0  0  0  0  0  0  0  0  0  0
  149.8965  132.2129  154.5606 C   0  0  0  0  0  0  0  0  0  0  0  0
  150.6305  132.4237  155.6651 N   0  0  0  0  0  0  0  0  0  0  0  0
  151.1556  131.2565  156.2023 N   0  0  0  0  0  0  0  0  0  0  0  0
  150.7892  130.1881  155.4949 C   0  0  0  0  0  0  0  0  0  0  0  0
  149.7797  130.5120  154.1014 S   0  0  0  0  0  0  0  0  0  0  0  0
  147.4904  134.2170  152.8544 N   0  0  0  0  0  0  0  0  0  0  0  0
  146.1763  134.2967  152.2283 C   0  0  1  0  0  0  0  0  0  0  0  0
  145.6823  135.7325  151.9909 C   0  0  0  0  0  0  0  0  0  0  0  0
  144.9896  135.7029  150.6143 C   0  0  0  0  0  0  0  0  0  0  0  0
  145.0041  134.2931  150.1606 N   0  3  2  0  0  0  0  0  0  0  0  0
  143.7205  133.5976  150.4523 C   0  0  0  0  0  0  0  0  0  0  0  0
  143.8126  132.0863  150.2043 C   0  0  0  0  0  0  0  0  0  0  0  0
  144.9290  131.4778  151.0568 C   0  0  0  0  0  0  0  0  0  0  0  0
  146.2592  132.1603  150.7202 C   0  0  0  0  0  0  0  0  0  0  0  0
  146.1931  133.7009  150.8187 C   0  0  2  0  0  0  0  0  0  0  0  0
  151.1168  129.2038  155.7944 H   0  0  0  0  0  0  0  0  0  0  0  0
  148.0143  135.0770  152.9277 H   0  0  0  0  0  0  0  0  0  0  0  0
  145.4483  133.7615  152.8404 H   0  0  0  0  0  0  0  0  0  0  0  0
  144.9985  136.0430  152.7816 H   0  0  0  0  0  0  0  0  0  0  0  0
  146.5092  136.4441  151.9755 H   0  0  0  0  0  0  0  0  0  0  0  0
  143.9836  136.1241  150.6436 H   0  0  0  0  0  0  0  0  0  0  0  0
  145.5664  136.2959  149.9037 H   0  0  0  0  0  0  0  0  0  0  0  0
  143.4282  133.7761  151.4884 H   0  0  0  0  0  0  0  0  0  0  0  0
  142.9354  134.0277  149.8295 H   0  0  0  0  0  0  0  0  0  0  0  0
  142.8609  131.6115  150.4446 H   0  0  0  0  0  0  0  0  0  0  0  0
  144.0001  131.8916  149.1475 H   0  0  0  0  0  0  0  0  0  0  0  0
  144.7000  131.5978  152.1163 H   0  0  0  0  0  0  0  0  0  0  0  0
  145.0017  130.4053  150.8738 H   0  0  0  0  0  0  0  0  0  0  0  0
  147.0526  131.7752  151.3617 H   0  0  0  0  0  0  0  0  0  0  0  0
  146.5388  131.8876  149.7018 H   0  0  0  0  0  0  0  0  0  0  0  0
  147.0668  134.1003  150.2991 H   0  0  0  0  0  0  0  0  0  0  0  0
  145.1404  134.2645  149.1604 H   0  0  0  0  0  0  0  0  0  0  0  0
  1  2  2  0  0  0  0
  2  3  1  0  0  0  0
  2  9  1  0  0  0  0
  3  4  1  0  0  0  0
  4  8  1  0  0  0  0
  4  5  2  0  0  0  0
  5  6  1  0  0  0  0
  6  7  2  0  0  0  0
  7  8  1  0  0  0  0
  7 19  1  0  0  0  0
  9 10  1  0  0  0  0
  9 20  1  0  0  0  0
 10 18  1  0  0  0  0
 10 11  1  0  0  0  0
 10 21  1  0  0  0  0
 11 12  1  0  0  0  0
 11 22  1  0  0  0  0
 11 23  1  0  0  0  0
 12 13  1  0  0  0  0
 12 24  1  0  0  0  0
 12 25  1  0  0  0  0
 13 18  1  0  0  0  0
 13 14  1  0  0  0  0
 13 35  1  0  0  0  0
 14 15  1  0  0  0  0
 14 26  1  0  0  0  0
 14 27  1  0  0  0  0
 15 16  1  0  0  0  0
 15 28  1  0  0  0  0
 15 29  1  0  0  0  0
 16 17  1  0  0  0  0
 16 30  1  0  0  0  0
 16 31  1  0  0  0  0
 17 18  1  0  0  0  0
 17 32  1  0  0  0  0
 17 33  1  0  0  0  0
 18 34  1  0  0  0  0
M  CHG  1   3  -1
M  CHG  1  13   1
M  END
> <s_m_source_file>
AV-unprocessed.smi

> <i_m_source_file_index>
1803

> <i_lp_mmshare_version>
43012

> <i_f3d_flags>
0

> <s_epik_input>
czFbY0hdbm5jMVtOSF1DKD1PKVtOSF1bQ0BIXShbQ0gyXVtDSDJdMilbQ0BASF0oTjIzKVtDSDJdW0NIMl1bQ0gyXVtDSDJdMw==

> <s_epik_cmdline>
J2VwaWtfcHl0aG9uJywgJy1waCcsICc3LjAnLCAnLXRuJywgJzgnLCAnLW1hJywgJzIwMCcsICctbWV0YWxfYmluZGluZycsICctaW1hZScsICc8aW5maWxlLm1hZT4nLCAnLW9tYWUnLCAnPG91dGZpbGUubWFlPic=

> <r_lp_tautomer_probability>
1

> <r_epik_Ionization_Penalty>
3.78828

> <r_epik_Ionization_Penalty_Charging>
3.7591

> <r_epik_Ionization_Penalty_Neutral>
0.0291838

> <r_epik_State_Penalty>
3.757

> <r_epik_Charging_Adjusted_Penalty>
7.51609

> <i_epik_Tot_Q>
0

> <i_epik_Tot_abs_Q>
2

> <r_epik_Metal_State_Penalty>
0.558016

> <b_epik_Metal_Only>
1

> <s_lp_Force_Field>
OPLS_2005

> <r_lp_Energy>
31.4395

> <b_lp_Chiralities_Consistent>
1

> <s_lp_Variant>
AV-unprocessed.smi:1803-16

> <Gold.Version>
5.8.1

> <Gold.Id.Protein>
6NUR|6NUR_protein|mol2

> <Gold.PLP.Fitness>
35.4840

> <Gold.PLP.PLP>
-31.0889

> <Gold.PLP.part.hbond>
-2.0000

> <Gold.PLP.part.metal>
0.0000

> <Gold.PLP.part.buried>
-2.2350

> <Gold.PLP.part.nonpolar>
-26.6547

> <Gold.PLP.part.repulsive>
0.3154

> <Gold.PLP.ligand.clash>
0.0000

> <Gold.PLP.ligand.torsion>
0.4472

> <Gold.PLP.Chemscore.Hbond>
1.7600

> <Gold.PLP.Chemscore.CHOScore>
0.0000

> <Gold.PLP.Chemscore.Metal>
0.0000

> <Gold.Chemscore.Hbonds>
donor molecule, donor type, donor heavy atom, donor atom, acceptor molecule, acceptor atom, score
      L1  H     9    20       P1  7948  0.77
      L1  H    13    35       P1  7921  0.99

> <Gold.PLP.Chemscore.Internal.Correction>
0.0095

> <Gold.Rescore>
     Score         DG    S(hbond)    S(metal)    S(lipo)     H(rot)  DE(clash)    DE(int)     intcor
     15.85     -17.29       1.85        0.00      70.07       1.00       0.57       0.86       ----

> <Gold.Chemscore.Fitness>
15.8544

> <Gold.Chemscore.DG>
-17.2862

> <Gold.Chemscore.ZeroCoef>
-5.4800

> <Gold.Chemscore.Hbond>
1.8467

> <Gold.Chemscore.Metal>
0.0000

> <Gold.Chemscore.Lipo>
70.0706

> <Gold.Chemscore.Internal_Hbond>
0.0000

> <Gold.Chemscore.DEClash>
0.5697

> <Gold.Chemscore.DEInternal>
0.8620

> <Gold.Chemscore.Rot>
1.0000

> <Gold.Chemscore.Internal.Correction>
   9.000000E+99

> <Gold.Chemscore.Hbonds>
donor molecule, donor type, donor heavy atom, donor atom, acceptor molecule, acceptor atom, score
      L1  H     9    20       P1  7948  0.74
      L1  H    13    35       P1  7921  0.93

> <Gold.Chemscore.Hbond.Weighted>
-6.1679

> <Gold.Chemscore.Metal.Weighted>
-0.0000

> <Gold.Chemscore.Lipo.Weighted>
-8.1983

> <Gold.Chemscore.Internal_Hbond.Weighted>
0.0000

> <Gold.Chemscore.DEClash.Weighted>
0.5697

> <Gold.Chemscore.DEInternal.Weighted>
0.8620

> <Gold.Chemscore.Rot.Weighted>
2.5600

> <Gold.Chemscore.Internal.Correction.Weighted>
   9.000000E+99

> <Gold.Protein.RotatedTorsions>
[ 6907 6896 6895 6894 ] final -134.29 input  -60.11 | X-H torsion
[ 7974 7965 7964 7962 ] final  -23.65 input  175.53 | X-H torsion
[ 8008 7997 7996 7995 ] final  174.28 input   59.86 | X-H torsion
[ 10167 10162 10161 10158 ] final  163.25 input  -65.29 | X-H torsion
[ 10718 10713 10712 10709 ] final   71.27 input   66.30 | X-H torsion
[ 10763 10752 10751 10750 ] final  -75.04 input  -60.55 | X-H torsion
[ 11005 11000 10999 10996 ] final -130.86 input  -57.11 | X-H torsion

> <Gold.Protein.ActiveResidues>
 VAL166  LYS551  ARG553  GLY616  TRP617  ASP618  TYR619  PRO620  LYS621  CYS622 
 ASP623  PHE694  ASN695  SER759  ASP760  ASP761  ALA762  ILE779  LEU786  VAL792 
 PHE793  MET794  SER795  GLU796  ALA797  LYS798  CYS799  TRP800  GLU811  SER814 

> <Gold.Protein.RotatedAtoms>
  150.9841  133.6216  159.2717 H   0  0  0  0  0  0  0  0  0  0  0  0  # atno 6907 bound_to 6896
  151.3460  135.0873  159.9397 H   0  0  0  0  0  0  0  0  0  0  0  0  # atno 6908 bound_to 6896
  152.5225  133.9443  159.7695 H   0  0  0  0  0  0  0  0  0  0  0  0  # atno 6909 bound_to 6896
  146.1603  140.4644  142.8574 H   0  0  0  0  0  0  0  0  0  0  0  0  # atno 7974 bound_to 7965
  156.0990  140.1438  156.9492 H   0  0  0  0  0  0  0  0  0  0  0  0  # atno 8008 bound_to 7997
  154.4690  140.0916  156.7142 H   0  0  0  0  0  0  0  0  0  0  0  0  # atno 8009 bound_to 7997
  155.4791  140.3444  155.4339 H   0  0  0  0  0  0  0  0  0  0  0  0  # atno 8010 bound_to 7997
  139.4871  144.4356  151.9017 H   0  0  0  0  0  0  0  0  0  0  0  0  # atno 10167 bound_to 10162
  157.6443  130.9520  150.0766 H   0  0  0  0  0  0  0  0  0  0  0  0  # atno 10718 bound_to 10713
  154.4812  135.5844  153.6391 H   0  0  0  0  0  0  0  0  0  0  0  0  # atno 10763 bound_to 10752
  152.9848  135.6090  154.3243 H   0  0  0  0  0  0  0  0  0  0  0  0  # atno 10764 bound_to 10752
  154.3135  135.2844  155.2534 H   0  0  0  0  0  0  0  0  0  0  0  0  # atno 10765 bound_to 10752
  140.9309  134.1320  157.4235 H   0  0  0  0  0  0  0  0  0  0  0  0  # atno 11005 bound_to 11000
  144.8018  140.6227  143.6473 LP  0  0  0  0  0  0  0  0  0  0  0  0  # atno 17320 bound_to 7965
  145.4604  139.1513  143.3869 LP  0  0  0  0  0  0  0  0  0  0  0  0  # atno 17321 bound_to 7965
  140.3805  144.2742  150.5909 LP  0  0  0  0  0  0  0  0  0  0  0  0  # atno 17342 bound_to 10162
  140.5237  143.2259  151.8348 LP  0  0  0  0  0  0  0  0  0  0  0  0  # atno 17343 bound_to 10162
  156.1755  130.3648  149.9107 LP  0  0  0  0  0  0  0  0  0  0  0  0  # atno 17370 bound_to 10713
  156.7072  130.8956  151.3605 LP  0  0  0  0  0  0  0  0  0  0  0  0  # atno 17371 bound_to 10713
  139.8796  135.0005  156.6012 LP  0  0  0  0  0  0  0  0  0  0  0  0  # atno 17394 bound_to 11000
  140.7863  133.8618  155.8609 LP  0  0  0  0  0  0  0  0  0  0  0  0  # atno 17395 bound_to 11000

$$$$
