AV-unprocessed.smi:1123|AV-procd|sdf|4831|dock2
  -GOLD-   22720 3393D 1   1.00000     0.00000
 Structure written by MMmdl.
 38 39  0  0  0  0  0  0  0  0  2 V2000
  149.8277  141.3697  155.4060 C   0  0  0  0  0  0  0  0  0  0  0  0
  149.8190  140.1962  154.4052 C   0  0  2  0  0  0  0  0  0  0  0  0
  148.4441  139.5140  154.2871 C   0  0  0  0  0  0  0  0  0  0  0  0
  147.8453  139.1212  155.2893 O   0  0  0  0  0  0  0  0  0  0  0  0
  147.9411  139.3930  153.0476 N   0  0  0  0  0  0  0  0  0  0  0  0
  146.6536  138.7904  152.7233 C   0  0  0  0  0  0  0  0  0  0  0  0
  146.4013  137.5249  153.5650 C   0  0  0  0  0  0  0  0  0  0  0  0
  146.4204  136.2818  152.7538 N   0  3  0  0  0  0  0  0  0  0  0  0
  146.1669  135.0738  153.5758 C   0  0  0  0  0  0  0  0  0  0  0  0
  146.2446  133.8041  152.7116 C   0  0  0  0  0  0  0  0  0  0  0  0
  145.3110  133.9000  151.6437 O   0  0  0  0  0  0  0  0  0  0  0  0
  145.5930  135.0019  150.7905 C   0  0  0  0  0  0  0  0  0  0  0  0
  145.5022  136.3149  151.5879 C   0  0  0  0  0  0  0  0  0  0  0  0
  150.8596  139.2216  154.7114 N   0  0  0  0  0  0  0  0  0  0  0  0
  151.1312  138.0468  154.1391 C   0  0  0  0  0  0  0  0  0  0  0  0
  152.1438  137.3978  154.6960 N   0  0  0  0  0  0  0  0  0  0  0  0
  152.4725  138.2879  155.6789 C   0  0  0  0  0  0  0  0  0  0  0  0
  151.7299  139.3930  155.7378 N   0  0  0  0  0  0  0  0  0  0  0  0
  149.0960  142.1296  155.1302 H   0  0  0  0  0  0  0  0  0  0  0  0
  150.8048  141.8531  155.4285 H   0  0  0  0  0  0  0  0  0  0  0  0
  149.5988  141.0422  156.4210 H   0  0  0  0  0  0  0  0  0  0  0  0
  150.0475  140.6093  153.4214 H   0  0  0  0  0  0  0  0  0  0  0  0
  148.4931  139.7376  152.2753 H   0  0  0  0  0  0  0  0  0  0  0  0
  145.8900  139.5433  152.9138 H   0  0  0  0  0  0  0  0  0  0  0  0
  146.6045  138.5597  151.6575 H   0  0  0  0  0  0  0  0  0  0  0  0
  147.1813  137.4551  154.3247 H   0  0  0  0  0  0  0  0  0  0  0  0
  145.4542  137.6020  154.1016 H   0  0  0  0  0  0  0  0  0  0  0  0
  146.8993  135.0119  154.3815 H   0  0  0  0  0  0  0  0  0  0  0  0
  145.1828  135.1481  154.0416 H   0  0  0  0  0  0  0  0  0  0  0  0
  147.2525  133.6584  152.3198 H   0  0  0  0  0  0  0  0  0  0  0  0
  146.0061  132.9259  153.3117 H   0  0  0  0  0  0  0  0  0  0  0  0
  146.5810  134.8866  150.3418 H   0  0  0  0  0  0  0  0  0  0  0  0
  144.8712  135.0088  149.9736 H   0  0  0  0  0  0  0  0  0  0  0  0
  144.4783  136.4706  151.9317 H   0  0  0  0  0  0  0  0  0  0  0  0
  145.7490  137.1469  150.9298 H   0  0  0  0  0  0  0  0  0  0  0  0
  150.5756  137.6571  153.2987 H   0  0  0  0  0  0  0  0  0  0  0  0
  153.2803  138.1139  156.3745 H   0  0  0  0  0  0  0  0  0  0  0  0
  147.3584  136.1858  152.3915 H   0  0  0  0  0  0  0  0  0  0  0  0
  1  2  1  0  0  0  0
  1 19  1  0  0  0  0
  1 20  1  0  0  0  0
  1 21  1  0  0  0  0
  2  3  1  0  0  0  0
  2 14  1  0  0  0  0
  2 22  1  0  0  0  0
  3  4  2  0  0  0  0
  3  5  1  0  0  0  0
  5  6  1  0  0  0  0
  5 23  1  0  0  0  0
  6  7  1  0  0  0  0
  6 24  1  0  0  0  0
  6 25  1  0  0  0  0
  7  8  1  0  0  0  0
  7 26  1  0  0  0  0
  7 27  1  0  0  0  0
  8 13  1  0  0  0  0
  8  9  1  0  0  0  0
  8 38  1  0  0  0  0
  9 10  1  0  0  0  0
  9 28  1  0  0  0  0
  9 29  1  0  0  0  0
 10 11  1  0  0  0  0
 10 30  1  0  0  0  0
 10 31  1  0  0  0  0
 11 12  1  0  0  0  0
 12 13  1  0  0  0  0
 12 32  1  0  0  0  0
 12 33  1  0  0  0  0
 13 34  1  0  0  0  0
 13 35  1  0  0  0  0
 14 18  1  0  0  0  0
 14 15  1  0  0  0  0
 15 16  2  0  0  0  0
 15 36  1  0  0  0  0
 16 17  1  0  0  0  0
 17 18  2  0  0  0  0
 17 37  1  0  0  0  0
M  CHG  1   8   1
M  END
> <s_m_source_file>
AV-unprocessed.smi

> <i_m_source_file_index>
1123

> <i_lp_mmshare_version>
43012

> <i_f3d_flags>
0

> <s_epik_input>
bjFbY0hdbltjSF1uMVtDQEhdKFtDSDNdKUMoPU8pW05IXVtDSDJdW0NIMl1OMltDSDJdW0NIMl1PW0NIMl1bQ0gyXTI=

> <s_epik_cmdline>
J2VwaWtfcHl0aG9uJywgJy1waCcsICc3LjAnLCAnLXRuJywgJzgnLCAnLW1hJywgJzIwMCcsICctbWV0YWxfYmluZGluZycsICctaW1hZScsICc8aW5maWxlLm1hZT4nLCAnLW9tYWUnLCAnPG91dGZpbGUubWFlPic=

> <r_lp_tautomer_probability>
1

> <r_epik_Ionization_Penalty>
0.71326

> <r_epik_Ionization_Penalty_Charging>
0.713252

> <r_epik_Ionization_Penalty_Neutral>
7.98515e-06

> <r_epik_State_Penalty>
0.737017

> <r_epik_Charging_Adjusted_Penalty>
1.45027

> <i_epik_Tot_Q>
1

> <i_epik_Tot_abs_Q>
1

> <r_epik_Metal_State_Penalty>
0.73702

> <b_epik_Metal_Only>
0

> <s_lp_Force_Field>
OPLS_2005

> <r_lp_Energy>
21.5068

> <b_lp_Chiralities_Consistent>
1

> <s_lp_Variant>
AV-unprocessed.smi:1123-3

> <Gold.Version>
5.8.1

> <Gold.Id.Protein>
6NUR|6NUR_protein|mol2

> <Gold.PLP.Fitness>
43.8982

> <Gold.PLP.PLP>
-30.4957

> <Gold.PLP.part.hbond>
-3.0000

> <Gold.PLP.part.metal>
0.0000

> <Gold.PLP.part.buried>
-3.0009

> <Gold.PLP.part.nonpolar>
-24.4768

> <Gold.PLP.part.repulsive>
0.3273

> <Gold.PLP.ligand.clash>
0.0000

> <Gold.PLP.ligand.torsion>
0.8219

> <Gold.PLP.Chemscore.Hbond>
3.8000

> <Gold.PLP.Chemscore.CHOScore>
1.1659

> <Gold.PLP.Chemscore.Metal>
0.0000

> <Gold.Chemscore.Hbonds>
donor molecule, donor type, donor heavy atom, donor atom, acceptor molecule, acceptor atom, score
      L1  H     5    23       P1  7957  1.00
      L1  H     8    38       P1  7948  2.00
      P1  H 10752 10765       L1    16  0.80
      L1  C    15    36       P1  7948  0.57
      L1  C    15    36       P1  7949  0.60

> <Gold.PLP.Chemscore.Internal.Correction>
0.1487

> <Gold.Rescore>
     Score         DG    S(hbond)    S(metal)    S(lipo)     H(rot)  DE(clash)    DE(int)     intcor
     11.15     -13.29       2.86        0.00      43.90       2.69       0.08       2.06       ----

> <Gold.Chemscore.Fitness>
11.1545

> <Gold.Chemscore.DG>
-13.2920

> <Gold.Chemscore.ZeroCoef>
-5.4800

> <Gold.Chemscore.Hbond>
2.8640

> <Gold.Chemscore.Metal>
0.0000

> <Gold.Chemscore.Lipo>
43.9042

> <Gold.Chemscore.Internal_Hbond>
0.0000

> <Gold.Chemscore.DEClash>
0.0781

> <Gold.Chemscore.DEInternal>
2.0594

> <Gold.Chemscore.Rot>
2.6916

> <Gold.Chemscore.Internal.Correction>
   9.000000E+99

> <Gold.Chemscore.Hbonds>
donor molecule, donor type, donor heavy atom, donor atom, acceptor molecule, acceptor atom, score
      L1  H     5    23       P1  7957  0.98
      L1  H     8    38       P1  7948  1.00
      P1  H 10752 10765       L1    16  0.79

> <Gold.Chemscore.Hbond.Weighted>
-9.5658

> <Gold.Chemscore.Metal.Weighted>
-0.0000

> <Gold.Chemscore.Lipo.Weighted>
-5.1368

> <Gold.Chemscore.Internal_Hbond.Weighted>
0.0000

> <Gold.Chemscore.DEClash.Weighted>
0.0781

> <Gold.Chemscore.DEInternal.Weighted>
2.0594

> <Gold.Chemscore.Rot.Weighted>
6.8906

> <Gold.Chemscore.Internal.Correction.Weighted>
   9.000000E+99

> <Gold.Protein.RotatedTorsions>
[ 6907 6896 6895 6894 ] final  131.47 input  -60.11 | X-H torsion
[ 7974 7965 7964 7962 ] final   18.05 input  175.53 | X-H torsion
[ 8008 7997 7996 7995 ] final  119.34 input   59.86 | X-H torsion
[ 10167 10162 10161 10158 ] final  -27.74 input  -65.29 | X-H torsion
[ 10718 10713 10712 10709 ] final -174.99 input   66.30 | X-H torsion
[ 10763 10752 10751 10750 ] final  163.01 input  -60.55 | X-H torsion
[ 11005 11000 10999 10996 ] final -151.98 input  -57.11 | X-H torsion

> <Gold.Protein.ActiveResidues>
 VAL166  LYS551  ARG553  GLY616  TRP617  ASP618  TYR619  PRO620  LYS621  CYS622 
 ASP623  PHE694  ASN695  SER759  ASP760  ASP761  ALA762  ILE779  LEU786  VAL792 
 PHE793  MET794  SER795  GLU796  ALA797  LYS798  CYS799  TRP800  GLU811  SER814 

> <Gold.Protein.RotatedAtoms>
  152.3423  133.6081  159.5884 H   0  0  0  0  0  0  0  0  0  0  0  0  # atno 6907 bound_to 6896
  150.7486  133.9703  159.3552 H   0  0  0  0  0  0  0  0  0  0  0  0  # atno 6908 bound_to 6896
  151.7566  135.0821  160.0390 H   0  0  0  0  0  0  0  0  0  0  0  0  # atno 6909 bound_to 6896
  146.2198  139.8513  142.8622 H   0  0  0  0  0  0  0  0  0  0  0  0  # atno 7974 bound_to 7965
  156.2591  140.2855  156.0976 H   0  0  0  0  0  0  0  0  0  0  0  0  # atno 8008 bound_to 7997
  155.1395  140.0395  157.2812 H   0  0  0  0  0  0  0  0  0  0  0  0  # atno 8009 bound_to 7997
  154.6540  140.2551  155.7188 H   0  0  0  0  0  0  0  0  0  0  0  0  # atno 8010 bound_to 7997
  140.7275  143.4068  151.1172 H   0  0  0  0  0  0  0  0  0  0  0  0  # atno 10167 bound_to 10162
  156.7932  130.9525  151.3120 H   0  0  0  0  0  0  0  0  0  0  0  0  # atno 10718 bound_to 10713
  154.2871  135.2762  155.2671 H   0  0  0  0  0  0  0  0  0  0  0  0  # atno 10763 bound_to 10752
  154.5167  135.5767  153.6651 H   0  0  0  0  0  0  0  0  0  0  0  0  # atno 10764 bound_to 10752
  152.9920  135.6194  154.3033 H   0  0  0  0  0  0  0  0  0  0  0  0  # atno 10765 bound_to 10752
  140.7238  134.3698  157.5179 H   0  0  0  0  0  0  0  0  0  0  0  0  # atno 11005 bound_to 11000
  145.2798  141.0135  143.3724 LP  0  0  0  0  0  0  0  0  0  0  0  0  # atno 17320 bound_to 7965
  144.9159  139.4471  143.6565 LP  0  0  0  0  0  0  0  0  0  0  0  0  # atno 17321 bound_to 7965
  139.7696  143.8514  152.3117 LP  0  0  0  0  0  0  0  0  0  0  0  0  # atno 17342 bound_to 10162
  139.8428  144.7202  150.9310 LP  0  0  0  0  0  0  0  0  0  0  0  0  # atno 17343 bound_to 10162
  157.6590  130.8950  149.9790 LP  0  0  0  0  0  0  0  0  0  0  0  0  # atno 17370 bound_to 10713
  156.1146  130.3648  149.9990 LP  0  0  0  0  0  0  0  0  0  0  0  0  # atno 17371 bound_to 10713
  139.8842  134.8972  156.2719 LP  0  0  0  0  0  0  0  0  0  0  0  0  # atno 17394 bound_to 11000
  140.9981  133.7168  156.0917 LP  0  0  0  0  0  0  0  0  0  0  0  0  # atno 17395 bound_to 11000

$$$$
