#       Name:                AV-unprocessed.smi:627
#       Creating user name   scv26
#       Creation time:       Fri Mar 27 00:03:43 2020


#       File generated by GOLD software.
#

@<TRIPOS>MOLECULE
AV-unprocessed.smi:627
    43    45     1
SMALL
NO_CHARGES


@<TRIPOS>ATOM
      1 ****        -6.7448   1.5679   1.8104 C.3            1 S1                 0.0000
      2 ****        -6.2520   1.4658   0.0417 S.o2           1 S1                 0.0000
      3 ****        -6.9130   0.2888  -0.5438 O.2            1 S1                 0.0000
      4 ****        -6.4501   2.7890  -0.5701 O.2            1 S1                 0.0000
      5 ****        -4.4926   1.1483   0.1080 C.ar           1 S1                 0.0000
      6 ****        -3.9856  -0.1302  -0.2007 C.ar           1 S1                 0.0000
      7 ****        -2.5963  -0.3344  -0.1014 C.ar           1 S1                 0.0000
      8 ****        -1.7728   0.7445   0.3040 C.ar           1 S1                 0.0000
      9 ****        -0.3628   0.6570   0.4542 N.am           1 S1                 0.0000
     10 ****         0.4871  -0.1924  -0.1481 C.2            1 S1                 0.0000
     11 ****         0.1663  -1.0639  -0.9558 O.2            1 S1                 0.0000
     12 ****         1.7525   0.0420   0.2285 N.am           1 S1                 0.0000
     13 ****         2.9294  -0.6749  -0.2522 C.3            1 S1                 0.0000
     14 ****         3.9948  -0.7827   0.8230 C.3            1 S1                 0.0000
     15 ****         4.9885  -1.9202   0.8351 C.3            1 S1                 0.0000
     16 ****         3.9144  -1.8410   1.8967 C.3            1 S1                 0.0000
     17 ****         3.5123  -0.0552  -1.5116 C.3            1 S1                 0.0000
     18 ****         2.9713  -0.3936  -2.8807 C.3            1 S1                 0.0000
     19 ****         4.3474  -0.8681  -2.4730 C.3            1 S1                 0.0000
     20 ****        -2.3974   1.9707   0.6182 C.ar           1 S1                 0.0000
     21 ****        -3.7275   2.1788   0.5263 N.ar           1 S1                 0.0000
     22 ****        -7.8152   1.7602   1.8780 H              1 S1                 0.0000
     23 ****        -6.1998   2.3783   2.2940 H              1 S1                 0.0000
     24 ****        -6.5119   0.6267   2.3074 H              1 S1                 0.0000
     25 ****        -4.6374  -0.9360  -0.5039 H              1 S1                 0.0000
     26 ****        -2.1945  -1.3113  -0.3215 H              1 S1                 0.0000
     27 ****         0.0573   1.3722   1.0297 H              1 S1                 0.0000
     28 ****         1.9171   0.7811   0.8959 H              1 S1                 0.0000
     29 ****         2.6295  -1.6957  -0.4988 H              1 S1                 0.0000
     30 ****         4.3839   0.1821   1.1439 H              1 S1                 0.0000
     31 ****         4.8863  -2.6976   0.0807 H              1 S1                 0.0000
     32 ****         6.0097  -1.6910   1.1329 H              1 S1                 0.0000
     33 ****         4.2198  -1.5597   2.9024 H              1 S1                 0.0000
     34 ****         3.0981  -2.5585   1.8403 H              1 S1                 0.0000
     35 ****         3.8313   0.9766  -1.3754 H              1 S1                 0.0000
     36 ****         2.1843  -1.1421  -2.9479 H              1 S1                 0.0000
     37 ****         2.9110   0.4126  -3.6088 H              1 S1                 0.0000
     38 ****         5.2048  -0.3792  -2.9310 H              1 S1                 0.0000
     39 ****         4.4675  -1.9313  -2.2752 H              1 S1                 0.0000
     40 ****        -1.8111   2.8152   0.9499 H              1 S1                 0.0000
     41 ****        -0.7937  -1.1809  -1.2102 LP             1 S1                 0.0000
     42 ****         0.8657  -1.6549  -1.3578 LP             1 S1                 0.0000
     43 ****        -4.1314   3.0635   0.7593 LP             1 S1                 0.0000
@<TRIPOS>BOND
    1    1    2 1     
    2    1   22 1     
    3    1   23 1     
    4    1   24 1     
    5    2    3 2     
    6    2    4 2     
    7    2    5 1     
    8    5   21 ar    
    9    5    6 ar    
   10    6    7 ar    
   11    6   25 1     
   12    7    8 ar    
   13    7   26 1     
   14    8    9 1     
   15    8   20 ar    
   16    9   10 am    
   17    9   27 1     
   18   10   11 2     
   19   10   12 am    
   20   12   13 1     
   21   12   28 1     
   22   13   14 1     
   23   13   17 1     
   24   13   29 1     
   25   14   16 1     
   26   14   15 1     
   27   14   30 1     
   28   15   16 1     
   29   15   31 1     
   30   15   32 1     
   31   16   33 1     
   32   16   34 1     
   33   17   19 1     
   34   17   18 1     
   35   17   35 1     
   36   18   19 1     
   37   18   36 1     
   38   18   37 1     
   39   19   38 1     
   40   19   39 1     
   41   20   21 ar    
   42   20   40 1     
   43   11   41 1     
   44   11   42 1     
   45   21   43 1     
@<TRIPOS>SUBSTRUCTURE
      1 S1             1
@<TRIPOS>SET
LONE_PAIRS      STATIC     ATOMS    <user>   **** ""
5 3 4 41 42 43
DONOR_HYDROGENS      STATIC     ATOMS    <user>   **** ""
2 27 28
ATOM$BLUE        STATIC     ATOMS    COLORGROUP SYSTEM
5 3 4 41 42 43
ATOM$RED        STATIC     ATOMS    COLORGROUP SYSTEM
2 27 28
