#       Name:                AV-unprocessed.smi:240
#       Creating user name   scv26
#       Creation time:       Thu Mar 26 20:44:11 2020


#       File generated by GOLD software.
#

@<TRIPOS>MOLECULE
AV-unprocessed.smi:240
    67    71     1
SMALL
NO_CHARGES


@<TRIPOS>ATOM
      1 ****        -3.4921  -2.4735  -1.8501 O.3            1 S1                 0.0000
      2 ****        -2.4751  -2.8514  -0.9452 C.3            1 S1                 0.0000
      3 ****        -2.7648  -4.2667  -0.4100 C.3            1 S1                 0.0000
      4 ****        -2.5353  -4.2001   1.1011 C.3            1 S1                 0.0000
      5 ****        -2.9087  -2.7662   1.4670 C.3            1 S1                 0.0000
      6 ****        -2.3442  -1.9405   0.3036 C.3            1 S1                 0.0000
      7 ****        -2.8122  -0.4521   0.2223 C.3            1 S1                 0.0000
      8 ****        -4.3518  -0.2625   0.2604 C.3            1 S1                 0.0000
      9 ****        -4.6835   1.1201   0.2028 O.3            1 S1                 0.0000
     10 ****        -4.2277   1.7266  -0.9983 C.3            1 S1                 0.0000
     11 ****        -2.6965   1.6507  -1.0399 C.3            1 S1                 0.0000
     12 ****        -2.2550   0.2652  -0.9339 N.3            1 S1                 0.0000
     13 ****        -0.9226   0.1716  -1.1449 C.ar           1 S1                 0.0000
     14 ****        -0.5243  -0.1885  -2.3896 N.ar           1 S1                 0.0000
     15 ****         0.7776  -0.3030  -2.6673 C.ar           1 S1                 0.0000
     16 ****         1.8237  -0.0999  -1.8636 N.ar           1 S1                 0.0000
     17 ****         1.4261   0.2788  -0.6149 C.ar           1 S1                 0.0000
     18 ****         0.0828   0.4374  -0.1719 C.ar           1 S1                 0.0000
     19 ****         0.0677   0.8301   1.1609 N.2            1 S1                 0.0000
     20 ****         1.3291   0.8925   1.4889 C.2            1 S1                 0.0000
     21 ****         2.2151   0.5886   0.4797 N.pl3          1 S1                 0.0000
     22 ****         3.6684   0.5827   0.5636 C.3            1 S1                 0.0000
     23 ****         4.3215   1.9337   0.1807 C.3            1 S1                 0.0000
     24 ****         3.9871   2.2438  -1.1598 O.3            1 S1                 0.0000
     25 ****         5.8457   1.9063   0.3189 C.3            1 S1                 0.0000
     26 ****         6.1142   2.7918   1.5299 C.3            1 S1                 0.0000
     27 ****         5.1039   3.7784   1.4231 O.3            1 S1                 0.0000
     28 ****         3.8988   3.1049   1.0902 C.3            1 S1                 0.0000
     29 ****        -3.2878  -1.6131  -2.1847 H              1 S1                 0.0000
     30 ****        -1.5319  -2.8469  -1.4930 H              1 S1                 0.0000
     31 ****        -3.8052  -4.5406  -0.5939 H              1 S1                 0.0000
     32 ****        -2.1434  -5.0251  -0.8871 H              1 S1                 0.0000
     33 ****        -3.1217  -4.9396   1.6474 H              1 S1                 0.0000
     34 ****        -1.4822  -4.3763   1.3250 H              1 S1                 0.0000
     35 ****        -3.9942  -2.6926   1.5187 H              1 S1                 0.0000
     36 ****        -2.5035  -2.4619   2.4325 H              1 S1                 0.0000
     37 ****        -1.2735  -1.9075   0.5109 H              1 S1                 0.0000
     38 ****        -2.4358   0.0447   1.1166 H              1 S1                 0.0000
     39 ****        -4.8570  -0.7860  -0.5502 H              1 S1                 0.0000
     40 ****        -4.7656  -0.6490   1.1906 H              1 S1                 0.0000
     41 ****        -4.6699   1.2337  -1.8657 H              1 S1                 0.0000
     42 ****        -4.5535   2.7666  -1.0187 H              1 S1                 0.0000
     43 ****        -2.3321   2.0909  -1.9692 H              1 S1                 0.0000
     44 ****        -2.2735   2.2328  -0.2197 H              1 S1                 0.0000
     45 ****         1.0154  -0.5992  -3.6783 H              1 S1                 0.0000
     46 ****         1.6480   1.1673   2.4837 H              1 S1                 0.0000
     47 ****         3.9482   0.3069   1.5813 H              1 S1                 0.0000
     48 ****         4.0442  -0.2129  -0.0810 H              1 S1                 0.0000
     49 ****         4.3842   3.0716  -1.3834 H              1 S1                 0.0000
     50 ****         6.2541   0.9026   0.4421 H              1 S1                 0.0000
     51 ****         6.3267   2.3478  -0.5556 H              1 S1                 0.0000
     52 ****         5.9896   2.2343   2.4598 H              1 S1                 0.0000
     53 ****         7.1117   3.2313   1.5190 H              1 S1                 0.0000
     54 ****         3.1772   3.7802   0.6287 H              1 S1                 0.0000
     55 ****         3.4619   2.7421   2.0209 H              1 S1                 0.0000
     56 ****        -4.3735  -2.4522  -1.3783 LP             1 S1                 0.0000
     57 ****        -3.5337  -3.1285  -2.6046 LP             1 S1                 0.0000
     58 ****        -4.2613   1.5861   0.9803 LP             1 S1                 0.0000
     59 ****        -5.6774   1.2162   0.2561 LP             1 S1                 0.0000
     60 ****        -2.6614  -0.2613  -1.6806 LP             1 S1                 0.0000
     61 ****        -1.2048  -0.3684  -3.0999 LP             1 S1                 0.0000
     62 ****         2.7778  -0.2112  -2.1416 LP             1 S1                 0.0000
     63 ****        -0.7273   1.0210   1.7366 LP             1 S1                 0.0000
     64 ****         2.9937   2.3099  -1.2532 LP             1 S1                 0.0000
     65 ****         4.3322   1.5288  -1.7678 LP             1 S1                 0.0000
     66 ****         5.3395   4.4349   0.7066 LP             1 S1                 0.0000
     67 ****         4.9996   4.2586   2.2940 LP             1 S1                 0.0000
@<TRIPOS>BOND
    1    1    2 1     
    2    1   29 1     
    3    2    6 1     
    4    2    3 1     
    5    2   30 1     
    6    3    4 1     
    7    3   31 1     
    8    3   32 1     
    9    4    5 1     
   10    4   33 1     
   11    4   34 1     
   12    5    6 1     
   13    5   35 1     
   14    5   36 1     
   15    6    7 1     
   16    6   37 1     
   17    7   12 1     
   18    7    8 1     
   19    7   38 1     
   20    8    9 1     
   21    8   39 1     
   22    8   40 1     
   23    9   10 1     
   24   10   11 1     
   25   10   41 1     
   26   10   42 1     
   27   11   12 1     
   28   11   43 1     
   29   11   44 1     
   30   12   13 1     
   31   13   18 ar    
   32   13   14 ar    
   33   14   15 ar    
   34   15   16 ar    
   35   15   45 1     
   36   16   17 ar    
   37   17   21 1     
   38   17   18 ar    
   39   18   19 1     
   40   19   20 2     
   41   20   21 1     
   42   20   46 1     
   43   21   22 1     
   44   22   23 1     
   45   22   47 1     
   46   22   48 1     
   47   23   28 1     
   48   23   24 1     
   49   23   25 1     
   50   24   49 1     
   51   25   26 1     
   52   25   50 1     
   53   25   51 1     
   54   26   27 1     
   55   26   52 1     
   56   26   53 1     
   57   27   28 1     
   58   28   54 1     
   59   28   55 1     
   60    1   56 1     
   61    1   57 1     
   62    9   58 1     
   63    9   59 1     
   64   12   60 1     
   65   14   61 1     
   66   16   62 1     
   67   19   63 1     
   68   24   64 1     
   69   24   65 1     
   70   27   66 1     
   71   27   67 1     
@<TRIPOS>SUBSTRUCTURE
      1 S1             1
@<TRIPOS>SET
LONE_PAIRS      STATIC     ATOMS    <user>   **** ""
12 56 57 58 59 60 61 62 63 64 65 66 67
DONOR_HYDROGENS      STATIC     ATOMS    <user>   **** ""
2 29 49
ATOM$BLUE        STATIC     ATOMS    COLORGROUP SYSTEM
12 56 57 58 59 60 61 62 63 64 65 66 67
ATOM$RED        STATIC     ATOMS    COLORGROUP SYSTEM
2 29 49
