AV-unprocessed.smi:171|AV-procd|sdf|1416|dock3
  -GOLD-   2262019183D 1   1.00000     0.00000
 Structure written by MMmdl.
 56 59  0  0  0  0  0  0  0  0  1 V2000
  151.3847  143.4188  158.4354 C   0  0  0  0  0  0  0  0  0  0  0  0
  150.6322  142.1185  158.1124 C   0  0  0  0  0  0  0  0  0  0  0  0
  151.3628  140.9152  158.7299 C   0  0  0  0  0  0  0  0  0  0  0  0
  150.4122  141.9852  156.5883 C   0  0  0  0  0  0  0  0  0  0  0  0
  149.6064  140.7328  156.1413 C   0  0  2  0  0  0  0  0  0  0  0  0
  149.9593  140.3321  154.6865 C   0  0  0  0  0  0  0  0  0  0  0  0
  151.0320  139.7841  154.4450 O   0  0  0  0  0  0  0  0  0  0  0  0
  149.0748  140.5853  153.7049 N   0  0  0  0  0  0  0  0  0  0  0  0
  147.7584  141.2012  153.8709 C   0  0  0  0  0  0  0  0  0  0  0  0
  147.5669  141.8453  155.2553 C   0  0  0  0  0  0  0  0  0  0  0  0
  148.1673  141.0073  156.2909 N   0  0  0  0  0  0  0  0  0  0  0  0
  147.3543  140.0202  156.7518 C   0  0  0  0  0  0  0  0  0  0  0  0
  146.0359  140.0061  156.4180 N   0  0  0  0  0  0  0  0  0  0  0  0
  145.2304  139.0487  156.8868 C   0  0  0  0  0  0  0  0  0  0  0  0
  145.5293  138.0274  157.6913 N   0  0  0  0  0  0  0  0  0  0  0  0
  146.8499  138.0357  158.0309 C   0  0  0  0  0  0  0  0  0  0  0  0
  147.8229  138.9847  157.6077 C   0  0  0  0  0  0  0  0  0  0  0  0
  149.0635  138.6631  158.1455 N   0  0  0  0  0  0  0  0  0  0  0  0
  148.8351  137.5900  158.8523 C   0  0  0  0  0  0  0  0  0  0  0  0
  147.5310  137.1494  158.8469 N   0  0  0  0  0  0  0  0  0  0  0  0
  146.9988  135.9919  159.5487 C   0  0  0  0  0  0  0  0  0  0  0  0
  146.7872  136.2351  161.0618 C   0  0  2  0  0  0  0  0  0  0  0  0
  146.0097  137.4100  161.2295 O   0  0  0  0  0  0  0  0  0  0  0  0
  148.0783  136.3931  161.8513 C   0  0  0  0  0  0  0  0  0  0  0  0
  147.6507  136.0149  163.2641 C   0  0  0  0  0  0  0  0  0  0  0  0
  146.6869  134.9837  163.0923 O   0  0  0  0  0  0  0  0  0  0  0  0
  146.1281  135.0375  161.7802 C   0  0  1  0  0  0  0  0  0  0  0  0
  144.5917  135.0277  161.8342 C   0  0  0  0  0  0  0  0  0  0  0  0
  152.3795  143.4212  157.9887 H   0  0  0  0  0  0  0  0  0  0  0  0
  151.5028  143.5494  159.5113 H   0  0  0  0  0  0  0  0  0  0  0  0
  150.8481  144.2900  158.0586 H   0  0  0  0  0  0  0  0  0  0  0  0
  149.6528  142.1903  158.5871 H   0  0  0  0  0  0  0  0  0  0  0  0
  152.3162  140.7312  158.2339 H   0  0  0  0  0  0  0  0  0  0  0  0
  150.7647  140.0073  158.6614 H   0  0  0  0  0  0  0  0  0  0  0  0
  151.5656  141.0803  159.7883 H   0  0  0  0  0  0  0  0  0  0  0  0
  149.8826  142.8832  156.2655 H   0  0  0  0  0  0  0  0  0  0  0  0
  151.3737  142.0340  156.0735 H   0  0  0  0  0  0  0  0  0  0  0  0
  149.8844  139.9034  156.7938 H   0  0  0  0  0  0  0  0  0  0  0  0
  149.3306  140.3124  152.7669 H   0  0  0  0  0  0  0  0  0  0  0  0
  147.5947  141.9352  153.0819 H   0  0  0  0  0  0  0  0  0  0  0  0
  147.0139  140.4171  153.7295 H   0  0  0  0  0  0  0  0  0  0  0  0
  148.0568  142.8192  155.2748 H   0  0  0  0  0  0  0  0  0  0  0  0
  146.5097  142.0413  155.4354 H   0  0  0  0  0  0  0  0  0  0  0  0
  144.1985  139.1113  156.5742 H   0  0  0  0  0  0  0  0  0  0  0  0
  149.6170  137.0894  159.4047 H   0  0  0  0  0  0  0  0  0  0  0  0
  146.0590  135.7017  159.0770 H   0  0  0  0  0  0  0  0  0  0  0  0
  147.6870  135.1602  159.3929 H   0  0  0  0  0  0  0  0  0  0  0  0
  145.1201  137.1549  161.4207 H   0  0  0  0  0  0  0  0  0  0  0  0
  148.8235  135.6786  161.4991 H   0  0  0  0  0  0  0  0  0  0  0  0
  148.5146  137.3910  161.7882 H   0  0  0  0  0  0  0  0  0  0  0  0
  148.4859  135.6842  163.8821 H   0  0  0  0  0  0  0  0  0  0  0  0
  147.1759  136.8623  163.7603 H   0  0  0  0  0  0  0  0  0  0  0  0
  146.4547  134.1185  161.2915 H   0  0  0  0  0  0  0  0  0  0  0  0
  144.1647  135.0761  160.8323 H   0  0  0  0  0  0  0  0  0  0  0  0
  144.2015  135.8677  162.4091 H   0  0  0  0  0  0  0  0  0  0  0  0
  144.2288  134.1141  162.3051 H   0  0  0  0  0  0  0  0  0  0  0  0
  1  2  1  0  0  0  0
  1 29  1  0  0  0  0
  1 30  1  0  0  0  0
  1 31  1  0  0  0  0
  2  3  1  0  0  0  0
  2  4  1  0  0  0  0
  2 32  1  0  0  0  0
  3 33  1  0  0  0  0
  3 34  1  0  0  0  0
  3 35  1  0  0  0  0
  4  5  1  0  0  0  0
  4 36  1  0  0  0  0
  4 37  1  0  0  0  0
  5 11  1  0  0  0  0
  5  6  1  0  0  0  0
  5 38  1  0  0  0  0
  6  7  2  0  0  0  0
  6  8  1  0  0  0  0
  8  9  1  0  0  0  0
  8 39  1  0  0  0  0
  9 10  1  0  0  0  0
  9 40  1  0  0  0  0
  9 41  1  0  0  0  0
 10 11  1  0  0  0  0
 10 42  1  0  0  0  0
 10 43  1  0  0  0  0
 11 12  1  0  0  0  0
 12 17  1  0  0  0  0
 12 13  2  0  0  0  0
 13 14  1  0  0  0  0
 14 15  2  0  0  0  0
 14 44  1  0  0  0  0
 15 16  1  0  0  0  0
 16 20  1  0  0  0  0
 16 17  2  0  0  0  0
 17 18  1  0  0  0  0
 18 19  2  0  0  0  0
 19 20  1  0  0  0  0
 19 45  1  0  0  0  0
 20 21  1  0  0  0  0
 21 22  1  0  0  0  0
 21 46  1  0  0  0  0
 21 47  1  0  0  0  0
 22 27  1  0  0  0  0
 22 23  1  0  0  0  0
 22 24  1  0  0  0  0
 23 48  1  0  0  0  0
 24 25  1  0  0  0  0
 24 49  1  0  0  0  0
 24 50  1  0  0  0  0
 25 26  1  0  0  0  0
 25 51  1  0  0  0  0
 25 52  1  0  0  0  0
 26 27  1  0  0  0  0
 27 28  1  0  0  0  0
 27 53  1  0  0  0  0
 28 54  1  0  0  0  0
 28 55  1  0  0  0  0
 28 56  1  0  0  0  0
M  END
> <s_m_source_file>
AV-unprocessed.smi

> <i_m_source_file_index>
171

> <i_lp_mmshare_version>
43012

> <i_f3d_flags>
0

> <s_epik_input>
W0NIM11bQ0hdKFtDSDNdKVtDSDJdW0NAQEhdMUMoPU8pW05IXVtDSDJdW0NIMl1OMWMobltjSF1uMiljKGMyMyluW2NIXW4zW0NIMl1bQ0BAXTQoW09IXSlbQ0gyXVtDSDJdT1tDQEhdNFtDSDNd

> <s_epik_cmdline>
J2VwaWtfcHl0aG9uJywgJy1waCcsICc3LjAnLCAnLXRuJywgJzgnLCAnLW1hJywgJzIwMCcsICctbWV0YWxfYmluZGluZycsICctaW1hZScsICc8aW5maWxlLm1hZT4nLCAnLW9tYWUnLCAnPG91dGZpbGUubWFlPic=

> <r_lp_tautomer_probability>
1

> <r_epik_Ionization_Penalty>
0.000670584

> <r_epik_Ionization_Penalty_Charging>
0

> <r_epik_Ionization_Penalty_Neutral>
0.000670584

> <r_epik_State_Penalty>
0.000304767

> <r_epik_Charging_Adjusted_Penalty>
0.000304767

> <i_epik_Tot_Q>
0

> <i_epik_Tot_abs_Q>
0

> <r_epik_Metal_State_Penalty>
-0

> <b_epik_Metal_Only>
0

> <s_lp_Force_Field>
OPLS_2005

> <r_lp_Energy>
45.8078

> <b_lp_Chiralities_Consistent>
1

> <s_lp_Variant>
AV-unprocessed.smi:171-3

> <Gold.Version>
5.8.1

> <Gold.Id.Protein>
6NUR|6NUR_protein|mol2

> <Gold.PLP.Fitness>
44.5053

> <Gold.PLP.PLP>
-36.9485

> <Gold.PLP.part.hbond>
-3.2781

> <Gold.PLP.part.metal>
0.0000

> <Gold.PLP.part.buried>
-4.0978

> <Gold.PLP.part.nonpolar>
-29.6194

> <Gold.PLP.part.repulsive>
0.3774

> <Gold.PLP.ligand.clash>
0.0000

> <Gold.PLP.ligand.torsion>
0.9861

> <Gold.PLP.Chemscore.Hbond>
3.0000

> <Gold.PLP.Chemscore.CHOScore>
0.0000

> <Gold.PLP.Chemscore.Metal>
0.0000

> <Gold.Chemscore.Hbonds>
donor molecule, donor type, donor heavy atom, donor atom, acceptor molecule, acceptor atom, score
      L1  H     8    39       P1  7957  1.00
      P1  H  6934  6947       L1    23  1.00
      P1  H  7989  7998       L1     7  0.95

> <Gold.PLP.Chemscore.Internal.Correction>
0.5290

> <Gold.Rescore>
     Score         DG    S(hbond)    S(metal)    S(lipo)     H(rot)  DE(clash)    DE(int)     intcor
     15.78     -18.47       2.82        0.00      87.41       2.61       0.54       2.14       ----

> <Gold.Chemscore.Fitness>
15.7848

> <Gold.Chemscore.DG>
-18.4663

> <Gold.Chemscore.ZeroCoef>
-5.4800

> <Gold.Chemscore.Hbond>
2.8246

> <Gold.Chemscore.Metal>
0.0000

> <Gold.Chemscore.Lipo>
87.4108

> <Gold.Chemscore.Internal_Hbond>
0.0000

> <Gold.Chemscore.DEClash>
0.5410

> <Gold.Chemscore.DEInternal>
2.1406

> <Gold.Chemscore.Rot>
2.6074

> <Gold.Chemscore.Internal.Correction>
   9.000000E+99

> <Gold.Chemscore.Hbonds>
donor molecule, donor type, donor heavy atom, donor atom, acceptor molecule, acceptor atom, score
      L1  H     8    39       P1  7957  1.00
      P1  H  6934  6947       L1    23  0.71
      P1  H  7989  7998       L1     7  0.21

> <Gold.Chemscore.Hbond.Weighted>
-9.4341

> <Gold.Chemscore.Metal.Weighted>
-0.0000

> <Gold.Chemscore.Lipo.Weighted>
-10.2271

> <Gold.Chemscore.Internal_Hbond.Weighted>
0.0000

> <Gold.Chemscore.DEClash.Weighted>
0.5410

> <Gold.Chemscore.DEInternal.Weighted>
2.1406

> <Gold.Chemscore.Rot.Weighted>
6.6748

> <Gold.Chemscore.Internal.Correction.Weighted>
   9.000000E+99

> <Gold.Protein.RotatedTorsions>
[ 6907 6896 6895 6894 ] final -121.65 input  -60.11 | X-H torsion
[ 7974 7965 7964 7962 ] final   25.73 input  175.53 | X-H torsion
[ 8008 7997 7996 7995 ] final  -72.91 input   59.86 | X-H torsion
[ 10167 10162 10161 10158 ] final   41.24 input  -65.29 | X-H torsion
[ 10718 10713 10712 10709 ] final -146.46 input   66.30 | X-H torsion
[ 10763 10752 10751 10750 ] final -130.27 input  -60.55 | X-H torsion
[ 11005 11000 10999 10996 ] final  123.41 input  -57.11 | X-H torsion

> <Gold.Protein.ActiveResidues>
 VAL166  LYS551  ARG553  GLY616  TRP617  ASP618  TYR619  PRO620  LYS621  CYS622 
 ASP623  PHE694  ASN695  SER759  ASP760  ASP761  ALA762  ILE779  LEU786  VAL792 
 PHE793  MET794  SER795  GLU796  ALA797  LYS798  CYS799  TRP800  GLU811  SER814 

> <Gold.Protein.RotatedAtoms>
  150.8503  133.7797  159.3027 H   0  0  0  0  0  0  0  0  0  0  0  0  # atno 6907 bound_to 6896
  151.5471  135.1066  159.9950 H   0  0  0  0  0  0  0  0  0  0  0  0  # atno 6908 bound_to 6896
  152.4547  133.7656  159.6827 H   0  0  0  0  0  0  0  0  0  0  0  0  # atno 6909 bound_to 6896
  146.1874  139.7425  142.8857 H   0  0  0  0  0  0  0  0  0  0  0  0  # atno 7974 bound_to 7965
  154.5204  140.0788  156.8162 H   0  0  0  0  0  0  0  0  0  0  0  0  # atno 8008 bound_to 7997
  155.3588  140.3416  155.4222 H   0  0  0  0  0  0  0  0  0  0  0  0  # atno 8009 bound_to 7997
  156.1675  140.1608  156.8493 H   0  0  0  0  0  0  0  0  0  0  0  0  # atno 8010 bound_to 7997
  140.3663  144.2164  150.6135 H   0  0  0  0  0  0  0  0  0  0  0  0  # atno 10167 bound_to 10162
  156.3952  130.7906  151.2111 H   0  0  0  0  0  0  0  0  0  0  0  0  # atno 10718 bound_to 10713
  154.8756  135.3868  154.4055 H   0  0  0  0  0  0  0  0  0  0  0  0  # atno 10763 bound_to 10752
  153.4775  135.7030  153.5963 H   0  0  0  0  0  0  0  0  0  0  0  0  # atno 10764 bound_to 10752
  153.4393  135.3860  155.2186 H   0  0  0  0  0  0  0  0  0  0  0  0  # atno 10765 bound_to 10752
  139.9311  134.9641  156.8255 H   0  0  0  0  0  0  0  0  0  0  0  0  # atno 11005 bound_to 11000
  145.3898  141.0371  143.3130 LP  0  0  0  0  0  0  0  0  0  0  0  0  # atno 17320 bound_to 7965
  144.8422  139.5454  143.6895 LP  0  0  0  0  0  0  0  0  0  0  0  0  # atno 17321 bound_to 7965
  140.5078  143.2299  151.8582 LP  0  0  0  0  0  0  0  0  0  0  0  0  # atno 17342 bound_to 10162
  139.4808  144.4985  151.9092 LP  0  0  0  0  0  0  0  0  0  0  0  0  # atno 17343 bound_to 10162
  157.7501  131.0303  150.4133 LP  0  0  0  0  0  0  0  0  0  0  0  0  # atno 17370 bound_to 10713
  156.4402  130.3990  149.6702 LP  0  0  0  0  0  0  0  0  0  0  0  0  # atno 17371 bound_to 10713
  140.6199  134.0003  155.7614 LP  0  0  0  0  0  0  0  0  0  0  0  0  # atno 17394 bound_to 11000
  141.0900  133.9931  157.3252 LP  0  0  0  0  0  0  0  0  0  0  0  0  # atno 17395 bound_to 11000

$$$$
