AV-unprocessed.smi:3344|AV-procd|sdf|12897|dock1
  -GOLD-   2272019303D 1   1.00000     0.00000
 Structure written by MMmdl.
 43 44  0  0  0  0  0  0  0  0  2 V2000
  149.6187  140.7644  154.8543 C   0  0  0  0  0  0  0  0  0  0  0  0
  149.5079  139.3786  154.1860 C   0  0  2  0  0  0  0  0  0  0  0  0
  148.0553  138.8898  154.0506 C   0  0  0  0  0  0  0  0  0  0  0  0
  147.3521  138.7114  155.0460 O   0  0  0  0  0  0  0  0  0  0  0  0
  147.6096  138.6852  152.8014 N   0  0  0  0  0  0  0  0  0  0  0  0
  146.2655  138.2323  152.4710 C   0  0  0  0  0  0  0  0  0  0  0  0
  146.0211  136.8186  153.0263 C   0  0  0  0  0  0  0  0  0  0  0  0
  146.4439  135.7446  152.0868 N   0  3  0  0  0  0  0  0  0  0  0  0
  145.6981  135.7932  150.7977 C   0  0  0  0  0  0  0  0  0  0  0  0
  144.3589  135.0314  150.8008 C   0  0  0  0  0  0  0  0  0  0  0  0
  144.5097  133.5695  150.3512 C   0  0  0  0  0  0  0  0  0  0  0  0
  145.2408  132.6755  151.3609 C   0  0  0  0  0  0  0  0  0  0  0  0
  146.6219  133.2018  151.7865 C   0  0  0  0  0  0  0  0  0  0  0  0
  146.5369  134.4077  152.7426 C   0  0  0  0  0  0  0  0  0  0  0  0
  150.3247  138.3802  154.8659 N   0  0  0  0  0  0  0  0  0  0  0  0
  151.3030  137.6048  154.3931 C   0  0  0  0  0  0  0  0  0  0  0  0
  151.8110  136.7712  155.2897 N   0  0  0  0  0  0  0  0  0  0  0  0
  151.0446  137.1041  156.3706 C   0  0  0  0  0  0  0  0  0  0  0  0
  150.1305  138.0527  156.1678 N   0  0  0  0  0  0  0  0  0  0  0  0
  149.0545  141.5159  154.3009 H   0  0  0  0  0  0  0  0  0  0  0  0
  150.6565  141.0970  154.8871 H   0  0  0  0  0  0  0  0  0  0  0  0
  149.2432  140.7564  155.8785 H   0  0  0  0  0  0  0  0  0  0  0  0
  149.9027  139.4783  153.1737 H   0  0  0  0  0  0  0  0  0  0  0  0
  148.2435  138.8555  152.0339 H   0  0  0  0  0  0  0  0  0  0  0  0
  145.5306  138.9260  152.8832 H   0  0  0  0  0  0  0  0  0  0  0  0
  146.1607  138.2525  151.3858 H   0  0  0  0  0  0  0  0  0  0  0  0
  146.5305  136.6904  153.9827 H   0  0  0  0  0  0  0  0  0  0  0  0
  144.9535  136.7222  153.2297 H   0  0  0  0  0  0  0  0  0  0  0  0
  145.5192  136.8331  150.5221 H   0  0  0  0  0  0  0  0  0  0  0  0
  146.3422  135.4106  150.0052 H   0  0  0  0  0  0  0  0  0  0  0  0
  143.8608  135.0992  151.7686 H   0  0  0  0  0  0  0  0  0  0  0  0
  143.6919  135.5227  150.0914 H   0  0  0  0  0  0  0  0  0  0  0  0
  143.5194  133.1498  150.1708 H   0  0  0  0  0  0  0  0  0  0  0  0
  145.0253  133.5332  149.3906 H   0  0  0  0  0  0  0  0  0  0  0  0
  144.6154  132.5296  152.2424 H   0  0  0  0  0  0  0  0  0  0  0  0
  145.3614  131.6861  150.9185 H   0  0  0  0  0  0  0  0  0  0  0  0
  147.1211  132.3931  152.3216 H   0  0  0  0  0  0  0  0  0  0  0  0
  147.2555  133.4125  150.9242 H   0  0  0  0  0  0  0  0  0  0  0  0
  147.4372  134.4112  153.3572 H   0  0  0  0  0  0  0  0  0  0  0  0
  145.7031  134.2693  153.4326 H   0  0  0  0  0  0  0  0  0  0  0  0
  151.6485  137.6477  153.3706 H   0  0  0  0  0  0  0  0  0  0  0  0
  151.1582  136.6277  157.3332 H   0  0  0  0  0  0  0  0  0  0  0  0
  147.3908  135.9828  151.8279 H   0  0  0  0  0  0  0  0  0  0  0  0
  1  2  1  0  0  0  0
  1 20  1  0  0  0  0
  1 21  1  0  0  0  0
  1 22  1  0  0  0  0
  2  3  1  0  0  0  0
  2 15  1  0  0  0  0
  2 23  1  0  0  0  0
  3  4  2  0  0  0  0
  3  5  1  0  0  0  0
  5  6  1  0  0  0  0
  5 24  1  0  0  0  0
  6  7  1  0  0  0  0
  6 25  1  0  0  0  0
  6 26  1  0  0  0  0
  7  8  1  0  0  0  0
  7 27  1  0  0  0  0
  7 28  1  0  0  0  0
  8 14  1  0  0  0  0
  8  9  1  0  0  0  0
  8 43  1  0  0  0  0
  9 10  1  0  0  0  0
  9 29  1  0  0  0  0
  9 30  1  0  0  0  0
 10 11  1  0  0  0  0
 10 31  1  0  0  0  0
 10 32  1  0  0  0  0
 11 12  1  0  0  0  0
 11 33  1  0  0  0  0
 11 34  1  0  0  0  0
 12 13  1  0  0  0  0
 12 35  1  0  0  0  0
 12 36  1  0  0  0  0
 13 14  1  0  0  0  0
 13 37  1  0  0  0  0
 13 38  1  0  0  0  0
 14 39  1  0  0  0  0
 14 40  1  0  0  0  0
 15 19  1  0  0  0  0
 15 16  1  0  0  0  0
 16 17  2  0  0  0  0
 16 41  1  0  0  0  0
 17 18  1  0  0  0  0
 18 19  2  0  0  0  0
 18 42  1  0  0  0  0
M  CHG  1   8   1
M  END
> <s_m_source_file>
AV-unprocessed.smi

> <i_m_source_file_index>
3344

> <i_lp_mmshare_version>
43012

> <i_f3d_flags>
0

> <s_epik_input>
bjFbY0hdbltjSF1uMVtDQEhdKFtDSDNdKUMoPU8pW05IXVtDSDJdW0NIMl1OMltDSDJdW0NIMl1bQ0gyXVtDSDJdW0NIMl1bQ0gyXTI=

> <s_epik_cmdline>
J2VwaWtfcHl0aG9uJywgJy1waCcsICc3LjAnLCAnLXRuJywgJzgnLCAnLW1hJywgJzIwMCcsICctbWV0YWxfYmluZGluZycsICctaW1hZScsICc8aW5maWxlLm1hZT4nLCAnLW9tYWUnLCAnPG91dGZpbGUubWFlPic=

> <r_lp_tautomer_probability>
1

> <r_epik_Ionization_Penalty>
0.00266407

> <r_epik_Ionization_Penalty_Charging>
0.00265606

> <r_epik_Ionization_Penalty_Neutral>
8.01095e-06

> <r_epik_State_Penalty>
0.00184955

> <r_epik_Charging_Adjusted_Penalty>
0.00450561

> <i_epik_Tot_Q>
1

> <i_epik_Tot_abs_Q>
1

> <r_epik_Metal_State_Penalty>
-0

> <b_epik_Metal_Only>
0

> <s_lp_Force_Field>
OPLS_2005

> <r_lp_Energy>
29.261

> <b_lp_Chiralities_Consistent>
1

> <s_lp_Variant>
AV-unprocessed.smi:3344-1

> <Gold.Version>
5.8.1

> <Gold.Id.Protein>
6NUR|6NUR_protein|mol2

> <Gold.PLP.Fitness>
47.6871

> <Gold.PLP.PLP>
-33.1956

> <Gold.PLP.part.hbond>
-4.0000

> <Gold.PLP.part.metal>
0.0000

> <Gold.PLP.part.buried>
-3.2847

> <Gold.PLP.part.nonpolar>
-27.0520

> <Gold.PLP.part.repulsive>
0.2402

> <Gold.PLP.ligand.clash>
0.0000

> <Gold.PLP.ligand.torsion>
0.3241

> <Gold.PLP.Chemscore.Hbond>
3.9920

> <Gold.PLP.Chemscore.CHOScore>
0.9970

> <Gold.PLP.Chemscore.Metal>
0.0000

> <Gold.Chemscore.Hbonds>
donor molecule, donor type, donor heavy atom, donor atom, acceptor molecule, acceptor atom, score
      L1  H     5    24       P1  7957  1.00
      L1  H     8    43       P1  7948  2.00
      P1  H 10752 10764       L1    17  1.00
      L1  C    16    41       P1  7949  0.92

> <Gold.PLP.Chemscore.Internal.Correction>
0.1727

> <Gold.Rescore>
     Score         DG    S(hbond)    S(metal)    S(lipo)     H(rot)  DE(clash)    DE(int)     intcor
     15.25     -16.13       2.88        0.00      64.29       2.54       0.21       0.67       ----

> <Gold.Chemscore.Fitness>
15.2542

> <Gold.Chemscore.DG>
-16.1266

> <Gold.Chemscore.ZeroCoef>
-5.4800

> <Gold.Chemscore.Hbond>
2.8805

> <Gold.Chemscore.Metal>
0.0000

> <Gold.Chemscore.Lipo>
64.2918

> <Gold.Chemscore.Internal_Hbond>
0.0000

> <Gold.Chemscore.DEClash>
0.2061

> <Gold.Chemscore.DEInternal>
0.6663

> <Gold.Chemscore.Rot>
2.5377

> <Gold.Chemscore.Internal.Correction>
   9.000000E+99

> <Gold.Chemscore.Hbonds>
donor molecule, donor type, donor heavy atom, donor atom, acceptor molecule, acceptor atom, score
      L1  H     5    24       P1  7957  0.88
      L1  H     8    43       P1  7948  0.95
      P1  H 10752 10764       L1    17  0.76

> <Gold.Chemscore.Hbond.Weighted>
-9.6210

> <Gold.Chemscore.Metal.Weighted>
-0.0000

> <Gold.Chemscore.Lipo.Weighted>
-7.5221

> <Gold.Chemscore.Internal_Hbond.Weighted>
0.0000

> <Gold.Chemscore.DEClash.Weighted>
0.2061

> <Gold.Chemscore.DEInternal.Weighted>
0.6663

> <Gold.Chemscore.Rot.Weighted>
6.4966

> <Gold.Chemscore.Internal.Correction.Weighted>
   9.000000E+99

> <Gold.Protein.RotatedTorsions>
[ 6907 6896 6895 6894 ] final   67.60 input  -60.11 | X-H torsion
[ 7974 7965 7964 7962 ] final  109.47 input  175.53 | X-H torsion
[ 8008 7997 7996 7995 ] final   98.12 input   59.86 | X-H torsion
[ 10167 10162 10161 10158 ] final   41.73 input  -65.29 | X-H torsion
[ 10718 10713 10712 10709 ] final    8.16 input   66.30 | X-H torsion
[ 10763 10752 10751 10750 ] final  -65.13 input  -60.55 | X-H torsion
[ 11005 11000 10999 10996 ] final -163.73 input  -57.11 | X-H torsion

> <Gold.Protein.ActiveResidues>
 VAL166  LYS551  ARG553  GLY616  TRP617  ASP618  TYR619  PRO620  LYS621  CYS622 
 ASP623  PHE694  ASN695  SER759  ASP760  ASP761  ALA762  ILE779  LEU786  VAL792 
 PHE793  MET794  SER795  GLU796  ALA797  LYS798  CYS799  TRP800  GLU811  SER814 

> <Gold.Protein.RotatedAtoms>
  152.4563  134.5285  159.9803 H   0  0  0  0  0  0  0  0  0  0  0  0  # atno 6907 bound_to 6896
  151.5345  133.3437  159.2932 H   0  0  0  0  0  0  0  0  0  0  0  0  # atno 6908 bound_to 6896
  150.8508  134.7863  159.7070 H   0  0  0  0  0  0  0  0  0  0  0  0  # atno 6909 bound_to 6896
  145.2674  139.2679  143.3985 H   0  0  0  0  0  0  0  0  0  0  0  0  # atno 7974 bound_to 7965
  156.0972  140.3248  155.7893 H   0  0  0  0  0  0  0  0  0  0  0  0  # atno 8008 bound_to 7997
  155.4898  140.0560  157.2972 H   0  0  0  0  0  0  0  0  0  0  0  0  # atno 8009 bound_to 7997
  154.4674  140.1995  156.0098 H   0  0  0  0  0  0  0  0  0  0  0  0  # atno 8010 bound_to 7997
  140.3614  144.2223  150.6138 H   0  0  0  0  0  0  0  0  0  0  0  0  # atno 10167 bound_to 10162
  156.9476  130.5884  149.5655 H   0  0  0  0  0  0  0  0  0  0  0  0  # atno 10718 bound_to 10713
  154.3404  135.6158  153.5593 H   0  0  0  0  0  0  0  0  0  0  0  0  # atno 10763 bound_to 10752
  152.9804  135.5768  154.4860 H   0  0  0  0  0  0  0  0  0  0  0  0  # atno 10764 bound_to 10752
  154.4562  135.2854  155.1722 H   0  0  0  0  0  0  0  0  0  0  0  0  # atno 10765 bound_to 10752
  140.5949  134.5007  157.5198 H   0  0  0  0  0  0  0  0  0  0  0  0  # atno 11005 bound_to 11000
  146.3257  140.3107  142.8626 LP  0  0  0  0  0  0  0  0  0  0  0  0  # atno 17320 bound_to 7965
  144.9365  140.8032  143.5657 LP  0  0  0  0  0  0  0  0  0  0  0  0  # atno 17321 bound_to 7965
  140.5123  143.2287  151.8516 LP  0  0  0  0  0  0  0  0  0  0  0  0  # atno 17342 bound_to 10162
  139.4813  144.4935  151.9154 LP  0  0  0  0  0  0  0  0  0  0  0  0  # atno 17343 bound_to 10162
  156.0377  130.5463  150.8694 LP  0  0  0  0  0  0  0  0  0  0  0  0  # atno 17370 bound_to 10713
  157.5744  131.0946  150.9369 LP  0  0  0  0  0  0  0  0  0  0  0  0  # atno 17371 bound_to 10713
  139.9258  134.8059  156.1074 LP  0  0  0  0  0  0  0  0  0  0  0  0  # atno 17394 bound_to 11000
  141.0911  133.6714  156.2542 LP  0  0  0  0  0  0  0  0  0  0  0  0  # atno 17395 bound_to 11000

$$$$
