AV-unprocessed.smi:753|AV-procd|sdf|3600|dock3
  -GOLD-   22720 0593D 1   1.00000     0.00000
 Structure written by MMmdl.
 43 45  0  0  0  0  0  0  0  0  1 V2000
  150.5789  141.6116  155.7177 C   0  0  0  0  0  0  0  0  0  0  0  0
  149.5736  141.0180  154.7533 C   0  0  0  0  0  0  0  0  0  0  0  0
  148.6299  141.8358  154.0964 C   0  0  0  0  0  0  0  0  0  0  0  0
  147.7174  141.2291  153.2120 C   0  0  0  0  0  0  0  0  0  0  0  0
  147.7847  139.8343  153.0172 C   0  0  0  0  0  0  0  0  0  0  0  0
  146.8226  139.1331  152.0792 C   0  0  0  0  0  0  0  0  0  0  0  0
  146.1063  137.9570  152.7608 C   0  0  0  0  0  0  0  0  0  0  0  0
  146.3857  136.6986  152.0819 N   0  0  0  0  0  0  0  0  0  0  0  0
  145.4557  135.8228  151.6657 C   0  0  0  0  0  0  0  0  0  0  0  0
  144.2481  135.9874  151.8282 O   0  0  0  0  0  0  0  0  0  0  0  0
  145.9469  134.7366  151.0440 N   0  0  0  0  0  0  0  0  0  0  0  0
  145.1992  133.6097  150.4798 C   0  0  1  0  0  0  0  0  0  0  0  0
  146.1521  132.5073  149.9668 C   0  0  0  0  0  0  0  0  0  0  0  0
  145.7073  131.2638  150.7588 C   0  0  1  0  0  0  0  0  0  0  0  0
  146.1382  131.4086  152.2306 C   0  0  0  0  0  0  0  0  0  0  0  0
  145.1621  132.4716  152.7686 C   0  0  0  0  0  0  0  0  0  0  0  0
  144.3390  132.8390  151.5150 C   0  0  2  0  0  0  0  0  0  0  0  0
  144.2018  131.4746  150.8476 C   0  0  0  0  0  0  0  0  0  0  0  0
  148.7664  139.1075  153.7230 C   0  0  0  0  0  0  0  0  0  0  0  0
  149.6442  139.6803  154.5744 N   0  0  0  0  0  0  0  0  0  0  0  0
  150.4806  142.6961  155.7738 H   0  0  0  0  0  0  0  0  0  0  0  0
  151.5950  141.3789  155.3982 H   0  0  0  0  0  0  0  0  0  0  0  0
  150.4307  141.2042  156.7180 H   0  0  0  0  0  0  0  0  0  0  0  0
  148.6024  142.9024  154.2647 H   0  0  0  0  0  0  0  0  0  0  0  0
  146.9797  141.8251  152.6947 H   0  0  0  0  0  0  0  0  0  0  0  0
  146.0952  139.8584  151.7118 H   0  0  0  0  0  0  0  0  0  0  0  0
  147.3739  138.7811  151.2060 H   0  0  0  0  0  0  0  0  0  0  0  0
  146.4421  137.8649  153.7941 H   0  0  0  0  0  0  0  0  0  0  0  0
  145.0297  138.1329  152.7975 H   0  0  0  0  0  0  0  0  0  0  0  0
  147.3554  136.4800  151.9051 H   0  0  0  0  0  0  0  0  0  0  0  0
  146.9517  134.6821  150.9608 H   0  0  0  0  0  0  0  0  0  0  0  0
  144.5769  133.9527  149.6511 H   0  0  0  0  0  0  0  0  0  0  0  0
  146.0114  132.3528  148.8962 H   0  0  0  0  0  0  0  0  0  0  0  0
  147.2068  132.7358  150.1285 H   0  0  0  0  0  0  0  0  0  0  0  0
  146.0152  130.3225  150.3027 H   0  0  0  0  0  0  0  0  0  0  0  0
  146.0149  130.4679  152.7684 H   0  0  0  0  0  0  0  0  0  0  0  0
  147.1805  131.7152  152.3262 H   0  0  0  0  0  0  0  0  0  0  0  0
  144.5159  132.0378  153.5327 H   0  0  0  0  0  0  0  0  0  0  0  0
  145.6724  133.3211  153.2224 H   0  0  0  0  0  0  0  0  0  0  0  0
  143.3920  133.3272  151.7471 H   0  0  0  0  0  0  0  0  0  0  0  0
  143.7118  131.5164  149.8731 H   0  0  0  0  0  0  0  0  0  0  0  0
  143.6964  130.7340  151.4703 H   0  0  0  0  0  0  0  0  0  0  0  0
  148.8482  138.0369  153.6047 H   0  0  0  0  0  0  0  0  0  0  0  0
  1  2  1  0  0  0  0
  1 21  1  0  0  0  0
  1 22  1  0  0  0  0
  1 23  1  0  0  0  0
  2 20  1  0  0  0  0
  2  3  2  0  0  0  0
  3  4  1  0  0  0  0
  3 24  1  0  0  0  0
  4  5  2  0  0  0  0
  4 25  1  0  0  0  0
  5  6  1  0  0  0  0
  5 19  1  0  0  0  0
  6  7  1  0  0  0  0
  6 26  1  0  0  0  0
  6 27  1  0  0  0  0
  7  8  1  0  0  0  0
  7 28  1  0  0  0  0
  7 29  1  0  0  0  0
  8  9  1  0  0  0  0
  8 30  1  0  0  0  0
  9 10  2  0  0  0  0
  9 11  1  0  0  0  0
 11 12  1  0  0  0  0
 11 31  1  0  0  0  0
 12 17  1  0  0  0  0
 12 13  1  0  0  0  0
 12 32  1  0  0  0  0
 13 14  1  0  0  0  0
 13 33  1  0  0  0  0
 13 34  1  0  0  0  0
 14 18  1  0  0  0  0
 14 15  1  0  0  0  0
 14 35  1  0  0  0  0
 15 16  1  0  0  0  0
 15 36  1  0  0  0  0
 15 37  1  0  0  0  0
 16 17  1  0  0  0  0
 16 38  1  0  0  0  0
 16 39  1  0  0  0  0
 17 18  1  0  0  0  0
 17 40  1  0  0  0  0
 18 41  1  0  0  0  0
 18 42  1  0  0  0  0
 19 20  2  0  0  0  0
 19 43  1  0  0  0  0
M  END
> <s_m_source_file>
AV-unprocessed.smi

> <i_m_source_file_index>
753

> <i_lp_mmshare_version>
43012

> <i_f3d_flags>
0

> <s_epik_input>
W0NIM11jMVtjSF1bY0hdYyhbY0hdbjEpW0NIMl1bQ0gyXVtOSF1DKD1PKVtOSF1bQ0BIXShbQ0gyXVtDQEBIXTIzKVtDQEBIXShbQ0gyXTMpW0NIMl1bQ0gyXTI=

> <s_epik_cmdline>
J2VwaWtfcHl0aG9uJywgJy1waCcsICc3LjAnLCAnLXRuJywgJzgnLCAnLW1hJywgJzIwMCcsICctbWV0YWxfYmluZGluZycsICctaW1hZScsICc8aW5maWxlLm1hZT4nLCAnLW9tYWUnLCAnPG91dGZpbGUubWFlPic=

> <r_epik_Ionization_Penalty>
0.0569047

> <r_epik_Ionization_Penalty_Charging>
0

> <r_epik_Ionization_Penalty_Neutral>
0.0569047

> <r_epik_State_Penalty>
0.0490541

> <r_epik_Charging_Adjusted_Penalty>
0.0490541

> <i_epik_Tot_Q>
0

> <i_epik_Tot_abs_Q>
0

> <r_epik_Metal_State_Penalty>
0.0447357

> <b_epik_Metal_Only>
0

> <s_lp_Force_Field>
OPLS_2005

> <r_lp_Energy>
50.4095

> <b_lp_Chiralities_Consistent>
1

> <s_lp_Variant>
AV-unprocessed.smi:753-2

> <Gold.Version>
5.8.1

> <Gold.Id.Protein>
6NUR|6NUR_protein|mol2

> <Gold.PLP.Fitness>
42.5658

> <Gold.PLP.PLP>
-37.4995

> <Gold.PLP.part.hbond>
-1.0000

> <Gold.PLP.part.metal>
0.0000

> <Gold.PLP.part.buried>
2.1860

> <Gold.PLP.part.nonpolar>
-36.9432

> <Gold.PLP.part.repulsive>
0.3612

> <Gold.PLP.ligand.clash>
0.0000

> <Gold.PLP.ligand.torsion>
0.4754

> <Gold.PLP.Chemscore.Hbond>
1.0000

> <Gold.PLP.Chemscore.CHOScore>
1.0000

> <Gold.PLP.Chemscore.Metal>
0.0000

> <Gold.Chemscore.Hbonds>
donor molecule, donor type, donor heavy atom, donor atom, acceptor molecule, acceptor atom, score
      L1  H     8    30       P1  7948  1.00
      L1  C    19    43       P1  7948  1.00

> <Gold.PLP.Chemscore.Internal.Correction>
0.0172

> <Gold.Rescore>
     Score         DG    S(hbond)    S(metal)    S(lipo)     H(rot)  DE(clash)    DE(int)     intcor
     17.70     -18.29       1.00        0.00     112.21       1.43       0.13       0.46       ----

> <Gold.Chemscore.Fitness>
17.7001

> <Gold.Chemscore.DG>
-18.2908

> <Gold.Chemscore.ZeroCoef>
-5.4800

> <Gold.Chemscore.Hbond>
1.0001

> <Gold.Chemscore.Metal>
0.0000

> <Gold.Chemscore.Lipo>
112.2143

> <Gold.Chemscore.Internal_Hbond>
0.0000

> <Gold.Chemscore.DEClash>
0.1327

> <Gold.Chemscore.DEInternal>
0.4580

> <Gold.Chemscore.Rot>
1.4291

> <Gold.Chemscore.Internal.Correction>
   9.000000E+99

> <Gold.Chemscore.Hbonds>
donor molecule, donor type, donor heavy atom, donor atom, acceptor molecule, acceptor atom, score
      L1  H     8    30       P1  7948  0.98

> <Gold.Chemscore.Hbond.Weighted>
-3.3402

> <Gold.Chemscore.Metal.Weighted>
-0.0000

> <Gold.Chemscore.Lipo.Weighted>
-13.1291

> <Gold.Chemscore.Internal_Hbond.Weighted>
0.0000

> <Gold.Chemscore.DEClash.Weighted>
0.1327

> <Gold.Chemscore.DEInternal.Weighted>
0.4580

> <Gold.Chemscore.Rot.Weighted>
3.6585

> <Gold.Chemscore.Internal.Correction.Weighted>
   9.000000E+99

> <Gold.Protein.RotatedTorsions>
[ 6907 6896 6895 6894 ] final  120.46 input  -60.11 | X-H torsion
[ 7974 7965 7964 7962 ] final  -77.83 input  175.53 | X-H torsion
[ 8008 7997 7996 7995 ] final  -49.26 input   59.86 | X-H torsion
[ 10167 10162 10161 10158 ] final  -91.45 input  -65.29 | X-H torsion
[ 10718 10713 10712 10709 ] final  156.05 input   66.30 | X-H torsion
[ 10763 10752 10751 10750 ] final -160.40 input  -60.55 | X-H torsion
[ 11005 11000 10999 10996 ] final  -83.83 input  -57.11 | X-H torsion

> <Gold.Protein.ActiveResidues>
 VAL166  LYS551  ARG553  GLY616  TRP617  ASP618  TYR619  PRO620  LYS621  CYS622 
 ASP623  PHE694  ASN695  SER759  ASP760  ASP761  ALA762  ILE779  LEU786  VAL792 
 PHE793  MET794  SER795  GLU796  ALA797  LYS798  CYS799  TRP800  GLU811  SER814 

> <Gold.Protein.RotatedAtoms>
  152.4396  133.7424  159.6647 H   0  0  0  0  0  0  0  0  0  0  0  0  # atno 6907 bound_to 6896
  150.8285  133.8121  159.3114 H   0  0  0  0  0  0  0  0  0  0  0  0  # atno 6908 bound_to 6896
  151.5782  135.1062  160.0063 H   0  0  0  0  0  0  0  0  0  0  0  0  # atno 6909 bound_to 6896
  145.5946  140.9422  143.1274 H   0  0  0  0  0  0  0  0  0  0  0  0  # atno 7974 bound_to 7965
  154.4041  140.1301  156.4473 H   0  0  0  0  0  0  0  0  0  0  0  0  # atno 8008 bound_to 7997
  155.7400  140.3490  155.5080 H   0  0  0  0  0  0  0  0  0  0  0  0  # atno 8009 bound_to 7997
  155.9048  140.1025  157.1313 H   0  0  0  0  0  0  0  0  0  0  0  0  # atno 8010 bound_to 7997
  140.3447  143.2923  151.9795 H   0  0  0  0  0  0  0  0  0  0  0  0  # atno 10167 bound_to 10162
  157.2102  131.0696  151.1974 H   0  0  0  0  0  0  0  0  0  0  0  0  # atno 10718 bound_to 10713
  154.7393  135.3065  154.8756 H   0  0  0  0  0  0  0  0  0  0  0  0  # atno 10763 bound_to 10752
  153.9575  135.6757  153.4749 H   0  0  0  0  0  0  0  0  0  0  0  0  # atno 10764 bound_to 10752
  153.0993  135.4920  154.8762 H   0  0  0  0  0  0  0  0  0  0  0  0  # atno 10765 bound_to 10752
  141.1655  133.7314  156.8778 H   0  0  0  0  0  0  0  0  0  0  0  0  # atno 11005 bound_to 11000
  144.7336  139.7651  143.7338 LP  0  0  0  0  0  0  0  0  0  0  0  0  # atno 17320 bound_to 7965
  146.1622  139.4740  142.9981 LP  0  0  0  0  0  0  0  0  0  0  0  0  # atno 17321 bound_to 7965
  139.4835  144.6127  151.7404 LP  0  0  0  0  0  0  0  0  0  0  0  0  # atno 17342 bound_to 10162
  140.5276  144.0782  150.6042 LP  0  0  0  0  0  0  0  0  0  0  0  0  # atno 17343 bound_to 10162
  157.3680  130.7166  149.6546 LP  0  0  0  0  0  0  0  0  0  0  0  0  # atno 17370 bound_to 10713
  155.9691  130.4207  150.4433 LP  0  0  0  0  0  0  0  0  0  0  0  0  # atno 17371 bound_to 10713
  140.1736  134.9082  157.2864 LP  0  0  0  0  0  0  0  0  0  0  0  0  # atno 17394 bound_to 11000
  140.2474  134.3724  155.7456 LP  0  0  0  0  0  0  0  0  0  0  0  0  # atno 17395 bound_to 11000

$$$$
