AV-unprocessed.smi:2505|AV-procd|sdf|9857|dock4
  -GOLD-   2272013483D 1   1.00000     0.00000
 Structure written by MMmdl.
 48 52  0  0  0  0  0  0  0  0  1 V2000
  149.7023  135.0268  156.1127 O   0  0  0  0  0  0  0  0  0  0  0  0
  149.4670  135.3878  154.9619 C   0  0  0  0  0  0  0  0  0  0  0  0
  149.7360  136.6115  154.4689 N   0  0  0  0  0  0  0  0  0  0  0  0
  150.2961  137.7365  155.1294 C   0  0  0  0  0  0  0  0  0  0  0  0
  150.7092  137.7705  156.4842 C   0  0  0  0  0  0  0  0  0  0  0  0
  151.2135  138.8919  157.0433 N   0  0  0  0  0  0  0  0  0  0  0  0
  151.2932  139.9747  156.2650 C   0  0  0  0  0  0  0  0  0  0  0  0
  151.8843  141.2041  156.8822 C   0  0  0  0  0  0  0  0  0  0  0  0
  151.3422  141.7553  158.1855 C   0  0  0  0  0  0  0  0  0  0  0  0
  151.1116  142.5075  156.9047 C   0  0  0  0  0  0  0  0  0  0  0  0
  150.9421  140.0587  154.9789 N   0  0  0  0  0  0  0  0  0  0  0  0
  150.4359  138.9430  154.4123 C   0  0  0  0  0  0  0  0  0  0  0  0
  148.9280  134.5457  154.0633 N   0  0  0  0  0  0  0  0  0  0  0  0
  148.5232  133.1549  154.2770 C   0  0  2  0  0  0  0  0  0  0  0  0
  149.6009  132.1628  153.8095 C   0  0  1  0  0  0  0  0  0  0  0  0
  150.3018  131.2888  154.8138 C   0  0  0  0  0  0  0  0  0  0  0  0
  149.5030  129.9846  154.7460 C   0  0  0  0  0  0  0  0  0  0  0  0
  148.2350  130.3688  154.2192 O   0  0  0  0  0  0  0  0  0  0  0  0
  148.4709  131.3431  153.2056 C   0  0  1  0  0  0  0  0  0  0  0  0
  147.5568  132.5866  153.2087 C   0  0  0  0  0  0  0  0  0  0  0  0
  146.0909  132.3684  153.5755 C   0  0  0  0  0  0  0  0  0  0  0  0
  145.3368  132.0915  152.2707 C   0  0  0  0  0  0  0  0  0  0  0  0
  146.2194  132.6555  151.1523 C   0  0  0  0  0  0  0  0  0  0  0  0
  147.4147  133.2969  151.8598 C   0  0  0  0  0  0  0  0  0  0  0  0
  149.5487  136.7374  153.4848 H   0  0  0  0  0  0  0  0  0  0  0  0
  150.6292  136.9208  157.1435 H   0  0  0  0  0  0  0  0  0  0  0  0
  152.9590  141.2523  156.7175 H   0  0  0  0  0  0  0  0  0  0  0  0
  150.4852  141.2551  158.6325 H   0  0  0  0  0  0  0  0  0  0  0  0
  152.0596  142.1700  158.8904 H   0  0  0  0  0  0  0  0  0  0  0  0
  151.6739  143.4263  156.7524 H   0  0  0  0  0  0  0  0  0  0  0  0
  150.1014  142.5066  156.4998 H   0  0  0  0  0  0  0  0  0  0  0  0
  150.1413  139.0153  153.3755 H   0  0  0  0  0  0  0  0  0  0  0  0
  148.8048  134.9023  153.1264 H   0  0  0  0  0  0  0  0  0  0  0  0
  148.1901  132.9344  155.2939 H   0  0  0  0  0  0  0  0  0  0  0  0
  150.2489  132.5786  153.0356 H   0  0  0  0  0  0  0  0  0  0  0  0
  151.3526  131.1292  154.5710 H   0  0  0  0  0  0  0  0  0  0  0  0
  150.2497  131.7243  155.8123 H   0  0  0  0  0  0  0  0  0  0  0  0
  149.9749  129.2816  154.0578 H   0  0  0  0  0  0  0  0  0  0  0  0
  149.4054  129.4985  155.7168 H   0  0  0  0  0  0  0  0  0  0  0  0
  148.7007  130.9131  152.2297 H   0  0  0  0  0  0  0  0  0  0  0  0
  145.9498  131.5614  154.2948 H   0  0  0  0  0  0  0  0  0  0  0  0
  145.6860  133.2689  154.0378 H   0  0  0  0  0  0  0  0  0  0  0  0
  145.2005  131.0185  152.1303 H   0  0  0  0  0  0  0  0  0  0  0  0
  144.3474  132.5498  152.2803 H   0  0  0  0  0  0  0  0  0  0  0  0
  146.5584  131.8444  150.5067 H   0  0  0  0  0  0  0  0  0  0  0  0
  145.6874  133.3738  150.5277 H   0  0  0  0  0  0  0  0  0  0  0  0
  147.2035  134.3569  152.0056 H   0  0  0  0  0  0  0  0  0  0  0  0
  148.3194  133.2350  151.2540 H   0  0  0  0  0  0  0  0  0  0  0  0
  1  2  2  0  0  0  0
  2  3  1  0  0  0  0
  2 13  1  0  0  0  0
  3  4  1  0  0  0  0
  3 25  1  0  0  0  0
  4 12  1  0  0  0  0
  4  5  2  0  0  0  0
  5  6  1  0  0  0  0
  5 26  1  0  0  0  0
  6  7  2  0  0  0  0
  7  8  1  0  0  0  0
  7 11  1  0  0  0  0
  8 10  1  0  0  0  0
  8  9  1  0  0  0  0
  8 27  1  0  0  0  0
  9 10  1  0  0  0  0
  9 28  1  0  0  0  0
  9 29  1  0  0  0  0
 10 30  1  0  0  0  0
 10 31  1  0  0  0  0
 11 12  2  0  0  0  0
 12 32  1  0  0  0  0
 13 14  1  0  0  0  0
 13 33  1  0  0  0  0
 14 20  1  0  0  0  0
 14 15  1  0  0  0  0
 14 34  1  0  0  0  0
 15 19  1  0  0  0  0
 15 16  1  0  0  0  0
 15 35  1  0  0  0  0
 16 17  1  0  0  0  0
 16 36  1  0  0  0  0
 16 37  1  0  0  0  0
 17 18  1  0  0  0  0
 17 38  1  0  0  0  0
 17 39  1  0  0  0  0
 18 19  1  0  0  0  0
 19 20  1  0  0  0  0
 19 40  1  0  0  0  0
 20 24  1  0  0  0  0
 20 21  1  0  0  0  0
 21 22  1  0  0  0  0
 21 41  1  0  0  0  0
 21 42  1  0  0  0  0
 22 23  1  0  0  0  0
 22 43  1  0  0  0  0
 22 44  1  0  0  0  0
 23 24  1  0  0  0  0
 23 45  1  0  0  0  0
 23 46  1  0  0  0  0
 24 47  1  0  0  0  0
 24 48  1  0  0  0  0
M  END
> <s_m_source_file>
AV-unprocessed.smi

> <i_m_source_file_index>
2505

> <i_lp_mmshare_version>
43012

> <i_f3d_flags>
0

> <s_epik_input>
W0NIMl0xW0NIMl1bQ0hdMWMobltjSF0yKW5bY0hdYzJbTkhdQyg9TylbTkhdW0NAQEhdM1tDQEBIXShbQ0gyXVtDSDJdTzQpW0NASF00QzM1W0NIMl1bQ0gyXVtDSDJdW0NIMl01

> <s_epik_cmdline>
J2VwaWtfcHl0aG9uJywgJy1waCcsICc3LjAnLCAnLXRuJywgJzgnLCAnLW1hJywgJzIwMCcsICctbWV0YWxfYmluZGluZycsICctaW1hZScsICc8aW5maWxlLm1hZT4nLCAnLW9tYWUnLCAnPG91dGZpbGUubWFlPic=

> <r_lp_tautomer_probability>
1

> <r_epik_Ionization_Penalty>
2.6075e-05

> <r_epik_Ionization_Penalty_Charging>
0

> <r_epik_Ionization_Penalty_Neutral>
2.6075e-05

> <r_epik_State_Penalty>
-0

> <r_epik_Charging_Adjusted_Penalty>
0

> <i_epik_Tot_Q>
0

> <i_epik_Tot_abs_Q>
0

> <r_epik_Metal_State_Penalty>
-0

> <b_epik_Metal_Only>
0

> <s_lp_Force_Field>
OPLS_2005

> <r_lp_Energy>
63.1454

> <b_lp_Chiralities_Consistent>
1

> <s_lp_Variant>
AV-unprocessed.smi:2505-5

> <Gold.Version>
5.8.1

> <Gold.Id.Protein>
6NUR|6NUR_protein|mol2

> <Gold.PLP.Fitness>
47.7661

> <Gold.PLP.PLP>
-36.1623

> <Gold.PLP.part.hbond>
-3.0000

> <Gold.PLP.part.metal>
0.0000

> <Gold.PLP.part.buried>
-3.8612

> <Gold.PLP.part.nonpolar>
-28.3732

> <Gold.PLP.part.repulsive>
0.1503

> <Gold.PLP.ligand.clash>
0.0000

> <Gold.PLP.ligand.torsion>
0.3482

> <Gold.PLP.Chemscore.Hbond>
3.0000

> <Gold.PLP.Chemscore.CHOScore>
1.0000

> <Gold.PLP.Chemscore.Metal>
0.0000

> <Gold.Chemscore.Hbonds>
donor molecule, donor type, donor heavy atom, donor atom, acceptor molecule, acceptor atom, score
      L1  H     3    25       P1  7948  1.00
      L1  H    13    33       P1  7948  1.00
      P1  H  7989  7998       L1    11  1.00
      L1  C    12    32       P1  7957  1.00

> <Gold.PLP.Chemscore.Internal.Correction>
0.3003

> <Gold.Rescore>
     Score         DG    S(hbond)    S(metal)    S(lipo)     H(rot)  DE(clash)    DE(int)     intcor
     17.96     -20.08       2.17        0.00      88.36       1.17       0.58       1.54       ----

> <Gold.Chemscore.Fitness>
17.9603

> <Gold.Chemscore.DG>
-20.0758

> <Gold.Chemscore.ZeroCoef>
-5.4800

> <Gold.Chemscore.Hbond>
2.1747

> <Gold.Chemscore.Metal>
0.0000

> <Gold.Chemscore.Lipo>
88.3649

> <Gold.Chemscore.Internal_Hbond>
0.0000

> <Gold.Chemscore.DEClash>
0.5775

> <Gold.Chemscore.DEInternal>
1.5379

> <Gold.Chemscore.Rot>
1.1744

> <Gold.Chemscore.Internal.Correction>
   9.000000E+99

> <Gold.Chemscore.Hbonds>
donor molecule, donor type, donor heavy atom, donor atom, acceptor molecule, acceptor atom, score
      L1  H     3    25       P1  7948  0.73
      L1  H    13    33       P1  7948  0.29
      P1  H  7989  7998       L1    11  0.26

> <Gold.Chemscore.Hbond.Weighted>
-7.2635

> <Gold.Chemscore.Metal.Weighted>
-0.0000

> <Gold.Chemscore.Lipo.Weighted>
-10.3387

> <Gold.Chemscore.Internal_Hbond.Weighted>
0.0000

> <Gold.Chemscore.DEClash.Weighted>
0.5775

> <Gold.Chemscore.DEInternal.Weighted>
1.5379

> <Gold.Chemscore.Rot.Weighted>
3.0064

> <Gold.Chemscore.Internal.Correction.Weighted>
   9.000000E+99

> <Gold.Protein.RotatedTorsions>
[ 6907 6896 6895 6894 ] final  -52.27 input  -60.11 | X-H torsion
[ 7974 7965 7964 7962 ] final -177.19 input  175.53 | X-H torsion
[ 8008 7997 7996 7995 ] final  -24.44 input   59.86 | X-H torsion
[ 10167 10162 10161 10158 ] final -175.09 input  -65.29 | X-H torsion
[ 10718 10713 10712 10709 ] final -106.22 input   66.30 | X-H torsion
[ 10763 10752 10751 10750 ] final  123.62 input  -60.55 | X-H torsion
[ 11005 11000 10999 10996 ] final   41.39 input  -57.11 | X-H torsion

> <Gold.Protein.ActiveResidues>
 VAL166  LYS551  ARG553  GLY616  TRP617  ASP618  TYR619  PRO620  LYS621  CYS622 
 ASP623  PHE694  ASN695  SER759  ASP760  ASP761  ALA762  ILE779  LEU786  VAL792 
 PHE793  MET794  SER795  GLU796  ALA797  LYS798  CYS799  TRP800  GLU811  SER814 

> <Gold.Protein.RotatedAtoms>
  150.8533  134.7864  159.7025 H   0  0  0  0  0  0  0  0  0  0  0  0  # atno 6907 bound_to 6896
  152.4592  134.5220  159.9795 H   0  0  0  0  0  0  0  0  0  0  0  0  # atno 6908 bound_to 6896
  151.5337  133.3406  159.2958 H   0  0  0  0  0  0  0  0  0  0  0  0  # atno 6909 bound_to 6896
  144.7127  140.1056  143.6414 H   0  0  0  0  0  0  0  0  0  0  0  0  # atno 7974 bound_to 7965
  154.4529  140.1953  156.0465 H   0  0  0  0  0  0  0  0  0  0  0  0  # atno 8008 bound_to 7997
  156.0686  140.3287  155.7520 H   0  0  0  0  0  0  0  0  0  0  0  0  # atno 8009 bound_to 7997
  155.5300  140.0577  157.2881 H   0  0  0  0  0  0  0  0  0  0  0  0  # atno 8010 bound_to 7997
  139.5599  144.1895  152.1222 H   0  0  0  0  0  0  0  0  0  0  0  0  # atno 10167 bound_to 10162
  156.0380  130.5602  150.7650 H   0  0  0  0  0  0  0  0  0  0  0  0  # atno 10718 bound_to 10713
  153.6484  135.3367  155.3092 H   0  0  0  0  0  0  0  0  0  0  0  0  # atno 10763 bound_to 10752
  154.8543  135.4335  154.1930 H   0  0  0  0  0  0  0  0  0  0  0  0  # atno 10764 bound_to 10752
  153.2867  135.7013  153.7407 H   0  0  0  0  0  0  0  0  0  0  0  0  # atno 10765 bound_to 10752
  140.1839  134.4070  155.8184 H   0  0  0  0  0  0  0  0  0  0  0  0  # atno 11005 bound_to 11000
  145.9499  139.2727  143.1218 LP  0  0  0  0  0  0  0  0  0  0  0  0  # atno 17320 bound_to 7965
  145.9334  140.9032  143.0345 LP  0  0  0  0  0  0  0  0  0  0  0  0  # atno 17321 bound_to 7965
  140.1406  144.5205  150.6746 LP  0  0  0  0  0  0  0  0  0  0  0  0  # atno 17342 bound_to 10162
  140.6878  143.2359  151.5214 LP  0  0  0  0  0  0  0  0  0  0  0  0  # atno 17343 bound_to 10162
  157.5160  131.0928  151.0139 LP  0  0  0  0  0  0  0  0  0  0  0  0  # atno 17370 bound_to 10713
  157.0482  130.5776  149.5366 LP  0  0  0  0  0  0  0  0  0  0  0  0  # atno 17371 bound_to 10713
  141.2224  133.7013  156.7979 LP  0  0  0  0  0  0  0  0  0  0  0  0  # atno 17394 bound_to 11000
  140.2236  134.8739  157.3403 LP  0  0  0  0  0  0  0  0  0  0  0  0  # atno 17395 bound_to 11000

$$$$
