AV-unprocessed.smi:790|AV-procd|sdf|3741|dock1
  -GOLD-   22720 1173D 1   1.00000     0.00000
 Structure written by MMmdl.
 38 40  0  0  0  0  0  0  0  0  1 V2000
  145.0340  137.8394  153.1874 O   0  0  0  0  0  0  0  0  0  0  0  0
  146.1143  137.4040  152.7897 C   0  0  0  0  0  0  0  0  0  0  0  0
  147.3016  138.0161  152.9368 N   0  0  0  0  0  0  0  0  0  0  0  0
  147.5874  139.2448  153.5912 C   0  0  0  0  0  0  0  0  0  0  0  0
  148.8940  139.7381  153.8249 C   0  0  0  0  0  0  0  0  0  0  0  0
  149.0458  140.9817  154.4679 C   0  0  0  0  0  0  0  0  0  0  0  0
  147.8887  141.6893  154.8468 C   0  0  0  0  0  0  0  0  0  0  0  0
  146.6375  141.2379  154.6179 N   0  0  0  0  0  0  0  0  0  0  0  0
  146.4995  140.0452  154.0003 C   0  0  0  0  0  0  0  0  0  0  0  0
  146.2471  136.2424  152.1337 N   0  0  0  0  0  0  0  0  0  0  0  0
  145.1502  135.3409  151.7781 C   0  0  1  0  0  0  0  0  0  0  0  0
  145.6153  134.3328  150.7048 C   0  0  2  0  0  0  0  0  0  0  0  0
  144.3800  133.6708  150.0677 C   0  0  0  0  0  0  0  0  0  0  0  0
  143.8755  132.7509  151.1958 C   0  0  0  0  0  0  0  0  0  0  0  0
  144.8902  133.0070  152.3282 C   0  0  1  0  0  0  0  0  0  0  0  0
  146.1812  133.1913  151.5411 C   0  0  0  0  0  0  0  0  0  0  0  0
  144.6482  134.4143  152.9278 C   0  0  1  0  0  0  0  0  0  0  0  0
  145.3143  134.6126  154.3087 C   0  0  0  0  0  0  0  0  0  0  0  0
  144.8565  133.6368  155.2211 O   0  0  0  0  0  0  0  0  0  0  0  0
  148.0880  137.5759  152.4818 H   0  0  0  0  0  0  0  0  0  0  0  0
  149.7759  139.2001  153.5141 H   0  0  0  0  0  0  0  0  0  0  0  0
  150.0284  141.3863  154.6619 H   0  0  0  0  0  0  0  0  0  0  0  0
  147.9704  142.6458  155.3414 H   0  0  0  0  0  0  0  0  0  0  0  0
  145.4843  139.7167  153.8317 H   0  0  0  0  0  0  0  0  0  0  0  0
  147.1728  135.9641  151.8429 H   0  0  0  0  0  0  0  0  0  0  0  0
  144.3237  135.9353  151.3834 H   0  0  0  0  0  0  0  0  0  0  0  0
  146.3036  134.7514  149.9694 H   0  0  0  0  0  0  0  0  0  0  0  0
  143.6301  134.3980  149.7543 H   0  0  0  0  0  0  0  0  0  0  0  0
  144.6618  133.0841  149.1924 H   0  0  0  0  0  0  0  0  0  0  0  0
  142.8516  132.9793  151.4938 H   0  0  0  0  0  0  0  0  0  0  0  0
  143.9040  131.7075  150.8790 H   0  0  0  0  0  0  0  0  0  0  0  0
  144.9157  132.2046  153.0660 H   0  0  0  0  0  0  0  0  0  0  0  0
  146.4554  132.3162  150.9492 H   0  0  0  0  0  0  0  0  0  0  0  0
  147.0325  133.4835  152.1573 H   0  0  0  0  0  0  0  0  0  0  0  0
  143.5770  134.5739  153.0618 H   0  0  0  0  0  0  0  0  0  0  0  0
  146.4010  134.5590  154.2432 H   0  0  0  0  0  0  0  0  0  0  0  0
  145.0592  135.5893  154.7199 H   0  0  0  0  0  0  0  0  0  0  0  0
  144.0623  133.2549  154.8799 H   0  0  0  0  0  0  0  0  0  0  0  0
  1  2  2  0  0  0  0
  2  3  1  0  0  0  0
  2 10  1  0  0  0  0
  3  4  1  0  0  0  0
  3 20  1  0  0  0  0
  4  9  1  0  0  0  0
  4  5  2  0  0  0  0
  5  6  1  0  0  0  0
  5 21  1  0  0  0  0
  6  7  2  0  0  0  0
  6 22  1  0  0  0  0
  7  8  1  0  0  0  0
  7 23  1  0  0  0  0
  8  9  2  0  0  0  0
  9 24  1  0  0  0  0
 10 11  1  0  0  0  0
 10 25  1  0  0  0  0
 11 17  1  0  0  0  0
 11 12  1  0  0  0  0
 11 26  1  0  0  0  0
 12 16  1  0  0  0  0
 12 13  1  0  0  0  0
 12 27  1  0  0  0  0
 13 14  1  0  0  0  0
 13 28  1  0  0  0  0
 13 29  1  0  0  0  0
 14 15  1  0  0  0  0
 14 30  1  0  0  0  0
 14 31  1  0  0  0  0
 15 16  1  0  0  0  0
 15 17  1  0  0  0  0
 15 32  1  0  0  0  0
 16 33  1  0  0  0  0
 16 34  1  0  0  0  0
 17 18  1  0  0  0  0
 17 35  1  0  0  0  0
 18 19  1  0  0  0  0
 18 36  1  0  0  0  0
 18 37  1  0  0  0  0
 19 38  1  0  0  0  0
M  END
> <s_m_source_file>
AV-unprocessed.smi

> <i_m_source_file_index>
790

> <i_lp_mmshare_version>
43012

> <i_f3d_flags>
0

> <s_epik_input>
W0NIMl0xW0NIMl1bQ0BASF0oW0NIMl0yKVtDQEBIXShbQ0gyXVtPSF0pW0NAQEhdKFtDQEhdMTIpW05IXUMoPU8pW05IXWMzW2NIXVtjSF1bY0hdbltjSF0z

> <s_epik_cmdline>
J2VwaWtfcHl0aG9uJywgJy1waCcsICc3LjAnLCAnLXRuJywgJzgnLCAnLW1hJywgJzIwMCcsICctbWV0YWxfYmluZGluZycsICctaW1hZScsICc8aW5maWxlLm1hZT4nLCAnLW9tYWUnLCAnPG91dGZpbGUubWFlPic=

> <r_epik_Ionization_Penalty>
0.00497582

> <r_epik_Ionization_Penalty_Charging>
0

> <r_epik_Ionization_Penalty_Neutral>
0.00497582

> <r_epik_State_Penalty>
0.00358602

> <r_epik_Charging_Adjusted_Penalty>
0.00358602

> <i_epik_Tot_Q>
0

> <i_epik_Tot_abs_Q>
0

> <r_epik_Metal_State_Penalty>
-0

> <b_epik_Metal_Only>
0

> <s_lp_Force_Field>
OPLS_2005

> <r_lp_Energy>
53.2312

> <b_lp_Chiralities_Consistent>
1

> <s_lp_Variant>
AV-unprocessed.smi:790-2

> <Gold.Version>
5.8.1

> <Gold.Id.Protein>
6NUR|6NUR_protein|mol2

> <Gold.PLP.Fitness>
41.6445

> <Gold.PLP.PLP>
-27.1741

> <Gold.PLP.part.hbond>
-3.0000

> <Gold.PLP.part.metal>
0.0000

> <Gold.PLP.part.buried>
-0.2360

> <Gold.PLP.part.nonpolar>
-24.2665

> <Gold.PLP.part.repulsive>
0.7448

> <Gold.PLP.ligand.clash>
0.0000

> <Gold.PLP.ligand.torsion>
0.2710

> <Gold.PLP.Chemscore.Hbond>
3.0000

> <Gold.PLP.Chemscore.CHOScore>
2.0000

> <Gold.PLP.Chemscore.Metal>
0.0000

> <Gold.Chemscore.Hbonds>
donor molecule, donor type, donor heavy atom, donor atom, acceptor molecule, acceptor atom, score
      L1  H     3    20       P1  7948  1.00
      L1  H    10    25       P1  7948  1.00
      L1  H    19    38       P1 10957  0.98
      L1  C     7    23       P1  8028  1.00
      L1  C     9    24       P1 10175  1.00

> <Gold.PLP.Chemscore.Internal.Correction>
0.0124

> <Gold.Rescore>
     Score         DG    S(hbond)    S(metal)    S(lipo)     H(rot)  DE(clash)    DE(int)     intcor
     16.97     -18.78       2.90        0.00      69.92       1.78       0.09       1.72       ----

> <Gold.Chemscore.Fitness>
16.9705

> <Gold.Chemscore.DG>
-18.7804

> <Gold.Chemscore.ZeroCoef>
-5.4800

> <Gold.Chemscore.Hbond>
2.8960

> <Gold.Chemscore.Metal>
0.0000

> <Gold.Chemscore.Lipo>
69.9171

> <Gold.Chemscore.Internal_Hbond>
0.0000

> <Gold.Chemscore.DEClash>
0.0879

> <Gold.Chemscore.DEInternal>
1.7220

> <Gold.Chemscore.Rot>
1.7783

> <Gold.Chemscore.Internal.Correction>
   9.000000E+99

> <Gold.Chemscore.Hbonds>
donor molecule, donor type, donor heavy atom, donor atom, acceptor molecule, acceptor atom, score
      L1  H     3    20       P1  7948  0.98
      L1  H    10    25       P1  7948  0.95
      L1  H    19    38       P1 10957  0.89

> <Gold.Chemscore.Hbond.Weighted>
-9.6726

> <Gold.Chemscore.Metal.Weighted>
-0.0000

> <Gold.Chemscore.Lipo.Weighted>
-8.1803

> <Gold.Chemscore.Internal_Hbond.Weighted>
0.0000

> <Gold.Chemscore.DEClash.Weighted>
0.0879

> <Gold.Chemscore.DEInternal.Weighted>
1.7220

> <Gold.Chemscore.Rot.Weighted>
4.5525

> <Gold.Chemscore.Internal.Correction.Weighted>
   9.000000E+99

> <Gold.Protein.RotatedTorsions>
[ 6907 6896 6895 6894 ] final  101.24 input  -60.11 | X-H torsion
[ 7974 7965 7964 7962 ] final   84.54 input  175.53 | X-H torsion
[ 8008 7997 7996 7995 ] final   43.46 input   59.86 | X-H torsion
[ 10167 10162 10161 10158 ] final   40.36 input  -65.29 | X-H torsion
[ 10718 10713 10712 10709 ] final  107.84 input   66.30 | X-H torsion
[ 10763 10752 10751 10750 ] final   51.41 input  -60.55 | X-H torsion
[ 11005 11000 10999 10996 ] final -169.01 input  -57.11 | X-H torsion

> <Gold.Protein.ActiveResidues>
 VAL166  LYS551  ARG553  GLY616  TRP617  ASP618  TYR619  PRO620  LYS621  CYS622 
 ASP623  PHE694  ASN695  SER759  ASP760  ASP761  ALA762  ILE779  LEU786  VAL792 
 PHE793  MET794  SER795  GLU796  ALA797  LYS798  CYS799  TRP800  GLU811  SER814 

> <Gold.Protein.RotatedAtoms>
  152.5354  134.0156  159.7957 H   0  0  0  0  0  0  0  0  0  0  0  0  # atno 6907 bound_to 6896
  151.0351  133.5748  159.2664 H   0  0  0  0  0  0  0  0  0  0  0  0  # atno 6908 bound_to 6896
  151.2738  135.0700  159.9197 H   0  0  0  0  0  0  0  0  0  0  0  0  # atno 6909 bound_to 6896
  145.5973  139.2347  143.2265 H   0  0  0  0  0  0  0  0  0  0  0  0  # atno 7974 bound_to 7965
  155.3032  140.3386  155.4247 H   0  0  0  0  0  0  0  0  0  0  0  0  # atno 8008 bound_to 7997
  156.1991  140.1726  156.7975 H   0  0  0  0  0  0  0  0  0  0  0  0  # atno 8009 bound_to 7997
  154.5536  140.0700  156.8692 H   0  0  0  0  0  0  0  0  0  0  0  0  # atno 8010 bound_to 7997
  140.3750  144.2055  150.6132 H   0  0  0  0  0  0  0  0  0  0  0  0  # atno 10167 bound_to 10162
  157.6611  131.0881  150.6217 H   0  0  0  0  0  0  0  0  0  0  0  0  # atno 10718 bound_to 10713
  152.9785  135.5846  154.4412 H   0  0  0  0  0  0  0  0  0  0  0  0  # atno 10763 bound_to 10752
  154.4013  135.2769  155.2097 H   0  0  0  0  0  0  0  0  0  0  0  0  # atno 10764 bound_to 10752
  154.3927  135.6121  153.5906 H   0  0  0  0  0  0  0  0  0  0  0  0  # atno 10765 bound_to 10752
  140.5356  134.5573  157.5086 H   0  0  0  0  0  0  0  0  0  0  0  0  # atno 11005 bound_to 11000
  146.1602  140.6799  142.9281 LP  0  0  0  0  0  0  0  0  0  0  0  0  # atno 17320 bound_to 7965
  144.7325  140.4713  143.6927 LP  0  0  0  0  0  0  0  0  0  0  0  0  # atno 17321 bound_to 7965
  140.4995  143.2322  151.8699 LP  0  0  0  0  0  0  0  0  0  0  0  0  # atno 17342 bound_to 10162
  139.4800  144.5075  151.8978 LP  0  0  0  0  0  0  0  0  0  0  0  0  # atno 17343 bound_to 10162
  156.6519  130.4487  149.5716 LP  0  0  0  0  0  0  0  0  0  0  0  0  # atno 17370 bound_to 10713
  156.2131  130.6691  151.1290 LP  0  0  0  0  0  0  0  0  0  0  0  0  # atno 17371 bound_to 10713
  139.9531  134.7582  156.0403 LP  0  0  0  0  0  0  0  0  0  0  0  0  # atno 17394 bound_to 11000
  141.1257  133.6600  156.3329 LP  0  0  0  0  0  0  0  0  0  0  0  0  # atno 17395 bound_to 11000

$$$$
