#       Name:                AV-unprocessed.smi:2186
#       Creating user name   scv26
#       Creation time:       Fri Mar 27 12:07:34 2020


#       File generated by GOLD software.
#

@<TRIPOS>MOLECULE
AV-unprocessed.smi:2186
    49    50     1
SMALL
NO_CHARGES


@<TRIPOS>ATOM
      1 ****        -2.5829   2.5615   1.7785 C.3            1 S1                 0.0000
      2 ****        -3.5762   1.5494   2.3679 C.3            1 S1                 0.0000
      3 ****        -3.7708   1.7080   3.8828 C.3            1 S1                 0.0000
      4 ****        -3.2356   0.1430   1.9874 C.2            1 S1                 0.0000
      5 ****        -2.1134  -0.4760   2.3662 N.2            1 S1                 0.0000
      6 ****        -2.0195  -1.7803   1.8695 C.2            1 S1                 0.0000
      7 ****        -0.8145  -2.6180   2.1847 C.3            1 S1                 0.0000
      8 ****         0.2579  -2.4162   1.1132 C.2            1 S1                 0.0000
      9 ****         0.4202  -3.2642   0.2359 O.2            1 S1                 0.0000
     10 ****         0.9775  -1.2859   1.1924 N.am           1 S1                 0.0000
     11 ****         2.0097  -0.8823   0.2469 C.3            1 S1                 0.0000
     12 ****         1.3879  -0.2372  -1.0055 C.3            1 S1                 0.0000
     13 ****         2.3506   0.3050  -1.9622 N.3            1 S1                 0.0000
     14 ****         1.6789   1.0993  -2.9853 C.3            1 S1                 0.0000
     15 ****         2.6728   1.6841  -4.0033 C.3            1 S1                 0.0000
     16 ****         3.4172   0.6276  -4.6003 O.3            1 S1                 0.0000
     17 ****         4.1261  -0.1521  -3.6427 C.3            1 S1                 0.0000
     18 ****         3.1406  -0.7370  -2.6154 C.3            1 S1                 0.0000
     19 ****        -3.1039  -2.1484   1.1121 C.2            1 S1                 0.0000
     20 ****        -4.2751  -0.8652   0.9864 S.3            1 S1                 0.0000
     21 ****        -2.5334   2.4746   0.6926 H              1 S1                 0.0000
     22 ****        -1.5775   2.4061   2.1713 H              1 S1                 0.0000
     23 ****        -2.8770   3.5841   2.0155 H              1 S1                 0.0000
     24 ****        -4.5423   1.7654   1.9103 H              1 S1                 0.0000
     25 ****        -4.5438   1.0331   4.2515 H              1 S1                 0.0000
     26 ****        -4.0720   2.7246   4.1360 H              1 S1                 0.0000
     27 ****        -2.8509   1.4897   4.4262 H              1 S1                 0.0000
     28 ****        -0.4042  -2.3609   3.1623 H              1 S1                 0.0000
     29 ****        -1.0831  -3.6740   2.2318 H              1 S1                 0.0000
     30 ****         0.7706  -0.6444   1.9445 H              1 S1                 0.0000
     31 ****         2.6650  -0.1678   0.7457 H              1 S1                 0.0000
     32 ****         2.6250  -1.7453  -0.0099 H              1 S1                 0.0000
     33 ****         0.7377  -0.9557  -1.5071 H              1 S1                 0.0000
     34 ****         0.7362   0.5709  -0.6693 H              1 S1                 0.0000
     35 ****         0.9471   0.4835  -3.5105 H              1 S1                 0.0000
     36 ****         1.1234   1.9128  -2.5178 H              1 S1                 0.0000
     37 ****         2.1412   2.2318  -4.7818 H              1 S1                 0.0000
     38 ****         3.3510   2.3893  -3.5205 H              1 S1                 0.0000
     39 ****         4.6569  -0.9529  -4.1577 H              1 S1                 0.0000
     40 ****         4.8782   0.4641  -3.1477 H              1 S1                 0.0000
     41 ****         3.7061  -1.3046  -1.8772 H              1 S1                 0.0000
     42 ****         2.4779  -1.4455  -3.1150 H              1 S1                 0.0000
     43 ****        -3.2805  -3.0922   0.6176 H              1 S1                 0.0000
     44 ****        -1.4153  -0.0520   2.9432 LP             1 S1                 0.0000
     45 ****        -0.1494  -4.0860   0.2234 LP             1 S1                 0.0000
     46 ****         1.1217  -3.1314  -0.4643 LP             1 S1                 0.0000
     47 ****         2.9712   0.8835  -1.4329 LP             1 S1                 0.0000
     48 ****         4.0748   1.0220  -5.2421 LP             1 S1                 0.0000
     49 ****         2.7857   0.0306  -5.0950 LP             1 S1                 0.0000
@<TRIPOS>BOND
    1    1    2 1     
    2    1   21 1     
    3    1   22 1     
    4    1   23 1     
    5    2    3 1     
    6    2    4 1     
    7    2   24 1     
    8    3   25 1     
    9    3   26 1     
   10    3   27 1     
   11    4   20 1     
   12    4    5 2     
   13    5    6 1     
   14    6    7 1     
   15    6   19 2     
   16    7    8 1     
   17    7   28 1     
   18    7   29 1     
   19    8    9 2     
   20    8   10 am    
   21   10   11 1     
   22   10   30 1     
   23   11   12 1     
   24   11   31 1     
   25   11   32 1     
   26   12   13 1     
   27   12   33 1     
   28   12   34 1     
   29   13   18 1     
   30   13   14 1     
   31   14   15 1     
   32   14   35 1     
   33   14   36 1     
   34   15   16 1     
   35   15   37 1     
   36   15   38 1     
   37   16   17 1     
   38   17   18 1     
   39   17   39 1     
   40   17   40 1     
   41   18   41 1     
   42   18   42 1     
   43   19   20 1     
   44   19   43 1     
   45    5   44 1     
   46    9   45 1     
   47    9   46 1     
   48   13   47 1     
   49   16   48 1     
   50   16   49 1     
@<TRIPOS>SUBSTRUCTURE
      1 S1             1
@<TRIPOS>SET
LONE_PAIRS      STATIC     ATOMS    <user>   **** ""
6 44 45 46 47 48 49
DONOR_HYDROGENS      STATIC     ATOMS    <user>   **** ""
1 30
ATOM$BLUE        STATIC     ATOMS    COLORGROUP SYSTEM
6 44 45 46 47 48 49
ATOM$RED        STATIC     ATOMS    COLORGROUP SYSTEM
1 30
