AV-unprocessed.smi:2061|AV-procd|sdf|8370|dock2
  -GOLD-   2272011 43D 1   1.00000     0.00000
 Structure written by MMmdl.
 46 47  0  0  0  0  0  0  0  0  2 V2000
  153.6488  142.2532  160.5914 C   0  0  0  0  0  0  0  0  0  0  0  0
  152.8058  142.7872  159.4847 C   0  0  0  0  0  0  0  0  0  0  0  0
  151.9961  142.1898  158.5600 C   0  0  0  0  0  0  0  0  0  0  0  0
  151.4990  143.2902  157.8124 C   0  0  0  0  0  0  0  0  0  0  0  0
  150.6001  143.0916  156.7334 N   0  0  0  0  0  0  0  0  0  0  0  0
  150.3765  141.9530  156.0556 C   0  0  0  0  0  0  0  0  0  0  0  0
  150.9172  140.8707  156.2852 O   0  0  0  0  0  0  0  0  0  0  0  0
  149.4815  142.1340  155.0739 N   0  0  0  0  0  0  0  0  0  0  0  0
  149.0429  141.0917  154.1505 C   0  0  0  0  0  0  0  0  0  0  0  0
  147.5742  140.6497  154.3875 C   0  0  2  0  0  0  0  0  0  0  0  0
  147.0949  139.7489  153.2235 C   0  0  0  0  0  0  0  0  0  0  0  0
  146.7079  141.8512  154.6190 N   0  3  1  0  0  0  0  0  0  0  0  0
  146.4047  142.6778  153.4196 C   0  0  0  0  0  0  0  0  0  0  0  0
  145.5858  143.9255  153.8010 C   0  0  1  0  0  0  0  0  0  0  0  0
  145.1770  144.7415  152.5693 C   0  0  0  0  0  0  0  0  0  0  0  0
  144.3967  143.5358  154.4791 O   0  0  0  0  0  0  0  0  0  0  0  0
  144.6120  142.7572  155.6536 C   0  0  2  0  0  0  0  0  0  0  0  0
  145.2010  143.5842  156.8103 C   0  0  0  0  0  0  0  0  0  0  0  0
  145.4368  141.5032  155.3096 C   0  0  0  0  0  0  0  0  0  0  0  0
  151.9626  144.4539  158.2417 N   0  0  0  0  0  0  0  0  0  0  0  0
  152.8028  144.1374  159.3156 O   0  0  0  0  0  0  0  0  0  0  0  0
  153.6668  141.1634  160.5761 H   0  0  0  0  0  0  0  0  0  0  0  0
  153.2616  142.5718  161.5592 H   0  0  0  0  0  0  0  0  0  0  0  0
  154.6751  142.6093  160.5026 H   0  0  0  0  0  0  0  0  0  0  0  0
  151.7940  141.1358  158.4415 H   0  0  0  0  0  0  0  0  0  0  0  0
  150.0812  143.9063  156.4406 H   0  0  0  0  0  0  0  0  0  0  0  0
  149.0823  143.0534  154.9522 H   0  0  0  0  0  0  0  0  0  0  0  0
  149.2033  141.4508  153.1346 H   0  0  0  0  0  0  0  0  0  0  0  0
  149.7080  140.2362  154.2728 H   0  0  0  0  0  0  0  0  0  0  0  0
  147.5293  140.0383  155.2901 H   0  0  0  0  0  0  0  0  0  0  0  0
  147.7616  138.9005  153.0703 H   0  0  0  0  0  0  0  0  0  0  0  0
  147.0490  140.3003  152.2837 H   0  0  0  0  0  0  0  0  0  0  0  0
  146.1123  139.3189  153.4177 H   0  0  0  0  0  0  0  0  0  0  0  0
  147.3220  143.0256  152.9459 H   0  0  0  0  0  0  0  0  0  0  0  0
  145.8645  142.0746  152.6879 H   0  0  0  0  0  0  0  0  0  0  0  0
  146.1823  144.5702  154.4469 H   0  0  0  0  0  0  0  0  0  0  0  0
  146.0513  145.0775  152.0110 H   0  0  0  0  0  0  0  0  0  0  0  0
  144.6094  145.6262  152.8588 H   0  0  0  0  0  0  0  0  0  0  0  0
  144.5546  144.1534  151.8940 H   0  0  0  0  0  0  0  0  0  0  0  0
  143.6251  142.4246  155.9769 H   0  0  0  0  0  0  0  0  0  0  0  0
  145.2260  142.9979  157.7292 H   0  0  0  0  0  0  0  0  0  0  0  0
  144.5952  144.4700  157.0022 H   0  0  0  0  0  0  0  0  0  0  0  0
  146.2206  143.9122  156.6098 H   0  0  0  0  0  0  0  0  0  0  0  0
  144.8490  140.8545  154.6581 H   0  0  0  0  0  0  0  0  0  0  0  0
  145.6183  140.9362  156.2211 H   0  0  0  0  0  0  0  0  0  0  0  0
  147.2268  142.4542  155.2414 H   0  0  0  0  0  0  0  0  0  0  0  0
  1  2  1  0  0  0  0
  1 22  1  0  0  0  0
  1 23  1  0  0  0  0
  1 24  1  0  0  0  0
  2 21  1  0  0  0  0
  2  3  2  0  0  0  0
  3  4  1  0  0  0  0
  3 25  1  0  0  0  0
  4  5  1  0  0  0  0
  4 20  2  0  0  0  0
  5  6  1  0  0  0  0
  5 26  1  0  0  0  0
  6  7  2  0  0  0  0
  6  8  1  0  0  0  0
  8  9  1  0  0  0  0
  8 27  1  0  0  0  0
  9 10  1  0  0  0  0
  9 28  1  0  0  0  0
  9 29  1  0  0  0  0
 10 11  1  0  0  0  0
 10 12  1  0  0  0  0
 10 30  1  0  0  0  0
 11 31  1  0  0  0  0
 11 32  1  0  0  0  0
 11 33  1  0  0  0  0
 12 19  1  0  0  0  0
 12 13  1  0  0  0  0
 12 46  1  0  0  0  0
 13 14  1  0  0  0  0
 13 34  1  0  0  0  0
 13 35  1  0  0  0  0
 14 15  1  0  0  0  0
 14 16  1  0  0  0  0
 14 36  1  0  0  0  0
 15 37  1  0  0  0  0
 15 38  1  0  0  0  0
 15 39  1  0  0  0  0
 16 17  1  0  0  0  0
 17 18  1  0  0  0  0
 17 19  1  0  0  0  0
 17 40  1  0  0  0  0
 18 41  1  0  0  0  0
 18 42  1  0  0  0  0
 18 43  1  0  0  0  0
 19 44  1  0  0  0  0
 19 45  1  0  0  0  0
 20 21  1  0  0  0  0
M  CHG  1  12   1
M  END
> <s_m_source_file>
AV-unprocessed.smi

> <i_m_source_file_index>
2061

> <i_lp_mmshare_version>
43012

> <i_f3d_flags>
0

> <s_epik_input>
W0NIM11jMVtjSF1jKG5vMSlbTkhdQyg9TylbTkhdW0NIMl1bQ0BIXShbQ0gzXSlOMltDSDJdW0NAQEhdKFtDSDNdKU9bQ0BASF0oW0NIM10pW0NIMl0y

> <s_epik_cmdline>
J2VwaWtfcHl0aG9uJywgJy1waCcsICc3LjAnLCAnLXRuJywgJzgnLCAnLW1hJywgJzIwMCcsICctbWV0YWxfYmluZGluZycsICctaW1hZScsICc8aW5maWxlLm1hZT4nLCAnLW9tYWUnLCAnPG91dGZpbGUubWFlPic=

> <r_epik_Ionization_Penalty>
0.707076

> <r_epik_Ionization_Penalty_Charging>
0.707039

> <r_epik_Ionization_Penalty_Neutral>
3.6548e-05

> <r_epik_State_Penalty>
0.730276

> <r_epik_Charging_Adjusted_Penalty>
1.43732

> <i_epik_Tot_Q>
1

> <i_epik_Tot_abs_Q>
1

> <r_epik_Metal_State_Penalty>
0.743132

> <b_epik_Metal_Only>
0

> <s_lp_Force_Field>
OPLS_2005

> <r_lp_Energy>
19.8294

> <b_lp_Chiralities_Consistent>
1

> <s_lp_Variant>
AV-unprocessed.smi:2061-11

> <Gold.Version>
5.8.1

> <Gold.Id.Protein>
6NUR|6NUR_protein|mol2

> <Gold.PLP.Fitness>
45.5001

> <Gold.PLP.PLP>
-40.3376

> <Gold.PLP.part.hbond>
-2.0000

> <Gold.PLP.part.metal>
0.0000

> <Gold.PLP.part.buried>
-7.9692

> <Gold.PLP.part.nonpolar>
-30.9306

> <Gold.PLP.part.repulsive>
0.5565

> <Gold.PLP.ligand.clash>
0.0000

> <Gold.PLP.ligand.torsion>
0.4418

> <Gold.PLP.Chemscore.Hbond>
2.0000

> <Gold.PLP.Chemscore.CHOScore>
0.0000

> <Gold.PLP.Chemscore.Metal>
0.0000

> <Gold.Chemscore.Hbonds>
donor molecule, donor type, donor heavy atom, donor atom, acceptor molecule, acceptor atom, score
      L1  H     5    26       P1  8028  1.00
      L1  H     8    27       P1  8028  0.94

> <Gold.PLP.Chemscore.Internal.Correction>
0.0461

> <Gold.Rescore>
     Score         DG    S(hbond)    S(metal)    S(lipo)     H(rot)  DE(clash)    DE(int)     intcor
     15.58     -17.48       1.93        0.00      82.01       1.58       0.07       1.83       ----

> <Gold.Chemscore.Fitness>
15.5849

> <Gold.Chemscore.DG>
-17.4823

> <Gold.Chemscore.ZeroCoef>
-5.4800

> <Gold.Chemscore.Hbond>
1.9343

> <Gold.Chemscore.Metal>
0.0000

> <Gold.Chemscore.Lipo>
82.0102

> <Gold.Chemscore.Internal_Hbond>
0.0000

> <Gold.Chemscore.DEClash>
0.0670

> <Gold.Chemscore.DEInternal>
1.8305

> <Gold.Chemscore.Rot>
1.5834

> <Gold.Chemscore.Internal.Correction>
   9.000000E+99

> <Gold.Chemscore.Hbonds>
donor molecule, donor type, donor heavy atom, donor atom, acceptor molecule, acceptor atom, score
      L1  H     5    26       P1  8028  0.98
      L1  H     8    27       P1  8028  0.91

> <Gold.Chemscore.Hbond.Weighted>
-6.4606

> <Gold.Chemscore.Metal.Weighted>
-0.0000

> <Gold.Chemscore.Lipo.Weighted>
-9.5952

> <Gold.Chemscore.Internal_Hbond.Weighted>
0.0000

> <Gold.Chemscore.DEClash.Weighted>
0.0670

> <Gold.Chemscore.DEInternal.Weighted>
1.8305

> <Gold.Chemscore.Rot.Weighted>
4.0535

> <Gold.Chemscore.Internal.Correction.Weighted>
   9.000000E+99

> <Gold.Protein.RotatedTorsions>
[ 6907 6896 6895 6894 ] final  -91.52 input  -60.11 | X-H torsion
[ 7974 7965 7964 7962 ] final -126.50 input  175.53 | X-H torsion
[ 8008 7997 7996 7995 ] final   75.39 input   59.86 | X-H torsion
[ 10167 10162 10161 10158 ] final -178.60 input  -65.29 | X-H torsion
[ 10718 10713 10712 10709 ] final    7.79 input   66.30 | X-H torsion
[ 10763 10752 10751 10750 ] final   -5.09 input  -60.55 | X-H torsion
[ 11005 11000 10999 10996 ] final -119.78 input  -57.11 | X-H torsion

> <Gold.Protein.ActiveResidues>
 VAL166  LYS551  ARG553  GLY616  TRP617  ASP618  TYR619  PRO620  LYS621  CYS622 
 ASP623  PHE694  ASN695  SER759  ASP760  ASP761  ALA762  ILE779  LEU786  VAL792 
 PHE793  MET794  SER795  GLU796  ALA797  LYS798  CYS799  TRP800  GLU811  SER814 

> <Gold.Protein.RotatedAtoms>
  150.6893  134.2264  159.4416 H   0  0  0  0  0  0  0  0  0  0  0  0  # atno 6907 bound_to 6896
  152.0218  134.9816  160.0580 H   0  0  0  0  0  0  0  0  0  0  0  0  # atno 6908 bound_to 6896
  152.1390  133.4418  159.4794 H   0  0  0  0  0  0  0  0  0  0  0  0  # atno 6909 bound_to 6896
  144.9867  140.7692  143.4579 H   0  0  0  0  0  0  0  0  0  0  0  0  # atno 7974 bound_to 7965
  155.8123  140.3473  155.5465 H   0  0  0  0  0  0  0  0  0  0  0  0  # atno 8008 bound_to 7997
  155.8428  140.0944  157.1744 H   0  0  0  0  0  0  0  0  0  0  0  0  # atno 8009 bound_to 7997
  154.4005  140.1391  156.3737 H   0  0  0  0  0  0  0  0  0  0  0  0  # atno 8010 bound_to 7997
  139.5425  144.2325  152.0923 H   0  0  0  0  0  0  0  0  0  0  0  0  # atno 10167 bound_to 10162
  156.9422  130.5865  149.5653 H   0  0  0  0  0  0  0  0  0  0  0  0  # atno 10718 bound_to 10713
  153.3938  135.7002  153.6475 H   0  0  0  0  0  0  0  0  0  0  0  0  # atno 10763 bound_to 10752
  153.5037  135.3646  155.2553 H   0  0  0  0  0  0  0  0  0  0  0  0  # atno 10764 bound_to 10752
  154.8704  135.4118  154.3260 H   0  0  0  0  0  0  0  0  0  0  0  0  # atno 10765 bound_to 10752
  141.0191  134.0151  157.3308 H   0  0  0  0  0  0  0  0  0  0  0  0  # atno 11005 bound_to 11000
  145.2344  139.2100  143.5026 LP  0  0  0  0  0  0  0  0  0  0  0  0  # atno 17320 bound_to 7965
  146.3421  140.2227  142.8592 LP  0  0  0  0  0  0  0  0  0  0  0  0  # atno 17321 bound_to 7965
  140.1806  144.4848  150.6530 LP  0  0  0  0  0  0  0  0  0  0  0  0  # atno 17342 bound_to 10162
  140.6660  143.2268  151.5741 LP  0  0  0  0  0  0  0  0  0  0  0  0  # atno 17343 bound_to 10162
  156.0399  130.5483  150.8746 LP  0  0  0  0  0  0  0  0  0  0  0  0  # atno 17370 bound_to 10713
  157.5777  131.0946  150.9319 LP  0  0  0  0  0  0  0  0  0  0  0  0  # atno 17371 bound_to 10713
  139.9135  135.0193  156.7787 LP  0  0  0  0  0  0  0  0  0  0  0  0  # atno 17394 bound_to 11000
  140.6604  133.9650  155.7802 LP  0  0  0  0  0  0  0  0  0  0  0  0  # atno 17395 bound_to 11000

$$$$
