#       Name:                AV-unprocessed.smi:2594
#       Creating user name   scv26
#       Creation time:       Fri Mar 27 14:18:08 2020


#       File generated by GOLD software.
#

@<TRIPOS>MOLECULE
AV-unprocessed.smi:2594
    36    37     1
SMALL
NO_CHARGES


@<TRIPOS>ATOM
      1 ****         0.0411   1.7692   0.9613 O.2            1 S1                 0.0000
      2 ****         0.7682   0.8054   1.2074 C.2            1 S1                 0.0000
      3 ****         2.2866   0.9819   1.3402 C.3            1 S1                 0.0000
      4 ****         2.7991   2.1102   0.5617 N.am           1 S1                 0.0000
      5 ****         3.1432   3.2469   1.2251 N.2            1 S1                 0.0000
      6 ****         3.5567   4.1532   0.4191 C.2            1 S1                 0.0000
      7 ****         3.5835   3.7201  -1.2954 S.3            1 S1                 0.0000
      8 ****         2.9548   2.1180  -0.8219 C.2            1 S1                 0.0000
      9 ****         2.7177   1.2171  -1.6249 O.2            1 S1                 0.0000
     10 ****         0.3001  -0.4383   1.3906 N.am           1 S1                 0.0000
     11 ****        -1.1011  -0.8280   1.2835 C.3            1 S1                 0.0000
     12 ****        -1.5280  -0.9957  -0.1844 C.3            1 S1                 0.0000
     13 ****        -3.0043  -1.3399  -0.3615 C.3            1 S1                 0.0000
     14 ****        -3.0004  -1.9783  -1.7319 C.3            1 S1                 0.0000
     15 ****        -1.6842  -2.7530  -1.7200 C.3            1 S1                 0.0000
     16 ****        -0.8358  -2.0847  -0.7888 O.3            1 S1                 0.0000
     17 ****         2.5298   1.1100   2.3961 H              1 S1                 0.0000
     18 ****         2.7912   0.0702   1.0159 H              1 S1                 0.0000
     19 ****         3.8894   5.1543   0.6927 H              1 S1                 0.0000
     20 ****         0.9634  -1.1722   1.5927 H              1 S1                 0.0000
     21 ****        -1.2425  -1.7637   1.8249 H              1 S1                 0.0000
     22 ****        -1.7299  -0.0859   1.7780 H              1 S1                 0.0000
     23 ****        -1.3060  -0.0930  -0.7564 H              1 S1                 0.0000
     24 ****        -3.3252  -2.0645   0.3884 H              1 S1                 0.0000
     25 ****        -3.6550  -0.4673  -0.2974 H              1 S1                 0.0000
     26 ****        -3.8682  -2.6128  -1.9136 H              1 S1                 0.0000
     27 ****        -2.9739  -1.2058  -2.5019 H              1 S1                 0.0000
     28 ****        -1.8422  -3.7741  -1.3715 H              1 S1                 0.0000
     29 ****        -1.2270  -2.7999  -2.7084 H              1 S1                 0.0000
     30 ****         0.4392   2.6793   0.8458 LP             1 S1                 0.0000
     31 ****        -0.9472   1.6414   0.8771 LP             1 S1                 0.0000
     32 ****         3.0812   3.3609   2.2167 LP             1 S1                 0.0000
     33 ****         2.3644   0.3393  -1.3015 LP             1 S1                 0.0000
     34 ****         2.8781   1.3625  -2.6012 LP             1 S1                 0.0000
     35 ****        -0.5515  -2.7296  -0.0794 LP             1 S1                 0.0000
     36 ****        -0.0289  -1.7382  -1.2671 LP             1 S1                 0.0000
@<TRIPOS>BOND
    1    1    2 2     
    2    2    3 1     
    3    2   10 am    
    4    3    4 1     
    5    3   17 1     
    6    3   18 1     
    7    4    8 am    
    8    4    5 1     
    9    5    6 2     
   10    6    7 1     
   11    6   19 1     
   12    7    8 1     
   13    8    9 2     
   14   10   11 1     
   15   10   20 1     
   16   11   12 1     
   17   11   21 1     
   18   11   22 1     
   19   12   16 1     
   20   12   13 1     
   21   12   23 1     
   22   13   14 1     
   23   13   24 1     
   24   13   25 1     
   25   14   15 1     
   26   14   26 1     
   27   14   27 1     
   28   15   16 1     
   29   15   28 1     
   30   15   29 1     
   31    1   30 1     
   32    1   31 1     
   33    5   32 1     
   34    9   33 1     
   35    9   34 1     
   36   16   35 1     
   37   16   36 1     
@<TRIPOS>SUBSTRUCTURE
      1 S1             1
@<TRIPOS>SET
LONE_PAIRS      STATIC     ATOMS    <user>   **** ""
7 30 31 32 33 34 35 36
DONOR_HYDROGENS      STATIC     ATOMS    <user>   **** ""
1 20
ATOM$BLUE        STATIC     ATOMS    COLORGROUP SYSTEM
7 30 31 32 33 34 35 36
ATOM$RED        STATIC     ATOMS    COLORGROUP SYSTEM
1 20
