AV-unprocessed.smi:1700|AV-procd|sdf|6820|dock2
  -GOLD-   22720 7593D 1   1.00000     0.00000
 Structure written by MMmdl.
 34 35  0  0  0  0  0  0  0  0  1 V2000
  147.7110  133.0758  152.3476 C   0  0  0  0  0  0  0  0  0  0  0  0
  146.4262  133.1422  151.5378 C   0  0  0  0  0  0  0  0  0  0  0  0
  145.8349  131.9442  151.0835 C   0  0  0  0  0  0  0  0  0  0  0  0
  144.6467  132.0062  150.3356 C   0  0  0  0  0  0  0  0  0  0  0  0
  144.0964  133.2722  150.0725 C   0  0  0  0  0  0  0  0  0  0  0  0
  144.6550  134.4220  150.5022 N   0  0  0  0  0  0  0  0  0  0  0  0
  145.8026  134.3800  151.2249 C   0  0  0  0  0  0  0  0  0  0  0  0
  146.4488  135.5530  151.7085 N   0  0  0  0  0  0  0  0  0  0  0  0
  145.8909  136.6812  152.1823 C   0  0  0  0  0  0  0  0  0  0  0  0
  144.6820  136.8900  152.2894 O   0  0  0  0  0  0  0  0  0  0  0  0
  146.8271  137.5748  152.5323 N   0  0  0  0  0  0  0  0  0  0  0  0
  146.5551  138.9043  153.0663 C   0  0  0  0  0  0  0  0  0  0  0  0
  147.8454  139.7237  153.2314 C   0  0  1  0  0  0  0  0  0  0  0  0
  147.6287  141.0840  153.8875 C   0  0  0  0  0  0  0  0  0  0  0  0
  149.0163  141.3955  154.4011 C   0  0  0  0  0  0  0  0  0  0  0  0
  149.5251  140.0194  154.8284 C   0  0  0  0  0  0  0  0  0  0  0  0
  148.7556  139.0618  154.1039 O   0  0  0  0  0  0  0  0  0  0  0  0
  148.0417  132.0459  152.4843 H   0  0  0  0  0  0  0  0  0  0  0  0
  147.5633  133.5146  153.3348 H   0  0  0  0  0  0  0  0  0  0  0  0
  148.5096  133.6192  151.8418 H   0  0  0  0  0  0  0  0  0  0  0  0
  146.2840  130.9869  151.3039 H   0  0  0  0  0  0  0  0  0  0  0  0
  144.1698  131.1074  149.9737 H   0  0  0  0  0  0  0  0  0  0  0  0
  143.1839  133.3654  149.5023 H   0  0  0  0  0  0  0  0  0  0  0  0
  147.4572  135.5302  151.6860 H   0  0  0  0  0  0  0  0  0  0  0  0
  147.7974  137.3253  152.4083 H   0  0  0  0  0  0  0  0  0  0  0  0
  145.8561  139.4288  152.4125 H   0  0  0  0  0  0  0  0  0  0  0  0
  146.0547  138.7940  154.0287 H   0  0  0  0  0  0  0  0  0  0  0  0
  148.3374  139.8693  152.2681 H   0  0  0  0  0  0  0  0  0  0  0  0
  147.2509  141.8351  153.1933 H   0  0  0  0  0  0  0  0  0  0  0  0
  146.9300  141.0034  154.7215 H   0  0  0  0  0  0  0  0  0  0  0  0
  149.6320  141.7865  153.5899 H   0  0  0  0  0  0  0  0  0  0  0  0
  149.0202  142.1231  155.2133 H   0  0  0  0  0  0  0  0  0  0  0  0
  150.5899  139.9004  154.6269 H   0  0  0  0  0  0  0  0  0  0  0  0
  149.3628  139.8601  155.8948 H   0  0  0  0  0  0  0  0  0  0  0  0
  1  2  1  0  0  0  0
  1 18  1  0  0  0  0
  1 19  1  0  0  0  0
  1 20  1  0  0  0  0
  2  7  1  0  0  0  0
  2  3  2  0  0  0  0
  3  4  1  0  0  0  0
  3 21  1  0  0  0  0
  4  5  2  0  0  0  0
  4 22  1  0  0  0  0
  5  6  1  0  0  0  0
  5 23  1  0  0  0  0
  6  7  2  0  0  0  0
  7  8  1  0  0  0  0
  8  9  1  0  0  0  0
  8 24  1  0  0  0  0
  9 10  2  0  0  0  0
  9 11  1  0  0  0  0
 11 12  1  0  0  0  0
 11 25  1  0  0  0  0
 12 13  1  0  0  0  0
 12 26  1  0  0  0  0
 12 27  1  0  0  0  0
 13 17  1  0  0  0  0
 13 14  1  0  0  0  0
 13 28  1  0  0  0  0
 14 15  1  0  0  0  0
 14 29  1  0  0  0  0
 14 30  1  0  0  0  0
 15 16  1  0  0  0  0
 15 31  1  0  0  0  0
 15 32  1  0  0  0  0
 16 17  1  0  0  0  0
 16 33  1  0  0  0  0
 16 34  1  0  0  0  0
M  END
> <s_m_source_file>
AV-unprocessed.smi

> <i_m_source_file_index>
1700

> <i_lp_mmshare_version>
43012

> <i_f3d_flags>
0

> <s_epik_input>
W0NIM11jMVtjSF1bY0hdW2NIXW5jMVtOSF1DKD1PKVtOSF1bQ0gyXVtDQEBIXTJbQ0gyXVtDSDJdW0NIMl1PMg==

> <s_epik_cmdline>
J2VwaWtfcHl0aG9uJywgJy1waCcsICc3LjAnLCAnLXRuJywgJzgnLCAnLW1hJywgJzIwMCcsICctbWV0YWxfYmluZGluZycsICctaW1hZScsICc8aW5maWxlLm1hZT4nLCAnLW9tYWUnLCAnPG91dGZpbGUubWFlPic=

> <r_lp_tautomer_probability>
1

> <r_epik_Ionization_Penalty>
5.57253e-05

> <r_epik_Ionization_Penalty_Charging>
0

> <r_epik_Ionization_Penalty_Neutral>
5.57253e-05

> <r_epik_State_Penalty>
-0

> <r_epik_Charging_Adjusted_Penalty>
0

> <i_epik_Tot_Q>
0

> <i_epik_Tot_abs_Q>
0

> <r_epik_Metal_State_Penalty>
-0

> <b_epik_Metal_Only>
0

> <s_lp_Force_Field>
OPLS_2005

> <r_lp_Energy>
19.2835

> <b_lp_Chiralities_Consistent>
1

> <s_lp_Variant>
AV-unprocessed.smi:1700-2

> <Gold.Version>
5.8.1

> <Gold.Id.Protein>
6NUR|6NUR_protein|mol2

> <Gold.PLP.Fitness>
38.8853

> <Gold.PLP.PLP>
-30.4961

> <Gold.PLP.part.hbond>
-2.0000

> <Gold.PLP.part.metal>
0.0000

> <Gold.PLP.part.buried>
-1.8995

> <Gold.PLP.part.nonpolar>
-28.0687

> <Gold.PLP.part.repulsive>
0.8855

> <Gold.PLP.ligand.clash>
0.0000

> <Gold.PLP.ligand.torsion>
0.2955

> <Gold.PLP.Chemscore.Hbond>
1.9920

> <Gold.PLP.Chemscore.CHOScore>
1.0000

> <Gold.PLP.Chemscore.Metal>
0.0000

> <Gold.Chemscore.Hbonds>
donor molecule, donor type, donor heavy atom, donor atom, acceptor molecule, acceptor atom, score
      L1  H     8    24       P1  7948  1.00
      L1  H    11    25       P1  7948  0.99
      L1  C     5    23       P1 10186  1.00

> <Gold.PLP.Chemscore.Internal.Correction>
0.0043

> <Gold.Rescore>
     Score         DG    S(hbond)    S(metal)    S(lipo)     H(rot)  DE(clash)    DE(int)     intcor
     16.83     -17.27       1.94        0.00      72.26       1.23       0.07       0.37       ----

> <Gold.Chemscore.Fitness>
16.8317

> <Gold.Chemscore.DG>
-17.2707

> <Gold.Chemscore.ZeroCoef>
-5.4800

> <Gold.Chemscore.Hbond>
1.9444

> <Gold.Chemscore.Metal>
0.0000

> <Gold.Chemscore.Lipo>
72.2622

> <Gold.Chemscore.Internal_Hbond>
0.0000

> <Gold.Chemscore.DEClash>
0.0727

> <Gold.Chemscore.DEInternal>
0.3664

> <Gold.Chemscore.Rot>
1.2337

> <Gold.Chemscore.Internal.Correction>
   9.000000E+99

> <Gold.Chemscore.Hbonds>
donor molecule, donor type, donor heavy atom, donor atom, acceptor molecule, acceptor atom, score
      L1  H     8    24       P1  7948  0.95
      L1  H    11    25       P1  7948  0.94

> <Gold.Chemscore.Hbond.Weighted>
-6.4943

> <Gold.Chemscore.Metal.Weighted>
-0.0000

> <Gold.Chemscore.Lipo.Weighted>
-8.4547

> <Gold.Chemscore.Internal_Hbond.Weighted>
0.0000

> <Gold.Chemscore.DEClash.Weighted>
0.0727

> <Gold.Chemscore.DEInternal.Weighted>
0.3664

> <Gold.Chemscore.Rot.Weighted>
3.1582

> <Gold.Chemscore.Internal.Correction.Weighted>
   9.000000E+99

> <Gold.Protein.RotatedTorsions>
[ 6907 6896 6895 6894 ] final   -1.04 input  -60.11 | X-H torsion
[ 7974 7965 7964 7962 ] final  142.40 input  175.53 | X-H torsion
[ 8008 7997 7996 7995 ] final -149.28 input   59.86 | X-H torsion
[ 10167 10162 10161 10158 ] final   72.78 input  -65.29 | X-H torsion
[ 10718 10713 10712 10709 ] final -155.00 input   66.30 | X-H torsion
[ 10763 10752 10751 10750 ] final   12.39 input  -60.55 | X-H torsion
[ 11005 11000 10999 10996 ] final  -45.97 input  -57.11 | X-H torsion

> <Gold.Protein.ActiveResidues>
 VAL166  LYS551  ARG553  GLY616  TRP617  ASP618  TYR619  PRO620  LYS621  CYS622 
 ASP623  PHE694  ASN695  SER759  ASP760  ASP761  ALA762  ILE779  LEU786  VAL792 
 PHE793  MET794  SER795  GLU796  ALA797  LYS798  CYS799  TRP800  GLU811  SER814 

> <Gold.Protein.RotatedAtoms>
  151.5525  135.1067  159.9952 H   0  0  0  0  0  0  0  0  0  0  0  0  # atno 6907 bound_to 6896
  152.4485  133.7578  159.6740 H   0  0  0  0  0  0  0  0  0  0  0  0  # atno 6908 bound_to 6896
  150.8406  133.7874  159.3086 H   0  0  0  0  0  0  0  0  0  0  0  0  # atno 6909 bound_to 6896
  144.9011  139.5421  143.5753 H   0  0  0  0  0  0  0  0  0  0  0  0  # atno 7974 bound_to 7965
  155.6052  140.0666  157.2722 H   0  0  0  0  0  0  0  0  0  0  0  0  # atno 8008 bound_to 7997
  154.4268  140.1811  156.1262 H   0  0  0  0  0  0  0  0  0  0  0  0  # atno 8009 bound_to 7997
  156.0128  140.3325  155.6962 H   0  0  0  0  0  0  0  0  0  0  0  0  # atno 8010 bound_to 7997
  140.0316  144.5461  150.7503 H   0  0  0  0  0  0  0  0  0  0  0  0  # atno 10167 bound_to 10162
  156.5069  130.8417  151.2631 H   0  0  0  0  0  0  0  0  0  0  0  0  # atno 10718 bound_to 10713
  153.1827  135.6830  153.8457 H   0  0  0  0  0  0  0  0  0  0  0  0  # atno 10763 bound_to 10752
  153.7783  135.3186  155.3363 H   0  0  0  0  0  0  0  0  0  0  0  0  # atno 10764 bound_to 10752
  154.8069  135.4742  154.0512 H   0  0  0  0  0  0  0  0  0  0  0  0  # atno 10765 bound_to 10752
  141.0549  133.6729  156.3089 H   0  0  0  0  0  0  0  0  0  0  0  0  # atno 11005 bound_to 11000
  146.3109  139.7742  142.9020 LP  0  0  0  0  0  0  0  0  0  0  0  0  # atno 17320 bound_to 7965
  145.3614  141.0326  143.3282 LP  0  0  0  0  0  0  0  0  0  0  0  0  # atno 17321 bound_to 7965
  140.7300  143.2678  151.3987 LP  0  0  0  0  0  0  0  0  0  0  0  0  # atno 17342 bound_to 10162
  139.6072  144.1172  152.2262 LP  0  0  0  0  0  0  0  0  0  0  0  0  # atno 17343 bound_to 10162
  157.7455  130.9963  150.2773 LP  0  0  0  0  0  0  0  0  0  0  0  0  # atno 17370 bound_to 10713
  156.3278  130.3795  149.7518 LP  0  0  0  0  0  0  0  0  0  0  0  0  # atno 17371 bound_to 10713
  140.5982  134.5581  157.5512 LP  0  0  0  0  0  0  0  0  0  0  0  0  # atno 17394 bound_to 11000
  139.9382  134.7836  156.0747 LP  0  0  0  0  0  0  0  0  0  0  0  0  # atno 17395 bound_to 11000

$$$$
