AV-unprocessed.smi:390|AV-procd|sdf|2478|dock6
  -GOLD-   2262022423D 1   1.00000     0.00000
 Structure written by MMmdl.
 31 32  0  0  0  0  0  0  0  0  1 V2000
  151.9232  136.9365  159.4422 N   0  0  0  0  0  0  0  0  0  0  0  0
  151.9707  138.0729  159.2289 C   0  0  0  0  0  0  0  0  0  0  0  0
  152.0236  139.4781  158.9963 C   0  0  0  0  0  0  0  0  0  0  0  0
  152.7086  140.3084  159.8121 C   0  0  0  0  0  0  0  0  0  0  0  0
  152.7796  141.6709  159.6053 N   0  0  0  0  0  0  0  0  0  0  0  0
  153.3773  142.5437  160.5756 C   0  0  0  0  0  0  0  0  0  0  0  0
  153.0068  142.4277  162.0413 C   0  0  0  0  0  0  0  0  0  0  0  0
  152.5223  143.6057  161.2317 C   0  0  0  0  0  0  0  0  0  0  0  0
  152.0558  142.2686  158.5503 C   0  0  0  0  0  0  0  0  0  0  0  0
  152.0196  143.4942  158.4112 O   0  0  0  0  0  0  0  0  0  0  0  0
  151.3614  141.3970  157.6763 N   0  0  0  0  0  0  0  0  0  0  0  0
  150.6145  141.9908  156.5754 C   0  0  0  0  0  0  0  0  0  0  0  0
  149.0916  141.8016  156.6634 C   0  0  0  0  0  0  0  0  0  0  0  0
  148.4741  142.1698  157.6663 O   0  0  0  0  0  0  0  0  0  0  0  0
  148.5322  141.2206  155.5828 N   0  0  0  0  0  0  0  0  0  0  0  0
  149.1549  140.7995  154.4649 C   0  0  0  0  0  0  0  0  0  0  0  0
  148.3031  140.6677  153.4464 N   0  0  0  0  0  0  0  0  0  0  0  0
  150.3559  140.5545  154.3500 O   0  0  0  0  0  0  0  0  0  0  0  0
  151.2948  139.9892  157.8376 C   0  0  0  0  0  0  0  0  0  0  0  0
  150.6547  139.2746  157.0637 O   0  0  0  0  0  0  0  0  0  0  0  0
  153.2276  139.8905  160.6627 H   0  0  0  0  0  0  0  0  0  0  0  0
  154.4085  142.8262  160.3705 H   0  0  0  0  0  0  0  0  0  0  0  0
  152.2656  141.6841  162.3284 H   0  0  0  0  0  0  0  0  0  0  0  0
  153.7924  142.6079  162.7724 H   0  0  0  0  0  0  0  0  0  0  0  0
  152.9832  144.5722  161.4250 H   0  0  0  0  0  0  0  0  0  0  0  0
  151.4628  143.6366  160.9844 H   0  0  0  0  0  0  0  0  0  0  0  0
  150.8672  143.0515  156.5318 H   0  0  0  0  0  0  0  0  0  0  0  0
  151.0026  141.5727  155.6451 H   0  0  0  0  0  0  0  0  0  0  0  0
  147.5326  141.0875  155.6180 H   0  0  0  0  0  0  0  0  0  0  0  0
  148.6305  140.3594  152.5429 H   0  0  0  0  0  0  0  0  0  0  0  0
  147.3257  140.8795  153.5869 H   0  0  0  0  0  0  0  0  0  0  0  0
  1  2  3  0  0  0  0
  2  3  1  0  0  0  0
  3 19  1  0  0  0  0
  3  4  2  0  0  0  0
  4  5  1  0  0  0  0
  4 21  1  0  0  0  0
  5  6  1  0  0  0  0
  5  9  1  0  0  0  0
  6  8  1  0  0  0  0
  6  7  1  0  0  0  0
  6 22  1  0  0  0  0
  7  8  1  0  0  0  0
  7 23  1  0  0  0  0
  7 24  1  0  0  0  0
  8 25  1  0  0  0  0
  8 26  1  0  0  0  0
  9 10  2  0  0  0  0
  9 11  1  0  0  0  0
 11 12  1  0  0  0  0
 11 19  1  0  0  0  0
 12 13  1  0  0  0  0
 12 27  1  0  0  0  0
 12 28  1  0  0  0  0
 13 14  2  0  0  0  0
 13 15  1  0  0  0  0
 15 16  1  0  0  0  0
 15 29  1  0  0  0  0
 16 17  1  0  0  0  0
 16 18  2  0  0  0  0
 17 30  1  0  0  0  0
 17 31  1  0  0  0  0
 19 20  2  0  0  0  0
M  END
> <s_m_source_file>
AV-unprocessed.smi

> <i_m_source_file_index>
390

> <i_lp_mmshare_version>
43012

> <i_f3d_flags>
0

> <s_epik_input>
TiNDYzFbY0hdbihbQ0hdMltDSDJdW0NIMl0yKWMoPU8pbihjMT1PKVtDSDJdQyg9TylbTkhdQyg9TylbTkgyXQ==

> <s_epik_cmdline>
J2VwaWtfcHl0aG9uJywgJy1waCcsICc3LjAnLCAnLXRuJywgJzgnLCAnLW1hJywgJzIwMCcsICctbWV0YWxfYmluZGluZycsICctaW1hZScsICc8aW5maWxlLm1hZT4nLCAnLW9tYWUnLCAnPG91dGZpbGUubWFlPic=

> <r_lp_tautomer_probability>
1

> <r_epik_Ionization_Penalty>
3.12406e-05

> <r_epik_Ionization_Penalty_Charging>
4.21484e-11

> <r_epik_Ionization_Penalty_Neutral>
3.12406e-05

> <r_epik_State_Penalty>
-0

> <r_epik_Charging_Adjusted_Penalty>
4.21484e-11

> <i_epik_Tot_Q>
0

> <i_epik_Tot_abs_Q>
0

> <r_epik_Metal_State_Penalty>
-0

> <b_epik_Metal_Only>
0

> <s_lp_Force_Field>
OPLS_2005

> <r_lp_Energy>
30.8642

> <b_lp_Chiralities_Consistent>
1

> <s_lp_Variant>
AV-unprocessed.smi:390-1

> <Gold.Version>
5.8.1

> <Gold.Id.Protein>
6NUR|6NUR_protein|mol2

> <Gold.PLP.Fitness>
44.4016

> <Gold.PLP.PLP>
-38.8513

> <Gold.PLP.part.hbond>
-2.8256

> <Gold.PLP.part.metal>
0.0000

> <Gold.PLP.part.buried>
-6.5505

> <Gold.PLP.part.nonpolar>
-29.0568

> <Gold.PLP.part.repulsive>
0.4694

> <Gold.PLP.ligand.clash>
3.1736

> <Gold.PLP.ligand.torsion>
0.2330

> <Gold.PLP.Chemscore.Hbond>
2.9920

> <Gold.PLP.Chemscore.CHOScore>
0.0000

> <Gold.PLP.Chemscore.Metal>
0.0000

> <Gold.Chemscore.Hbonds>
donor molecule, donor type, donor heavy atom, donor atom, acceptor molecule, acceptor atom, score
      L1  H    17    30       P1  7957  1.00
      P1  H  6896  6907       L1     1  1.00
      P1  H  7989  7998       L1    18  0.90

> <Gold.PLP.Chemscore.Internal.Correction>
0.2139

> <Gold.Rescore>
     Score         DG    S(hbond)    S(metal)    S(lipo)     H(rot)  DE(clash)    DE(int)     intcor
     13.47     -16.63       2.98        0.00      56.09       2.09       0.01       3.15       ----

> <Gold.Chemscore.Fitness>
13.4700

> <Gold.Chemscore.DG>
-16.6332

> <Gold.Chemscore.ZeroCoef>
-5.4800

> <Gold.Chemscore.Hbond>
2.9774

> <Gold.Chemscore.Metal>
0.0000

> <Gold.Chemscore.Lipo>
56.0878

> <Gold.Chemscore.Internal_Hbond>
0.0000

> <Gold.Chemscore.DEClash>
0.0139

> <Gold.Chemscore.DEInternal>
3.1492

> <Gold.Chemscore.Rot>
2.0913

> <Gold.Chemscore.Internal.Correction>
   9.000000E+99

> <Gold.Chemscore.Hbonds>
donor molecule, donor type, donor heavy atom, donor atom, acceptor molecule, acceptor atom, score
      L1  H    17    30       P1  7957  1.00
      P1  H  6896  6907       L1     1  0.99
      P1  H  7989  7998       L1    18  0.85

> <Gold.Chemscore.Hbond.Weighted>
-9.9445

> <Gold.Chemscore.Metal.Weighted>
-0.0000

> <Gold.Chemscore.Lipo.Weighted>
-6.5623

> <Gold.Chemscore.Internal_Hbond.Weighted>
0.0000

> <Gold.Chemscore.DEClash.Weighted>
0.0139

> <Gold.Chemscore.DEInternal.Weighted>
3.1492

> <Gold.Chemscore.Rot.Weighted>
5.3537

> <Gold.Chemscore.Internal.Correction.Weighted>
   9.000000E+99

> <Gold.Protein.RotatedTorsions>
[ 6907 6896 6895 6894 ] final   -3.81 input  -60.11 | X-H torsion
[ 7974 7965 7964 7962 ] final  -13.95 input  175.53 | X-H torsion
[ 8008 7997 7996 7995 ] final -170.95 input   59.86 | X-H torsion
[ 10167 10162 10161 10158 ] final -178.99 input  -65.29 | X-H torsion
[ 10718 10713 10712 10709 ] final  -66.68 input   66.30 | X-H torsion
[ 10763 10752 10751 10750 ] final  132.22 input  -60.55 | X-H torsion
[ 11005 11000 10999 10996 ] final -103.70 input  -57.11 | X-H torsion

> <Gold.Protein.ActiveResidues>
 VAL166  LYS551  ARG553  GLY616  TRP617  ASP618  TYR619  PRO620  LYS621  CYS622 
 ASP623  PHE694  ASN695  SER759  ASP760  ASP761  ALA762  ILE779  LEU786  VAL792 
 PHE793  MET794  SER795  GLU796  ALA797  LYS798  CYS799  TRP800  GLU811  SER814 

> <Gold.Protein.RotatedAtoms>
  151.5078  135.1064  159.9845 H   0  0  0  0  0  0  0  0  0  0  0  0  # atno 6907 bound_to 6896
  152.4674  133.7950  159.6933 H   0  0  0  0  0  0  0  0  0  0  0  0  # atno 6908 bound_to 6896
  150.8665  133.7503  159.3000 H   0  0  0  0  0  0  0  0  0  0  0  0  # atno 6909 bound_to 6896
  146.2094  140.3278  142.8396 H   0  0  0  0  0  0  0  0  0  0  0  0  # atno 7974 bound_to 7965
  155.9252  140.1081  157.1176 H   0  0  0  0  0  0  0  0  0  0  0  0  # atno 8008 bound_to 7997
  154.4061  140.1248  156.4796 H   0  0  0  0  0  0  0  0  0  0  0  0  # atno 8009 bound_to 7997
  155.7147  140.3470  155.4992 H   0  0  0  0  0  0  0  0  0  0  0  0  # atno 8010 bound_to 7997
  139.5407  144.2372  152.0888 H   0  0  0  0  0  0  0  0  0  0  0  0  # atno 10167 bound_to 10162
  156.0599  130.4266  150.1745 H   0  0  0  0  0  0  0  0  0  0  0  0  # atno 10718 bound_to 10713
  153.7871  135.3160  155.3373 H   0  0  0  0  0  0  0  0  0  0  0  0  # atno 10763 bound_to 10752
  154.8139  135.4649  154.0594 H   0  0  0  0  0  0  0  0  0  0  0  0  # atno 10764 bound_to 10752
  153.1901  135.6907  153.8450 H   0  0  0  0  0  0  0  0  0  0  0  0  # atno 10765 bound_to 10752
  141.1134  133.8662  157.1519 H   0  0  0  0  0  0  0  0  0  0  0  0  # atno 11005 bound_to 11000
  144.8874  140.7479  143.5948 LP  0  0  0  0  0  0  0  0  0  0  0  0  # atno 17320 bound_to 7965
  145.3200  139.1791  143.4593 LP  0  0  0  0  0  0  0  0  0  0  0  0  # atno 17321 bound_to 7965
  140.1850  144.4807  150.6508 LP  0  0  0  0  0  0  0  0  0  0  0  0  # atno 17342 bound_to 10162
  140.6635  143.2260  151.5800 LP  0  0  0  0  0  0  0  0  0  0  0  0  # atno 17343 bound_to 10162
  156.9815  130.9865  151.3436 LP  0  0  0  0  0  0  0  0  0  0  0  0  # atno 17370 bound_to 10713
  157.5599  130.8238  149.8252 LP  0  0  0  0  0  0  0  0  0  0  0  0  # atno 17371 bound_to 10713
  140.0041  135.0016  157.0253 LP  0  0  0  0  0  0  0  0  0  0  0  0  # atno 17394 bound_to 11000
  140.4714  134.1383  155.7203 LP  0  0  0  0  0  0  0  0  0  0  0  0  # atno 17395 bound_to 11000

$$$$
