AV-unprocessed.smi:1293|AV-procd|sdf|5399|dock1
  -GOLD-   22720 4553D 1   1.00000     0.00000
 Structure written by MMmdl.
 39 40  0  0  0  0  0  0  0  0  1 V2000
  145.6410  143.3462  154.0043 C   0  0  0  0  0  0  0  0  0  0  0  0
  145.4927  142.1619  154.7673 O   0  0  0  0  0  0  0  0  0  0  0  0
  146.7304  141.6691  155.2541 C   0  0  0  0  0  0  0  0  0  0  0  0
  147.6364  141.2988  154.0685 C   0  0  0  0  0  0  0  0  0  0  0  0
  148.9858  140.9174  154.5106 N   0  0  0  0  0  0  0  0  0  0  0  0
  149.6522  141.8113  155.3718 C   0  0  0  0  0  0  0  0  0  0  0  0
  150.8930  141.5695  155.8495 C   0  0  0  0  0  0  0  0  0  0  0  0
  151.6105  142.4034  156.7208 N   0  0  0  0  0  0  0  0  0  0  0  0
  151.4087  142.6586  158.0295 C   0  0  0  0  0  0  0  0  0  0  0  0
  150.4933  142.1959  158.7101 O   0  0  0  0  0  0  0  0  0  0  0  0
  152.4254  143.6145  158.6775 C   0  0  0  0  0  0  0  0  0  0  0  0
  153.0217  143.0206  159.9682 C   0  0  0  0  0  0  0  0  0  0  0  0
  152.2224  143.6425  161.1120 C   0  0  0  0  0  0  0  0  0  0  0  0
  151.9404  145.0623  160.6287 C   0  0  0  0  0  0  0  0  0  0  0  0
  151.7748  144.9507  159.1072 C   0  0  0  0  0  0  0  0  0  0  0  0
  151.5206  140.3322  155.4372 C   0  0  0  0  0  0  0  0  0  0  0  0
  150.8889  139.4662  154.6216 C   0  0  0  0  0  0  0  0  0  0  0  0
  149.5422  139.7349  154.1129 C   0  0  0  0  0  0  0  0  0  0  0  0
  148.9515  138.9441  153.3768 O   0  0  0  0  0  0  0  0  0  0  0  0
  144.6639  143.6830  153.6577 H   0  0  0  0  0  0  0  0  0  0  0  0
  146.2684  143.1746  153.1285 H   0  0  0  0  0  0  0  0  0  0  0  0
  146.0812  144.1466  154.6002 H   0  0  0  0  0  0  0  0  0  0  0  0
  147.2142  142.4108  155.8918 H   0  0  0  0  0  0  0  0  0  0  0  0
  146.5525  140.7836  155.8658 H   0  0  0  0  0  0  0  0  0  0  0  0
  147.1825  140.4830  153.5033 H   0  0  0  0  0  0  0  0  0  0  0  0
  147.6818  142.1323  153.3658 H   0  0  0  0  0  0  0  0  0  0  0  0
  149.0648  142.6825  155.6129 H   0  0  0  0  0  0  0  0  0  0  0  0
  152.3928  142.8799  156.2963 H   0  0  0  0  0  0  0  0  0  0  0  0
  153.2328  143.8078  157.9686 H   0  0  0  0  0  0  0  0  0  0  0  0
  152.9939  141.9302  159.9995 H   0  0  0  0  0  0  0  0  0  0  0  0
  154.0687  143.3148  160.0521 H   0  0  0  0  0  0  0  0  0  0  0  0
  151.2840  143.1030  161.2470 H   0  0  0  0  0  0  0  0  0  0  0  0
  152.7593  143.6202  162.0606 H   0  0  0  0  0  0  0  0  0  0  0  0
  151.0680  145.5015  161.1131 H   0  0  0  0  0  0  0  0  0  0  0  0
  152.7972  145.6982  160.8550 H   0  0  0  0  0  0  0  0  0  0  0  0
  152.2469  145.7969  158.6069 H   0  0  0  0  0  0  0  0  0  0  0  0
  150.7152  144.9900  158.8480 H   0  0  0  0  0  0  0  0  0  0  0  0
  152.5141  140.0933  155.7882 H   0  0  0  0  0  0  0  0  0  0  0  0
  151.3858  138.5513  154.3342 H   0  0  0  0  0  0  0  0  0  0  0  0
  1  2  1  0  0  0  0
  1 20  1  0  0  0  0
  1 21  1  0  0  0  0
  1 22  1  0  0  0  0
  2  3  1  0  0  0  0
  3  4  1  0  0  0  0
  3 23  1  0  0  0  0
  3 24  1  0  0  0  0
  4  5  1  0  0  0  0
  4 25  1  0  0  0  0
  4 26  1  0  0  0  0
  5 18  1  0  0  0  0
  5  6  1  0  0  0  0
  6  7  2  0  0  0  0
  6 27  1  0  0  0  0
  7  8  1  0  0  0  0
  7 16  1  0  0  0  0
  8  9  1  0  0  0  0
  8 28  1  0  0  0  0
  9 10  2  0  0  0  0
  9 11  1  0  0  0  0
 11 15  1  0  0  0  0
 11 12  1  0  0  0  0
 11 29  1  0  0  0  0
 12 13  1  0  0  0  0
 12 30  1  0  0  0  0
 12 31  1  0  0  0  0
 13 14  1  0  0  0  0
 13 32  1  0  0  0  0
 13 33  1  0  0  0  0
 14 15  1  0  0  0  0
 14 34  1  0  0  0  0
 14 35  1  0  0  0  0
 15 36  1  0  0  0  0
 15 37  1  0  0  0  0
 16 17  2  0  0  0  0
 16 38  1  0  0  0  0
 17 18  1  0  0  0  0
 17 39  1  0  0  0  0
 18 19  2  0  0  0  0
M  END
> <s_m_source_file>
AV-unprocessed.smi

> <i_m_source_file_index>
1293

> <i_lp_mmshare_version>
43012

> <i_f3d_flags>
0

> <s_epik_input>
W0NIM11PW0NIMl1bQ0gyXW4xW2NIXWMoW2NIXVtjSF1jMT1PKVtOSF1DKD1PKVtDSF0yW0NIMl1bQ0gyXVtDSDJdW0NIMl0y

> <s_epik_cmdline>
J2VwaWtfcHl0aG9uJywgJy1waCcsICc3LjAnLCAnLXRuJywgJzgnLCAnLW1hJywgJzIwMCcsICctbWV0YWxfYmluZGluZycsICctaW1hZScsICc8aW5maWxlLm1hZT4nLCAnLW9tYWUnLCAnPG91dGZpbGUubWFlPic=

> <r_lp_tautomer_probability>
1

> <r_epik_Ionization_Penalty>
2.42474e-06

> <r_epik_Ionization_Penalty_Charging>
2.30353e-06

> <r_epik_Ionization_Penalty_Neutral>
1.21208e-07

> <r_epik_State_Penalty>
-0

> <r_epik_Charging_Adjusted_Penalty>
2.30353e-06

> <i_epik_Tot_Q>
0

> <i_epik_Tot_abs_Q>
0

> <r_epik_Metal_State_Penalty>
-0

> <b_epik_Metal_Only>
0

> <s_lp_Force_Field>
OPLS_2005

> <r_lp_Energy>
36.4395

> <b_lp_Chiralities_Consistent>
1

> <s_lp_Variant>
AV-unprocessed.smi:1293-1

> <Gold.Version>
5.8.1

> <Gold.Id.Protein>
6NUR|6NUR_protein|mol2

> <Gold.PLP.Fitness>
46.9508

> <Gold.PLP.PLP>
-45.6113

> <Gold.PLP.part.hbond>
-0.0263

> <Gold.PLP.part.metal>
0.0000

> <Gold.PLP.part.buried>
-3.5592

> <Gold.PLP.part.nonpolar>
-43.2494

> <Gold.PLP.part.repulsive>
1.5484

> <Gold.PLP.ligand.clash>
0.0000

> <Gold.PLP.ligand.torsion>
0.8567

> <Gold.PLP.Chemscore.Hbond>
0.0000

> <Gold.PLP.Chemscore.CHOScore>
1.0000

> <Gold.PLP.Chemscore.Metal>
0.0000

> <Gold.Chemscore.Hbonds>
donor molecule, donor type, donor heavy atom, donor atom, acceptor molecule, acceptor atom, score
      L1  C     6    27       P1  8028  1.00

> <Gold.PLP.Chemscore.Internal.Correction>
0.0529

> <Gold.Rescore>
     Score         DG    S(hbond)    S(metal)    S(lipo)     H(rot)  DE(clash)    DE(int)     intcor
     12.57     -14.41       0.00        0.00     109.82       1.53       1.07       0.76       ----

> <Gold.Chemscore.Fitness>
12.5701

> <Gold.Chemscore.DG>
-14.4076

> <Gold.Chemscore.ZeroCoef>
-5.4800

> <Gold.Chemscore.Hbond>
0.0000

> <Gold.Chemscore.Metal>
0.0000

> <Gold.Chemscore.Lipo>
109.8165

> <Gold.Chemscore.Internal_Hbond>
0.0000

> <Gold.Chemscore.DEClash>
1.0750

> <Gold.Chemscore.DEInternal>
0.7625

> <Gold.Chemscore.Rot>
1.5316

> <Gold.Chemscore.Internal.Correction>
   9.000000E+99

> <Gold.Chemscore.Hbond.Weighted>
-0.0000

> <Gold.Chemscore.Metal.Weighted>
-0.0000

> <Gold.Chemscore.Lipo.Weighted>
-12.8485

> <Gold.Chemscore.Internal_Hbond.Weighted>
0.0000

> <Gold.Chemscore.DEClash.Weighted>
1.0750

> <Gold.Chemscore.DEInternal.Weighted>
0.7625

> <Gold.Chemscore.Rot.Weighted>
3.9209

> <Gold.Chemscore.Internal.Correction.Weighted>
   9.000000E+99

> <Gold.Protein.RotatedTorsions>
[ 6907 6896 6895 6894 ] final   18.50 input  -60.11 | X-H torsion
[ 7974 7965 7964 7962 ] final -100.42 input  175.53 | X-H torsion
[ 8008 7997 7996 7995 ] final  -85.49 input   59.86 | X-H torsion
[ 10167 10162 10161 10158 ] final   64.63 input  -65.29 | X-H torsion
[ 10718 10713 10712 10709 ] final -134.51 input   66.30 | X-H torsion
[ 10763 10752 10751 10750 ] final   21.80 input  -60.55 | X-H torsion
[ 11005 11000 10999 10996 ] final  137.24 input  -57.11 | X-H torsion

> <Gold.Protein.ActiveResidues>
 VAL166  LYS551  ARG553  GLY616  TRP617  ASP618  TYR619  PRO620  LYS621  CYS622 
 ASP623  PHE694  ASN695  SER759  ASP760  ASP761  ALA762  ILE779  LEU786  VAL792 
 PHE793  MET794  SER795  GLU796  ALA797  LYS798  CYS799  TRP800  GLU811  SER814 

> <Gold.Protein.RotatedAtoms>
  151.8662  135.0506  160.0474 H   0  0  0  0  0  0  0  0  0  0  0  0  # atno 6907 bound_to 6896
  152.2624  133.5305  159.5398 H   0  0  0  0  0  0  0  0  0  0  0  0  # atno 6908 bound_to 6896
  150.7121  134.0727  159.3912 H   0  0  0  0  0  0  0  0  0  0  0  0  # atno 6909 bound_to 6896
  145.2948  140.9362  143.2857 H   0  0  0  0  0  0  0  0  0  0  0  0  # atno 7974 bound_to 7965
  154.6413  140.0591  156.9849 H   0  0  0  0  0  0  0  0  0  0  0  0  # atno 8008 bound_to 7997
  155.1512  140.3274  155.4412 H   0  0  0  0  0  0  0  0  0  0  0  0  # atno 8009 bound_to 7997
  156.2532  140.1947  156.6624 H   0  0  0  0  0  0  0  0  0  0  0  0  # atno 8010 bound_to 7997
  140.1200  144.4740  150.6926 H   0  0  0  0  0  0  0  0  0  0  0  0  # atno 10167 bound_to 10162
  156.2562  130.7182  151.1100 H   0  0  0  0  0  0  0  0  0  0  0  0  # atno 10718 bound_to 10713
  153.0966  135.6661  153.9752 H   0  0  0  0  0  0  0  0  0  0  0  0  # atno 10763 bound_to 10752
  153.9334  135.3001  155.3446 H   0  0  0  0  0  0  0  0  0  0  0  0  # atno 10764 bound_to 10752
  154.7385  135.5090  153.9156 H   0  0  0  0  0  0  0  0  0  0  0  0  # atno 10765 bound_to 10752
  140.0100  134.9443  157.0258 H   0  0  0  0  0  0  0  0  0  0  0  0  # atno 11005 bound_to 11000
  144.9143  139.4490  143.6572 LP  0  0  0  0  0  0  0  0  0  0  0  0  # atno 17320 bound_to 7965
  146.3172  139.7968  142.8974 LP  0  0  0  0  0  0  0  0  0  0  0  0  # atno 17321 bound_to 7965
  140.6877  143.2359  151.5215 LP  0  0  0  0  0  0  0  0  0  0  0  0  # atno 17342 bound_to 10162
  139.5573  144.2243  152.1634 LP  0  0  0  0  0  0  0  0  0  0  0  0  # atno 17343 bound_to 10162
  157.7233  131.0667  150.6041 LP  0  0  0  0  0  0  0  0  0  0  0  0  # atno 17370 bound_to 10713
  156.6125  130.4384  149.5853 LP  0  0  0  0  0  0  0  0  0  0  0  0  # atno 17371 bound_to 10713
  140.4571  134.1522  155.7187 LP  0  0  0  0  0  0  0  0  0  0  0  0  # atno 17394 bound_to 11000
  141.1704  133.8619  157.1587 LP  0  0  0  0  0  0  0  0  0  0  0  0  # atno 17395 bound_to 11000

$$$$
