AV-unprocessed.smi:3136|AV-procd|sdf|11948|dock6
  -GOLD-   2272017343D 1   1.00000     0.00000
 Structure written by MMmdl.
 40 40  0  0  0  0  0  0  0  0  2 V2000
  145.8946  143.0972  154.2527 C   0  0  0  0  0  0  0  0  0  0  0  0
  146.9873  142.0628  153.9512 C   0  0  0  0  0  0  0  0  0  0  0  0
  146.4358  140.8646  153.3285 N   0  0  0  0  0  0  0  0  0  0  0  0
  147.1290  139.7504  153.0486 C   0  0  0  0  0  0  0  0  0  0  0  0
  148.3288  139.6228  153.2944 O   0  0  0  0  0  0  0  0  0  0  0  0
  146.3359  138.6174  152.3883 C   0  0  0  0  0  0  0  0  0  0  0  0
  145.2084  138.0573  153.2737 C   0  0  0  0  0  0  0  0  0  0  0  0
  144.3194  137.1690  152.4954 N   0  3  0  0  0  0  0  0  0  0  0  0
  144.9855  136.0208  151.8373 C   0  0  2  0  0  0  0  0  0  0  0  0
  145.5532  136.4482  150.4669 C   0  0  0  0  0  0  0  0  0  0  0  0
  143.9947  134.8299  151.7327 C   0  0  2  0  0  0  0  0  0  0  0  0
  143.5407  134.3154  153.1128 C   0  0  0  0  0  0  0  0  0  0  0  0
  144.5345  133.7282  150.9453 N   0  0  0  0  0  0  0  0  0  0  0  0
  143.9698  133.1004  149.8539 C   0  0  0  0  0  0  0  0  0  0  0  0
  144.8370  132.1270  149.4481 C   0  0  0  0  0  0  0  0  0  0  0  0
  145.9180  132.2322  150.3668 C   0  0  0  0  0  0  0  0  0  0  0  0
  145.7341  133.1893  151.2616 N   0  0  0  0  0  0  0  0  0  0  0  0
  146.3148  143.9675  154.7569 H   0  0  0  0  0  0  0  0  0  0  0  0
  145.1232  142.6793  154.9004 H   0  0  0  0  0  0  0  0  0  0  0  0
  145.4137  143.4460  153.3383 H   0  0  0  0  0  0  0  0  0  0  0  0
  147.7599  142.4995  153.3165 H   0  0  0  0  0  0  0  0  0  0  0  0
  147.4786  141.7674  154.8785 H   0  0  0  0  0  0  0  0  0  0  0  0
  145.4541  140.8869  153.0931 H   0  0  0  0  0  0  0  0  0  0  0  0
  145.9177  138.9895  151.4519 H   0  0  0  0  0  0  0  0  0  0  0  0
  147.0318  137.8187  152.1278 H   0  0  0  0  0  0  0  0  0  0  0  0
  145.6348  137.5072  154.1126 H   0  0  0  0  0  0  0  0  0  0  0  0
  144.6173  138.8752  153.6887 H   0  0  0  0  0  0  0  0  0  0  0  0
  143.6379  136.7939  153.1398 H   0  0  0  0  0  0  0  0  0  0  0  0
  145.8191  135.7063  152.4672 H   0  0  0  0  0  0  0  0  0  0  0  0
  146.1060  135.6405  149.9870 H   0  0  0  0  0  0  0  0  0  0  0  0
  146.2470  137.2831  150.5573 H   0  0  0  0  0  0  0  0  0  0  0  0
  144.7559  136.7522  149.7878 H   0  0  0  0  0  0  0  0  0  0  0  0
  143.1057  135.1802  151.2050 H   0  0  0  0  0  0  0  0  0  0  0  0
  143.0121  135.0849  153.6755 H   0  0  0  0  0  0  0  0  0  0  0  0
  144.3877  133.9877  153.7166 H   0  0  0  0  0  0  0  0  0  0  0  0
  142.8615  133.4685  153.0094 H   0  0  0  0  0  0  0  0  0  0  0  0
  143.0085  133.3948  149.4589 H   0  0  0  0  0  0  0  0  0  0  0  0
  144.7172  131.4421  148.6218 H   0  0  0  0  0  0  0  0  0  0  0  0
  146.8240  131.6458  150.4096 H   0  0  0  0  0  0  0  0  0  0  0  0
  143.8327  137.7100  151.7949 H   0  0  0  0  0  0  0  0  0  0  0  0
  1  2  1  0  0  0  0
  1 18  1  0  0  0  0
  1 19  1  0  0  0  0
  1 20  1  0  0  0  0
  2  3  1  0  0  0  0
  2 21  1  0  0  0  0
  2 22  1  0  0  0  0
  3  4  1  0  0  0  0
  3 23  1  0  0  0  0
  4  5  2  0  0  0  0
  4  6  1  0  0  0  0
  6  7  1  0  0  0  0
  6 24  1  0  0  0  0
  6 25  1  0  0  0  0
  7  8  1  0  0  0  0
  7 26  1  0  0  0  0
  7 27  1  0  0  0  0
  8  9  1  0  0  0  0
  8 28  1  0  0  0  0
  8 40  1  0  0  0  0
  9 10  1  0  0  0  0
  9 11  1  0  0  0  0
  9 29  1  0  0  0  0
 10 30  1  0  0  0  0
 10 31  1  0  0  0  0
 10 32  1  0  0  0  0
 11 12  1  0  0  0  0
 11 13  1  0  0  0  0
 11 33  1  0  0  0  0
 12 34  1  0  0  0  0
 12 35  1  0  0  0  0
 12 36  1  0  0  0  0
 13 17  1  0  0  0  0
 13 14  1  0  0  0  0
 14 15  2  0  0  0  0
 14 37  1  0  0  0  0
 15 16  1  0  0  0  0
 15 38  1  0  0  0  0
 16 17  2  0  0  0  0
 16 39  1  0  0  0  0
M  CHG  1   8   1
M  END
> <s_m_source_file>
AV-unprocessed.smi

> <i_m_source_file_index>
3136

> <i_lp_mmshare_version>
43012

> <i_f3d_flags>
0

> <s_epik_input>
W0NIM11bQ0gyXVtOSF1DKD1PKVtDSDJdW0NIMl1bTkhdW0NASF0oW0NIM10pW0NASF0oW0NIM10pbjFbY0hdW2NIXVtjSF1uMQ==

> <s_epik_cmdline>
J2VwaWtfcHl0aG9uJywgJy1waCcsICc3LjAnLCAnLXRuJywgJzgnLCAnLW1hJywgJzIwMCcsICctbWV0YWxfYmluZGluZycsICctaW1hZScsICc8aW5maWxlLm1hZT4nLCAnLW9tYWUnLCAnPG91dGZpbGUubWFlPic=

> <r_lp_tautomer_probability>
1

> <r_epik_Ionization_Penalty>
0.00463447

> <r_epik_Ionization_Penalty_Charging>
0.00462393

> <r_epik_Ionization_Penalty_Neutral>
1.05394e-05

> <r_epik_State_Penalty>
-0

> <r_epik_Charging_Adjusted_Penalty>
0.00462393

> <i_epik_Tot_Q>
1

> <i_epik_Tot_abs_Q>
1

> <r_epik_Metal_State_Penalty>
-0

> <b_epik_Metal_Only>
0

> <s_lp_Force_Field>
OPLS_2005

> <r_lp_Energy>
10.4266

> <b_lp_Chiralities_Consistent>
1

> <s_lp_Variant>
AV-unprocessed.smi:3136-1

> <Gold.Version>
5.8.1

> <Gold.Id.Protein>
6NUR|6NUR_protein|mol2

> <Gold.PLP.Fitness>
44.3118

> <Gold.PLP.PLP>
-33.3567

> <Gold.PLP.part.hbond>
-2.4228

> <Gold.PLP.part.metal>
0.0000

> <Gold.PLP.part.buried>
-1.8993

> <Gold.PLP.part.nonpolar>
-30.6953

> <Gold.PLP.part.repulsive>
0.8798

> <Gold.PLP.ligand.clash>
0.0000

> <Gold.PLP.ligand.torsion>
0.6099

> <Gold.PLP.Chemscore.Hbond>
2.0000

> <Gold.PLP.Chemscore.CHOScore>
2.0000

> <Gold.PLP.Chemscore.Metal>
0.0000

> <Gold.Chemscore.Hbonds>
donor molecule, donor type, donor heavy atom, donor atom, acceptor molecule, acceptor atom, score
      L1  H     3    23       P1 10175  1.00
      L1  H     8    40       P1 10171  0.66
      L1  C    14    37       P1 10186  1.00
      L1  C    16    39       P1 10747  1.00

> <Gold.PLP.Chemscore.Internal.Correction>
0.1749

> <Gold.Rescore>
     Score         DG    S(hbond)    S(metal)    S(lipo)     H(rot)  DE(clash)    DE(int)     intcor
     13.29     -15.65       1.95        0.00      81.88       2.32       0.47       1.90       ----

> <Gold.Chemscore.Fitness>
13.2861

> <Gold.Chemscore.DG>
-15.6546

> <Gold.Chemscore.ZeroCoef>
-5.4800

> <Gold.Chemscore.Hbond>
1.9531

> <Gold.Chemscore.Metal>
0.0000

> <Gold.Chemscore.Lipo>
81.8795

> <Gold.Chemscore.Internal_Hbond>
0.0000

> <Gold.Chemscore.DEClash>
0.4656

> <Gold.Chemscore.DEInternal>
1.9028

> <Gold.Chemscore.Rot>
2.3159

> <Gold.Chemscore.Internal.Correction>
   9.000000E+99

> <Gold.Chemscore.Hbonds>
donor molecule, donor type, donor heavy atom, donor atom, acceptor molecule, acceptor atom, score
      L1  H     3    23       P1 10175  0.50
      L1  H     8    40       P1 10171  0.61

> <Gold.Chemscore.Hbond.Weighted>
-6.5232

> <Gold.Chemscore.Metal.Weighted>
-0.0000

> <Gold.Chemscore.Lipo.Weighted>
-9.5799

> <Gold.Chemscore.Internal_Hbond.Weighted>
0.0000

> <Gold.Chemscore.DEClash.Weighted>
0.4656

> <Gold.Chemscore.DEInternal.Weighted>
1.9028

> <Gold.Chemscore.Rot.Weighted>
5.9286

> <Gold.Chemscore.Internal.Correction.Weighted>
   9.000000E+99

> <Gold.Protein.RotatedTorsions>
[ 6907 6896 6895 6894 ] final -125.08 input  -60.11 | X-H torsion
[ 7974 7965 7964 7962 ] final  -75.47 input  175.53 | X-H torsion
[ 8008 7997 7996 7995 ] final -163.27 input   59.86 | X-H torsion
[ 10167 10162 10161 10158 ] final  -51.62 input  -65.29 | X-H torsion
[ 10718 10713 10712 10709 ] final   51.79 input   66.30 | X-H torsion
[ 10763 10752 10751 10750 ] final -151.87 input  -60.55 | X-H torsion
[ 11005 11000 10999 10996 ] final  -84.02 input  -57.11 | X-H torsion

> <Gold.Protein.ActiveResidues>
 VAL166  LYS551  ARG553  GLY616  TRP617  ASP618  TYR619  PRO620  LYS621  CYS622 
 ASP623  PHE694  ASN695  SER759  ASP760  ASP761  ALA762  ILE779  LEU786  VAL792 
 PHE793  MET794  SER795  GLU796  ALA797  LYS798  CYS799  TRP800  GLU811  SER814 

> <Gold.Protein.RotatedAtoms>
  150.8832  133.7344  159.2925 H   0  0  0  0  0  0  0  0  0  0  0  0  # atno 6907 bound_to 6896
  151.4918  135.1056  159.9815 H   0  0  0  0  0  0  0  0  0  0  0  0  # atno 6908 bound_to 6896
  152.4773  133.8122  159.7065 H   0  0  0  0  0  0  0  0  0  0  0  0  # atno 6909 bound_to 6896
  145.6255  140.9351  143.1115 H   0  0  0  0  0  0  0  0  0  0  0  0  # atno 7974 bound_to 7965
  155.8188  140.0916  157.1861 H   0  0  0  0  0  0  0  0  0  0  0  0  # atno 8008 bound_to 7997
  154.3979  140.1441  156.3535 H   0  0  0  0  0  0  0  0  0  0  0  0  # atno 8009 bound_to 7997
  155.8288  140.3443  155.5562 H   0  0  0  0  0  0  0  0  0  0  0  0  # atno 8010 bound_to 7997
  140.6579  143.2613  151.4530 H   0  0  0  0  0  0  0  0  0  0  0  0  # atno 10167 bound_to 10162
  157.5014  130.8440  149.8321 H   0  0  0  0  0  0  0  0  0  0  0  0  # atno 10718 bound_to 10713
  154.8030  135.3249  154.7502 H   0  0  0  0  0  0  0  0  0  0  0  0  # atno 10763 bound_to 10752
  153.8166  135.6891  153.4837 H   0  0  0  0  0  0  0  0  0  0  0  0  # atno 10764 bound_to 10752
  153.1758  135.4605  154.9907 H   0  0  0  0  0  0  0  0  0  0  0  0  # atno 10765 bound_to 10752
  141.1653  133.7324  156.8807 H   0  0  0  0  0  0  0  0  0  0  0  0  # atno 11005 bound_to 11000
  144.7214  139.8018  143.7380 LP  0  0  0  0  0  0  0  0  0  0  0  0  # atno 17320 bound_to 7965
  146.1397  139.4451  143.0116 LP  0  0  0  0  0  0  0  0  0  0  0  0  # atno 17321 bound_to 7965
  139.5805  144.1719  152.1962 LP  0  0  0  0  0  0  0  0  0  0  0  0  # atno 17342 bound_to 10162
  140.1043  144.5512  150.6967 LP  0  0  0  0  0  0  0  0  0  0  0  0  # atno 17343 bound_to 10162
  156.0232  130.3788  150.1901 LP  0  0  0  0  0  0  0  0  0  0  0  0  # atno 17370 bound_to 10713
  157.0091  130.9945  151.3371 LP  0  0  0  0  0  0  0  0  0  0  0  0  # atno 17371 bound_to 10713
  140.1717  134.9095  157.2841 LP  0  0  0  0  0  0  0  0  0  0  0  0  # atno 17394 bound_to 11000
  140.2495  134.3700  155.7448 LP  0  0  0  0  0  0  0  0  0  0  0  0  # atno 17395 bound_to 11000

$$$$
