#       Name:                AV-unprocessed.smi:3176
#       Creating user name   scv26
#       Creation time:       Fri Mar 27 17:56:44 2020


#       File generated by GOLD software.
#

@<TRIPOS>MOLECULE
AV-unprocessed.smi:3176
    37    38     1
SMALL
NO_CHARGES


@<TRIPOS>ATOM
      1 ****        -1.0808   1.5591  -0.8341 O.2            1 S1                 0.0000
      2 ****        -1.4784   0.6689  -0.0822 C.2            1 S1                 0.0000
      3 ****        -0.6491  -0.1681   0.5612 N.am           1 S1                 0.0000
      4 ****         0.8054  -0.1433   0.4701 C.3            1 S1                 0.0000
      5 ****         1.3022  -0.8625  -0.7945 C.3            1 S1                 0.0000
      6 ****         2.8150  -0.8683  -0.8943 C.ar           1 S1                 0.0000
      7 ****         3.5909  -1.9673  -0.4663 C.ar           1 S1                 0.0000
      8 ****         4.9955  -1.9048  -0.5800 C.ar           1 S1                 0.0000
      9 ****         5.5936  -0.7463  -1.1177 C.ar           1 S1                 0.0000
     10 ****         4.7709   0.3231  -1.5267 C.ar           1 S1                 0.0000
     11 ****         3.4290   0.2259  -1.4005 N.pl3          1 S1                 1.0000
     12 ****        -2.9836   0.4653   0.1364 C.3            1 S1                 0.0000
     13 ****        -3.7663   1.7649   0.3238 C.3            1 S1                 0.0000
     14 ****        -4.9996   1.2706   1.0480 C.3            1 S1                 0.0000
     15 ****        -4.4461   0.1555   1.9344 C.3            1 S1                 0.0000
     16 ****        -3.2215  -0.2657   1.3377 O.3            1 S1                 0.0000
     17 ****        -1.0615  -0.8681   1.1616 H              1 S1                 0.0000
     18 ****         1.1642   0.8872   0.4947 H              1 S1                 0.0000
     19 ****         1.2074  -0.6332   1.3574 H              1 S1                 0.0000
     20 ****         0.9405  -1.8914  -0.8051 H              1 S1                 0.0000
     21 ****         0.8942  -0.3849  -1.6865 H              1 S1                 0.0000
     22 ****         3.1180  -2.8471  -0.0542 H              1 S1                 0.0000
     23 ****         5.6064  -2.7355  -0.2575 H              1 S1                 0.0000
     24 ****         6.6676  -0.6790  -1.2137 H              1 S1                 0.0000
     25 ****         5.1424   1.2461  -1.9475 H              1 S1                 0.0000
     26 ****        -3.3971  -0.1004  -0.7000 H              1 S1                 0.0000
     27 ****        -3.2168   2.4687   0.9515 H              1 S1                 0.0000
     28 ****        -4.0043   2.2576  -0.6194 H              1 S1                 0.0000
     29 ****        -5.5070   2.0523   1.6138 H              1 S1                 0.0000
     30 ****        -5.7086   0.8569   0.3293 H              1 S1                 0.0000
     31 ****        -4.2315   0.5286   2.9364 H              1 S1                 0.0000
     32 ****        -5.1455  -0.6758   2.0262 H              1 S1                 0.0000
     33 ****         2.8530   1.0124  -1.7023 H              1 S1                 0.0000
     34 ****        -0.1004   1.6830  -0.9877 LP             1 S1                 0.0000
     35 ****        -1.7382   2.1581  -1.2912 LP             1 S1                 0.0000
     36 ****        -2.4696  -0.1047   1.9771 LP             1 S1                 0.0000
     37 ****        -3.2755  -1.2415   1.1257 LP             1 S1                 0.0000
@<TRIPOS>BOND
    1    1    2 2     
    2    2    3 am    
    3    2   12 1     
    4    3    4 1     
    5    3   17 1     
    6    4    5 1     
    7    4   18 1     
    8    4   19 1     
    9    5    6 1     
   10    5   20 1     
   11    5   21 1     
   12    6   11 ar    
   13    6    7 ar    
   14    7    8 ar    
   15    7   22 1     
   16    8    9 ar    
   17    8   23 1     
   18    9   10 ar    
   19    9   24 1     
   20   10   11 ar    
   21   10   25 1     
   22   11   33 1     
   23   12   16 1     
   24   12   13 1     
   25   12   26 1     
   26   13   14 1     
   27   13   27 1     
   28   13   28 1     
   29   14   15 1     
   30   14   29 1     
   31   14   30 1     
   32   15   16 1     
   33   15   31 1     
   34   15   32 1     
   35    1   34 1     
   36    1   35 1     
   37   16   36 1     
   38   16   37 1     
@<TRIPOS>SUBSTRUCTURE
      1 S1             1
@<TRIPOS>SET
LONE_PAIRS      STATIC     ATOMS    <user>   **** ""
4 34 35 36 37
DONOR_HYDROGENS      STATIC     ATOMS    <user>   **** ""
2 17 33
ATOM$BLUE        STATIC     ATOMS    COLORGROUP SYSTEM
4 34 35 36 37
ATOM$RED        STATIC     ATOMS    COLORGROUP SYSTEM
2 17 33
