AV-unprocessed.smi:3069|AV-procd|sdf|11710|dock7
  -GOLD-   2272017113D 1   1.00000     0.00000
 Structure written by MMmdl.
 39 40  0  0  0  0  0  0  0  0  1 V2000
  146.0029  143.4581  154.5236 N   0  0  0  0  0  0  0  0  0  0  0  0
  146.6435  142.4993  154.4267 C   0  0  0  0  0  0  0  0  0  0  0  0
  147.4482  141.2902  154.3052 C   0  0  0  0  0  0  0  0  0  0  0  0
  146.9223  140.2798  153.5751 N   0  0  0  0  0  0  0  0  0  0  0  0
  147.6706  139.1647  153.4350 C   0  0  0  0  0  0  0  0  0  0  0  0
  148.9470  139.0535  154.0199 C   0  0  0  0  0  0  0  0  0  0  0  0
  149.4805  140.0563  154.7495 N   0  0  0  0  0  0  0  0  0  0  0  0
  148.7369  141.1804  154.8991 C   0  0  0  0  0  0  0  0  0  0  0  0
  149.2865  142.2325  155.6516 N   0  0  0  0  0  0  0  0  0  0  0  0
  150.6034  142.0411  156.2500 C   0  0  0  0  0  0  0  0  0  0  0  0
  150.5192  141.3375  157.6132 C   0  0  0  0  0  0  0  0  0  0  0  0
  151.8324  141.2511  158.1483 O   0  0  0  0  0  0  0  0  0  0  0  0
  152.3993  142.4852  158.5703 C   0  0  0  0  0  0  0  0  0  0  0  0
  153.6831  142.1330  159.3460 C   0  0  0  0  0  0  0  0  0  0  0  0
  153.4616  141.6105  160.7755 C   0  0  0  0  0  0  0  0  0  0  0  0
  153.4095  142.7360  161.8217 C   0  0  0  0  0  0  0  0  0  0  0  0
  152.1436  143.6039  161.7696 C   0  0  0  0  0  0  0  0  0  0  0  0
  151.8809  144.2781  160.4114 C   0  0  0  0  0  0  0  0  0  0  0  0
  151.3420  143.2994  159.3550 C   0  0  0  0  0  0  0  0  0  0  0  0
  147.2498  138.3586  152.8524 H   0  0  0  0  0  0  0  0  0  0  0  0
  149.5408  138.1591  153.9030 H   0  0  0  0  0  0  0  0  0  0  0  0
  149.1258  143.1581  155.2802 H   0  0  0  0  0  0  0  0  0  0  0  0
  151.2015  141.4397  155.5652 H   0  0  0  0  0  0  0  0  0  0  0  0
  151.1155  142.9989  156.3457 H   0  0  0  0  0  0  0  0  0  0  0  0
  149.8846  141.9057  158.2940 H   0  0  0  0  0  0  0  0  0  0  0  0
  150.0630  140.3547  157.4967 H   0  0  0  0  0  0  0  0  0  0  0  0
  152.7060  143.0510  157.6889 H   0  0  0  0  0  0  0  0  0  0  0  0
  154.2282  141.3801  158.7752 H   0  0  0  0  0  0  0  0  0  0  0  0
  154.3454  142.9991  159.3738 H   0  0  0  0  0  0  0  0  0  0  0  0
  152.5719  140.9820  160.8292 H   0  0  0  0  0  0  0  0  0  0  0  0
  154.2999  140.9615  161.0309 H   0  0  0  0  0  0  0  0  0  0  0  0
  153.4769  142.2910  162.8149 H   0  0  0  0  0  0  0  0  0  0  0  0
  154.2918  143.3694  161.7229 H   0  0  0  0  0  0  0  0  0  0  0  0
  151.2775  143.0080  162.0604 H   0  0  0  0  0  0  0  0  0  0  0  0
  152.2346  144.3794  162.5307 H   0  0  0  0  0  0  0  0  0  0  0  0
  151.1233  145.0464  160.5697 H   0  0  0  0  0  0  0  0  0  0  0  0
  152.7650  144.8043  160.0498 H   0  0  0  0  0  0  0  0  0  0  0  0
  150.7454  143.8635  158.6378 H   0  0  0  0  0  0  0  0  0  0  0  0
  150.6393  142.6191  159.8367 H   0  0  0  0  0  0  0  0  0  0  0  0
  1  2  3  0  0  0  0
  2  3  1  0  0  0  0
  3  8  1  0  0  0  0
  3  4  2  0  0  0  0
  4  5  1  0  0  0  0
  5  6  2  0  0  0  0
  5 20  1  0  0  0  0
  6  7  1  0  0  0  0
  6 21  1  0  0  0  0
  7  8  2  0  0  0  0
  8  9  1  0  0  0  0
  9 10  1  0  0  0  0
  9 22  1  0  0  0  0
 10 11  1  0  0  0  0
 10 23  1  0  0  0  0
 10 24  1  0  0  0  0
 11 12  1  0  0  0  0
 11 25  1  0  0  0  0
 11 26  1  0  0  0  0
 12 13  1  0  0  0  0
 13 19  1  0  0  0  0
 13 14  1  0  0  0  0
 13 27  1  0  0  0  0
 14 15  1  0  0  0  0
 14 28  1  0  0  0  0
 14 29  1  0  0  0  0
 15 16  1  0  0  0  0
 15 30  1  0  0  0  0
 15 31  1  0  0  0  0
 16 17  1  0  0  0  0
 16 32  1  0  0  0  0
 16 33  1  0  0  0  0
 17 18  1  0  0  0  0
 17 34  1  0  0  0  0
 17 35  1  0  0  0  0
 18 19  1  0  0  0  0
 18 36  1  0  0  0  0
 18 37  1  0  0  0  0
 19 38  1  0  0  0  0
 19 39  1  0  0  0  0
M  END
> <s_m_source_file>
AV-unprocessed.smi

> <i_m_source_file_index>
3069

> <i_lp_mmshare_version>
43012

> <i_f3d_flags>
0

> <s_epik_input>
TiNDYzFuW2NIXVtjSF1uYzFbTkhdW0NIMl1bQ0gyXU9bQ0hdMltDSDJdW0NIMl1bQ0gyXVtDSDJdW0NIMl1bQ0gyXTI=

> <s_epik_cmdline>
J2VwaWtfcHl0aG9uJywgJy1waCcsICc3LjAnLCAnLXRuJywgJzgnLCAnLW1hJywgJzIwMCcsICctbWV0YWxfYmluZGluZycsICctaW1hZScsICc8aW5maWxlLm1hZT4nLCAnLW9tYWUnLCAnPG91dGZpbGUubWFlPic=

> <r_lp_tautomer_probability>
1

> <r_epik_Ionization_Penalty>
5.57718e-05

> <r_epik_Ionization_Penalty_Charging>
0

> <r_epik_Ionization_Penalty_Neutral>
5.57718e-05

> <r_epik_State_Penalty>
-0

> <r_epik_Charging_Adjusted_Penalty>
0

> <i_epik_Tot_Q>
0

> <i_epik_Tot_abs_Q>
0

> <r_epik_Metal_State_Penalty>
-0

> <b_epik_Metal_Only>
0

> <s_lp_Force_Field>
OPLS_2005

> <r_lp_Energy>
28.0763

> <b_lp_Chiralities_Consistent>
1

> <s_lp_Variant>
AV-unprocessed.smi:3069-1

> <Gold.Version>
5.8.1

> <Gold.Id.Protein>
6NUR|6NUR_protein|mol2

> <Gold.PLP.Fitness>
45.3419

> <Gold.PLP.PLP>
-40.5912

> <Gold.PLP.part.hbond>
-1.1465

> <Gold.PLP.part.metal>
0.0000

> <Gold.PLP.part.buried>
-4.8927

> <Gold.PLP.part.nonpolar>
-35.2957

> <Gold.PLP.part.repulsive>
0.4873

> <Gold.PLP.ligand.clash>
0.0174

> <Gold.PLP.ligand.torsion>
0.2638

> <Gold.PLP.Chemscore.Hbond>
0.7360

> <Gold.PLP.Chemscore.CHOScore>
1.0209

> <Gold.PLP.Chemscore.Metal>
0.0000

> <Gold.Chemscore.Hbonds>
donor molecule, donor type, donor heavy atom, donor atom, acceptor molecule, acceptor atom, score
      L1  H     9    22       P1  8028  0.93
      L1  C     5    20       P1  7948  0.09
      L1  C     6    21       P1  7948  0.19

> <Gold.PLP.Chemscore.Internal.Correction>
0.0249

> <Gold.Rescore>
     Score         DG    S(hbond)    S(metal)    S(lipo)     H(rot)  DE(clash)    DE(int)     intcor
     15.10     -15.37       0.72        0.00     108.53       2.04       0.08       0.19       ----

> <Gold.Chemscore.Fitness>
15.0972

> <Gold.Chemscore.DG>
-15.3674

> <Gold.Chemscore.ZeroCoef>
-5.4800

> <Gold.Chemscore.Hbond>
0.7191

> <Gold.Chemscore.Metal>
0.0000

> <Gold.Chemscore.Lipo>
108.5255

> <Gold.Chemscore.Internal_Hbond>
0.0000

> <Gold.Chemscore.DEClash>
0.0791

> <Gold.Chemscore.DEInternal>
0.1911

> <Gold.Chemscore.Rot>
2.0359

> <Gold.Chemscore.Internal.Correction>
   9.000000E+99

> <Gold.Chemscore.Hbonds>
donor molecule, donor type, donor heavy atom, donor atom, acceptor molecule, acceptor atom, score
      L1  H     9    22       P1  8028  0.89

> <Gold.Chemscore.Hbond.Weighted>
-2.4017

> <Gold.Chemscore.Metal.Weighted>
-0.0000

> <Gold.Chemscore.Lipo.Weighted>
-12.6975

> <Gold.Chemscore.Internal_Hbond.Weighted>
0.0000

> <Gold.Chemscore.DEClash.Weighted>
0.0791

> <Gold.Chemscore.DEInternal.Weighted>
0.1911

> <Gold.Chemscore.Rot.Weighted>
5.2119

> <Gold.Chemscore.Internal.Correction.Weighted>
   9.000000E+99

> <Gold.Protein.RotatedTorsions>
[ 6907 6896 6895 6894 ] final  -64.29 input  -60.11 | X-H torsion
[ 7974 7965 7964 7962 ] final   29.05 input  175.53 | X-H torsion
[ 8008 7997 7996 7995 ] final  125.42 input   59.86 | X-H torsion
[ 10167 10162 10161 10158 ] final  128.19 input  -65.29 | X-H torsion
[ 10718 10713 10712 10709 ] final   69.09 input   66.30 | X-H torsion
[ 10763 10752 10751 10750 ] final -163.87 input  -60.55 | X-H torsion
[ 11005 11000 10999 10996 ] final -126.44 input  -57.11 | X-H torsion

> <Gold.Protein.ActiveResidues>
 VAL166  LYS551  ARG553  GLY616  TRP617  ASP618  TYR619  PRO620  LYS621  CYS622 
 ASP623  PHE694  ASN695  SER759  ASP760  ASP761  ALA762  ILE779  LEU786  VAL792 
 PHE793  MET794  SER795  GLU796  ALA797  LYS798  CYS799  TRP800  GLU811  SER814 

> <Gold.Protein.RotatedAtoms>
  150.7595  134.6319  159.6190 H   0  0  0  0  0  0  0  0  0  0  0  0  # atno 6907 bound_to 6896
  152.3594  134.6891  160.0221 H   0  0  0  0  0  0  0  0  0  0  0  0  # atno 6908 bound_to 6896
  151.7286  133.3281  159.3370 H   0  0  0  0  0  0  0  0  0  0  0  0  # atno 6909 bound_to 6896
  146.1694  139.6973  142.8978 H   0  0  0  0  0  0  0  0  0  0  0  0  # atno 7974 bound_to 7965
  156.2833  140.2717  156.1946 H   0  0  0  0  0  0  0  0  0  0  0  0  # atno 8008 bound_to 7997
  155.0424  140.0386  157.2532 H   0  0  0  0  0  0  0  0  0  0  0  0  # atno 8009 bound_to 7997
  154.7263  140.2698  155.6501 H   0  0  0  0  0  0  0  0  0  0  0  0  # atno 8010 bound_to 7997
  139.5540  144.6834  151.4239 H   0  0  0  0  0  0  0  0  0  0  0  0  # atno 10167 bound_to 10162
  157.6326  130.9408  150.0466 H   0  0  0  0  0  0  0  0  0  0  0  0  # atno 10718 bound_to 10713
  154.7082  135.3001  154.9238 H   0  0  0  0  0  0  0  0  0  0  0  0  # atno 10763 bound_to 10752
  154.0148  135.6690  153.4772 H   0  0  0  0  0  0  0  0  0  0  0  0  # atno 10764 bound_to 10752
  153.0734  135.5048  154.8265 H   0  0  0  0  0  0  0  0  0  0  0  0  # atno 10765 bound_to 10752
  140.9681  134.0844  157.3899 H   0  0  0  0  0  0  0  0  0  0  0  0  # atno 11005 bound_to 11000
  145.4382  141.0420  143.2872 LP  0  0  0  0  0  0  0  0  0  0  0  0  # atno 17320 bound_to 7965
  144.8140  139.5911  143.7017 LP  0  0  0  0  0  0  0  0  0  0  0  0  # atno 17321 bound_to 7965
  140.6809  143.8085  150.7120 LP  0  0  0  0  0  0  0  0  0  0  0  0  # atno 17342 bound_to 10162
  140.1538  143.4335  152.2114 LP  0  0  0  0  0  0  0  0  0  0  0  0  # atno 17343 bound_to 10162
  156.1541  130.3643  149.9394 LP  0  0  0  0  0  0  0  0  0  0  0  0  # atno 17370 bound_to 10713
  156.7407  130.9078  151.3632 LP  0  0  0  0  0  0  0  0  0  0  0  0  # atno 17371 bound_to 10713
  139.8902  135.0110  156.6722 LP  0  0  0  0  0  0  0  0  0  0  0  0  # atno 17394 bound_to 11000
  140.7370  133.9010  155.8251 LP  0  0  0  0  0  0  0  0  0  0  0  0  # atno 17395 bound_to 11000

$$$$
