AV-unprocessed.smi:44|AV-procd|sdf|403|dock3
  -GOLD-   2262016253D 1   1.00000     0.00000
 Structure written by MMmdl.
 28 30  0  0  0  0  0  0  0  0  2 V2000
  151.7591  138.4659  154.6467 O   0  0  0  0  0  0  0  0  0  0  0  0
  151.4709  139.4329  155.3490 C   0  0  0  0  0  0  0  0  0  0  0  0
  150.7071  140.5003  154.9520 N   0  5  0  0  0  0  0  0  0  0  0  0
  150.4542  141.5379  155.8471 C   0  0  0  0  0  0  0  0  0  0  0  0
  150.8583  141.6419  157.0673 N   0  0  0  0  0  0  0  0  0  0  0  0
  151.6271  140.5785  157.4926 C   0  0  0  0  0  0  0  0  0  0  0  0
  151.9745  139.4820  156.7507 C   0  0  0  0  0  0  0  0  0  0  0  0
  152.7593  138.6043  157.4883 N   0  0  0  0  0  0  0  0  0  0  0  0
  152.8467  139.2282  158.6632 C   0  0  0  0  0  0  0  0  0  0  0  0
  152.1926  140.4063  158.7495 N   0  0  0  0  0  0  0  0  0  0  0  0
  152.0949  141.3409  159.9162 C   0  0  1  0  0  0  0  0  0  0  0  0
  153.4876  141.8591  160.2769 C   0  0  0  0  0  0  0  0  0  0  0  0
  153.5953  143.0669  159.3735 C   0  0  0  0  0  0  0  0  0  0  0  0
  152.1705  143.6169  159.4365 C   0  0  1  0  0  0  0  0  0  0  0  0
  151.7913  144.4707  158.2171 C   0  0  0  0  0  0  0  0  0  0  0  0
  150.4207  144.8024  158.2657 O   0  0  0  0  0  0  0  0  0  0  0  0
  151.3427  142.4545  159.5252 O   0  0  0  0  0  0  0  0  0  0  0  0
  151.6083  140.7582  160.6991 H   0  0  0  0  0  0  0  0  0  0  0  0
  152.0623  144.1908  160.3589 H   0  0  0  0  0  0  0  0  0  0  0  0
  149.8364  142.3195  155.3978 H   0  0  0  0  0  0  0  0  0  0  0  0
  153.4067  138.8090  159.4845 H   0  0  0  0  0  0  0  0  0  0  0  0
  153.4909  142.1584  161.3258 H   0  0  0  0  0  0  0  0  0  0  0  0
  154.2652  141.1110  160.1178 H   0  0  0  0  0  0  0  0  0  0  0  0
  154.3436  143.7854  159.7086 H   0  0  0  0  0  0  0  0  0  0  0  0
  153.8495  142.7571  158.3586 H   0  0  0  0  0  0  0  0  0  0  0  0
  152.3526  145.4055  158.2277 H   0  0  0  0  0  0  0  0  0  0  0  0
  152.0268  143.9640  157.2815 H   0  0  0  0  0  0  0  0  0  0  0  0
  150.0455  144.6579  157.4105 H   0  0  0  0  0  0  0  0  0  0  0  0
  1  2  2  0  0  0  0
  2  7  1  0  0  0  0
  2  3  1  0  0  0  0
  3  4  1  0  0  0  0
  4  5  2  0  0  0  0
  4 20  1  0  0  0  0
  5  6  1  0  0  0  0
  6 10  1  0  0  0  0
  6  7  2  0  0  0  0
  7  8  1  0  0  0  0
  8  9  2  0  0  0  0
  9 10  1  0  0  0  0
  9 21  1  0  0  0  0
 10 11  1  0  0  0  0
 11 18  1  0  0  0  0
 11 17  1  0  0  0  0
 11 12  1  0  0  0  0
 12 13  1  0  0  0  0
 12 22  1  0  0  0  0
 12 23  1  0  0  0  0
 13 14  1  0  0  0  0
 13 24  1  0  0  0  0
 13 25  1  0  0  0  0
 14 19  1  0  0  0  0
 14 15  1  0  0  0  0
 14 17  1  0  0  0  0
 15 16  1  0  0  0  0
 15 26  1  0  0  0  0
 15 27  1  0  0  0  0
 16 28  1  0  0  0  0
M  CHG  1   3  -1
M  END
> <s_m_source_file>
AV-unprocessed.smi

> <i_m_source_file_index>
44

> <i_lp_mmshare_version>
43012

> <i_f3d_flags>
0

> <s_epik_input>
bjFbY0hdW25IXWMoPU8pYyhjMTIpbltjSF1uMltDQEhdM1tDSDJdW0NIMl1bQ0BIXShPMylbQ0gyXVtPSF0=

> <s_epik_cmdline>
J2VwaWtfcHl0aG9uJywgJy1waCcsICc3LjAnLCAnLXRuJywgJzgnLCAnLW1hJywgJzIwMCcsICctbWV0YWxfYmluZGluZycsICctaW1hZScsICc8aW5maWxlLm1hZT4nLCAnLW9tYWUnLCAnPG91dGZpbGUubWFlPic=

> <r_lp_tautomer_probability>
0.85571

> <r_epik_Ionization_Penalty>
2.55863

> <r_epik_Ionization_Penalty_Charging>
1.36424e-10

> <r_epik_Ionization_Penalty_Neutral>
2.55863

> <r_epik_State_Penalty>
2.63326

> <r_epik_Charging_Adjusted_Penalty>
2.63326

> <i_epik_Tot_Q>
-1

> <i_epik_Tot_abs_Q>
1

> <r_epik_Metal_State_Penalty>
0.475154

> <b_epik_Metal_Only>
1

> <s_epik_Chemistry_Notes>
This compound contains an acetal/aminal-like group ( X-CH(R)-Y where X, Y are N, S, or O) that may be acid/base labile, releasing an aldehyde.

> <s_lp_Force_Field>
OPLS_2005

> <r_lp_Energy>
44.8595

> <b_lp_Chiralities_Consistent>
1

> <s_lp_Variant>
AV-unprocessed.smi:44-9

> <Gold.Version>
5.8.1

> <Gold.Id.Protein>
6NUR|6NUR_protein|mol2

> <Gold.PLP.Fitness>
43.5264

> <Gold.PLP.PLP>
-35.7063

> <Gold.PLP.part.hbond>
-3.6245

> <Gold.PLP.part.metal>
0.0000

> <Gold.PLP.part.buried>
-4.8472

> <Gold.PLP.part.nonpolar>
-27.7837

> <Gold.PLP.part.repulsive>
0.2184

> <Gold.PLP.ligand.clash>
0.0000

> <Gold.PLP.ligand.torsion>
0.0288

> <Gold.PLP.Chemscore.Hbond>
2.0101

> <Gold.PLP.Chemscore.CHOScore>
0.6092

> <Gold.PLP.Chemscore.Metal>
0.0000

> <Gold.Chemscore.Hbonds>
donor molecule, donor type, donor heavy atom, donor atom, acceptor molecule, acceptor atom, score
      L1  H    16    28       P1  8028  0.83
      P1  H  7989  7998       L1     3  0.85
      P1  H  7997  8010       L1     8  0.01
      L1  C     4    20       P1  8028  0.85

> <Gold.PLP.Chemscore.Internal.Correction>
0.0196

> <Gold.Rescore>
     Score         DG    S(hbond)    S(metal)    S(lipo)     H(rot)  DE(clash)    DE(int)     intcor
      8.39     -10.04       1.15        0.00      55.46       2.26       0.02       1.62       ----

> <Gold.Chemscore.Fitness>
8.3903

> <Gold.Chemscore.DG>
-10.0377

> <Gold.Chemscore.ZeroCoef>
-5.4800

> <Gold.Chemscore.Hbond>
1.1532

> <Gold.Chemscore.Metal>
0.0000

> <Gold.Chemscore.Lipo>
55.4570

> <Gold.Chemscore.Internal_Hbond>
0.0000

> <Gold.Chemscore.DEClash>
0.0227

> <Gold.Chemscore.DEInternal>
1.6247

> <Gold.Chemscore.Rot>
2.2588

> <Gold.Chemscore.Internal.Correction>
   9.000000E+99

> <Gold.Chemscore.Hbonds>
donor molecule, donor type, donor heavy atom, donor atom, acceptor molecule, acceptor atom, score
      L1  H    16    28       P1  8028  0.16
      P1  H  7989  7998       L1     3  0.13

> <Gold.Chemscore.Hbond.Weighted>
-3.8517

> <Gold.Chemscore.Metal.Weighted>
-0.0000

> <Gold.Chemscore.Lipo.Weighted>
-6.4885

> <Gold.Chemscore.Internal_Hbond.Weighted>
0.0000

> <Gold.Chemscore.DEClash.Weighted>
0.0227

> <Gold.Chemscore.DEInternal.Weighted>
1.6247

> <Gold.Chemscore.Rot.Weighted>
5.7825

> <Gold.Chemscore.Internal.Correction.Weighted>
   9.000000E+99

> <Gold.Protein.RotatedTorsions>
[ 6907 6896 6895 6894 ] final  -54.36 input  -60.11 | X-H torsion
[ 7974 7965 7964 7962 ] final   87.91 input  175.53 | X-H torsion
[ 8008 7997 7996 7995 ] final   39.45 input   59.86 | X-H torsion
[ 10167 10162 10161 10158 ] final   64.38 input  -65.29 | X-H torsion
[ 10718 10713 10712 10709 ] final  175.53 input   66.30 | X-H torsion
[ 10763 10752 10751 10750 ] final -108.92 input  -60.55 | X-H torsion
[ 11005 11000 10999 10996 ] final  156.84 input  -57.11 | X-H torsion

> <Gold.Protein.ActiveResidues>
 VAL166  LYS551  ARG553  GLY616  TRP617  ASP618  TYR619  PRO620  LYS621  CYS622 
 ASP623  PHE694  ASN695  SER759  ASP760  ASP761  ALA762  ILE779  LEU786  VAL792 
 PHE793  MET794  SER795  GLU796  ALA797  LYS798  CYS799  TRP800  GLU811  SER814 

> <Gold.Protein.RotatedAtoms>
  150.8344  134.7612  159.6880 H   0  0  0  0  0  0  0  0  0  0  0  0  # atno 6907 bound_to 6896
  152.4444  134.5522  159.9880 H   0  0  0  0  0  0  0  0  0  0  0  0  # atno 6908 bound_to 6896
  151.5676  133.3356  159.3019 H   0  0  0  0  0  0  0  0  0  0  0  0  # atno 6909 bound_to 6896
  145.5527  139.2297  143.2504 H   0  0  0  0  0  0  0  0  0  0  0  0  # atno 7974 bound_to 7965
  155.2368  140.3342  155.4297 H   0  0  0  0  0  0  0  0  0  0  0  0  # atno 8008 bound_to 7997
  156.2272  140.1834  156.7378 H   0  0  0  0  0  0  0  0  0  0  0  0  # atno 8009 bound_to 7997
  154.5919  140.0637  156.9235 H   0  0  0  0  0  0  0  0  0  0  0  0  # atno 8010 bound_to 7997
  140.1228  144.4715  150.6910 H   0  0  0  0  0  0  0  0  0  0  0  0  # atno 10167 bound_to 10162
  156.9335  130.9978  151.2982 H   0  0  0  0  0  0  0  0  0  0  0  0  # atno 10718 bound_to 10713
  154.8163  135.4620  154.0653 H   0  0  0  0  0  0  0  0  0  0  0  0  # atno 10763 bound_to 10752
  153.2043  135.6873  153.8198 H   0  0  0  0  0  0  0  0  0  0  0  0  # atno 10764 bound_to 10752
  153.7672  135.3275  155.3323 H   0  0  0  0  0  0  0  0  0  0  0  0  # atno 10765 bound_to 10752
  140.1713  134.8541  157.2693 H   0  0  0  0  0  0  0  0  0  0  0  0  # atno 11005 bound_to 11000
  146.1906  140.6350  142.9147 LP  0  0  0  0  0  0  0  0  0  0  0  0  # atno 17320 bound_to 7965
  144.7521  140.5218  143.6794 LP  0  0  0  0  0  0  0  0  0  0  0  0  # atno 17321 bound_to 7965
  140.6862  143.2351  151.5254 LP  0  0  0  0  0  0  0  0  0  0  0  0  # atno 17342 bound_to 10162
  139.5560  144.2276  152.1612 LP  0  0  0  0  0  0  0  0  0  0  0  0  # atno 17343 bound_to 10162
  157.5831  130.8391  149.8551 LP  0  0  0  0  0  0  0  0  0  0  0  0  # atno 17370 bound_to 10713
  156.0436  130.3733  150.1372 LP  0  0  0  0  0  0  0  0  0  0  0  0  # atno 17371 bound_to 10713
  140.2374  134.3836  155.7495 LP  0  0  0  0  0  0  0  0  0  0  0  0  # atno 17394 bound_to 11000
  141.2217  133.7247  156.8736 LP  0  0  0  0  0  0  0  0  0  0  0  0  # atno 17395 bound_to 11000

$$$$
