AV-unprocessed.smi:2426|AV-procd|sdf|9576|dock7
  -GOLD-   2272013213D 1   1.00000     0.00000
 Structure written by MMmdl.
 36 37  0  0  0  0  0  0  0  0  1 V2000
  153.4831  138.6381  154.2341 C   0  0  0  0  0  0  0  0  0  0  0  0
  152.9975  139.7143  155.0285 O   0  0  0  0  0  0  0  0  0  0  0  0
  151.6441  139.9800  155.0079 C   0  0  0  0  0  0  0  0  0  0  0  0
  150.7711  139.0702  154.3769 C   0  0  0  0  0  0  0  0  0  0  0  0
  149.3925  139.3799  154.3783 C   0  0  0  0  0  0  0  0  0  0  0  0
  148.5484  138.4376  153.7335 N   0  0  0  0  0  0  0  0  0  0  0  0
  147.2133  138.3139  153.8355 C   0  0  0  0  0  0  0  0  0  0  0  0
  146.4827  139.0261  154.5250 O   0  0  0  0  0  0  0  0  0  0  0  0
  146.7625  137.3002  153.0819 N   0  0  0  0  0  0  0  0  0  0  0  0
  145.3661  136.8921  152.9558 C   0  0  2  0  0  0  0  0  0  0  0  0
  144.7814  136.5647  154.3393 C   0  0  0  0  0  0  0  0  0  0  0  0
  145.2770  135.7048  151.9986 C   0  0  0  0  0  0  0  0  0  0  0  0
  143.9705  134.9033  151.8885 C   0  0  0  0  0  0  0  0  0  0  0  0
  144.8150  133.6459  151.6632 C   0  0  0  0  0  0  0  0  0  0  0  0
  145.9716  134.3794  152.3480 C   0  0  0  0  0  0  0  0  0  0  0  0
  148.9554  140.5176  154.9727 N   0  0  0  0  0  0  0  0  0  0  0  0
  149.8620  141.3133  155.5427 C   0  0  0  0  0  0  0  0  0  0  0  0
  151.1788  141.1094  155.5939 N   0  0  0  0  0  0  0  0  0  0  0  0
  154.5629  138.5571  154.3570 H   0  0  0  0  0  0  0  0  0  0  0  0
  153.2824  138.8018  153.1744 H   0  0  0  0  0  0  0  0  0  0  0  0
  153.0431  137.6877  154.5394 H   0  0  0  0  0  0  0  0  0  0  0  0
  151.1498  138.1720  153.9115 H   0  0  0  0  0  0  0  0  0  0  0  0
  149.0149  137.7811  153.1256 H   0  0  0  0  0  0  0  0  0  0  0  0
  147.4360  136.7684  152.5504 H   0  0  0  0  0  0  0  0  0  0  0  0
  144.7946  137.7215  152.5346 H   0  0  0  0  0  0  0  0  0  0  0  0
  143.7341  136.2719  154.2637 H   0  0  0  0  0  0  0  0  0  0  0  0
  144.8311  137.4271  155.0046 H   0  0  0  0  0  0  0  0  0  0  0  0
  145.3224  135.7458  154.8144 H   0  0  0  0  0  0  0  0  0  0  0  0
  145.5881  135.9972  150.9929 H   0  0  0  0  0  0  0  0  0  0  0  0
  143.4115  134.8720  152.8252 H   0  0  0  0  0  0  0  0  0  0  0  0
  143.3330  135.1826  151.0492 H   0  0  0  0  0  0  0  0  0  0  0  0
  144.4618  132.7574  152.1872 H   0  0  0  0  0  0  0  0  0  0  0  0
  145.0058  133.4471  150.6073 H   0  0  0  0  0  0  0  0  0  0  0  0
  146.9453  134.2378  151.8782 H   0  0  0  0  0  0  0  0  0  0  0  0
  146.0117  134.1915  153.4223 H   0  0  0  0  0  0  0  0  0  0  0  0
  149.4916  142.2140  156.0093 H   0  0  0  0  0  0  0  0  0  0  0  0
  1  2  1  0  0  0  0
  1 19  1  0  0  0  0
  1 20  1  0  0  0  0
  1 21  1  0  0  0  0
  2  3  1  0  0  0  0
  3 18  1  0  0  0  0
  3  4  2  0  0  0  0
  4  5  1  0  0  0  0
  4 22  1  0  0  0  0
  5  6  1  0  0  0  0
  5 16  2  0  0  0  0
  6  7  1  0  0  0  0
  6 23  1  0  0  0  0
  7  8  2  0  0  0  0
  7  9  1  0  0  0  0
  9 10  1  0  0  0  0
  9 24  1  0  0  0  0
 10 11  1  0  0  0  0
 10 12  1  0  0  0  0
 10 25  1  0  0  0  0
 11 26  1  0  0  0  0
 11 27  1  0  0  0  0
 11 28  1  0  0  0  0
 12 15  1  0  0  0  0
 12 13  1  0  0  0  0
 12 29  1  0  0  0  0
 13 14  1  0  0  0  0
 13 30  1  0  0  0  0
 13 31  1  0  0  0  0
 14 15  1  0  0  0  0
 14 32  1  0  0  0  0
 14 33  1  0  0  0  0
 15 34  1  0  0  0  0
 15 35  1  0  0  0  0
 16 17  1  0  0  0  0
 17 18  2  0  0  0  0
 17 36  1  0  0  0  0
M  END
> <s_m_source_file>
AV-unprocessed.smi

> <i_m_source_file_index>
2426

> <i_lp_mmshare_version>
43012

> <i_f3d_flags>
0

> <s_epik_input>
W0NIM11PYzFbY0hdYyhuW2NIXW4xKVtOSF1DKD1PKVtOSF1bQ0BIXShbQ0gzXSlbQ0hdMltDSDJdW0NIMl1bQ0gyXTI=

> <s_epik_cmdline>
J2VwaWtfcHl0aG9uJywgJy1waCcsICc3LjAnLCAnLXRuJywgJzgnLCAnLW1hJywgJzIwMCcsICctbWV0YWxfYmluZGluZycsICctaW1hZScsICc8aW5maWxlLm1hZT4nLCAnLW9tYWUnLCAnPG91dGZpbGUubWFlPic=

> <r_lp_tautomer_probability>
1

> <r_epik_Ionization_Penalty>
2.84534e-05

> <r_epik_Ionization_Penalty_Charging>
0

> <r_epik_Ionization_Penalty_Neutral>
2.84534e-05

> <r_epik_State_Penalty>
-0

> <r_epik_Charging_Adjusted_Penalty>
0

> <i_epik_Tot_Q>
0

> <i_epik_Tot_abs_Q>
0

> <r_epik_Metal_State_Penalty>
-0

> <b_epik_Metal_Only>
0

> <s_lp_Force_Field>
OPLS_2005

> <r_lp_Energy>
12.1235

> <b_lp_Chiralities_Consistent>
1

> <s_lp_Variant>
AV-unprocessed.smi:2426-1

> <Gold.Version>
5.8.1

> <Gold.Id.Protein>
6NUR|6NUR_protein|mol2

> <Gold.PLP.Fitness>
43.1261

> <Gold.PLP.PLP>
-31.5457

> <Gold.PLP.part.hbond>
-4.9176

> <Gold.PLP.part.metal>
0.0000

> <Gold.PLP.part.buried>
-0.9995

> <Gold.PLP.part.nonpolar>
-27.1015

> <Gold.PLP.part.repulsive>
0.3921

> <Gold.PLP.ligand.clash>
0.0010

> <Gold.PLP.ligand.torsion>
0.2346

> <Gold.PLP.Chemscore.Hbond>
2.9760

> <Gold.PLP.Chemscore.CHOScore>
1.0000

> <Gold.PLP.Chemscore.Metal>
0.0000

> <Gold.Chemscore.Hbonds>
donor molecule, donor type, donor heavy atom, donor atom, acceptor molecule, acceptor atom, score
      L1  H     6    23       P1  7948  1.00
      L1  H     9    24       P1  7948  1.00
      P1  H  7997  8010       L1     2  0.80
      L1  C    17    36       P1  8028  0.82

> <Gold.PLP.Chemscore.Internal.Correction>
0.1227

> <Gold.Rescore>
     Score         DG    S(hbond)    S(metal)    S(lipo)     H(rot)  DE(clash)    DE(int)     intcor
     13.85     -16.33       2.79        0.00      48.14       1.60       0.05       2.42       ----

> <Gold.Chemscore.Fitness>
13.8511

> <Gold.Chemscore.DG>
-16.3259

> <Gold.Chemscore.ZeroCoef>
-5.4800

> <Gold.Chemscore.Hbond>
2.7850

> <Gold.Chemscore.Metal>
0.0000

> <Gold.Chemscore.Lipo>
48.1417

> <Gold.Chemscore.Internal_Hbond>
0.0000

> <Gold.Chemscore.DEClash>
0.0506

> <Gold.Chemscore.DEInternal>
2.4243

> <Gold.Chemscore.Rot>
1.5971

> <Gold.Chemscore.Internal.Correction>
   9.000000E+99

> <Gold.Chemscore.Hbonds>
donor molecule, donor type, donor heavy atom, donor atom, acceptor molecule, acceptor atom, score
      L1  H     6    23       P1  7948  0.94
      L1  H     9    24       P1  7948  1.00
      P1  H  7997  8010       L1     2  0.48

> <Gold.Chemscore.Hbond.Weighted>
-9.3019

> <Gold.Chemscore.Metal.Weighted>
-0.0000

> <Gold.Chemscore.Lipo.Weighted>
-5.6326

> <Gold.Chemscore.Internal_Hbond.Weighted>
0.0000

> <Gold.Chemscore.DEClash.Weighted>
0.0506

> <Gold.Chemscore.DEInternal.Weighted>
2.4243

> <Gold.Chemscore.Rot.Weighted>
4.0886

> <Gold.Chemscore.Internal.Correction.Weighted>
   9.000000E+99

> <Gold.Protein.RotatedTorsions>
[ 6907 6896 6895 6894 ] final  146.32 input  -60.11 | X-H torsion
[ 7974 7965 7964 7962 ] final -138.22 input  175.53 | X-H torsion
[ 8008 7997 7996 7995 ] final   75.73 input   59.86 | X-H torsion
[ 10167 10162 10161 10158 ] final -148.37 input  -65.29 | X-H torsion
[ 10718 10713 10712 10709 ] final -128.04 input   66.30 | X-H torsion
[ 10763 10752 10751 10750 ] final   20.10 input  -60.55 | X-H torsion
[ 11005 11000 10999 10996 ] final -118.22 input  -57.11 | X-H torsion

> <Gold.Protein.ActiveResidues>
 VAL166  LYS551  ARG553  GLY616  TRP617  ASP618  TYR619  PRO620  LYS621  CYS622 
 ASP623  PHE694  ASN695  SER759  ASP760  ASP761  ALA762  ILE779  LEU786  VAL792 
 PHE793  MET794  SER795  GLU796  ALA797  LYS798  CYS799  TRP800  GLU811  SER814 

> <Gold.Protein.RotatedAtoms>
  152.1694  133.4633  159.4901 H   0  0  0  0  0  0  0  0  0  0  0  0  # atno 6907 bound_to 6896
  150.6917  134.1972  159.4317 H   0  0  0  0  0  0  0  0  0  0  0  0  # atno 6908 bound_to 6896
  151.9878  134.9994  160.0611 H   0  0  0  0  0  0  0  0  0  0  0  0  # atno 6909 bound_to 6896
  144.8776  140.6461  143.5226 H   0  0  0  0  0  0  0  0  0  0  0  0  # atno 7974 bound_to 7965
  155.8171  140.3471  155.5492 H   0  0  0  0  0  0  0  0  0  0  0  0  # atno 8008 bound_to 7997
  155.8380  140.0937  157.1772 H   0  0  0  0  0  0  0  0  0  0  0  0  # atno 8009 bound_to 7997
  154.4004  140.1399  156.3682 H   0  0  0  0  0  0  0  0  0  0  0  0  # atno 8010 bound_to 7997
  139.7538  143.8479  152.2592 H   0  0  0  0  0  0  0  0  0  0  0  0  # atno 10167 bound_to 10162
  156.1913  130.6797  151.0428 H   0  0  0  0  0  0  0  0  0  0  0  0  # atno 10718 bound_to 10713
  153.1106  135.6695  153.9508 H   0  0  0  0  0  0  0  0  0  0  0  0  # atno 10763 bound_to 10752
  153.9053  135.3031  155.3450 H   0  0  0  0  0  0  0  0  0  0  0  0  # atno 10764 bound_to 10752
  154.7525  135.5027  153.9392 H   0  0  0  0  0  0  0  0  0  0  0  0  # atno 10765 bound_to 10752
  141.0301  133.9995  157.3156 H   0  0  0  0  0  0  0  0  0  0  0  0  # atno 11005 bound_to 11000
  145.4013  139.1597  143.4176 LP  0  0  0  0  0  0  0  0  0  0  0  0  # atno 17320 bound_to 7965
  146.2973  140.4110  142.8717 LP  0  0  0  0  0  0  0  0  0  0  0  0  # atno 17321 bound_to 7965
  139.8465  144.7185  150.9267 LP  0  0  0  0  0  0  0  0  0  0  0  0  # atno 17342 bound_to 10162
  140.7800  143.3937  151.1266 LP  0  0  0  0  0  0  0  0  0  0  0  0  # atno 17343 bound_to 10162
  157.6931  131.0803  150.7050 LP  0  0  0  0  0  0  0  0  0  0  0  0  # atno 17370 bound_to 10713
  156.7106  130.4651  149.5548 LP  0  0  0  0  0  0  0  0  0  0  0  0  # atno 17371 bound_to 10713
  139.9202  135.0200  156.8034 LP  0  0  0  0  0  0  0  0  0  0  0  0  # atno 17394 bound_to 11000
  140.6423  133.9807  155.7713 LP  0  0  0  0  0  0  0  0  0  0  0  0  # atno 17395 bound_to 11000

$$$$
