#       Name:                AV-unprocessed.smi:3100
#       Creating user name   scv26
#       Creation time:       Fri Mar 27 17:18:02 2020


#       File generated by GOLD software.
#

@<TRIPOS>MOLECULE
AV-unprocessed.smi:3100
    34    35     1
SMALL
NO_CHARGES


@<TRIPOS>ATOM
      1 ****        -3.2851   1.5358  -0.0716 C.3            1 S1                 0.0000
      2 ****        -2.2199   0.5851  -0.6268 C.3            1 S1                 0.0000
      3 ****        -2.7252  -0.3568  -1.7127 C.3            1 S1                 0.0000
      4 ****        -1.7043  -1.4806  -1.6792 C.3            1 S1                 0.0000
      5 ****        -1.1314  -1.4294  -0.2476 C.3            1 S1                 0.0000
      6 ****         0.3969  -1.2481  -0.2015 C.2            1 S1                 0.0000
      7 ****         1.1087  -1.9248  -0.9443 O.2            1 S1                 0.0000
      8 ****         0.8679  -0.3555   0.6904 N.am           1 S1                 0.0000
      9 ****         2.2154   0.0165   0.9355 C.ar           1 S1                 0.0000
     10 ****         2.4089   0.9995   1.9345 C.ar           1 S1                 0.0000
     11 ****         3.6329   1.4572   2.2802 N.ar           1 S1                 0.0000
     12 ****         4.6844   0.9273   1.6196 C.ar           1 S1                 0.0000
     13 ****         4.5107  -0.0522   0.6215 C.ar           1 S1                 0.0000
     14 ****         3.2845  -0.5052   0.2810 N.ar           1 S1                 0.0000
     15 ****        -1.7821  -0.3191   0.3760 O.3            1 S1                 0.0000
     16 ****        -3.6536   2.2060  -0.8484 H              1 S1                 0.0000
     17 ****        -2.8774   2.1494   0.7320 H              1 S1                 0.0000
     18 ****        -4.1369   0.9856   0.3291 H              1 S1                 0.0000
     19 ****        -1.3625   1.1527  -0.9923 H              1 S1                 0.0000
     20 ****        -3.7092  -0.7461  -1.4477 H              1 S1                 0.0000
     21 ****        -2.8011   0.1218  -2.6896 H              1 S1                 0.0000
     22 ****        -2.1622  -2.4447  -1.9024 H              1 S1                 0.0000
     23 ****        -0.9392  -1.3003  -2.4360 H              1 S1                 0.0000
     24 ****        -1.3884  -2.3343   0.3039 H              1 S1                 0.0000
     25 ****         0.1737   0.1212   1.2480 H              1 S1                 0.0000
     26 ****         1.5708   1.4267   2.4662 H              1 S1                 0.0000
     27 ****         5.6673   1.2855   1.8874 H              1 S1                 0.0000
     28 ****         5.3554  -0.4722   0.0956 H              1 S1                 0.0000
     29 ****         0.6932  -2.5849  -1.5701 LP             1 S1                 0.0000
     30 ****         2.1024  -1.8143  -0.9217 LP             1 S1                 0.0000
     31 ****         3.7534   2.1525   2.9887 LP             1 S1                 0.0000
     32 ****         3.1683  -1.2005  -0.4283 LP             1 S1                 0.0000
     33 ****        -2.5689  -0.6437   0.9010 LP             1 S1                 0.0000
     34 ****        -1.1411   0.1441   0.9880 LP             1 S1                 0.0000
@<TRIPOS>BOND
    1    1    2 1     
    2    1   16 1     
    3    1   17 1     
    4    1   18 1     
    5    2   15 1     
    6    2    3 1     
    7    2   19 1     
    8    3    4 1     
    9    3   20 1     
   10    3   21 1     
   11    4    5 1     
   12    4   22 1     
   13    4   23 1     
   14    5    6 1     
   15    5   15 1     
   16    5   24 1     
   17    6    7 2     
   18    6    8 am    
   19    8    9 1     
   20    8   25 1     
   21    9   14 ar    
   22    9   10 ar    
   23   10   11 ar    
   24   10   26 1     
   25   11   12 ar    
   26   12   13 ar    
   27   12   27 1     
   28   13   14 ar    
   29   13   28 1     
   30    7   29 1     
   31    7   30 1     
   32   11   31 1     
   33   14   32 1     
   34   15   33 1     
   35   15   34 1     
@<TRIPOS>SUBSTRUCTURE
      1 S1             1
@<TRIPOS>SET
LONE_PAIRS      STATIC     ATOMS    <user>   **** ""
6 29 30 31 32 33 34
DONOR_HYDROGENS      STATIC     ATOMS    <user>   **** ""
1 25
ATOM$BLUE        STATIC     ATOMS    COLORGROUP SYSTEM
6 29 30 31 32 33 34
ATOM$RED        STATIC     ATOMS    COLORGROUP SYSTEM
1 25
