AV-unprocessed.smi:765|AV-procd|sdf|3649|dock5
  -GOLD-   22720 1 53D 1   1.00000     0.00000
 Structure written by MMmdl.
 39 40  0  0  0  0  0  0  0  0  1 V2000
  148.0625  141.7011  153.6954 C   0  0  0  0  0  0  0  0  0  0  0  0
  148.9628  140.9720  154.7029 C   0  0  2  0  0  0  0  0  0  0  0  0
  148.1434  140.0470  155.6203 C   0  0  0  0  0  0  0  0  0  0  0  0
  149.0373  139.3299  156.6414 C   0  0  0  0  0  0  0  0  0  0  0  0
  149.8525  140.3410  157.4634 C   0  0  0  0  0  0  0  0  0  0  0  0
  150.7097  141.2670  156.5724 C   0  0  2  0  0  0  0  0  0  0  0  0
  151.7431  140.4662  155.8851 C   0  0  0  0  0  0  0  0  0  0  0  0
  152.5535  139.8392  155.3471 N   0  0  0  0  0  0  0  0  0  0  0  0
  151.3165  142.2687  157.4509 N   0  0  0  0  0  0  0  0  0  0  0  0
  150.6769  143.1304  158.2599 C   0  0  0  0  0  0  0  0  0  0  0  0
  149.4502  143.2076  158.3329 O   0  0  0  0  0  0  0  0  0  0  0  0
  151.5731  144.0237  159.1307 C   0  0  1  0  0  0  0  0  0  0  0  0
  150.8270  145.2378  159.7139 C   0  0  0  0  0  0  0  0  0  0  0  0
  152.1919  143.2338  160.1874 N   0  0  0  0  0  0  0  0  0  0  0  0
  153.0500  142.1563  160.0756 C   0  0  0  0  0  0  0  0  0  0  0  0
  153.3660  141.7522  161.3407 C   0  0  0  0  0  0  0  0  0  0  0  0
  152.6420  142.6507  162.1727 C   0  0  0  0  0  0  0  0  0  0  0  0
  151.9415  143.5346  161.4809 N   0  0  0  0  0  0  0  0  0  0  0  0
  149.7864  141.9684  155.5438 C   0  0  0  0  0  0  0  0  0  0  0  0
  147.3390  142.3416  154.2009 H   0  0  0  0  0  0  0  0  0  0  0  0
  147.5074  140.9922  153.0805 H   0  0  0  0  0  0  0  0  0  0  0  0
  148.6510  142.3281  153.0249 H   0  0  0  0  0  0  0  0  0  0  0  0
  149.6555  140.3529  154.1316 H   0  0  0  0  0  0  0  0  0  0  0  0
  147.3856  140.6283  156.1477 H   0  0  0  0  0  0  0  0  0  0  0  0
  147.6052  139.3095  155.0238 H   0  0  0  0  0  0  0  0  0  0  0  0
  148.4238  138.7214  157.3063 H   0  0  0  0  0  0  0  0  0  0  0  0
  149.7071  138.6411  156.1258 H   0  0  0  0  0  0  0  0  0  0  0  0
  149.1667  140.9384  158.0665 H   0  0  0  0  0  0  0  0  0  0  0  0
  150.4898  139.8058  158.1689 H   0  0  0  0  0  0  0  0  0  0  0  0
  152.3260  142.2895  157.4664 H   0  0  0  0  0  0  0  0  0  0  0  0
  152.3657  144.4088  158.4857 H   0  0  0  0  0  0  0  0  0  0  0  0
  150.3759  145.8404  158.9250 H   0  0  0  0  0  0  0  0  0  0  0  0
  151.5105  145.8828  160.2667 H   0  0  0  0  0  0  0  0  0  0  0  0
  150.0333  144.9363  160.3990 H   0  0  0  0  0  0  0  0  0  0  0  0
  153.3623  141.7738  159.1148 H   0  0  0  0  0  0  0  0  0  0  0  0
  154.0149  140.9384  161.6279 H   0  0  0  0  0  0  0  0  0  0  0  0
  152.6049  142.6871  163.2515 H   0  0  0  0  0  0  0  0  0  0  0  0
  150.3786  142.5942  154.8750 H   0  0  0  0  0  0  0  0  0  0  0  0
  149.1063  142.6442  156.0655 H   0  0  0  0  0  0  0  0  0  0  0  0
  1  2  1  0  0  0  0
  1 20  1  0  0  0  0
  1 21  1  0  0  0  0
  1 22  1  0  0  0  0
  2 19  1  0  0  0  0
  2  3  1  0  0  0  0
  2 23  1  0  0  0  0
  3  4  1  0  0  0  0
  3 24  1  0  0  0  0
  3 25  1  0  0  0  0
  4  5  1  0  0  0  0
  4 26  1  0  0  0  0
  4 27  1  0  0  0  0
  5  6  1  0  0  0  0
  5 28  1  0  0  0  0
  5 29  1  0  0  0  0
  6  7  1  0  0  0  0
  6  9  1  0  0  0  0
  6 19  1  0  0  0  0
  7  8  3  0  0  0  0
  9 10  1  0  0  0  0
  9 30  1  0  0  0  0
 10 11  2  0  0  0  0
 10 12  1  0  0  0  0
 12 13  1  0  0  0  0
 12 14  1  0  0  0  0
 12 31  1  0  0  0  0
 13 32  1  0  0  0  0
 13 33  1  0  0  0  0
 13 34  1  0  0  0  0
 14 18  1  0  0  0  0
 14 15  1  0  0  0  0
 15 16  2  0  0  0  0
 15 35  1  0  0  0  0
 16 17  1  0  0  0  0
 16 36  1  0  0  0  0
 17 18  2  0  0  0  0
 17 37  1  0  0  0  0
 19 38  1  0  0  0  0
 19 39  1  0  0  0  0
M  END
> <s_m_source_file>
AV-unprocessed.smi

> <i_m_source_file_index>
765

> <i_lp_mmshare_version>
43012

> <i_f3d_flags>
0

> <s_epik_input>
W0NIM11bQ0BASF0oW0NIMl0xKVtDSDJdW0NIMl1bQ0gyXVtDQEBdMShDI04pW05IXUMoPU8pW0NASF0oW0NIM10pbjJbY0hdW2NIXVtjSF1uMg==

> <s_epik_cmdline>
J2VwaWtfcHl0aG9uJywgJy1waCcsICc3LjAnLCAnLXRuJywgJzgnLCAnLW1hJywgJzIwMCcsICctbWV0YWxfYmluZGluZycsICctaW1hZScsICc8aW5maWxlLm1hZT4nLCAnLW9tYWUnLCAnPG91dGZpbGUubWFlPic=

> <r_lp_tautomer_probability>
1

> <r_epik_Ionization_Penalty>
2.71142e-05

> <r_epik_Ionization_Penalty_Charging>
0

> <r_epik_Ionization_Penalty_Neutral>
2.71142e-05

> <r_epik_State_Penalty>
-0

> <r_epik_Charging_Adjusted_Penalty>
0

> <i_epik_Tot_Q>
0

> <i_epik_Tot_abs_Q>
0

> <r_epik_Metal_State_Penalty>
-0

> <b_epik_Metal_Only>
0

> <s_lp_Force_Field>
OPLS_2005

> <r_lp_Energy>
10.7608

> <b_lp_Chiralities_Consistent>
1

> <s_lp_Variant>
AV-unprocessed.smi:765-7

> <Gold.Version>
5.8.1

> <Gold.Id.Protein>
6NUR|6NUR_protein|mol2

> <Gold.PLP.Fitness>
44.3439

> <Gold.PLP.PLP>
-41.9668

> <Gold.PLP.part.hbond>
-1.9567

> <Gold.PLP.part.metal>
0.0000

> <Gold.PLP.part.buried>
-3.8909

> <Gold.PLP.part.nonpolar>
-36.1763

> <Gold.PLP.part.repulsive>
0.3747

> <Gold.PLP.ligand.clash>
0.0000

> <Gold.PLP.ligand.torsion>
0.4191

> <Gold.PLP.Chemscore.Hbond>
1.0499

> <Gold.PLP.Chemscore.CHOScore>
0.0000

> <Gold.PLP.Chemscore.Metal>
0.0000

> <Gold.Chemscore.Hbonds>
donor molecule, donor type, donor heavy atom, donor atom, acceptor molecule, acceptor atom, score
      P1  H  7989  7998       L1     8  0.02
      P1  H  7997  8009       L1     8  1.00

> <Gold.PLP.Chemscore.Internal.Correction>
0.0656

> <Gold.Rescore>
     Score         DG    S(hbond)    S(metal)    S(lipo)     H(rot)  DE(clash)    DE(int)     intcor
     13.81     -15.82       0.96        0.00      92.12       1.42       0.32       1.69       ----

> <Gold.Chemscore.Fitness>
13.8119

> <Gold.Chemscore.DG>
-15.8180

> <Gold.Chemscore.ZeroCoef>
-5.4800

> <Gold.Chemscore.Hbond>
0.9553

> <Gold.Chemscore.Metal>
0.0000

> <Gold.Chemscore.Lipo>
92.1219

> <Gold.Chemscore.Internal_Hbond>
0.0000

> <Gold.Chemscore.DEClash>
0.3200

> <Gold.Chemscore.DEInternal>
1.6861

> <Gold.Chemscore.Rot>
1.4183

> <Gold.Chemscore.Internal.Correction>
   9.000000E+99

> <Gold.Chemscore.Hbonds>
donor molecule, donor type, donor heavy atom, donor atom, acceptor molecule, acceptor atom, score
      P1  H  7997  8009       L1     8  0.76

> <Gold.Chemscore.Hbond.Weighted>
-3.1906

> <Gold.Chemscore.Metal.Weighted>
-0.0000

> <Gold.Chemscore.Lipo.Weighted>
-10.7783

> <Gold.Chemscore.Internal_Hbond.Weighted>
0.0000

> <Gold.Chemscore.DEClash.Weighted>
0.3200

> <Gold.Chemscore.DEInternal.Weighted>
1.6861

> <Gold.Chemscore.Rot.Weighted>
3.6309

> <Gold.Chemscore.Internal.Correction.Weighted>
   9.000000E+99

> <Gold.Protein.RotatedTorsions>
[ 6907 6896 6895 6894 ] final -177.44 input  -60.11 | X-H torsion
[ 7974 7965 7964 7962 ] final  171.03 input  175.53 | X-H torsion
[ 8008 7997 7996 7995 ] final -151.87 input   59.86 | X-H torsion
[ 10167 10162 10161 10158 ] final  -99.21 input  -65.29 | X-H torsion
[ 10718 10713 10712 10709 ] final   67.55 input   66.30 | X-H torsion
[ 10763 10752 10751 10750 ] final -149.45 input  -60.55 | X-H torsion
[ 11005 11000 10999 10996 ] final  130.80 input  -57.11 | X-H torsion

> <Gold.Protein.ActiveResidues>
 VAL166  LYS551  ARG553  GLY616  TRP617  ASP618  TYR619  PRO620  LYS621  CYS622 
 ASP623  PHE694  ASN695  SER759  ASP760  ASP761  ALA762  ILE779  LEU786  VAL792 
 PHE793  MET794  SER795  GLU796  ALA797  LYS798  CYS799  TRP800  GLU811  SER814 

> <Gold.Protein.RotatedAtoms>
  151.6211  133.3339  159.3087 H   0  0  0  0  0  0  0  0  0  0  0  0  # atno 6907 bound_to 6896
  150.8105  134.7261  159.6695 H   0  0  0  0  0  0  0  0  0  0  0  0  # atno 6908 bound_to 6896
  152.4202  134.5974  160.0042 H   0  0  0  0  0  0  0  0  0  0  0  0  # atno 6909 bound_to 6896
  144.7306  139.9290  143.6424 H   0  0  0  0  0  0  0  0  0  0  0  0  # atno 7974 bound_to 7965
  155.6463  140.0707  157.2602 H   0  0  0  0  0  0  0  0  0  0  0  0  # atno 8008 bound_to 7997
  154.4172  140.1741  156.1676 H   0  0  0  0  0  0  0  0  0  0  0  0  # atno 8009 bound_to 7997
  155.9814  140.3353  155.6670 H   0  0  0  0  0  0  0  0  0  0  0  0  # atno 8010 bound_to 7997
  140.2648  143.3383  152.0591 H   0  0  0  0  0  0  0  0  0  0  0  0  # atno 10167 bound_to 10162
  157.6237  130.9327  150.0257 H   0  0  0  0  0  0  0  0  0  0  0  0  # atno 10718 bound_to 10713
  154.8176  135.3309  154.7131 H   0  0  0  0  0  0  0  0  0  0  0  0  # atno 10763 bound_to 10752
  153.7769  135.6921  153.4900 H   0  0  0  0  0  0  0  0  0  0  0  0  # atno 10764 bound_to 10752
  153.2006  135.4517  155.0210 H   0  0  0  0  0  0  0  0  0  0  0  0  # atno 10765 bound_to 10752
  139.9693  134.9582  156.9346 H   0  0  0  0  0  0  0  0  0  0  0  0  # atno 11005 bound_to 11000
  146.0872  139.3861  143.0428 LP  0  0  0  0  0  0  0  0  0  0  0  0  # atno 17320 bound_to 7965
  145.7760  140.9876  143.1124 LP  0  0  0  0  0  0  0  0  0  0  0  0  # atno 17321 bound_to 7965
  139.5006  144.6695  151.6277 LP  0  0  0  0  0  0  0  0  0  0  0  0  # atno 17342 bound_to 10162
  140.5937  143.9734  150.6341 LP  0  0  0  0  0  0  0  0  0  0  0  0  # atno 17343 bound_to 10162
  156.1396  130.3642  149.9602 LP  0  0  0  0  0  0  0  0  0  0  0  0  # atno 17370 bound_to 10713
  156.7646  130.9163  151.3642 LP  0  0  0  0  0  0  0  0  0  0  0  0  # atno 17371 bound_to 10713
  140.5328  134.0796  155.7320 LP  0  0  0  0  0  0  0  0  0  0  0  0  # atno 17394 bound_to 11000
  141.1373  133.9200  157.2406 LP  0  0  0  0  0  0  0  0  0  0  0  0  # atno 17395 bound_to 11000

$$$$
