AV-unprocessed.smi:3033|AV-procd|sdf|11575|dock1
  -GOLD-   2272016543D 1   1.00000     0.00000
 Structure written by MMmdl.
 32 33  0  0  0  0  0  0  0  0  2 V2000
  154.5516  140.5949  160.9159 C   0  0  0  0  0  0  0  0  0  0  0  0
  153.7218  141.4865  161.6463 O   0  0  0  0  0  0  0  0  0  0  0  0
  152.9272  142.3609  160.9364 C   0  0  0  0  0  0  0  0  0  0  0  0
  152.5015  143.6231  161.4214 C   0  0  0  0  0  0  0  0  0  0  0  0
  151.6953  144.4569  160.6230 C   0  0  0  0  0  0  0  0  0  0  0  0
  151.3041  144.0429  159.3368 C   0  0  0  0  0  0  0  0  0  0  0  0
  151.7136  142.7877  158.8428 C   0  0  0  0  0  0  0  0  0  0  0  0
  151.2976  142.3505  157.4464 C   0  0  2  0  0  0  0  0  0  0  0  0
  150.4189  143.2873  156.8540 O   0  0  0  0  0  0  0  0  0  0  0  0
  150.6012  140.9734  157.4827 C   0  0  0  0  0  0  0  0  0  0  0  0
  151.5461  139.8706  157.2556 N   0  0  0  0  0  0  0  0  0  0  0  0
  151.9506  139.1232  158.3741 C   0  0  0  0  0  0  0  0  0  0  0  0
  152.8080  138.0892  158.2711 C   0  0  0  0  0  0  0  0  0  0  0  0
  153.2855  137.1858  159.6643 Cl  0  0  0  0  0  0  0  0  0  0  0  0
  153.3200  137.7525  156.9440 C   0  0  0  0  0  0  0  0  0  0  0  0
  154.1074  136.8163  156.8143 O   0  0  0  0  0  0  0  0  0  0  0  0
  152.8922  138.5065  155.8891 N   0  5  0  0  0  0  0  0  0  0  0  0
  152.0174  139.5519  156.0134 C   0  0  0  0  0  0  0  0  0  0  0  0
  151.6381  140.2118  155.0452 O   0  0  0  0  0  0  0  0  0  0  0  0
  152.5242  141.9570  159.6470 C   0  0  0  0  0  0  0  0  0  0  0  0
  155.0981  139.9598  161.6130 H   0  0  0  0  0  0  0  0  0  0  0  0
  155.2856  141.1343  160.3158 H   0  0  0  0  0  0  0  0  0  0  0  0
  153.9637  139.9434  160.2679 H   0  0  0  0  0  0  0  0  0  0  0  0
  152.7814  143.9763  162.4021 H   0  0  0  0  0  0  0  0  0  0  0  0
  151.3781  145.4188  160.9980 H   0  0  0  0  0  0  0  0  0  0  0  0
  150.6914  144.6938  158.7300 H   0  0  0  0  0  0  0  0  0  0  0  0
  152.1925  142.3023  156.8244 H   0  0  0  0  0  0  0  0  0  0  0  0
  150.8242  144.1400  156.8919 H   0  0  0  0  0  0  0  0  0  0  0  0
  150.1348  140.8266  158.4588 H   0  0  0  0  0  0  0  0  0  0  0  0
  149.7718  140.9420  156.7743 H   0  0  0  0  0  0  0  0  0  0  0  0
  151.5189  139.4373  159.3134 H   0  0  0  0  0  0  0  0  0  0  0  0
  152.8479  140.9978  159.2695 H   0  0  0  0  0  0  0  0  0  0  0  0
  1  2  1  0  0  0  0
  1 21  1  0  0  0  0
  1 22  1  0  0  0  0
  1 23  1  0  0  0  0
  2  3  1  0  0  0  0
  3 20  1  0  0  0  0
  3  4  2  0  0  0  0
  4  5  1  0  0  0  0
  4 24  1  0  0  0  0
  5  6  2  0  0  0  0
  5 25  1  0  0  0  0
  6  7  1  0  0  0  0
  6 26  1  0  0  0  0
  7  8  1  0  0  0  0
  7 20  2  0  0  0  0
  8  9  1  0  0  0  0
  8 10  1  0  0  0  0
  8 27  1  0  0  0  0
  9 28  1  0  0  0  0
 10 11  1  0  0  0  0
 10 29  1  0  0  0  0
 10 30  1  0  0  0  0
 11 18  1  0  0  0  0
 11 12  1  0  0  0  0
 12 13  2  0  0  0  0
 12 31  1  0  0  0  0
 13 14  1  0  0  0  0
 13 15  1  0  0  0  0
 15 16  2  0  0  0  0
 15 17  1  0  0  0  0
 17 18  1  0  0  0  0
 18 19  2  0  0  0  0
 20 32  1  0  0  0  0
M  CHG  1  17  -1
M  END
> <s_m_source_file>
AV-unprocessed.smi

> <i_m_source_file_index>
3033

> <i_lp_mmshare_version>
43012

> <i_f3d_flags>
0

> <s_epik_input>
W0NIM11PYzFbY0hdW2NIXVtjSF1jKFtjSF0xKVtDQEhdKFtPSF0pW0NIMl1uMltjSF1jKENsKWMoPU8pW25IXWMyPU8=

> <s_epik_cmdline>
J2VwaWtfcHl0aG9uJywgJy1waCcsICc3LjAnLCAnLXRuJywgJzgnLCAnLW1hJywgJzIwMCcsICctbWV0YWxfYmluZGluZycsICctaW1hZScsICc8aW5maWxlLm1hZT4nLCAnLW9tYWUnLCAnPG91dGZpbGUubWFlPic=

> <r_lp_tautomer_probability>
1

> <r_epik_Ionization_Penalty>
1.7979

> <r_epik_Ionization_Penalty_Charging>
3.23819e-08

> <r_epik_Ionization_Penalty_Neutral>
1.7979

> <r_epik_State_Penalty>
1.91135

> <r_epik_Charging_Adjusted_Penalty>
1.91135

> <i_epik_Tot_Q>
-1

> <i_epik_Tot_abs_Q>
1

> <r_epik_Metal_State_Penalty>
0.014155

> <b_epik_Metal_Only>
0

> <s_lp_Force_Field>
OPLS_2005

> <r_lp_Energy>
24.094

> <b_lp_Chiralities_Consistent>
1

> <s_lp_Variant>
AV-unprocessed.smi:3033-3

> <Gold.Version>
5.8.1

> <Gold.Id.Protein>
6NUR|6NUR_protein|mol2

> <Gold.PLP.Fitness>
44.0467

> <Gold.PLP.PLP>
-40.8432

> <Gold.PLP.part.hbond>
-3.3739

> <Gold.PLP.part.metal>
0.0000

> <Gold.PLP.part.buried>
-7.0070

> <Gold.PLP.part.nonpolar>
-31.1237

> <Gold.PLP.part.repulsive>
0.0453

> <Gold.PLP.ligand.clash>
0.2919

> <Gold.PLP.ligand.torsion>
1.1115

> <Gold.PLP.Chemscore.Hbond>
1.9026

> <Gold.PLP.Chemscore.CHOScore>
0.0000

> <Gold.PLP.Chemscore.Metal>
0.0000

> <Gold.Chemscore.Hbonds>
donor molecule, donor type, donor heavy atom, donor atom, acceptor molecule, acceptor atom, score
      P1  H  7989  7998       L1    19  0.96
      P1  H  7997  8010       L1    17  0.13
      P1  H 10752 10765       L1    16  0.81

> <Gold.PLP.Chemscore.Internal.Correction>
0.0108

> <Gold.Rescore>
     Score         DG    S(hbond)    S(metal)    S(lipo)     H(rot)  DE(clash)    DE(int)     intcor
     16.48     -17.60       1.88        0.00     103.64       2.45       0.01       1.11       ----

> <Gold.Chemscore.Fitness>
16.4772

> <Gold.Chemscore.DG>
-17.6050

> <Gold.Chemscore.ZeroCoef>
-5.4800

> <Gold.Chemscore.Hbond>
1.8769

> <Gold.Chemscore.Metal>
0.0000

> <Gold.Chemscore.Lipo>
103.6401

> <Gold.Chemscore.Internal_Hbond>
0.0000

> <Gold.Chemscore.DEClash>
0.0130

> <Gold.Chemscore.DEInternal>
1.1148

> <Gold.Chemscore.Rot>
2.4491

> <Gold.Chemscore.Internal.Correction>
   9.000000E+99

> <Gold.Chemscore.Hbonds>
donor molecule, donor type, donor heavy atom, donor atom, acceptor molecule, acceptor atom, score
      P1  H  7989  7998       L1    19  0.92
      P1  H 10752 10765       L1    16  0.75

> <Gold.Chemscore.Hbond.Weighted>
-6.2687

> <Gold.Chemscore.Metal.Weighted>
-0.0000

> <Gold.Chemscore.Lipo.Weighted>
-12.1259

> <Gold.Chemscore.Internal_Hbond.Weighted>
0.0000

> <Gold.Chemscore.DEClash.Weighted>
0.0130

> <Gold.Chemscore.DEInternal.Weighted>
1.1148

> <Gold.Chemscore.Rot.Weighted>
6.2696

> <Gold.Chemscore.Internal.Correction.Weighted>
   9.000000E+99

> <Gold.Protein.RotatedTorsions>
[ 6907 6896 6895 6894 ] final  -82.48 input  -60.11 | X-H torsion
[ 7974 7965 7964 7962 ] final   45.00 input  175.53 | X-H torsion
[ 8008 7997 7996 7995 ] final   97.93 input   59.86 | X-H torsion
[ 10167 10162 10161 10158 ] final  164.10 input  -65.29 | X-H torsion
[ 10718 10713 10712 10709 ] final -148.22 input   66.30 | X-H torsion
[ 10763 10752 10751 10750 ] final  -99.84 input  -60.55 | X-H torsion
[ 11005 11000 10999 10996 ] final   86.86 input  -57.11 | X-H torsion

> <Gold.Protein.ActiveResidues>
 VAL166  LYS551  ARG553  GLY616  TRP617  ASP618  TYR619  PRO620  LYS621  CYS622 
 ASP623  PHE694  ASN695  SER759  ASP760  ASP761  ALA762  ILE779  LEU786  VAL792 
 PHE793  MET794  SER795  GLU796  ALA797  LYS798  CYS799  TRP800  GLU811  SER814 

> <Gold.Protein.RotatedAtoms>
  150.6897  134.3658  159.4970 H   0  0  0  0  0  0  0  0  0  0  0  0  # atno 6907 bound_to 6896
  152.1480  134.9008  160.0559 H   0  0  0  0  0  0  0  0  0  0  0  0  # atno 6908 bound_to 6896
  152.0116  133.3829  159.4259 H   0  0  0  0  0  0  0  0  0  0  0  0  # atno 6909 bound_to 6896
  146.0519  139.5012  142.9713 H   0  0  0  0  0  0  0  0  0  0  0  0  # atno 7974 bound_to 7965
  156.0952  140.3251  155.7868 H   0  0  0  0  0  0  0  0  0  0  0  0  # atno 8008 bound_to 7997
  155.4930  140.0563  157.2968 H   0  0  0  0  0  0  0  0  0  0  0  0  # atno 8009 bound_to 7997
  154.4662  140.1990  156.0128 H   0  0  0  0  0  0  0  0  0  0  0  0  # atno 8010 bound_to 7997
  139.4884  144.4269  151.9118 H   0  0  0  0  0  0  0  0  0  0  0  0  # atno 10167 bound_to 10162
  156.4175  130.8012  151.2233 H   0  0  0  0  0  0  0  0  0  0  0  0  # atno 10718 bound_to 10713
  154.7531  135.4957  153.9324 H   0  0  0  0  0  0  0  0  0  0  0  0  # atno 10763 bound_to 10752
  153.1165  135.6722  153.9417 H   0  0  0  0  0  0  0  0  0  0  0  0  # atno 10764 bound_to 10752
  153.9161  135.3093  155.3427 H   0  0  0  0  0  0  0  0  0  0  0  0  # atno 10765 bound_to 10752
  139.8934  134.8383  156.2779 H   0  0  0  0  0  0  0  0  0  0  0  0  # atno 11005 bound_to 11000
  145.6710  141.0216  143.1657 LP  0  0  0  0  0  0  0  0  0  0  0  0  # atno 17320 bound_to 7965
  144.7127  139.8310  143.7409 LP  0  0  0  0  0  0  0  0  0  0  0  0  # atno 17321 bound_to 7965
  140.3716  144.2849  150.5919 LP  0  0  0  0  0  0  0  0  0  0  0  0  # atno 17342 bound_to 10162
  140.5314  143.2242  151.8232 LP  0  0  0  0  0  0  0  0  0  0  0  0  # atno 17343 bound_to 10162
  157.7508  131.0238  150.3851 LP  0  0  0  0  0  0  0  0  0  0  0  0  # atno 17370 bound_to 10713
  156.4162  130.3944  149.6857 LP  0  0  0  0  0  0  0  0  0  0  0  0  # atno 17371 bound_to 10713
  141.0058  133.7124  156.1032 LP  0  0  0  0  0  0  0  0  0  0  0  0  # atno 17394 bound_to 11000
  140.7435  134.4123  157.5551 LP  0  0  0  0  0  0  0  0  0  0  0  0  # atno 17395 bound_to 11000

$$$$
