AV-unprocessed.smi:2490|AV-procd|sdf|9807|dock8
  -GOLD-   2272013443D 1   1.00000     0.00000
 Structure written by MMmdl.
 33 34  0  0  0  0  0  0  0  0  1 V2000
  146.7636  142.7248  154.2385 C   0  0  0  0  0  0  0  0  0  0  0  0
  147.7341  141.9373  154.9828 N   0  0  0  0  0  0  0  0  0  0  0  0
  148.7972  141.3299  154.4351 C   0  0  0  0  0  0  0  0  0  0  0  0
  149.0551  141.3905  153.2320 O   0  0  0  0  0  0  0  0  0  0  0  0
  149.7116  140.5578  155.3966 C   0  0  2  0  0  0  0  0  0  0  0  0
  150.3528  141.4672  156.4693 C   0  0  0  0  0  0  0  0  0  0  0  0
  151.2807  140.7058  157.2956 N   0  0  0  0  0  0  0  0  0  0  0  0
  151.7174  141.3102  158.4591 C   0  0  0  0  0  0  0  0  0  0  0  0
  151.2871  142.5526  158.7102 N   0  0  0  0  0  0  0  0  0  0  0  0
  151.7220  143.1310  159.8504 C   0  0  0  0  0  0  0  0  0  0  0  0
  152.5896  142.4599  160.7366 C   0  0  0  0  0  0  0  0  0  0  0  0
  153.0760  143.1093  162.0143 C   0  0  0  0  0  0  0  0  0  0  0  0
  152.9755  141.1546  160.3660 C   0  0  0  0  0  0  0  0  0  0  0  0
  152.5368  140.5832  159.2238 N   0  0  0  0  0  0  0  0  0  0  0  0
  152.2833  140.0035  156.5070 C   0  0  0  0  0  0  0  0  0  0  0  0
  151.6011  139.1268  155.4447 C   0  0  0  0  0  0  0  0  0  0  0  0
  150.7478  139.9322  154.6381 O   0  0  0  0  0  0  0  0  0  0  0  0
  146.0079  143.1203  154.9171 H   0  0  0  0  0  0  0  0  0  0  0  0
  146.2615  142.1129  153.4880 H   0  0  0  0  0  0  0  0  0  0  0  0
  147.2461  143.5654  153.7382 H   0  0  0  0  0  0  0  0  0  0  0  0
  147.5897  141.8418  155.9778 H   0  0  0  0  0  0  0  0  0  0  0  0
  149.1063  139.7886  155.8798 H   0  0  0  0  0  0  0  0  0  0  0  0
  150.8870  142.2938  155.9981 H   0  0  0  0  0  0  0  0  0  0  0  0
  149.5804  141.9032  157.1049 H   0  0  0  0  0  0  0  0  0  0  0  0
  151.3759  144.1335  160.0547 H   0  0  0  0  0  0  0  0  0  0  0  0
  153.7650  142.4559  162.5504 H   0  0  0  0  0  0  0  0  0  0  0  0
  152.2334  143.3303  162.6699 H   0  0  0  0  0  0  0  0  0  0  0  0
  153.5935  144.0424  161.7908 H   0  0  0  0  0  0  0  0  0  0  0  0
  153.6369  140.5655  160.9845 H   0  0  0  0  0  0  0  0  0  0  0  0
  152.9422  140.7298  156.0292 H   0  0  0  0  0  0  0  0  0  0  0  0
  152.9024  139.3872  157.1601 H   0  0  0  0  0  0  0  0  0  0  0  0
  152.3500  138.6554  154.8084 H   0  0  0  0  0  0  0  0  0  0  0  0
  151.0276  138.3245  155.9117 H   0  0  0  0  0  0  0  0  0  0  0  0
  1  2  1  0  0  0  0
  1 18  1  0  0  0  0
  1 19  1  0  0  0  0
  1 20  1  0  0  0  0
  2  3  1  0  0  0  0
  2 21  1  0  0  0  0
  3  4  2  0  0  0  0
  3  5  1  0  0  0  0
  5 17  1  0  0  0  0
  5  6  1  0  0  0  0
  5 22  1  0  0  0  0
  6  7  1  0  0  0  0
  6 23  1  0  0  0  0
  6 24  1  0  0  0  0
  7  8  1  0  0  0  0
  7 15  1  0  0  0  0
  8 14  1  0  0  0  0
  8  9  2  0  0  0  0
  9 10  1  0  0  0  0
 10 11  2  0  0  0  0
 10 25  1  0  0  0  0
 11 12  1  0  0  0  0
 11 13  1  0  0  0  0
 12 26  1  0  0  0  0
 12 27  1  0  0  0  0
 12 28  1  0  0  0  0
 13 14  2  0  0  0  0
 13 29  1  0  0  0  0
 15 16  1  0  0  0  0
 15 30  1  0  0  0  0
 15 31  1  0  0  0  0
 16 17  1  0  0  0  0
 16 32  1  0  0  0  0
 16 33  1  0  0  0  0
M  END
> <s_m_source_file>
AV-unprocessed.smi

> <i_m_source_file_index>
2490

> <i_lp_mmshare_version>
43012

> <i_f3d_flags>
0

> <s_epik_input>
W0NIM11bTkhdQyg9TylbQ0BASF0xW0NIMl1OKFtDSDJdW0NIMl1PMSljMm5bY0hdYyhbQ0gzXSlbY0hdbjI=

> <s_epik_cmdline>
J2VwaWtfcHl0aG9uJywgJy1waCcsICc3LjAnLCAnLXRuJywgJzgnLCAnLW1hJywgJzIwMCcsICctbWV0YWxfYmluZGluZycsICctaW1hZScsICc8aW5maWxlLm1hZT4nLCAnLW9tYWUnLCAnPG91dGZpbGUubWFlPic=

> <r_lp_tautomer_probability>
1

> <r_epik_Ionization_Penalty>
8.72552e-06

> <r_epik_Ionization_Penalty_Charging>
0

> <r_epik_Ionization_Penalty_Neutral>
8.72552e-06

> <r_epik_State_Penalty>
-0

> <r_epik_Charging_Adjusted_Penalty>
0

> <i_epik_Tot_Q>
0

> <i_epik_Tot_abs_Q>
0

> <r_epik_Metal_State_Penalty>
-0

> <b_epik_Metal_Only>
0

> <s_lp_Force_Field>
OPLS_2005

> <r_lp_Energy>
12.5382

> <b_lp_Chiralities_Consistent>
1

> <s_lp_Variant>
AV-unprocessed.smi:2490-1

> <Gold.Version>
5.8.1

> <Gold.Id.Protein>
6NUR|6NUR_protein|mol2

> <Gold.PLP.Fitness>
36.5305

> <Gold.PLP.PLP>
-30.6880

> <Gold.PLP.part.hbond>
-3.7352

> <Gold.PLP.part.metal>
0.0000

> <Gold.PLP.part.buried>
-3.1656

> <Gold.PLP.part.nonpolar>
-27.4105

> <Gold.PLP.part.repulsive>
4.2301

> <Gold.PLP.ligand.clash>
0.0000

> <Gold.PLP.ligand.torsion>
0.2100

> <Gold.PLP.Chemscore.Hbond>
1.9920

> <Gold.PLP.Chemscore.CHOScore>
0.0000

> <Gold.PLP.Chemscore.Metal>
0.0000

> <Gold.Chemscore.Hbonds>
donor molecule, donor type, donor heavy atom, donor atom, acceptor molecule, acceptor atom, score
      P1  H  7989  7998       L1    17  1.00
      P1  H  8011  8017       L1     4  0.99

> <Gold.PLP.Chemscore.Internal.Correction>
0.2866

> <Gold.Rescore>
     Score         DG    S(hbond)    S(metal)    S(lipo)     H(rot)  DE(clash)    DE(int)     intcor
     14.63     -16.74       1.78        0.00      73.95       1.31       1.89       0.22       ----

> <Gold.Chemscore.Fitness>
14.6270

> <Gold.Chemscore.DG>
-16.7358

> <Gold.Chemscore.ZeroCoef>
-5.4800

> <Gold.Chemscore.Hbond>
1.7828

> <Gold.Chemscore.Metal>
0.0000

> <Gold.Chemscore.Lipo>
73.9493

> <Gold.Chemscore.Internal_Hbond>
0.0000

> <Gold.Chemscore.DEClash>
1.8919

> <Gold.Chemscore.DEInternal>
0.2168

> <Gold.Chemscore.Rot>
1.3089

> <Gold.Chemscore.Internal.Correction>
   9.000000E+99

> <Gold.Chemscore.Hbonds>
donor molecule, donor type, donor heavy atom, donor atom, acceptor molecule, acceptor atom, score
      P1  H  7989  7998       L1    17  0.80
      P1  H  8011  8017       L1     4  0.90

> <Gold.Chemscore.Hbond.Weighted>
-5.9545

> <Gold.Chemscore.Metal.Weighted>
-0.0000

> <Gold.Chemscore.Lipo.Weighted>
-8.6521

> <Gold.Chemscore.Internal_Hbond.Weighted>
0.0000

> <Gold.Chemscore.DEClash.Weighted>
1.8919

> <Gold.Chemscore.DEInternal.Weighted>
0.2168

> <Gold.Chemscore.Rot.Weighted>
3.3509

> <Gold.Chemscore.Internal.Correction.Weighted>
   9.000000E+99

> <Gold.Protein.RotatedTorsions>
[ 6907 6896 6895 6894 ] final   -9.16 input  -60.11 | X-H torsion
[ 7974 7965 7964 7962 ] final -128.30 input  175.53 | X-H torsion
[ 8008 7997 7996 7995 ] final  -92.89 input   59.86 | X-H torsion
[ 10167 10162 10161 10158 ] final  151.65 input  -65.29 | X-H torsion
[ 10718 10713 10712 10709 ] final   19.89 input   66.30 | X-H torsion
[ 10763 10752 10751 10750 ] final  127.99 input  -60.55 | X-H torsion
[ 11005 11000 10999 10996 ] final    5.03 input  -57.11 | X-H torsion

> <Gold.Protein.ActiveResidues>
 VAL166  LYS551  ARG553  GLY616  TRP617  ASP618  TYR619  PRO620  LYS621  CYS622 
 ASP623  PHE694  ASN695  SER759  ASP760  ASP761  ALA762  ILE779  LEU786  VAL792 
 PHE793  MET794  SER795  GLU796  ALA797  LYS798  CYS799  TRP800  GLU811  SER814 

> <Gold.Protein.RotatedAtoms>
  151.4221  135.0999  159.9616 H   0  0  0  0  0  0  0  0  0  0  0  0  # atno 6907 bound_to 6896
  152.4985  133.8697  159.7302 H   0  0  0  0  0  0  0  0  0  0  0  0  # atno 6908 bound_to 6896
  150.9215  133.6817  159.2859 H   0  0  0  0  0  0  0  0  0  0  0  0  # atno 6909 bound_to 6896
  144.9684  140.7520  143.4686 H   0  0  0  0  0  0  0  0  0  0  0  0  # atno 7974 bound_to 7965
  154.7288  140.0504  157.0707 H   0  0  0  0  0  0  0  0  0  0  0  0  # atno 8008 bound_to 7997
  155.0329  140.3160  155.4733 H   0  0  0  0  0  0  0  0  0  0  0  0  # atno 8009 bound_to 7997
  156.2836  140.2146  156.5451 H   0  0  0  0  0  0  0  0  0  0  0  0  # atno 8010 bound_to 7997
  139.4839  144.5423  151.7543 H   0  0  0  0  0  0  0  0  0  0  0  0  # atno 10167 bound_to 10162
  157.1168  130.6532  149.5913 H   0  0  0  0  0  0  0  0  0  0  0  0  # atno 10718 bound_to 10713
  153.7183  135.3257  155.3261 H   0  0  0  0  0  0  0  0  0  0  0  0  # atno 10763 bound_to 10752
  154.8364  135.4493  154.1243 H   0  0  0  0  0  0  0  0  0  0  0  0  # atno 10764 bound_to 10752
  153.2356  135.6965  153.7920 H   0  0  0  0  0  0  0  0  0  0  0  0  # atno 10765 bound_to 10752
  140.5752  134.0064  155.8025 H   0  0  0  0  0  0  0  0  0  0  0  0  # atno 11005 bound_to 11000
  145.2596  139.1998  143.4899 LP  0  0  0  0  0  0  0  0  0  0  0  0  # atno 17320 bound_to 7965
  146.3374  140.2523  142.8599 LP  0  0  0  0  0  0  0  0  0  0  0  0  # atno 17321 bound_to 7965
  140.4965  144.1233  150.5961 LP  0  0  0  0  0  0  0  0  0  0  0  0  # atno 17342 bound_to 10162
  140.4112  143.2656  151.9831 LP  0  0  0  0  0  0  0  0  0  0  0  0  # atno 17343 bound_to 10162
  155.9837  130.4858  150.6948 LP  0  0  0  0  0  0  0  0  0  0  0  0  # atno 17370 bound_to 10713
  157.4511  131.0872  151.0845 LP  0  0  0  0  0  0  0  0  0  0  0  0  # atno 17371 bound_to 10713
  141.1031  133.9737  157.3045 LP  0  0  0  0  0  0  0  0  0  0  0  0  # atno 17394 bound_to 11000
  139.9343  135.0198  156.8503 LP  0  0  0  0  0  0  0  0  0  0  0  0  # atno 17395 bound_to 11000

$$$$
