AV-unprocessed.smi:3124|AV-procd|sdf|11902|dock8
  -GOLD-   2272017283D 1   1.00000     0.00000
 Structure written by MMmdl.
 24 24  0  0  0  0  0  0  0  0  2 V2000
  153.0915  142.6874  162.8187 C   0  0  0  0  0  0  0  0  0  0  0  0
  152.5082  143.2472  161.5659 C   0  0  0  0  0  0  0  0  0  0  0  0
  152.5756  142.8242  160.2682 C   0  0  0  0  0  0  0  0  0  0  0  0
  151.8090  143.7842  159.5439 C   0  0  0  0  0  0  0  0  0  0  0  0
  151.5317  143.8235  158.0651 C   0  0  0  0  0  0  0  0  0  0  0  0
  150.8026  142.5640  157.5580 C   0  0  2  0  0  0  0  0  0  0  0  0
  151.7141  141.3296  157.5875 C   0  0  0  0  0  0  0  0  0  0  0  0
  150.2709  142.7704  156.1980 N   0  3  0  0  0  0  0  0  0  0  0  0
  151.3083  144.7269  160.3290 N   0  0  0  0  0  0  0  0  0  0  0  0
  151.7416  144.3895  161.5580 N   0  0  0  0  0  0  0  0  0  0  0  0
  151.5059  144.9383  162.3731 H   0  0  0  0  0  0  0  0  0  0  0  0
  153.5350  141.7078  162.6386 H   0  0  0  0  0  0  0  0  0  0  0  0
  152.3264  142.5735  163.5869 H   0  0  0  0  0  0  0  0  0  0  0  0
  153.8698  143.3428  163.2100 H   0  0  0  0  0  0  0  0  0  0  0  0
  153.0935  141.9545  159.8916 H   0  0  0  0  0  0  0  0  0  0  0  0
  152.4724  143.9393  157.5245 H   0  0  0  0  0  0  0  0  0  0  0  0
  150.9426  144.7098  157.8250 H   0  0  0  0  0  0  0  0  0  0  0  0
  149.9505  142.3672  158.2099 H   0  0  0  0  0  0  0  0  0  0  0  0
  152.0804  141.1364  158.5963 H   0  0  0  0  0  0  0  0  0  0  0  0
  152.5817  141.4592  156.9394 H   0  0  0  0  0  0  0  0  0  0  0  0
  151.1807  140.4376  157.2571 H   0  0  0  0  0  0  0  0  0  0  0  0
  150.9986  142.5969  155.5198 H   0  0  0  0  0  0  0  0  0  0  0  0
  149.9461  143.7228  156.1067 H   0  0  0  0  0  0  0  0  0  0  0  0
  149.5016  142.1362  156.0365 H   0  0  0  0  0  0  0  0  0  0  0  0
  1 12  1  0  0  0  0
  1 13  1  0  0  0  0
  1 14  1  0  0  0  0
  1  2  1  0  0  0  0
  2 10  1  0  0  0  0
  2  3  2  0  0  0  0
  3  4  1  0  0  0  0
  3 15  1  0  0  0  0
  4  5  1  0  0  0  0
  4  9  2  0  0  0  0
  5  6  1  0  0  0  0
  5 16  1  0  0  0  0
  5 17  1  0  0  0  0
  6  7  1  0  0  0  0
  6  8  1  0  0  0  0
  6 18  1  0  0  0  0
  7 19  1  0  0  0  0
  7 20  1  0  0  0  0
  7 21  1  0  0  0  0
  8 22  1  0  0  0  0
  8 23  1  0  0  0  0
  8 24  1  0  0  0  0
  9 10  1  0  0  0  0
 10 11  1  0  0  0  0
M  CHG  1   8   1
M  END
> <s_m_source_file>
AV-unprocessed.smi

> <i_m_source_file_index>
3124

> <i_lp_mmshare_version>
43012

> <i_f3d_flags>
0

> <s_epik_input>
W0NIM11jMVtjSF1jKFtuSF1uMSlbQ0gyXVtDQEhdKFtDSDNdKVtOSDJd

> <s_epik_cmdline>
J2VwaWtfcHl0aG9uJywgJy1waCcsICc3LjAnLCAnLXRuJywgJzgnLCAnLW1hJywgJzIwMCcsICctbWV0YWxfYmluZGluZycsICctaW1hZScsICc8aW5maWxlLm1hZT4nLCAnLW9tYWUnLCAnPG91dGZpbGUubWFlPic=

> <r_lp_tautomer_probability>
0.5

> <r_epik_Ionization_Penalty>
0.00151643

> <r_epik_Ionization_Penalty_Charging>
0.00146569

> <r_epik_Ionization_Penalty_Neutral>
5.07401e-05

> <r_epik_State_Penalty>
0.379573

> <r_epik_Charging_Adjusted_Penalty>
0.381038

> <i_epik_Tot_Q>
1

> <i_epik_Tot_abs_Q>
1

> <r_epik_Metal_State_Penalty>
0.378341

> <b_epik_Metal_Only>
0

> <s_lp_Force_Field>
OPLS_2005

> <r_lp_Energy>
2.04404

> <b_lp_Chiralities_Consistent>
1

> <s_lp_Variant>
AV-unprocessed.smi:3124-1

> <Gold.Version>
5.8.1

> <Gold.Id.Protein>
6NUR|6NUR_protein|mol2

> <Gold.PLP.Fitness>
34.6316

> <Gold.PLP.PLP>
-28.7679

> <Gold.PLP.part.hbond>
-1.9973

> <Gold.PLP.part.metal>
0.0000

> <Gold.PLP.part.buried>
-5.1320

> <Gold.PLP.part.nonpolar>
-22.4851

> <Gold.PLP.part.repulsive>
0.3126

> <Gold.PLP.ligand.clash>
0.0000

> <Gold.PLP.ligand.torsion>
0.0696

> <Gold.PLP.Chemscore.Hbond>
2.0000

> <Gold.PLP.Chemscore.CHOScore>
0.0000

> <Gold.PLP.Chemscore.Metal>
0.0000

> <Gold.Chemscore.Hbonds>
donor molecule, donor type, donor heavy atom, donor atom, acceptor molecule, acceptor atom, score
      L1  H     8    23       P1  8028  1.92

> <Gold.PLP.Chemscore.Internal.Correction>
0.0030

> <Gold.Rescore>
     Score         DG    S(hbond)    S(metal)    S(lipo)     H(rot)  DE(clash)    DE(int)     intcor
     13.59     -13.65       1.00        0.00      69.71       1.30       0.00       0.05       ----

> <Gold.Chemscore.Fitness>
13.5890

> <Gold.Chemscore.DG>
-13.6467

> <Gold.Chemscore.ZeroCoef>
-5.4800

> <Gold.Chemscore.Hbond>
0.9987

> <Gold.Chemscore.Metal>
0.0000

> <Gold.Chemscore.Lipo>
69.7068

> <Gold.Chemscore.Internal_Hbond>
0.0000

> <Gold.Chemscore.DEClash>
0.0038

> <Gold.Chemscore.DEInternal>
0.0539

> <Gold.Chemscore.Rot>
1.2987

> <Gold.Chemscore.Internal.Correction>
   9.000000E+99

> <Gold.Chemscore.Hbonds>
donor molecule, donor type, donor heavy atom, donor atom, acceptor molecule, acceptor atom, score
      L1  H     8    23       P1  8028  0.87

> <Gold.Chemscore.Hbond.Weighted>
-3.3356

> <Gold.Chemscore.Metal.Weighted>
-0.0000

> <Gold.Chemscore.Lipo.Weighted>
-8.1557

> <Gold.Chemscore.Internal_Hbond.Weighted>
0.0000

> <Gold.Chemscore.DEClash.Weighted>
0.0038

> <Gold.Chemscore.DEInternal.Weighted>
0.0539

> <Gold.Chemscore.Rot.Weighted>
3.3246

> <Gold.Chemscore.Internal.Correction.Weighted>
   9.000000E+99

> <Gold.Protein.RotatedTorsions>
[ 6907 6896 6895 6894 ] final -121.74 input  -60.11 | X-H torsion
[ 7974 7965 7964 7962 ] final   53.18 input  175.53 | X-H torsion
[ 8008 7997 7996 7995 ] final   61.27 input   59.86 | X-H torsion
[ 10167 10162 10161 10158 ] final   21.63 input  -65.29 | X-H torsion
[ 10718 10713 10712 10709 ] final   65.04 input   66.30 | X-H torsion
[ 10763 10752 10751 10750 ] final    9.95 input  -60.55 | X-H torsion
[ 11005 11000 10999 10996 ] final   41.85 input  -57.11 | X-H torsion

> <Gold.Protein.ActiveResidues>
 VAL166  LYS551  ARG553  GLY616  TRP617  ASP618  TYR619  PRO620  LYS621  CYS622 
 ASP623  PHE694  ASN695  SER759  ASP760  ASP761  ALA762  ILE779  LEU786  VAL792 
 PHE793  MET794  SER795  GLU796  ALA797  LYS798  CYS799  TRP800  GLU811  SER814 

> <Gold.Protein.RotatedAtoms>
  150.8511  133.7786  159.3024 H   0  0  0  0  0  0  0  0  0  0  0  0  # atno 6907 bound_to 6896
  151.5457  135.1066  159.9947 H   0  0  0  0  0  0  0  0  0  0  0  0  # atno 6908 bound_to 6896
  152.4553  133.7668  159.6833 H   0  0  0  0  0  0  0  0  0  0  0  0  # atno 6909 bound_to 6896
  145.9737  139.4174  143.0174 H   0  0  0  0  0  0  0  0  0  0  0  0  # atno 7974 bound_to 7965
  155.5957  140.3493  155.4579 H   0  0  0  0  0  0  0  0  0  0  0  0  # atno 8008 bound_to 7997
  156.0267  140.1265  157.0325 H   0  0  0  0  0  0  0  0  0  0  0  0  # atno 8009 bound_to 7997
  154.4336  140.1051  156.6027 H   0  0  0  0  0  0  0  0  0  0  0  0  # atno 8010 bound_to 7997
  140.5411  143.9675  150.6520 H   0  0  0  0  0  0  0  0  0  0  0  0  # atno 10167 bound_to 10162
  157.6079  130.9193  149.9925 H   0  0  0  0  0  0  0  0  0  0  0  0  # atno 10718 bound_to 10713
  153.2085  135.6866  153.8143 H   0  0  0  0  0  0  0  0  0  0  0  0  # atno 10763 bound_to 10752
  153.7384  135.3242  155.3300 H   0  0  0  0  0  0  0  0  0  0  0  0  # atno 10764 bound_to 10752
  154.8209  135.4652  154.0882 H   0  0  0  0  0  0  0  0  0  0  0  0  # atno 10765 bound_to 10752
  140.1795  134.4122  155.8208 H   0  0  0  0  0  0  0  0  0  0  0  0  # atno 11005 bound_to 11000
  145.7869  140.9832  143.1070 LP  0  0  0  0  0  0  0  0  0  0  0  0  # atno 17320 bound_to 7965
  144.6843  139.9634  143.7481 LP  0  0  0  0  0  0  0  0  0  0  0  0  # atno 17321 bound_to 7965
  140.3075  143.3219  152.0911 LP  0  0  0  0  0  0  0  0  0  0  0  0  # atno 17342 bound_to 10162
  139.4989  144.6657  151.6361 LP  0  0  0  0  0  0  0  0  0  0  0  0  # atno 17343 bound_to 10162
  156.1172  130.3647  149.9948 LP  0  0  0  0  0  0  0  0  0  0  0  0  # atno 17370 bound_to 10713
  156.8035  130.9299  151.3645 LP  0  0  0  0  0  0  0  0  0  0  0  0  # atno 17371 bound_to 10713
  141.2222  133.6993  156.7905 LP  0  0  0  0  0  0  0  0  0  0  0  0  # atno 17394 bound_to 11000
  140.2284  134.8704  157.3451 LP  0  0  0  0  0  0  0  0  0  0  0  0  # atno 17395 bound_to 11000

$$$$
