AV-unprocessed.smi:1741|AV-procd|sdf|7017|dock8
  -GOLD-   22720 8233D 1   1.00000     0.00000
 Structure written by MMmdl.
 38 39  0  0  0  0  0  0  0  0  1 V2000
  151.3223  141.2098  157.6320 C   0  0  0  0  0  0  0  0  0  0  0  0
  152.1605  140.2416  156.7894 C   0  0  0  0  0  0  0  0  0  0  0  0
  151.3358  139.4821  155.8704 N   0  0  0  0  0  0  0  0  0  0  0  0
  151.1749  138.1126  155.8025 C   0  0  0  0  0  0  0  0  0  0  0  0
  150.3086  137.8936  154.7691 C   0  0  0  0  0  0  0  0  0  0  0  0
  149.7994  136.6699  154.2657 N   0  0  0  0  0  0  0  0  0  0  0  0
  149.7180  135.4939  154.9092 C   0  0  0  0  0  0  0  0  0  0  0  0
  150.0892  135.2952  156.0661 O   0  0  0  0  0  0  0  0  0  0  0  0
  149.1791  134.5501  154.1243 N   0  0  0  0  0  0  0  0  0  0  0  0
  148.9707  133.1500  154.4873 C   0  0  1  0  0  0  0  0  0  0  0  0
  148.0497  133.0897  155.7160 C   0  0  0  0  0  0  0  0  0  0  0  0
  148.3933  132.3911  153.2762 C   0  0  2  0  0  0  0  0  0  0  0  0
  147.0793  132.9566  152.7352 C   0  0  0  0  0  0  0  0  0  0  0  0
  146.4865  131.7493  152.0465 C   0  0  0  0  0  0  0  0  0  0  0  0
  146.8744  130.6255  153.0020 C   0  0  0  0  0  0  0  0  0  0  0  0
  148.0812  131.0453  153.6335 O   0  0  0  0  0  0  0  0  0  0  0  0
  149.9846  139.1766  154.2569 C   0  0  0  0  0  0  0  0  0  0  0  0
  150.6117  140.1322  154.9260 N   0  0  0  0  0  0  0  0  0  0  0  0
  151.9555  141.7776  158.3139 H   0  0  0  0  0  0  0  0  0  0  0  0
  150.5844  140.6743  158.2300 H   0  0  0  0  0  0  0  0  0  0  0  0
  150.7900  141.9221  157.0010 H   0  0  0  0  0  0  0  0  0  0  0  0
  152.9068  140.7907  156.2138 H   0  0  0  0  0  0  0  0  0  0  0  0
  152.7046  139.5495  157.4339 H   0  0  0  0  0  0  0  0  0  0  0  0
  151.6822  137.4412  156.4796 H   0  0  0  0  0  0  0  0  0  0  0  0
  149.4677  136.6908  153.3124 H   0  0  0  0  0  0  0  0  0  0  0  0
  148.9106  134.8148  153.1880 H   0  0  0  0  0  0  0  0  0  0  0  0
  149.9195  132.6850  154.7609 H   0  0  0  0  0  0  0  0  0  0  0  0
  147.9098  132.0643  156.0581 H   0  0  0  0  0  0  0  0  0  0  0  0
  147.0656  133.5051  155.4965 H   0  0  0  0  0  0  0  0  0  0  0  0
  148.4714  133.6530  156.5491 H   0  0  0  0  0  0  0  0  0  0  0  0
  149.1253  132.3566  152.4672 H   0  0  0  0  0  0  0  0  0  0  0  0
  146.4301  133.2756  153.5519 H   0  0  0  0  0  0  0  0  0  0  0  0
  147.2241  133.8018  152.0617 H   0  0  0  0  0  0  0  0  0  0  0  0
  145.4099  131.8262  151.8924 H   0  0  0  0  0  0  0  0  0  0  0  0
  146.9628  131.6012  151.0764 H   0  0  0  0  0  0  0  0  0  0  0  0
  146.1105  130.4966  153.7697 H   0  0  0  0  0  0  0  0  0  0  0  0
  147.0040  129.6721  152.4895 H   0  0  0  0  0  0  0  0  0  0  0  0
  149.3317  139.4409  153.4382 H   0  0  0  0  0  0  0  0  0  0  0  0
  1  2  1  0  0  0  0
  1 19  1  0  0  0  0
  1 20  1  0  0  0  0
  1 21  1  0  0  0  0
  2  3  1  0  0  0  0
  2 22  1  0  0  0  0
  2 23  1  0  0  0  0
  3 18  1  0  0  0  0
  3  4  1  0  0  0  0
  4  5  2  0  0  0  0
  4 24  1  0  0  0  0
  5  6  1  0  0  0  0
  5 17  1  0  0  0  0
  6  7  1  0  0  0  0
  6 25  1  0  0  0  0
  7  8  2  0  0  0  0
  7  9  1  0  0  0  0
  9 10  1  0  0  0  0
  9 26  1  0  0  0  0
 10 11  1  0  0  0  0
 10 12  1  0  0  0  0
 10 27  1  0  0  0  0
 11 28  1  0  0  0  0
 11 29  1  0  0  0  0
 11 30  1  0  0  0  0
 12 16  1  0  0  0  0
 12 13  1  0  0  0  0
 12 31  1  0  0  0  0
 13 14  1  0  0  0  0
 13 32  1  0  0  0  0
 13 33  1  0  0  0  0
 14 15  1  0  0  0  0
 14 34  1  0  0  0  0
 14 35  1  0  0  0  0
 15 16  1  0  0  0  0
 15 36  1  0  0  0  0
 15 37  1  0  0  0  0
 17 18  2  0  0  0  0
 17 38  1  0  0  0  0
M  END
> <s_m_source_file>
AV-unprocessed.smi

> <i_m_source_file_index>
1741

> <i_lp_mmshare_version>
43012

> <i_f3d_flags>
0

> <s_epik_input>
W0NIM11bQ0gyXW4xW2NIXWMoW2NIXW4xKVtOSF1DKD1PKVtOSF1bQ0BIXShbQ0gzXSlbQ0BASF0yW0NIMl1bQ0gyXVtDSDJdTzI=

> <s_epik_cmdline>
J2VwaWtfcHl0aG9uJywgJy1waCcsICc3LjAnLCAnLXRuJywgJzgnLCAnLW1hJywgJzIwMCcsICctbWV0YWxfYmluZGluZycsICctaW1hZScsICc8aW5maWxlLm1hZT4nLCAnLW9tYWUnLCAnPG91dGZpbGUubWFlPic=

> <r_lp_tautomer_probability>
1

> <r_epik_Ionization_Penalty>
0.000179292

> <r_epik_Ionization_Penalty_Charging>
0

> <r_epik_Ionization_Penalty_Neutral>
0.000179292

> <r_epik_State_Penalty>
-0

> <r_epik_Charging_Adjusted_Penalty>
0

> <i_epik_Tot_Q>
0

> <i_epik_Tot_abs_Q>
0

> <r_epik_Metal_State_Penalty>
-0

> <b_epik_Metal_Only>
0

> <s_lp_Force_Field>
OPLS_2005

> <r_lp_Energy>
22.1754

> <b_lp_Chiralities_Consistent>
1

> <s_lp_Variant>
AV-unprocessed.smi:1741-2

> <Gold.Version>
5.8.1

> <Gold.Id.Protein>
6NUR|6NUR_protein|mol2

> <Gold.PLP.Fitness>
37.8756

> <Gold.PLP.PLP>
-26.6514

> <Gold.PLP.part.hbond>
-3.6197

> <Gold.PLP.part.metal>
0.0000

> <Gold.PLP.part.buried>
-0.6213

> <Gold.PLP.part.nonpolar>
-21.8620

> <Gold.PLP.part.repulsive>
0.2299

> <Gold.PLP.ligand.clash>
0.0000

> <Gold.PLP.ligand.torsion>
0.1279

> <Gold.PLP.Chemscore.Hbond>
2.8208

> <Gold.PLP.Chemscore.CHOScore>
1.0000

> <Gold.PLP.Chemscore.Metal>
0.0000

> <Gold.Chemscore.Hbonds>
donor molecule, donor type, donor heavy atom, donor atom, acceptor molecule, acceptor atom, score
      L1  H     6    25       P1  7948  1.00
      L1  H     9    26       P1  7948  0.82
      P1  H  7989  7998       L1    18  0.95
      L1  C    17    38       P1  7957  1.00

> <Gold.PLP.Chemscore.Internal.Correction>
0.0177

> <Gold.Rescore>
     Score         DG    S(hbond)    S(metal)    S(lipo)     H(rot)  DE(clash)    DE(int)     intcor
     13.38     -14.55       1.77        0.00      57.22       1.38       0.04       1.13       ----

> <Gold.Chemscore.Fitness>
13.3839

> <Gold.Chemscore.DG>
-14.5524

> <Gold.Chemscore.ZeroCoef>
-5.4800

> <Gold.Chemscore.Hbond>
1.7687

> <Gold.Chemscore.Metal>
0.0000

> <Gold.Chemscore.Lipo>
57.2231

> <Gold.Chemscore.Internal_Hbond>
0.0000

> <Gold.Chemscore.DEClash>
0.0425

> <Gold.Chemscore.DEInternal>
1.1260

> <Gold.Chemscore.Rot>
1.3790

> <Gold.Chemscore.Internal.Correction>
   9.000000E+99

> <Gold.Chemscore.Hbonds>
donor molecule, donor type, donor heavy atom, donor atom, acceptor molecule, acceptor atom, score
      L1  H     6    25       P1  7948  0.76
      L1  H     9    26       P1  7948  0.16
      P1  H  7989  7998       L1    18  0.19

> <Gold.Chemscore.Hbond.Weighted>
-5.9074

> <Gold.Chemscore.Metal.Weighted>
-0.0000

> <Gold.Chemscore.Lipo.Weighted>
-6.6951

> <Gold.Chemscore.Internal_Hbond.Weighted>
0.0000

> <Gold.Chemscore.DEClash.Weighted>
0.0425

> <Gold.Chemscore.DEInternal.Weighted>
1.1260

> <Gold.Chemscore.Rot.Weighted>
3.5302

> <Gold.Chemscore.Internal.Correction.Weighted>
   9.000000E+99

> <Gold.Protein.RotatedTorsions>
[ 6907 6896 6895 6894 ] final -161.97 input  -60.11 | X-H torsion
[ 7974 7965 7964 7962 ] final  123.57 input  175.53 | X-H torsion
[ 8008 7997 7996 7995 ] final   85.86 input   59.86 | X-H torsion
[ 10167 10162 10161 10158 ] final    6.49 input  -65.29 | X-H torsion
[ 10718 10713 10712 10709 ] final  138.04 input   66.30 | X-H torsion
[ 10763 10752 10751 10750 ] final  165.04 input  -60.55 | X-H torsion
[ 11005 11000 10999 10996 ] final  135.28 input  -57.11 | X-H torsion

> <Gold.Protein.ActiveResidues>
 VAL166  LYS551  ARG553  GLY616  TRP617  ASP618  TYR619  PRO620  LYS621  CYS622 
 ASP623  PHE694  ASN695  SER759  ASP760  ASP761  ALA762  ILE779  LEU786  VAL792 
 PHE793  MET794  SER795  GLU796  ALA797  LYS798  CYS799  TRP800  GLU811  SER814 

> <Gold.Protein.RotatedAtoms>
  151.3730  133.3848  159.2701 H   0  0  0  0  0  0  0  0  0  0  0  0  # atno 6907 bound_to 6896
  150.9636  134.9022  159.7756 H   0  0  0  0  0  0  0  0  0  0  0  0  # atno 6908 bound_to 6896
  152.5159  134.3689  159.9363 H   0  0  0  0  0  0  0  0  0  0  0  0  # atno 6909 bound_to 6896
  145.0943  139.3564  143.4844 H   0  0  0  0  0  0  0  0  0  0  0  0  # atno 7974 bound_to 7965
  155.9555  140.3397  155.6445 H   0  0  0  0  0  0  0  0  0  0  0  0  # atno 8008 bound_to 7997
  155.6865  140.0744  157.2483 H   0  0  0  0  0  0  0  0  0  0  0  0  # atno 8009 bound_to 7997
  154.4131  140.1665  156.2027 H   0  0  0  0  0  0  0  0  0  0  0  0  # atno 8010 bound_to 7997
  140.6424  143.7741  150.7448 H   0  0  0  0  0  0  0  0  0  0  0  0  # atno 10167 bound_to 10162
  157.4296  131.1047  151.0264 H   0  0  0  0  0  0  0  0  0  0  0  0  # atno 10718 bound_to 10713
  154.3179  135.2756  155.2534 H   0  0  0  0  0  0  0  0  0  0  0  0  # atno 10763 bound_to 10752
  154.4900  135.5836  153.6455 H   0  0  0  0  0  0  0  0  0  0  0  0  # atno 10764 bound_to 10752
  152.9880  135.6132  154.3362 H   0  0  0  0  0  0  0  0  0  0  0  0  # atno 10765 bound_to 10752
  139.9969  134.9493  156.9985 H   0  0  0  0  0  0  0  0  0  0  0  0  # atno 11005 bound_to 11000
  146.3531  140.0792  142.8618 LP  0  0  0  0  0  0  0  0  0  0  0  0  # atno 17320 bound_to 7965
  145.1029  140.9357  143.4702 LP  0  0  0  0  0  0  0  0  0  0  0  0  # atno 17321 bound_to 7965
  140.1376  143.4470  152.2215 LP  0  0  0  0  0  0  0  0  0  0  0  0  # atno 17342 bound_to 10162
  139.5634  144.7420  151.4091 LP  0  0  0  0  0  0  0  0  0  0  0  0  # atno 17343 bound_to 10162
  157.1165  130.6044  149.5494 LP  0  0  0  0  0  0  0  0  0  0  0  0  # atno 17370 bound_to 10713
  155.9909  130.4961  150.7275 LP  0  0  0  0  0  0  0  0  0  0  0  0  # atno 17371 bound_to 10713
  140.4800  134.1299  155.7215 LP  0  0  0  0  0  0  0  0  0  0  0  0  # atno 17394 bound_to 11000
  141.1612  133.8790  157.1843 LP  0  0  0  0  0  0  0  0  0  0  0  0  # atno 17395 bound_to 11000

$$$$
