AV-unprocessed.smi:34|AV-procd|sdf|240|dock8
  -GOLD-   2262015593D 1   1.00000     0.00000
 Structure written by MMmdl.
 54 58  0  0  0  0  0  0  0  0  2 V2000
  152.4518  138.3267  158.8603 O   0  0  0  0  0  0  0  0  0  0  0  0
  152.6640  139.3657  158.2314 C   0  0  0  0  0  0  0  0  0  0  0  0
  152.8860  139.5044  156.8999 N   0  5  0  0  0  0  0  0  0  0  0  0
  151.9011  139.2421  156.0273 C   0  0  0  0  0  0  0  0  0  0  0  0
  151.9063  138.0880  155.3124 N   0  0  0  0  0  0  0  0  0  0  0  0
  150.9257  137.8289  154.4398 C   0  0  0  0  0  0  0  0  0  0  0  0
  149.8623  138.5748  154.1253 N   0  0  0  0  0  0  0  0  0  0  0  0
  149.8510  139.7438  154.8296 C   0  0  0  0  0  0  0  0  0  0  0  0
  150.8292  140.1446  155.7859 C   0  0  0  0  0  0  0  0  0  0  0  0
  150.5214  141.3908  156.3118 N   0  0  0  0  0  0  0  0  0  0  0  0
  149.3944  141.6838  155.6668 C   0  0  0  0  0  0  0  0  0  0  0  0
  148.9277  140.7759  154.7869 N   0  0  0  0  0  0  0  0  0  0  0  0
  147.6943  140.8725  153.9512 C   0  0  1  0  0  0  0  0  0  0  0  0
  146.8597  139.8113  154.2933 O   0  0  0  0  0  0  0  0  0  0  0  0
  145.5145  140.2447  154.1696 C   0  0  1  0  0  0  0  0  0  0  0  0
  144.5658  139.3212  154.9433 C   0  0  0  0  0  0  0  0  0  0  0  0
  143.9161  138.4488  154.0331 O   0  0  0  0  0  0  0  0  0  0  0  0
  144.6360  137.5573  153.3241 C   0  0  0  0  0  0  0  0  0  0  0  0
  145.8269  137.7100  153.0445 O   0  0  0  0  0  0  0  0  0  0  0  0
  143.8406  136.3643  152.9126 C   0  0  0  0  0  0  0  0  0  0  0  0
  144.4589  135.3517  152.1422 C   0  0  0  0  0  0  0  0  0  0  0  0
  143.7341  134.2134  151.7390 C   0  0  0  0  0  0  0  0  0  0  0  0
  142.3817  134.0735  152.1009 C   0  0  0  0  0  0  0  0  0  0  0  0
  141.7548  135.0738  152.8668 C   0  0  0  0  0  0  0  0  0  0  0  0
  142.4782  136.2131  153.2712 C   0  0  0  0  0  0  0  0  0  0  0  0
  145.5645  141.6812  154.6937 C   0  0  1  0  0  0  0  0  0  0  0  0
  145.5048  141.7047  156.0263 F   0  0  0  0  0  0  0  0  0  0  0  0
  146.9310  142.1788  154.2370 C   0  0  2  0  0  0  0  0  0  0  0  0
  146.7868  142.9693  153.0744 O   0  0  0  0  0  0  0  0  0  0  0  0
  152.7645  140.6630  158.9876 C   0  0  0  0  0  0  0  0  0  0  0  0
  153.2886  140.6695  160.3005 C   0  0  0  0  0  0  0  0  0  0  0  0
  153.3691  141.8696  161.0333 C   0  0  0  0  0  0  0  0  0  0  0  0
  152.9159  143.0748  160.4649 C   0  0  0  0  0  0  0  0  0  0  0  0
  152.3785  143.0783  159.1641 C   0  0  0  0  0  0  0  0  0  0  0  0
  152.2991  141.8788  158.4299 C   0  0  0  0  0  0  0  0  0  0  0  0
  151.0056  136.8876  153.9165 H   0  0  0  0  0  0  0  0  0  0  0  0
  148.8754  142.6135  155.8478 H   0  0  0  0  0  0  0  0  0  0  0  0
  148.0358  140.7774  152.9190 H   0  0  0  0  0  0  0  0  0  0  0  0
  145.2464  140.2627  153.1114 H   0  0  0  0  0  0  0  0  0  0  0  0
  145.1144  138.7543  155.6972 H   0  0  0  0  0  0  0  0  0  0  0  0
  143.8106  139.9150  155.4603 H   0  0  0  0  0  0  0  0  0  0  0  0
  145.4962  135.4368  151.8520 H   0  0  0  0  0  0  0  0  0  0  0  0
  144.2169  133.4468  151.1509 H   0  0  0  0  0  0  0  0  0  0  0  0
  141.8260  133.2006  151.7916 H   0  0  0  0  0  0  0  0  0  0  0  0
  140.7166  134.9677  153.1454 H   0  0  0  0  0  0  0  0  0  0  0  0
  141.9667  136.9618  153.8583 H   0  0  0  0  0  0  0  0  0  0  0  0
  144.7333  142.2897  154.3356 H   0  0  0  0  0  0  0  0  0  0  0  0
  147.4253  142.7685  155.0109 H   0  0  0  0  0  0  0  0  0  0  0  0
  146.5173  142.4083  152.3631 H   0  0  0  0  0  0  0  0  0  0  0  0
  153.6391  139.7524  160.7514 H   0  0  0  0  0  0  0  0  0  0  0  0
  153.7781  141.8643  162.0328 H   0  0  0  0  0  0  0  0  0  0  0  0
  152.9766  143.9946  161.0274 H   0  0  0  0  0  0  0  0  0  0  0  0
  152.0245  144.0010  158.7286 H   0  0  0  0  0  0  0  0  0  0  0  0
  151.8746  141.9012  157.4366 H   0  0  0  0  0  0  0  0  0  0  0  0
  1  2  2  0  0  0  0
  2  3  1  0  0  0  0
  2 30  1  0  0  0  0
  3  4  1  0  0  0  0
  4  9  1  0  0  0  0
  4  5  2  0  0  0  0
  5  6  1  0  0  0  0
  6  7  2  0  0  0  0
  6 36  1  0  0  0  0
  7  8  1  0  0  0  0
  8 12  1  0  0  0  0
  8  9  2  0  0  0  0
  9 10  1  0  0  0  0
 10 11  2  0  0  0  0
 11 12  1  0  0  0  0
 11 37  1  0  0  0  0
 12 13  1  0  0  0  0
 13 28  1  0  0  0  0
 13 14  1  0  0  0  0
 13 38  1  0  0  0  0
 14 15  1  0  0  0  0
 15 16  1  0  0  0  0
 15 26  1  0  0  0  0
 15 39  1  0  0  0  0
 16 17  1  0  0  0  0
 16 40  1  0  0  0  0
 16 41  1  0  0  0  0
 17 18  1  0  0  0  0
 18 19  2  0  0  0  0
 18 20  1  0  0  0  0
 20 25  1  0  0  0  0
 20 21  2  0  0  0  0
 21 22  1  0  0  0  0
 21 42  1  0  0  0  0
 22 23  2  0  0  0  0
 22 43  1  0  0  0  0
 23 24  1  0  0  0  0
 23 44  1  0  0  0  0
 24 25  2  0  0  0  0
 24 45  1  0  0  0  0
 25 46  1  0  0  0  0
 26 27  1  0  0  0  0
 26 28  1  0  0  0  0
 26 47  1  0  0  0  0
 28 29  1  0  0  0  0
 28 48  1  0  0  0  0
 29 49  1  0  0  0  0
 30 35  1  0  0  0  0
 30 31  2  0  0  0  0
 31 32  1  0  0  0  0
 31 50  1  0  0  0  0
 32 33  2  0  0  0  0
 32 51  1  0  0  0  0
 33 34  1  0  0  0  0
 33 52  1  0  0  0  0
 34 35  2  0  0  0  0
 34 53  1  0  0  0  0
 35 54  1  0  0  0  0
M  CHG  1   3  -1
M  END
> <s_m_source_file>
AV-unprocessed.smi

> <i_m_source_file_index>
34

> <i_lp_mmshare_version>
43012

> <i_f3d_flags>
0

> <s_epik_input>
W2NIXTFbY0hdW2NIXVtjSF1bY0hdYzFDKD1PKVtOSF1jKG5bY0hdbjIpYyhjMjMpbltjSF1uM1tDQEBIXTRPW0NASF0oW0NAQEhdKEYpW0NASF00W09IXSlbQ0gyXU9DKD1PKWM1W2NIXVtjSF1bY0hdW2NIXVtjSF01

> <s_epik_cmdline>
J2VwaWtfcHl0aG9uJywgJy1waCcsICc3LjAnLCAnLXRuJywgJzgnLCAnLW1hJywgJzIwMCcsICctbWV0YWxfYmluZGluZycsICctaW1hZScsICc8aW5maWxlLm1hZT4nLCAnLW9tYWUnLCAnPG91dGZpbGUubWFlPic=

> <r_lp_tautomer_probability>
1

> <r_epik_Ionization_Penalty>
4.33227

> <r_epik_Ionization_Penalty_Charging>
3.41027

> <r_epik_Ionization_Penalty_Neutral>
0.922001

> <r_epik_State_Penalty>
3.41358

> <r_epik_Charging_Adjusted_Penalty>
6.82385

> <i_epik_Tot_Q>
-1

> <i_epik_Tot_abs_Q>
1

> <r_epik_Metal_State_Penalty>
0.496292

> <b_epik_Metal_Only>
1

> <s_epik_Chemistry_Notes>
This compound has an ester and may undergo hydrolysis at high or low pH. This compound contains an acetal/aminal-like group ( X-CH(R)-Y where X, Y are N, S, or O) that may be acid/base labile, releasing an aldehyde.

> <s_lp_Force_Field>
OPLS_2005

> <r_lp_Energy>
44.0615

> <b_lp_Chiralities_Consistent>
1

> <s_lp_Variant>
AV-unprocessed.smi:34-26

> <Gold.Version>
5.8.1

> <Gold.Id.Protein>
6NUR|6NUR_protein|mol2

> <Gold.PLP.Fitness>
56.1344

> <Gold.PLP.PLP>
-49.0441

> <Gold.PLP.part.hbond>
-0.8826

> <Gold.PLP.part.metal>
0.0000

> <Gold.PLP.part.buried>
-3.3640

> <Gold.PLP.part.nonpolar>
-45.6065

> <Gold.PLP.part.repulsive>
1.2038

> <Gold.PLP.ligand.clash>
0.0000

> <Gold.PLP.ligand.torsion>
2.7449

> <Gold.PLP.Chemscore.Hbond>
2.0000

> <Gold.PLP.Chemscore.CHOScore>
2.0817

> <Gold.PLP.Chemscore.Metal>
0.0000

> <Gold.Chemscore.Hbonds>
donor molecule, donor type, donor heavy atom, donor atom, acceptor molecule, acceptor atom, score
      P1  H  7997  8009       L1     3  2.00
      L1  C     6    36       P1  7948  0.01
      L1  C     6    36       P1  7949  0.85
      L1  C    11    37       P1  8028  1.00

> <Gold.PLP.Chemscore.Internal.Correction>
0.3349

> <Gold.Rescore>
     Score         DG    S(hbond)    S(metal)    S(lipo)     H(rot)  DE(clash)    DE(int)     intcor
      7.09     -13.53       0.86        0.00     103.26       2.69       0.64       5.80       ----

> <Gold.Chemscore.Fitness>
7.0940

> <Gold.Chemscore.DG>
-13.5339

> <Gold.Chemscore.ZeroCoef>
-5.4800

> <Gold.Chemscore.Hbond>
0.8594

> <Gold.Chemscore.Metal>
0.0000

> <Gold.Chemscore.Lipo>
103.2568

> <Gold.Chemscore.Internal_Hbond>
0.0000

> <Gold.Chemscore.DEClash>
0.6355

> <Gold.Chemscore.DEInternal>
5.8044

> <Gold.Chemscore.Rot>
2.6944

> <Gold.Chemscore.Internal.Correction>
   9.000000E+99

> <Gold.Chemscore.Hbonds>
donor molecule, donor type, donor heavy atom, donor atom, acceptor molecule, acceptor atom, score
      P1  H  7997  8009       L1     3  0.90

> <Gold.Chemscore.Hbond.Weighted>
-2.8704

> <Gold.Chemscore.Metal.Weighted>
-0.0000

> <Gold.Chemscore.Lipo.Weighted>
-12.0810

> <Gold.Chemscore.Internal_Hbond.Weighted>
0.0000

> <Gold.Chemscore.DEClash.Weighted>
0.6355

> <Gold.Chemscore.DEInternal.Weighted>
5.8044

> <Gold.Chemscore.Rot.Weighted>
6.8975

> <Gold.Chemscore.Internal.Correction.Weighted>
   9.000000E+99

> <Gold.Protein.RotatedTorsions>
[ 6907 6896 6895 6894 ] final -109.94 input  -60.11 | X-H torsion
[ 7974 7965 7964 7962 ] final   -7.45 input  175.53 | X-H torsion
[ 8008 7997 7996 7995 ] final -158.62 input   59.86 | X-H torsion
[ 10167 10162 10161 10158 ] final   81.02 input  -65.29 | X-H torsion
[ 10718 10713 10712 10709 ] final  140.56 input   66.30 | X-H torsion
[ 10763 10752 10751 10750 ] final  -75.05 input  -60.55 | X-H torsion
[ 11005 11000 10999 10996 ] final -141.46 input  -57.11 | X-H torsion

> <Gold.Protein.ActiveResidues>
 VAL166  LYS551  ARG553  GLY616  TRP617  ASP618  TYR619  PRO620  LYS621  CYS622 
 ASP623  PHE694  ASN695  SER759  ASP760  ASP761  ALA762  ILE779  LEU786  VAL792 
 PHE793  MET794  SER795  GLU796  ALA797  LYS798  CYS799  TRP800  GLU811  SER814 

> <Gold.Protein.RotatedAtoms>
  150.7593  133.9455  159.3469 H   0  0  0  0  0  0  0  0  0  0  0  0  # atno 6907 bound_to 6896
  151.7367  135.0861  160.0318 H   0  0  0  0  0  0  0  0  0  0  0  0  # atno 6908 bound_to 6896
  152.3555  133.6194  159.6012 H   0  0  0  0  0  0  0  0  0  0  0  0  # atno 6909 bound_to 6896
  146.2306  140.2321  142.8340 H   0  0  0  0  0  0  0  0  0  0  0  0  # atno 7974 bound_to 7965
  155.7502  140.0825  157.2204 H   0  0  0  0  0  0  0  0  0  0  0  0  # atno 8008 bound_to 7997
  154.4013  140.1562  156.2771 H   0  0  0  0  0  0  0  0  0  0  0  0  # atno 8009 bound_to 7997
  155.8937  140.3414  155.5978 H   0  0  0  0  0  0  0  0  0  0  0  0  # atno 8010 bound_to 7997
  139.9436  144.6073  150.8228 H   0  0  0  0  0  0  0  0  0  0  0  0  # atno 10167 bound_to 10162
  157.4019  131.1018  151.0542 H   0  0  0  0  0  0  0  0  0  0  0  0  # atno 10718 bound_to 10713
  154.4814  135.5844  153.6392 H   0  0  0  0  0  0  0  0  0  0  0  0  # atno 10763 bound_to 10752
  152.9848  135.6090  154.3242 H   0  0  0  0  0  0  0  0  0  0  0  0  # atno 10764 bound_to 10752
  154.3133  135.2844  155.2534 H   0  0  0  0  0  0  0  0  0  0  0  0  # atno 10765 bound_to 10752
  140.8322  134.2503  157.4851 H   0  0  0  0  0  0  0  0  0  0  0  0  # atno 11005 bound_to 11000
  144.9550  140.8217  143.5548 LP  0  0  0  0  0  0  0  0  0  0  0  0  # atno 17320 bound_to 7965
  145.2285  139.2126  143.5055 LP  0  0  0  0  0  0  0  0  0  0  0  0  # atno 17321 bound_to 7965
  140.7604  143.3150  151.2755 LP  0  0  0  0  0  0  0  0  0  0  0  0  # atno 17342 bound_to 10162
  139.6685  144.0063  152.2738 LP  0  0  0  0  0  0  0  0  0  0  0  0  # atno 17343 bound_to 10162
  157.1538  130.6196  149.5590 LP  0  0  0  0  0  0  0  0  0  0  0  0  # atno 17370 bound_to 10713
  155.9826  130.4840  150.6888 LP  0  0  0  0  0  0  0  0  0  0  0  0  # atno 17371 bound_to 10713
  139.8704  134.9592  156.4324 LP  0  0  0  0  0  0  0  0  0  0  0  0  # atno 17394 bound_to 11000
  140.8986  133.7796  155.9654 LP  0  0  0  0  0  0  0  0  0  0  0  0  # atno 17395 bound_to 11000

$$$$
