AV-unprocessed.smi:2355|AV-procd|sdf|9386|dock3
  -GOLD-   2272013 13D 1   1.00000     0.00000
 Structure written by MMmdl.
 48 49  0  0  0  0  0  0  0  0  1 V2000
  151.9977  144.4786  161.0225 C   0  0  0  0  0  0  0  0  0  0  0  0
  152.3242  143.1015  160.4848 C   0  0  0  0  0  0  0  0  0  0  0  0
  151.7240  142.6281  159.3025 C   0  0  0  0  0  0  0  0  0  0  0  0
  152.0658  141.3374  158.8543 C   0  0  0  0  0  0  0  0  0  0  0  0
  151.4598  140.7647  157.5901 C   0  0  0  0  0  0  0  0  0  0  0  0
  152.9363  140.5379  159.5066 N   0  0  0  0  0  0  0  0  0  0  0  0
  153.5199  140.9824  160.6472 C   0  0  0  0  0  0  0  0  0  0  0  0
  154.4495  140.2205  161.4041 N   0  0  0  0  0  0  0  0  0  0  0  0
  154.5842  138.8833  161.4482 C   0  0  0  0  0  0  0  0  0  0  0  0
  153.8892  138.0763  160.8294 O   0  0  0  0  0  0  0  0  0  0  0  0
  155.5813  138.5212  162.2698 N   0  0  0  0  0  0  0  0  0  0  0  0
  155.9772  137.1431  162.5590 C   0  0  1  0  0  0  0  0  0  0  0  0
  157.2971  137.1551  163.3500 C   0  0  0  0  0  0  0  0  0  0  0  0
  154.8324  136.3499  163.2704 C   0  0  2  0  0  0  0  0  0  0  0  0
  154.4052  137.0882  164.5659 C   0  0  0  0  0  0  0  0  0  0  0  0
  155.1356  134.9165  163.4955 N   0  0  0  0  0  0  0  0  0  0  0  0
  154.2457  134.3067  164.4903 C   0  0  0  0  0  0  0  0  0  0  0  0
  154.5344  132.8128  164.7148 C   0  0  0  0  0  0  0  0  0  0  0  0
  154.4314  132.1164  163.4808 O   0  0  0  0  0  0  0  0  0  0  0  0
  155.3324  132.6232  162.5062 C   0  0  0  0  0  0  0  0  0  0  0  0
  155.0552  134.1175  162.2670 C   0  0  0  0  0  0  0  0  0  0  0  0
  153.2336  142.2659  161.1644 C   0  0  0  0  0  0  0  0  0  0  0  0
  151.5272  145.0976  160.2581 H   0  0  0  0  0  0  0  0  0  0  0  0
  152.9041  144.9840  161.3573 H   0  0  0  0  0  0  0  0  0  0  0  0
  151.3150  144.3996  161.8687 H   0  0  0  0  0  0  0  0  0  0  0  0
  151.0203  143.2378  158.7544 H   0  0  0  0  0  0  0  0  0  0  0  0
  150.8805  141.5166  157.0535 H   0  0  0  0  0  0  0  0  0  0  0  0
  150.7987  139.9321  157.8321 H   0  0  0  0  0  0  0  0  0  0  0  0
  152.2420  140.4003  156.9237 H   0  0  0  0  0  0  0  0  0  0  0  0
  155.0837  140.7554  161.9784 H   0  0  0  0  0  0  0  0  0  0  0  0
  156.1004  139.2493  162.7384 H   0  0  0  0  0  0  0  0  0  0  0  0
  156.1917  136.6980  161.5884 H   0  0  0  0  0  0  0  0  0  0  0  0
  157.6452  136.1422  163.5535 H   0  0  0  0  0  0  0  0  0  0  0  0
  157.1941  137.6702  164.3051 H   0  0  0  0  0  0  0  0  0  0  0  0
  158.0829  137.6609  162.7884 H   0  0  0  0  0  0  0  0  0  0  0  0
  153.9705  136.3917  162.6024 H   0  0  0  0  0  0  0  0  0  0  0  0
  154.2891  138.1611  164.4180 H   0  0  0  0  0  0  0  0  0  0  0  0
  155.1327  136.9447  165.3654 H   0  0  0  0  0  0  0  0  0  0  0  0
  153.4388  136.7411  164.9300 H   0  0  0  0  0  0  0  0  0  0  0  0
  154.3509  134.8021  165.4541 H   0  0  0  0  0  0  0  0  0  0  0  0
  153.2064  134.4312  164.1820 H   0  0  0  0  0  0  0  0  0  0  0  0
  155.5284  132.6705  165.1417 H   0  0  0  0  0  0  0  0  0  0  0  0
  153.8193  132.3912  165.4214 H   0  0  0  0  0  0  0  0  0  0  0  0
  156.3615  132.4698  162.8349 H   0  0  0  0  0  0  0  0  0  0  0  0
  155.2057  132.0625  161.5801 H   0  0  0  0  0  0  0  0  0  0  0  0
  154.0705  134.2355  161.8118 H   0  0  0  0  0  0  0  0  0  0  0  0
  155.7862  134.4577  161.5365 H   0  0  0  0  0  0  0  0  0  0  0  0
  153.7044  142.6081  162.0748 H   0  0  0  0  0  0  0  0  0  0  0  0
  1  2  1  0  0  0  0
  1 23  1  0  0  0  0
  1 24  1  0  0  0  0
  1 25  1  0  0  0  0
  2 22  1  0  0  0  0
  2  3  2  0  0  0  0
  3  4  1  0  0  0  0
  3 26  1  0  0  0  0
  4  5  1  0  0  0  0
  4  6  2  0  0  0  0
  5 27  1  0  0  0  0
  5 28  1  0  0  0  0
  5 29  1  0  0  0  0
  6  7  1  0  0  0  0
  7  8  1  0  0  0  0
  7 22  2  0  0  0  0
  8  9  1  0  0  0  0
  8 30  1  0  0  0  0
  9 10  2  0  0  0  0
  9 11  1  0  0  0  0
 11 12  1  0  0  0  0
 11 31  1  0  0  0  0
 12 13  1  0  0  0  0
 12 14  1  0  0  0  0
 12 32  1  0  0  0  0
 13 33  1  0  0  0  0
 13 34  1  0  0  0  0
 13 35  1  0  0  0  0
 14 15  1  0  0  0  0
 14 16  1  0  0  0  0
 14 36  1  0  0  0  0
 15 37  1  0  0  0  0
 15 38  1  0  0  0  0
 15 39  1  0  0  0  0
 16 21  1  0  0  0  0
 16 17  1  0  0  0  0
 17 18  1  0  0  0  0
 17 40  1  0  0  0  0
 17 41  1  0  0  0  0
 18 19  1  0  0  0  0
 18 42  1  0  0  0  0
 18 43  1  0  0  0  0
 19 20  1  0  0  0  0
 20 21  1  0  0  0  0
 20 44  1  0  0  0  0
 20 45  1  0  0  0  0
 21 46  1  0  0  0  0
 21 47  1  0  0  0  0
 22 48  1  0  0  0  0
M  END
> <s_m_source_file>
AV-unprocessed.smi

> <i_m_source_file_index>
2355

> <i_lp_mmshare_version>
43012

> <i_f3d_flags>
0

> <s_epik_input>
W0NIM11jMVtjSF1jKFtDSDNdKW5jKFtjSF0xKVtOSF1DKD1PKVtOSF1bQ0BIXShbQ0gzXSlbQ0BIXShbQ0gzXSlOMltDSDJdW0NIMl1PW0NIMl1bQ0gyXTI=

> <s_epik_cmdline>
J2VwaWtfcHl0aG9uJywgJy1waCcsICc3LjAnLCAnLXRuJywgJzgnLCAnLW1hJywgJzIwMCcsICctbWV0YWxfYmluZGluZycsICctaW1hZScsICc8aW5maWxlLm1hZT4nLCAnLW9tYWUnLCAnPG91dGZpbGUubWFlPic=

> <r_epik_Ionization_Penalty>
0.266238

> <r_epik_Ionization_Penalty_Charging>
0

> <r_epik_Ionization_Penalty_Neutral>
0.266238

> <r_epik_State_Penalty>
0.257924

> <r_epik_Charging_Adjusted_Penalty>
0.257924

> <i_epik_Tot_Q>
0

> <i_epik_Tot_abs_Q>
0

> <r_epik_Metal_State_Penalty>
0.257904

> <b_epik_Metal_Only>
0

> <s_lp_Force_Field>
OPLS_2005

> <r_lp_Energy>
33.1774

> <b_lp_Chiralities_Consistent>
1

> <s_lp_Variant>
AV-unprocessed.smi:2355-2

> <Gold.Version>
5.8.1

> <Gold.Id.Protein>
6NUR|6NUR_protein|mol2

> <Gold.PLP.Fitness>
38.7680

> <Gold.PLP.PLP>
-39.7568

> <Gold.PLP.part.hbond>
0.0000

> <Gold.PLP.part.metal>
0.0000

> <Gold.PLP.part.buried>
-5.9502

> <Gold.PLP.part.nonpolar>
-33.1129

> <Gold.PLP.part.repulsive>
0.0426

> <Gold.PLP.ligand.clash>
0.0000

> <Gold.PLP.ligand.torsion>
0.5449

> <Gold.PLP.Chemscore.Hbond>
0.0000

> <Gold.PLP.Chemscore.CHOScore>
0.0000

> <Gold.PLP.Chemscore.Metal>
0.0000

> <Gold.PLP.Chemscore.Internal.Correction>
0.1010

> <Gold.Rescore>
     Score         DG    S(hbond)    S(metal)    S(lipo)     H(rot)  DE(clash)    DE(int)     intcor
     12.93     -14.49       0.00        0.00     107.69       1.40       0.02       1.54       ----

> <Gold.Chemscore.Fitness>
12.9285

> <Gold.Chemscore.DG>
-14.4922

> <Gold.Chemscore.ZeroCoef>
-5.4800

> <Gold.Chemscore.Hbond>
0.0000

> <Gold.Chemscore.Metal>
0.0000

> <Gold.Chemscore.Lipo>
107.6921

> <Gold.Chemscore.Internal_Hbond>
0.0000

> <Gold.Chemscore.DEClash>
0.0249

> <Gold.Chemscore.DEInternal>
1.5388

> <Gold.Chemscore.Rot>
1.4015

> <Gold.Chemscore.Internal.Correction>
   9.000000E+99

> <Gold.Chemscore.Hbond.Weighted>
-0.0000

> <Gold.Chemscore.Metal.Weighted>
-0.0000

> <Gold.Chemscore.Lipo.Weighted>
-12.6000

> <Gold.Chemscore.Internal_Hbond.Weighted>
0.0000

> <Gold.Chemscore.DEClash.Weighted>
0.0249

> <Gold.Chemscore.DEInternal.Weighted>
1.5388

> <Gold.Chemscore.Rot.Weighted>
3.5878

> <Gold.Chemscore.Internal.Correction.Weighted>
   9.000000E+99

> <Gold.Protein.RotatedTorsions>
[ 6907 6896 6895 6894 ] final  174.26 input  -60.11 | X-H torsion
[ 7974 7965 7964 7962 ] final -174.00 input  175.53 | X-H torsion
[ 8008 7997 7996 7995 ] final   18.38 input   59.86 | X-H torsion
[ 10167 10162 10161 10158 ] final  -21.88 input  -65.29 | X-H torsion
[ 10718 10713 10712 10709 ] final  -70.04 input   66.30 | X-H torsion
[ 10763 10752 10751 10750 ] final   95.28 input  -60.55 | X-H torsion
[ 11005 11000 10999 10996 ] final  146.39 input  -57.11 | X-H torsion

> <Gold.Protein.ActiveResidues>
 VAL166  LYS551  ARG553  GLY616  TRP617  ASP618  TYR619  PRO620  LYS621  CYS622 
 ASP623  PHE694  ASN695  SER759  ASP760  ASP761  ALA762  ILE779  LEU786  VAL792 
 PHE793  MET794  SER795  GLU796  ALA797  LYS798  CYS799  TRP800  GLU811  SER814 

> <Gold.Protein.RotatedAtoms>
  151.7552  133.3330  159.3402 H   0  0  0  0  0  0  0  0  0  0  0  0  # atno 6907 bound_to 6896
  150.7519  134.6156  159.6118 H   0  0  0  0  0  0  0  0  0  0  0  0  # atno 6908 bound_to 6896
  152.3442  134.7096  160.0306 H   0  0  0  0  0  0  0  0  0  0  0  0  # atno 6909 bound_to 6896
  144.7134  140.1537  143.6382 H   0  0  0  0  0  0  0  0  0  0  0  0  # atno 7974 bound_to 7965
  154.9052  140.3006  155.5296 H   0  0  0  0  0  0  0  0  0  0  0  0  # atno 8008 bound_to 7997
  156.3017  140.2399  156.4020 H   0  0  0  0  0  0  0  0  0  0  0  0  # atno 8009 bound_to 7997
  154.8481  140.0410  157.1575 H   0  0  0  0  0  0  0  0  0  0  0  0  # atno 8010 bound_to 7997
  140.7284  143.4587  151.0411 H   0  0  0  0  0  0  0  0  0  0  0  0  # atno 10167 bound_to 10162
  156.0427  130.4324  150.2236 H   0  0  0  0  0  0  0  0  0  0  0  0  # atno 10718 bound_to 10713
  153.2514  135.4259  155.0801 H   0  0  0  0  0  0  0  0  0  0  0  0  # atno 10763 bound_to 10752
  154.8383  135.3427  154.6508 H   0  0  0  0  0  0  0  0  0  0  0  0  # atno 10764 bound_to 10752
  153.6929  135.7032  153.5141 H   0  0  0  0  0  0  0  0  0  0  0  0  # atno 10765 bound_to 10752
  140.0789  134.9109  157.1468 H   0  0  0  0  0  0  0  0  0  0  0  0  # atno 11005 bound_to 11000
  145.9093  139.2477  143.1447 LP  0  0  0  0  0  0  0  0  0  0  0  0  # atno 17320 bound_to 7965
  145.9732  140.8743  143.0152 LP  0  0  0  0  0  0  0  0  0  0  0  0  # atno 17321 bound_to 7965
  139.8269  143.7743  152.3179 LP  0  0  0  0  0  0  0  0  0  0  0  0  # atno 17342 bound_to 10162
  139.7846  144.7432  151.0041 LP  0  0  0  0  0  0  0  0  0  0  0  0  # atno 17343 bound_to 10162
  157.0329  131.0013  151.3307 LP  0  0  0  0  0  0  0  0  0  0  0  0  # atno 17370 bound_to 10713
  157.5264  130.8031  149.7867 LP  0  0  0  0  0  0  0  0  0  0  0  0  # atno 17371 bound_to 10713
  140.3517  134.2591  155.7197 LP  0  0  0  0  0  0  0  0  0  0  0  0  # atno 17394 bound_to 11000
  141.2039  133.7899  157.0313 LP  0  0  0  0  0  0  0  0  0  0  0  0  # atno 17395 bound_to 11000

$$$$
