AV-unprocessed.smi:1703|AV-procd|sdf|6880|dock7
  -GOLD-   22720 8 83D 1   1.00000     0.00000
 Structure written by MMmdl.
 50 52  0  0  0  0  0  0  0  0  3 V2000
  148.8155  134.4264  154.3251 C   0  0  0  0  0  0  0  0  0  0  0  0
  149.1298  135.2530  155.5847 C   0  0  1  0  0  0  0  0  0  0  0  0
  150.2466  136.2948  155.3741 C   0  0  0  0  0  0  0  0  0  0  0  0
  149.7613  137.4456  154.5721 N   0  3  2  0  0  0  0  0  0  0  0  0
  150.8098  138.4603  154.2970 C   0  0  0  0  0  0  0  0  0  0  0  0
  151.7862  138.6471  155.4794 C   0  0  1  0  0  0  0  0  0  0  0  0
  152.7951  139.5640  155.1077 O   0  0  0  0  0  0  0  0  0  0  0  0
  151.1146  139.1969  156.7534 C   0  0  0  0  0  0  0  0  0  0  0  0
  151.0954  140.6686  156.8049 N   0  0  0  0  0  0  0  0  0  0  0  0
  150.5082  141.5657  155.9598 C   0  0  0  0  0  0  0  0  0  0  0  0
  149.7285  141.2619  154.7228 C   0  0  0  0  0  0  0  0  0  0  0  0
  149.2929  142.4306  154.0637 O   0  0  0  0  0  0  0  0  0  0  0  0
  150.7768  142.8112  156.4421 N   0  3  0  0  0  0  0  0  0  0  0  0
  151.5411  142.7143  157.6048 C   0  0  0  0  0  0  0  0  0  0  0  0
  152.0530  143.7022  158.4403 C   0  0  0  0  0  0  0  0  0  0  0  0
  152.8019  143.2652  159.5521 C   0  0  0  0  0  0  0  0  0  0  0  0
  153.0183  141.8940  159.7974 C   0  0  0  0  0  0  0  0  0  0  0  0
  152.4944  140.9014  158.9430 C   0  0  0  0  0  0  0  0  0  0  0  0
  151.7512  141.3404  157.8462 C   0  0  0  0  0  0  0  0  0  0  0  0
  148.5555  138.0341  155.1983 C   0  0  0  0  0  0  0  0  0  0  0  0
  147.4583  136.9670  155.3594 C   0  0  2  0  0  0  0  0  0  0  0  0
  146.2231  137.5176  156.0805 C   0  0  0  0  0  0  0  0  0  0  0  0
  147.9661  135.8783  156.1261 O   0  0  0  0  0  0  0  0  0  0  0  0
  149.6885  133.8530  154.0124 H   0  0  0  0  0  0  0  0  0  0  0  0
  148.5194  135.0497  153.4820 H   0  0  0  0  0  0  0  0  0  0  0  0
  148.0096  133.7175  154.5170 H   0  0  0  0  0  0  0  0  0  0  0  0
  149.4731  134.5494  156.3436 H   0  0  0  0  0  0  0  0  0  0  0  0
  150.5906  136.6579  156.3438 H   0  0  0  0  0  0  0  0  0  0  0  0
  151.1041  135.8205  154.8977 H   0  0  0  0  0  0  0  0  0  0  0  0
  151.3864  138.1714  153.4166 H   0  0  0  0  0  0  0  0  0  0  0  0
  150.3177  139.3989  154.0398 H   0  0  0  0  0  0  0  0  0  0  0  0
  152.2698  137.7039  155.7280 H   0  0  0  0  0  0  0  0  0  0  0  0
  153.0163  139.4277  154.1994 H   0  0  0  0  0  0  0  0  0  0  0  0
  150.0786  138.8603  156.8043 H   0  0  0  0  0  0  0  0  0  0  0  0
  151.5961  138.8053  157.6488 H   0  0  0  0  0  0  0  0  0  0  0  0
  150.3357  140.6689  154.0391 H   0  0  0  0  0  0  0  0  0  0  0  0
  148.8585  140.6584  154.9830 H   0  0  0  0  0  0  0  0  0  0  0  0
  149.5038  143.1762  154.6057 H   0  0  0  0  0  0  0  0  0  0  0  0
  151.8898  144.7536  158.2534 H   0  0  0  0  0  0  0  0  0  0  0  0
  153.2193  143.9962  160.2297 H   0  0  0  0  0  0  0  0  0  0  0  0
  153.5985  141.5970  160.6592 H   0  0  0  0  0  0  0  0  0  0  0  0
  152.6731  139.8563  159.1460 H   0  0  0  0  0  0  0  0  0  0  0  0
  148.8189  138.4606  156.1679 H   0  0  0  0  0  0  0  0  0  0  0  0
  148.1802  138.8506  154.5798 H   0  0  0  0  0  0  0  0  0  0  0  0
  147.1450  136.6122  154.3774 H   0  0  0  0  0  0  0  0  0  0  0  0
  145.7890  138.3551  155.5335 H   0  0  0  0  0  0  0  0  0  0  0  0
  146.4725  137.8656  157.0834 H   0  0  0  0  0  0  0  0  0  0  0  0
  145.4542  136.7505  156.1762 H   0  0  0  0  0  0  0  0  0  0  0  0
  149.4654  137.0848  153.6765 H   0  0  0  0  0  0  0  0  0  0  0  0
  150.4590  143.6660  156.0032 H   0  0  0  0  0  0  0  0  0  0  0  0
  1  2  1  0  0  0  0
  1 24  1  0  0  0  0
  1 25  1  0  0  0  0
  1 26  1  0  0  0  0
  2 23  1  0  0  0  0
  2  3  1  0  0  0  0
  2 27  1  0  0  0  0
  3  4  1  0  0  0  0
  3 28  1  0  0  0  0
  3 29  1  0  0  0  0
  4  5  1  0  0  0  0
  4 20  1  0  0  0  0
  4 49  1  0  0  0  0
  5  6  1  0  0  0  0
  5 30  1  0  0  0  0
  5 31  1  0  0  0  0
  6  7  1  0  0  0  0
  6  8  1  0  0  0  0
  6 32  1  0  0  0  0
  7 33  1  0  0  0  0
  8  9  1  0  0  0  0
  8 34  1  0  0  0  0
  8 35  1  0  0  0  0
  9 19  1  0  0  0  0
  9 10  1  0  0  0  0
 10 11  1  0  0  0  0
 10 13  2  0  0  0  0
 11 12  1  0  0  0  0
 11 36  1  0  0  0  0
 11 37  1  0  0  0  0
 12 38  1  0  0  0  0
 13 14  1  0  0  0  0
 13 50  1  0  0  0  0
 14 19  2  0  0  0  0
 14 15  1  0  0  0  0
 15 16  2  0  0  0  0
 15 39  1  0  0  0  0
 16 17  1  0  0  0  0
 16 40  1  0  0  0  0
 17 18  2  0  0  0  0
 17 41  1  0  0  0  0
 18 19  1  0  0  0  0
 18 42  1  0  0  0  0
 20 21  1  0  0  0  0
 20 43  1  0  0  0  0
 20 44  1  0  0  0  0
 21 22  1  0  0  0  0
 21 23  1  0  0  0  0
 21 45  1  0  0  0  0
 22 46  1  0  0  0  0
 22 47  1  0  0  0  0
 22 48  1  0  0  0  0
M  CHG  1   4   1
M  CHG  1  13   1
M  END
> <s_m_source_file>
AV-unprocessed.smi

> <i_m_source_file_index>
1703

> <i_lp_mmshare_version>
43012

> <i_f3d_flags>
0

> <s_epik_input>
W0NIM11bQ0BASF0xW0NIMl1OKFtDSDJdW0NASF0oTzEpW0NIM10pW0NIMl1bQ0BIXShbT0hdKVtDSDJdbihjKG4yKVtDSDJdW09IXSljKGMyMylbY0hdW2NIXVtjSF1bY0hdMw==

> <s_epik_cmdline>
J2VwaWtfcHl0aG9uJywgJy1waCcsICc3LjAnLCAnLXRuJywgJzgnLCAnLW1hJywgJzIwMCcsICctbWV0YWxfYmluZGluZycsICctaW1hZScsICc8aW5maWxlLm1hZT4nLCAnLW9tYWUnLCAnPG91dGZpbGUubWFlPic=

> <r_epik_Ionization_Penalty>
2.22579

> <r_epik_Ionization_Penalty_Charging>
2.22492

> <r_epik_Ionization_Penalty_Neutral>
0.000870007

> <r_epik_State_Penalty>
2.3141

> <r_epik_Charging_Adjusted_Penalty>
4.53902

> <i_epik_Tot_Q>
2

> <i_epik_Tot_abs_Q>
2

> <r_epik_Metal_State_Penalty>
6.36517

> <b_epik_Metal_Only>
0

> <s_lp_Force_Field>
OPLS_2005

> <r_lp_Energy>
31.7221

> <b_lp_Chiralities_Consistent>
1

> <s_lp_Variant>
AV-unprocessed.smi:1703-28

> <Gold.Version>
5.8.1

> <Gold.Id.Protein>
6NUR|6NUR_protein|mol2

> <Gold.PLP.Fitness>
63.7200

> <Gold.PLP.PLP>
-46.1069

> <Gold.PLP.part.hbond>
-5.9766

> <Gold.PLP.part.metal>
0.0000

> <Gold.PLP.part.buried>
-4.5033

> <Gold.PLP.part.nonpolar>
-34.7457

> <Gold.PLP.part.repulsive>
0.1545

> <Gold.PLP.ligand.clash>
0.0000

> <Gold.PLP.ligand.torsion>
0.6683

> <Gold.PLP.Chemscore.Hbond>
6.3040

> <Gold.PLP.Chemscore.CHOScore>
0.0000

> <Gold.PLP.Chemscore.Metal>
0.0000

> <Gold.Chemscore.Hbonds>
donor molecule, donor type, donor heavy atom, donor atom, acceptor molecule, acceptor atom, score
      L1  H     4    49       P1  7948  1.95
      L1  H    12    38       P1  8028  0.98
      L1  H    13    50       P1  8028  1.76
      P1  H  7997  8009       L1     7  1.00
      P1  H  8011  8017       L1    12  0.14

> <Gold.PLP.Chemscore.Internal.Correction>
0.0378

> <Gold.Rescore>
     Score         DG    S(hbond)    S(metal)    S(lipo)     H(rot)  DE(clash)    DE(int)     intcor
     21.75     -22.56       3.67        0.00     107.84       3.04       0.18       0.64       ----

> <Gold.Chemscore.Fitness>
21.7493

> <Gold.Chemscore.DG>
-22.5629

> <Gold.Chemscore.ZeroCoef>
-5.4800

> <Gold.Chemscore.Hbond>
3.6655

> <Gold.Chemscore.Metal>
0.0000

> <Gold.Chemscore.Lipo>
107.8351

> <Gold.Chemscore.Internal_Hbond>
0.0000

> <Gold.Chemscore.DEClash>
0.1769

> <Gold.Chemscore.DEInternal>
0.6367

> <Gold.Chemscore.Rot>
3.0378

> <Gold.Chemscore.Internal.Correction>
   9.000000E+99

> <Gold.Chemscore.Hbonds>
donor molecule, donor type, donor heavy atom, donor atom, acceptor molecule, acceptor atom, score
      L1  H     4    49       P1  7948  0.85
      L1  H    12    38       P1  8028  0.91
      L1  H    13    50       P1  8028  0.86
      P1  H  7997  8009       L1     7  0.74
      P1  H  8011  8017       L1    12  0.12

> <Gold.Chemscore.Hbond.Weighted>
-12.2429

> <Gold.Chemscore.Metal.Weighted>
-0.0000

> <Gold.Chemscore.Lipo.Weighted>
-12.6167

> <Gold.Chemscore.Internal_Hbond.Weighted>
0.0000

> <Gold.Chemscore.DEClash.Weighted>
0.1769

> <Gold.Chemscore.DEInternal.Weighted>
0.6367

> <Gold.Chemscore.Rot.Weighted>
7.7767

> <Gold.Chemscore.Internal.Correction.Weighted>
   9.000000E+99

> <Gold.Protein.RotatedTorsions>
[ 6907 6896 6895 6894 ] final  141.39 input  -60.11 | X-H torsion
[ 7974 7965 7964 7962 ] final   25.95 input  175.53 | X-H torsion
[ 8008 7997 7996 7995 ] final -149.71 input   59.86 | X-H torsion
[ 10167 10162 10161 10158 ] final  112.29 input  -65.29 | X-H torsion
[ 10718 10713 10712 10709 ] final  -50.18 input   66.30 | X-H torsion
[ 10763 10752 10751 10750 ] final  -29.90 input  -60.55 | X-H torsion
[ 11005 11000 10999 10996 ] final -168.58 input  -57.11 | X-H torsion

> <Gold.Protein.ActiveResidues>
 VAL166  LYS551  ARG553  GLY616  TRP617  ASP618  TYR619  PRO620  LYS621  CYS622 
 ASP623  PHE694  ASN695  SER759  ASP760  ASP761  ALA762  ILE779  LEU786  VAL792 
 PHE793  MET794  SER795  GLU796  ALA797  LYS798  CYS799  TRP800  GLU811  SER814 

> <Gold.Protein.RotatedAtoms>
  152.2315  133.5062  159.5218 H   0  0  0  0  0  0  0  0  0  0  0  0  # atno 6907 bound_to 6896
  150.7039  134.1210  159.4043 H   0  0  0  0  0  0  0  0  0  0  0  0  # atno 6908 bound_to 6896
  151.9131  135.0330  160.0567 H   0  0  0  0  0  0  0  0  0  0  0  0  # atno 6909 bound_to 6896
  146.1862  139.7395  142.8864 H   0  0  0  0  0  0  0  0  0  0  0  0  # atno 7974 bound_to 7965
  155.6119  140.0672  157.2703 H   0  0  0  0  0  0  0  0  0  0  0  0  # atno 8008 bound_to 7997
  154.4251  140.1800  156.1329 H   0  0  0  0  0  0  0  0  0  0  0  0  # atno 8009 bound_to 7997
  156.0078  140.3330  155.6913 H   0  0  0  0  0  0  0  0  0  0  0  0  # atno 8010 bound_to 7997
  139.6546  144.7129  151.1981 H   0  0  0  0  0  0  0  0  0  0  0  0  # atno 10167 bound_to 10162
  156.1824  130.4151  149.9487 H   0  0  0  0  0  0  0  0  0  0  0  0  # atno 10718 bound_to 10713
  153.7722  135.6911  153.4904 H   0  0  0  0  0  0  0  0  0  0  0  0  # atno 10763 bound_to 10752
  153.1867  135.4486  155.0096 H   0  0  0  0  0  0  0  0  0  0  0  0  # atno 10764 bound_to 10752
  154.8113  135.3379  154.7230 H   0  0  0  0  0  0  0  0  0  0  0  0  # atno 10765 bound_to 10752
  140.5404  134.5528  157.5098 H   0  0  0  0  0  0  0  0  0  0  0  0  # atno 11005 bound_to 11000
  145.3930  141.0375  143.3113 LP  0  0  0  0  0  0  0  0  0  0  0  0  # atno 17320 bound_to 7965
  144.8402  139.5484  143.6903 LP  0  0  0  0  0  0  0  0  0  0  0  0  # atno 17321 bound_to 7965
  140.7553  143.6093  150.8621 LP  0  0  0  0  0  0  0  0  0  0  0  0  # atno 17342 bound_to 10162
  139.9744  143.6020  152.2963 LP  0  0  0  0  0  0  0  0  0  0  0  0  # atno 17343 bound_to 10162
  156.7253  130.9022  151.3621 LP  0  0  0  0  0  0  0  0  0  0  0  0  # atno 17370 bound_to 10713
  157.6877  130.9202  150.0430 LP  0  0  0  0  0  0  0  0  0  0  0  0  # atno 17371 bound_to 10713
  139.9507  134.7622  156.0456 LP  0  0  0  0  0  0  0  0  0  0  0  0  # atno 17394 bound_to 11000
  141.1230  133.6607  156.3264 LP  0  0  0  0  0  0  0  0  0  0  0  0  # atno 17395 bound_to 11000

$$$$
