AV-unprocessed.smi:2033|AV-procd|sdf|8262|dock2
  -GOLD-   2272010533D 1   1.00000     0.00000
 Structure written by MMmdl.
 32 33  0  0  0  0  0  0  0  0  2 V2000
  152.7355  142.8249  161.5248 C   0  0  0  0  0  0  0  0  0  0  0  0
  152.4905  142.0775  160.2591 C   0  0  0  0  0  0  0  0  0  0  0  0
  151.3425  142.1602  159.5822 N   0  0  0  0  0  0  0  0  0  0  0  0
  151.3521  141.3736  158.4392 N   0  0  0  0  0  0  0  0  0  0  0  0
  152.5001  140.7014  158.2729 C   0  0  0  0  0  0  0  0  0  0  0  0
  152.7138  139.8864  157.2270 N   0  5  0  0  0  0  0  0  0  0  0  0
  151.8906  139.9343  156.1548 C   0  0  0  0  0  0  0  0  0  0  0  0
  152.2343  140.0268  154.9739 O   0  0  0  0  0  0  0  0  0  0  0  0
  150.5875  139.8738  156.4701 N   0  0  0  0  0  0  0  0  0  0  0  0
  149.4656  139.9075  155.5274 C   0  0  1  0  0  0  0  0  0  0  0  0
  149.4465  141.3082  154.8730 C   0  0  0  0  0  0  0  0  0  0  0  0
  148.0752  141.7068  154.2998 C   0  0  0  0  0  0  0  0  0  0  0  0
  147.5868  140.8458  153.1248 C   0  0  0  0  0  0  0  0  0  0  0  0
  147.3730  139.3665  153.4883 C   0  0  0  0  0  0  0  0  0  0  0  0
  148.6293  138.6323  153.5589 N   0  0  0  0  0  0  0  0  0  0  0  0
  149.6334  138.8345  154.4256 C   0  0  0  0  0  0  0  0  0  0  0  0
  150.6708  138.1780  154.3358 O   0  0  0  0  0  0  0  0  0  0  0  0
  153.6876  141.0150  159.5385 S   0  0  0  0  0  0  0  0  0  0  0  0
  152.2585  142.3103  162.3590 H   0  0  0  0  0  0  0  0  0  0  0  0
  152.3274  143.8336  161.4532 H   0  0  0  0  0  0  0  0  0  0  0  0
  153.8053  142.8957  161.7218 H   0  0  0  0  0  0  0  0  0  0  0  0
  150.3543  139.8077  157.4496 H   0  0  0  0  0  0  0  0  0  0  0  0
  148.5378  139.7389  156.0769 H   0  0  0  0  0  0  0  0  0  0  0  0
  149.7057  142.0549  155.6251 H   0  0  0  0  0  0  0  0  0  0  0  0
  150.2168  141.3915  154.1040 H   0  0  0  0  0  0  0  0  0  0  0  0
  147.3313  141.6864  155.0972 H   0  0  0  0  0  0  0  0  0  0  0  0
  148.1266  142.7447  153.9698 H   0  0  0  0  0  0  0  0  0  0  0  0
  146.6378  141.2557  152.7773 H   0  0  0  0  0  0  0  0  0  0  0  0
  148.2747  140.9316  152.2826 H   0  0  0  0  0  0  0  0  0  0  0  0
  146.8157  139.2637  154.4203 H   0  0  0  0  0  0  0  0  0  0  0  0
  146.7680  138.8917  152.7155 H   0  0  0  0  0  0  0  0  0  0  0  0
  148.7669  137.9161  152.8608 H   0  0  0  0  0  0  0  0  0  0  0  0
  1  2  1  0  0  0  0
  1 19  1  0  0  0  0
  1 20  1  0  0  0  0
  1 21  1  0  0  0  0
  2 18  1  0  0  0  0
  2  3  2  0  0  0  0
  3  4  1  0  0  0  0
  4  5  2  0  0  0  0
  5  6  1  0  0  0  0
  5 18  1  0  0  0  0
  6  7  1  0  0  0  0
  7  8  2  0  0  0  0
  7  9  1  0  0  0  0
  9 10  1  0  0  0  0
  9 22  1  0  0  0  0
 10 16  1  0  0  0  0
 10 11  1  0  0  0  0
 10 23  1  0  0  0  0
 11 12  1  0  0  0  0
 11 24  1  0  0  0  0
 11 25  1  0  0  0  0
 12 13  1  0  0  0  0
 12 26  1  0  0  0  0
 12 27  1  0  0  0  0
 13 14  1  0  0  0  0
 13 28  1  0  0  0  0
 13 29  1  0  0  0  0
 14 15  1  0  0  0  0
 14 30  1  0  0  0  0
 14 31  1  0  0  0  0
 15 16  1  0  0  0  0
 15 32  1  0  0  0  0
 16 17  2  0  0  0  0
M  CHG  1   6  -1
M  END
> <s_m_source_file>
AV-unprocessed.smi

> <i_m_source_file_index>
2033

> <i_lp_mmshare_version>
43012

> <i_f3d_flags>
0

> <s_epik_input>
W0NIM11jMW5uYyhzMSlbTkhdQyg9TylbTkhdW0NAQEhdMltDSDJdW0NIMl1bQ0gyXVtDSDJdW05IXUMyPU8=

> <s_epik_cmdline>
J2VwaWtfcHl0aG9uJywgJy1waCcsICc3LjAnLCAnLXRuJywgJzgnLCAnLW1hJywgJzIwMCcsICctbWV0YWxfYmluZGluZycsICctaW1hZScsICc8aW5maWxlLm1hZT4nLCAnLW9tYWUnLCAnPG91dGZpbGUubWFlPic=

> <r_lp_tautomer_probability>
1

> <r_epik_Ionization_Penalty>
4.07233

> <r_epik_Ionization_Penalty_Charging>
3.9374

> <r_epik_Ionization_Penalty_Neutral>
0.134927

> <r_epik_State_Penalty>
3.93663

> <r_epik_Charging_Adjusted_Penalty>
7.87404

> <i_epik_Tot_Q>
-1

> <i_epik_Tot_abs_Q>
1

> <r_epik_Metal_State_Penalty>
0.602812

> <b_epik_Metal_Only>
1

> <s_lp_Force_Field>
OPLS_2005

> <r_lp_Energy>
8.77885

> <b_lp_Chiralities_Consistent>
1

> <s_lp_Variant>
AV-unprocessed.smi:2033-4

> <Gold.Version>
5.8.1

> <Gold.Id.Protein>
6NUR|6NUR_protein|mol2

> <Gold.PLP.Fitness>
44.6674

> <Gold.PLP.PLP>
-34.6115

> <Gold.PLP.part.hbond>
-4.6416

> <Gold.PLP.part.metal>
0.0000

> <Gold.PLP.part.buried>
-3.2529

> <Gold.PLP.part.nonpolar>
-26.2938

> <Gold.PLP.part.repulsive>
0.3470

> <Gold.PLP.ligand.clash>
0.0000

> <Gold.PLP.ligand.torsion>
0.5318

> <Gold.PLP.Chemscore.Hbond>
3.7040

> <Gold.PLP.Chemscore.CHOScore>
0.0000

> <Gold.PLP.Chemscore.Metal>
0.0000

> <Gold.Chemscore.Hbonds>
donor molecule, donor type, donor heavy atom, donor atom, acceptor molecule, acceptor atom, score
      L1  H    15    32       P1  7948  1.00
      P1  H  7989  7998       L1     8  0.70
      P1  H  7997  8008       L1     6  2.00

> <Gold.PLP.Chemscore.Internal.Correction>
0.0076

> <Gold.Rescore>
     Score         DG    S(hbond)    S(metal)    S(lipo)     H(rot)  DE(clash)    DE(int)     intcor
     13.02     -18.63       2.55        0.00      61.63       1.00       0.02       5.59       ----

> <Gold.Chemscore.Fitness>
13.0225

> <Gold.Chemscore.DG>
-18.6345

> <Gold.Chemscore.ZeroCoef>
-5.4800

> <Gold.Chemscore.Hbond>
2.5461

> <Gold.Chemscore.Metal>
0.0000

> <Gold.Chemscore.Lipo>
61.6298

> <Gold.Chemscore.Internal_Hbond>
0.0000

> <Gold.Chemscore.DEClash>
0.0186

> <Gold.Chemscore.DEInternal>
5.5935

> <Gold.Chemscore.Rot>
1.0000

> <Gold.Chemscore.Internal.Correction>
   9.000000E+99

> <Gold.Chemscore.Hbonds>
donor molecule, donor type, donor heavy atom, donor atom, acceptor molecule, acceptor atom, score
      L1  H    15    32       P1  7948  0.99
      P1  H  7989  7998       L1     8  0.70
      P1  H  7997  8008       L1     6  0.47

> <Gold.Chemscore.Hbond.Weighted>
-8.5038

> <Gold.Chemscore.Metal.Weighted>
-0.0000

> <Gold.Chemscore.Lipo.Weighted>
-7.2107

> <Gold.Chemscore.Internal_Hbond.Weighted>
0.0000

> <Gold.Chemscore.DEClash.Weighted>
0.0186

> <Gold.Chemscore.DEInternal.Weighted>
5.5935

> <Gold.Chemscore.Rot.Weighted>
2.5600

> <Gold.Chemscore.Internal.Correction.Weighted>
   9.000000E+99

> <Gold.Protein.RotatedTorsions>
[ 6907 6896 6895 6894 ] final  -30.83 input  -60.11 | X-H torsion
[ 7974 7965 7964 7962 ] final   21.07 input  175.53 | X-H torsion
[ 8008 7997 7996 7995 ] final  -69.69 input   59.86 | X-H torsion
[ 10167 10162 10161 10158 ] final  167.67 input  -65.29 | X-H torsion
[ 10718 10713 10712 10709 ] final  125.42 input   66.30 | X-H torsion
[ 10763 10752 10751 10750 ] final  -30.86 input  -60.55 | X-H torsion
[ 11005 11000 10999 10996 ] final    9.00 input  -57.11 | X-H torsion

> <Gold.Protein.ActiveResidues>
 VAL166  LYS551  ARG553  GLY616  TRP617  ASP618  TYR619  PRO620  LYS621  CYS622 
 ASP623  PHE694  ASN695  SER759  ASP760  ASP761  ALA762  ILE779  LEU786  VAL792 
 PHE793  MET794  SER795  GLU796  ALA797  LYS798  CYS799  TRP800  GLU811  SER814 

> <Gold.Protein.RotatedAtoms>
  151.1002  134.9968  159.8444 H   0  0  0  0  0  0  0  0  0  0  0  0  # atno 6907 bound_to 6896
  152.5436  134.1959  159.8702 H   0  0  0  0  0  0  0  0  0  0  0  0  # atno 6908 bound_to 6896
  151.2001  133.4571  159.2629 H   0  0  0  0  0  0  0  0  0  0  0  0  # atno 6909 bound_to 6896
  146.2086  139.8079  142.8706 H   0  0  0  0  0  0  0  0  0  0  0  0  # atno 7974 bound_to 7965
  154.4957  140.0848  156.7691 H   0  0  0  0  0  0  0  0  0  0  0  0  # atno 8008 bound_to 7997
  155.4123  140.3442  155.4246 H   0  0  0  0  0  0  0  0  0  0  0  0  # atno 8009 bound_to 7997
  156.1390  140.1524  156.8937 H   0  0  0  0  0  0  0  0  0  0  0  0  # atno 8010 bound_to 7997
  139.4950  144.3896  151.9532 H   0  0  0  0  0  0  0  0  0  0  0  0  # atno 10167 bound_to 10162
  157.5504  131.1094  150.8711 H   0  0  0  0  0  0  0  0  0  0  0  0  # atno 10718 bound_to 10713
  153.7879  135.6900  153.4877 H   0  0  0  0  0  0  0  0  0  0  0  0  # atno 10763 bound_to 10752
  153.1769  135.4521  154.9975 H   0  0  0  0  0  0  0  0  0  0  0  0  # atno 10764 bound_to 10752
  154.8056  135.3355  154.7377 H   0  0  0  0  0  0  0  0  0  0  0  0  # atno 10765 bound_to 10752
  140.5306  134.0470  155.7872 H   0  0  0  0  0  0  0  0  0  0  0  0  # atno 11005 bound_to 11000
  145.3227  141.0248  143.3491 LP  0  0  0  0  0  0  0  0  0  0  0  0  # atno 17320 bound_to 7965
  144.8855  139.4845  143.6703 LP  0  0  0  0  0  0  0  0  0  0  0  0  # atno 17321 bound_to 7965
  140.3334  144.3290  150.5982 LP  0  0  0  0  0  0  0  0  0  0  0  0  # atno 17342 bound_to 10162
  140.5626  143.2190  151.7738 LP  0  0  0  0  0  0  0  0  0  0  0  0  # atno 17343 bound_to 10162
  156.9237  130.5324  149.5279 LP  0  0  0  0  0  0  0  0  0  0  0  0  # atno 17370 bound_to 10713
  156.0572  130.5631  150.9117 LP  0  0  0  0  0  0  0  0  0  0  0  0  # atno 17371 bound_to 10713
  141.1283  133.9345  157.2589 LP  0  0  0  0  0  0  0  0  0  0  0  0  # atno 17394 bound_to 11000
  139.9556  135.0166  156.9118 LP  0  0  0  0  0  0  0  0  0  0  0  0  # atno 17395 bound_to 11000

$$$$
