#       Name:                AV-unprocessed.smi:3287
#       Creating user name   scv26
#       Creation time:       Fri Mar 27 18:52:06 2020


#       File generated by GOLD software.
#

@<TRIPOS>MOLECULE
AV-unprocessed.smi:3287
    46    47     1
SMALL
NO_CHARGES


@<TRIPOS>ATOM
      1 ****        -4.4774   0.0934  -0.8136 C.3            1 S1                 0.0000
      2 ****        -3.3026   0.9995  -0.4042 C.3            1 S1                 0.0000
      3 ****        -2.1328   0.8153  -1.3920 C.3            1 S1                 0.0000
      4 ****        -0.9333   1.7074  -1.0392 C.3            1 S1                 0.0000
      5 ****        -0.4429   1.4661   0.4018 C.3            1 S1                 0.0000
      6 ****         0.1832   0.1343   0.5709 N.4            1 S1                 1.0000
      7 ****         1.5336  -0.0162  -0.0128 C.3            1 S1                 0.0000
      8 ****         2.1027  -1.4208   0.2519 C.3            1 S1                 0.0000
      9 ****         1.2698  -2.3741  -0.3797 O.3            1 S1                 0.0000
     10 ****         3.5432  -1.5285  -0.2225 C.ar           1 S1                 0.0000
     11 ****         3.8537  -1.6658  -1.5930 C.ar           1 S1                 0.0000
     12 ****         5.2082  -1.7559  -1.9715 C.ar           1 S1                 0.0000
     13 ****         6.2287  -1.7153  -1.0884 N.ar           1 S1                 0.0000
     14 ****         5.9266  -1.5815   0.2205 C.ar           1 S1                 0.0000
     15 ****         4.6063  -1.4829   0.7037 C.ar           1 S1                 0.0000
     16 ****        -1.6089   1.6402   1.3922 C.3            1 S1                 0.0000
     17 ****        -2.8327   0.7586   1.0550 C.3            1 S1                 0.0000
     18 ****        -3.9465   1.0000   2.0895 C.3            1 S1                 0.0000
     19 ****        -4.2299  -0.9608  -0.6849 H              1 S1                 0.0000
     20 ****        -4.7416   0.2451  -1.8605 H              1 S1                 0.0000
     21 ****        -5.3733   0.3023  -0.2297 H              1 S1                 0.0000
     22 ****        -3.6429   2.0332  -0.4851 H              1 S1                 0.0000
     23 ****        -1.8208  -0.2299  -1.4066 H              1 S1                 0.0000
     24 ****        -2.4642   1.0469  -2.4049 H              1 S1                 0.0000
     25 ****        -0.1312   1.5601  -1.7615 H              1 S1                 0.0000
     26 ****        -1.2309   2.7519  -1.1413 H              1 S1                 0.0000
     27 ****         0.3124   2.2145   0.6460 H              1 S1                 0.0000
     28 ****         0.2623  -0.0447   1.5616 H              1 S1                 0.0000
     29 ****         1.5074   0.1773  -1.0852 H              1 S1                 0.0000
     30 ****         2.1890   0.7340   0.4317 H              1 S1                 0.0000
     31 ****         2.0764  -1.6251   1.3234 H              1 S1                 0.0000
     32 ****         1.6004  -3.2380  -0.1829 H              1 S1                 0.0000
     33 ****         3.0754  -1.7014  -2.3414 H              1 S1                 0.0000
     34 ****         5.4788  -1.8618  -3.0115 H              1 S1                 0.0000
     35 ****         6.7621  -1.5513   0.9042 H              1 S1                 0.0000
     36 ****         4.4211  -1.3755   1.7624 H              1 S1                 0.0000
     37 ****        -1.2635   1.4306   2.4056 H              1 S1                 0.0000
     38 ****        -1.9155   2.6874   1.3927 H              1 S1                 0.0000
     39 ****        -2.5297  -0.2855   1.1450 H              1 S1                 0.0000
     40 ****        -4.3545   2.0078   2.0057 H              1 S1                 0.0000
     41 ****        -3.5701   0.8794   3.1057 H              1 S1                 0.0000
     42 ****        -4.7686   0.2944   1.9729 H              1 S1                 0.0000
     43 ****        -0.4262  -0.5643   0.1693 H              1 S1                 0.0000
     44 ****         1.2781  -2.2268  -1.3687 LP             1 S1                 0.0000
     45 ****         0.3345  -2.2846  -0.0372 LP             1 S1                 0.0000
     46 ****         7.1784  -1.7822  -1.3943 LP             1 S1                 0.0000
@<TRIPOS>BOND
    1    1    2 1     
    2    1   19 1     
    3    1   20 1     
    4    1   21 1     
    5    2   17 1     
    6    2    3 1     
    7    2   22 1     
    8    3    4 1     
    9    3   23 1     
   10    3   24 1     
   11    4    5 1     
   12    4   25 1     
   13    4   26 1     
   14    5    6 1     
   15    5   16 1     
   16    5   27 1     
   17    6    7 1     
   18    6   28 1     
   19    6   43 1     
   20    7    8 1     
   21    7   29 1     
   22    7   30 1     
   23    8    9 1     
   24    8   10 1     
   25    8   31 1     
   26    9   32 1     
   27   10   15 ar    
   28   10   11 ar    
   29   11   12 ar    
   30   11   33 1     
   31   12   13 ar    
   32   12   34 1     
   33   13   14 ar    
   34   14   15 ar    
   35   14   35 1     
   36   15   36 1     
   37   16   17 1     
   38   16   37 1     
   39   16   38 1     
   40   17   18 1     
   41   17   39 1     
   42   18   40 1     
   43   18   41 1     
   44   18   42 1     
   45    9   44 1     
   46    9   45 1     
   47   13   46 1     
@<TRIPOS>SUBSTRUCTURE
      1 S1             1
@<TRIPOS>SET
LONE_PAIRS      STATIC     ATOMS    <user>   **** ""
3 44 45 46
DONOR_HYDROGENS      STATIC     ATOMS    <user>   **** ""
3 28 43 32
ATOM$BLUE        STATIC     ATOMS    COLORGROUP SYSTEM
3 44 45 46
ATOM$RED        STATIC     ATOMS    COLORGROUP SYSTEM
3 28 43 32
