#       Name:                AV-unprocessed.smi:2324
#       Creating user name   scv26
#       Creation time:       Fri Mar 27 12:51:30 2020


#       File generated by GOLD software.
#

@<TRIPOS>MOLECULE
AV-unprocessed.smi:2324
    43    45     1
SMALL
NO_CHARGES


@<TRIPOS>ATOM
      1 ****        -1.3306   2.6786   1.6877 O.2            1 S1                 0.0000
      2 ****        -1.6980   1.6014   1.2214 C.2            1 S1                 0.0000
      3 ****        -2.9991   1.2413   1.2481 N.am           1 S1                 0.0000
      4 ****        -4.1555   1.9099   1.7459 C.ar           1 S1                 0.0000
      5 ****        -5.3689   1.2167   1.5469 C.ar           1 S1                 0.0000
      6 ****        -6.5596   1.8035   2.0080 C.ar           1 S1                 0.0000
      7 ****        -6.4572   3.0521   2.6439 C.ar           1 S1                 0.0000
      8 ****        -5.2750   3.6818   2.8161 N.ar           1 S1                 0.0000
      9 ****        -4.1470   3.1163   2.3733 N.ar           1 S1                 0.0000
     10 ****        -0.8459   0.7219   0.6691 N.am           1 S1                 0.0000
     11 ****         0.5973   0.8995   0.5454 C.3            1 S1                 0.0000
     12 ****         1.3090   0.5311   1.8581 C.3            1 S1                 0.0000
     13 ****         2.8342   0.5570   1.6734 C.3            1 S1                 0.0000
     14 ****         3.2111  -0.3121   0.6106 O.3            1 S1                 0.0000
     15 ****         2.6719   0.0765  -0.6492 C.3            1 S1                 0.0000
     16 ****         3.2347  -0.8514  -1.7075 C.3            1 S1                 0.0000
     17 ****         4.5754  -0.5725  -2.3458 C.3            1 S1                 0.0000
     18 ****         3.3091  -0.4193  -3.1535 C.3            1 S1                 0.0000
     19 ****         1.1342   0.0150  -0.5895 C.3            1 S1                 0.0000
     20 ****        -3.1868   0.3370   0.8405 H              1 S1                 0.0000
     21 ****        -5.3906   0.2570   1.0509 H              1 S1                 0.0000
     22 ****        -7.5142   1.3151   1.8799 H              1 S1                 0.0000
     23 ****        -7.3354   3.5543   3.0216 H              1 S1                 0.0000
     24 ****        -1.2300  -0.1404   0.3086 H              1 S1                 0.0000
     25 ****         0.8140   1.9411   0.3004 H              1 S1                 0.0000
     26 ****         1.0199   1.2167   2.6554 H              1 S1                 0.0000
     27 ****         1.0045  -0.4665   2.1778 H              1 S1                 0.0000
     28 ****         3.1842   1.5703   1.4709 H              1 S1                 0.0000
     29 ****         3.3274   0.2277   2.5879 H              1 S1                 0.0000
     30 ****         2.9911   1.0954  -0.8764 H              1 S1                 0.0000
     31 ****         3.0000  -1.9009  -1.5388 H              1 S1                 0.0000
     32 ****         5.0974   0.3364  -2.0530 H              1 S1                 0.0000
     33 ****         5.2135  -1.4259  -2.5663 H              1 S1                 0.0000
     34 ****         3.1017  -1.1707  -3.9127 H              1 S1                 0.0000
     35 ****         2.9893   0.5917  -3.3982 H              1 S1                 0.0000
     36 ****         0.8181  -1.0179  -0.4339 H              1 S1                 0.0000
     37 ****         0.7091   0.3305  -1.5432 H              1 S1                 0.0000
     38 ****        -1.9991   3.3016   2.0939 LP             1 S1                 0.0000
     39 ****        -0.3635   2.9314   1.6606 LP             1 S1                 0.0000
     40 ****        -5.2431   4.5700   3.2744 LP             1 S1                 0.0000
     41 ****        -3.2772   3.5915   2.5065 LP             1 S1                 0.0000
     42 ****         2.8879  -1.2341   0.8240 LP             1 S1                 0.0000
     43 ****         4.2087  -0.3162   0.5418 LP             1 S1                 0.0000
@<TRIPOS>BOND
    1    1    2 2     
    2    2    3 am    
    3    2   10 am    
    4    3    4 1     
    5    3   20 1     
    6    4    9 ar    
    7    4    5 ar    
    8    5    6 ar    
    9    5   21 1     
   10    6    7 ar    
   11    6   22 1     
   12    7    8 ar    
   13    7   23 1     
   14    8    9 ar    
   15   10   11 1     
   16   10   24 1     
   17   11   19 1     
   18   11   12 1     
   19   11   25 1     
   20   12   13 1     
   21   12   26 1     
   22   12   27 1     
   23   13   14 1     
   24   13   28 1     
   25   13   29 1     
   26   14   15 1     
   27   15   16 1     
   28   15   19 1     
   29   15   30 1     
   30   16   18 1     
   31   16   17 1     
   32   16   31 1     
   33   17   18 1     
   34   17   32 1     
   35   17   33 1     
   36   18   34 1     
   37   18   35 1     
   38   19   36 1     
   39   19   37 1     
   40    1   38 1     
   41    1   39 1     
   42    8   40 1     
   43    9   41 1     
   44   14   42 1     
   45   14   43 1     
@<TRIPOS>SUBSTRUCTURE
      1 S1             1
@<TRIPOS>SET
LONE_PAIRS      STATIC     ATOMS    <user>   **** ""
6 38 39 40 41 42 43
DONOR_HYDROGENS      STATIC     ATOMS    <user>   **** ""
2 20 24
ATOM$BLUE        STATIC     ATOMS    COLORGROUP SYSTEM
6 38 39 40 41 42 43
ATOM$RED        STATIC     ATOMS    COLORGROUP SYSTEM
2 20 24
