AV-unprocessed.smi:2078|AV-procd|sdf|8468|dock5
  -GOLD-   2272011163D 1   1.00000     0.00000
 Structure written by MMmdl.
 41 42  0  0  0  0  0  0  0  0  3 V2000
  151.5632  133.0637  156.7328 C   0  0  0  0  0  0  0  0  0  0  0  0
  151.3668  134.4993  156.3841 C   0  0  0  0  0  0  0  0  0  0  0  0
  150.3800  135.1636  155.7128 C   0  0  0  0  0  0  0  0  0  0  0  0
  150.8173  136.5158  155.7464 C   0  0  0  0  0  0  0  0  0  0  0  0
  150.1820  137.5632  155.1979 N   0  5  0  0  0  0  0  0  0  0  0  0
  150.5486  138.8256  155.5162 C   0  0  0  0  0  0  0  0  0  0  0  0
  151.5011  139.4535  155.0485 O   0  0  0  0  0  0  0  0  0  0  0  0
  149.7628  139.3971  156.4382 N   0  0  0  0  0  0  0  0  0  0  0  0
  149.9344  140.7423  156.9687 C   0  0  0  0  0  0  0  0  0  0  0  0
  151.0361  140.7554  158.0397 C   0  0  0  0  0  0  0  0  0  0  0  0
  151.3434  142.1264  158.5185 N   0  3  2  0  0  0  0  0  0  0  0  0
  151.3069  143.1255  157.4194 C   0  0  0  0  0  0  0  0  0  0  0  0
  151.4745  144.5543  157.9601 C   0  0  0  0  0  0  0  0  0  0  0  0
  152.7662  144.6849  158.7788 C   0  0  0  0  0  0  0  0  0  0  0  0
  152.8370  143.6145  159.8835 C   0  0  1  0  0  0  0  0  0  0  0  0
  151.8891  143.9075  161.0597 C   0  0  0  0  0  0  0  0  0  0  0  0
  152.6136  142.2074  159.2905 C   0  0  0  0  0  0  0  0  0  0  0  0
  151.9755  136.6573  156.3689 N   0  0  0  0  0  0  0  0  0  0  0  0
  152.3315  135.3693  156.7870 O   0  0  0  0  0  0  0  0  0  0  0  0
  151.3992  132.4299  155.8614 H   0  0  0  0  0  0  0  0  0  0  0  0
  150.8639  132.7579  157.5109 H   0  0  0  0  0  0  0  0  0  0  0  0
  152.5748  132.8818  157.0962 H   0  0  0  0  0  0  0  0  0  0  0  0
  149.4863  134.7498  155.2705 H   0  0  0  0  0  0  0  0  0  0  0  0
  148.9913  138.8517  156.7944 H   0  0  0  0  0  0  0  0  0  0  0  0
  150.1960  141.4254  156.1586 H   0  0  0  0  0  0  0  0  0  0  0  0
  148.9796  141.0735  157.3769 H   0  0  0  0  0  0  0  0  0  0  0  0
  150.7669  140.1192  158.8841 H   0  0  0  0  0  0  0  0  0  0  0  0
  151.9343  140.3198  157.5994 H   0  0  0  0  0  0  0  0  0  0  0  0
  152.0918  142.9008  156.6954 H   0  0  0  0  0  0  0  0  0  0  0  0
  150.3568  143.0570  156.8881 H   0  0  0  0  0  0  0  0  0  0  0  0
  151.4882  145.2647  157.1330 H   0  0  0  0  0  0  0  0  0  0  0  0
  150.6139  144.8196  158.5750 H   0  0  0  0  0  0  0  0  0  0  0  0
  153.6221  144.5703  158.1122 H   0  0  0  0  0  0  0  0  0  0  0  0
  152.8453  145.6849  159.2067 H   0  0  0  0  0  0  0  0  0  0  0  0
  153.8478  143.6390  160.2927 H   0  0  0  0  0  0  0  0  0  0  0  0
  150.8419  143.8780  160.7583 H   0  0  0  0  0  0  0  0  0  0  0  0
  152.0846  144.8929  161.4839 H   0  0  0  0  0  0  0  0  0  0  0  0
  152.0208  143.1768  161.8584 H   0  0  0  0  0  0  0  0  0  0  0  0
  152.6223  141.4740  160.0961 H   0  0  0  0  0  0  0  0  0  0  0  0
  153.4449  141.9505  158.6320 H   0  0  0  0  0  0  0  0  0  0  0  0
  150.5975  142.3781  159.1515 H   0  0  0  0  0  0  0  0  0  0  0  0
  1  2  1  0  0  0  0
  1 20  1  0  0  0  0
  1 21  1  0  0  0  0
  1 22  1  0  0  0  0
  2 19  1  0  0  0  0
  2  3  2  0  0  0  0
  3  4  1  0  0  0  0
  3 23  1  0  0  0  0
  4  5  1  0  0  0  0
  4 18  2  0  0  0  0
  5  6  1  0  0  0  0
  6  7  2  0  0  0  0
  6  8  1  0  0  0  0
  8  9  1  0  0  0  0
  8 24  1  0  0  0  0
  9 10  1  0  0  0  0
  9 25  1  0  0  0  0
  9 26  1  0  0  0  0
 10 11  1  0  0  0  0
 10 27  1  0  0  0  0
 10 28  1  0  0  0  0
 11 17  1  0  0  0  0
 11 12  1  0  0  0  0
 11 41  1  0  0  0  0
 12 13  1  0  0  0  0
 12 29  1  0  0  0  0
 12 30  1  0  0  0  0
 13 14  1  0  0  0  0
 13 31  1  0  0  0  0
 13 32  1  0  0  0  0
 14 15  1  0  0  0  0
 14 33  1  0  0  0  0
 14 34  1  0  0  0  0
 15 16  1  0  0  0  0
 15 17  1  0  0  0  0
 15 35  1  0  0  0  0
 16 36  1  0  0  0  0
 16 37  1  0  0  0  0
 16 38  1  0  0  0  0
 17 39  1  0  0  0  0
 17 40  1  0  0  0  0
 18 19  1  0  0  0  0
M  CHG  1   5  -1
M  CHG  1  11   1
M  END
> <s_m_source_file>
AV-unprocessed.smi

> <i_m_source_file_index>
2078

> <i_lp_mmshare_version>
43012

> <i_f3d_flags>
0

> <s_epik_input>
W0NIM11jMVtjSF1jKG5vMSlbTkhdQyg9TylbTkhdW0NIMl1bQ0gyXU4yW0NIMl1bQ0gyXVtDSDJdW0NAQEhdKFtDSDNdKVtDSDJdMg==

> <s_epik_cmdline>
J2VwaWtfcHl0aG9uJywgJy1waCcsICc3LjAnLCAnLXRuJywgJzgnLCAnLW1hJywgJzIwMCcsICctbWV0YWxfYmluZGluZycsICctaW1hZScsICc8aW5maWxlLm1hZT4nLCAnLW9tYWUnLCAnPG91dGZpbGUubWFlPic=

> <r_epik_Ionization_Penalty>
6.22434

> <r_epik_Ionization_Penalty_Charging>
6.22425

> <r_epik_Ionization_Penalty_Neutral>
9.37855e-05

> <r_epik_State_Penalty>
6.22423

> <r_epik_Charging_Adjusted_Penalty>
12.4485

> <i_epik_Tot_Q>
0

> <i_epik_Tot_abs_Q>
2

> <r_epik_Metal_State_Penalty>
2.16764

> <b_epik_Metal_Only>
1

> <s_lp_Force_Field>
OPLS_2005

> <r_lp_Energy>
8.87897

> <b_lp_Chiralities_Consistent>
1

> <s_lp_Variant>
AV-unprocessed.smi:2078-6

> <Gold.Version>
5.8.1

> <Gold.Id.Protein>
6NUR|6NUR_protein|mol2

> <Gold.PLP.Fitness>
39.0656

> <Gold.PLP.PLP>
-35.1888

> <Gold.PLP.part.hbond>
-2.2059

> <Gold.PLP.part.metal>
0.0000

> <Gold.PLP.part.buried>
-5.2133

> <Gold.PLP.part.nonpolar>
-27.9130

> <Gold.PLP.part.repulsive>
0.3958

> <Gold.PLP.ligand.clash>
0.0000

> <Gold.PLP.ligand.torsion>
1.0780

> <Gold.PLP.Chemscore.Hbond>
2.0000

> <Gold.PLP.Chemscore.CHOScore>
0.0000

> <Gold.PLP.Chemscore.Metal>
0.0000

> <Gold.Chemscore.Hbonds>
donor molecule, donor type, donor heavy atom, donor atom, acceptor molecule, acceptor atom, score
      P1  H  7989  7998       L1     7  0.83
      P1  H 10752 10764       L1    19  0.14

> <Gold.PLP.Chemscore.Internal.Correction>
0.0327

> <Gold.Rescore>
     Score         DG    S(hbond)    S(metal)    S(lipo)     H(rot)  DE(clash)    DE(int)     intcor
     17.95     -19.17       1.79        0.00      99.50       1.54       0.15       1.07       ----

> <Gold.Chemscore.Fitness>
17.9476

> <Gold.Chemscore.DG>
-19.1663

> <Gold.Chemscore.ZeroCoef>
-5.4800

> <Gold.Chemscore.Hbond>
1.7934

> <Gold.Chemscore.Metal>
0.0000

> <Gold.Chemscore.Lipo>
99.4958

> <Gold.Chemscore.Internal_Hbond>
0.0000

> <Gold.Chemscore.DEClash>
0.1521

> <Gold.Chemscore.DEInternal>
1.0666

> <Gold.Chemscore.Rot>
1.5409

> <Gold.Chemscore.Internal.Correction>
   9.000000E+99

> <Gold.Chemscore.Hbonds>
donor molecule, donor type, donor heavy atom, donor atom, acceptor molecule, acceptor atom, score
      P1  H  7989  7998       L1     7  0.82

> <Gold.Chemscore.Hbond.Weighted>
-5.9899

> <Gold.Chemscore.Metal.Weighted>
-0.0000

> <Gold.Chemscore.Lipo.Weighted>
-11.6410

> <Gold.Chemscore.Internal_Hbond.Weighted>
0.0000

> <Gold.Chemscore.DEClash.Weighted>
0.1521

> <Gold.Chemscore.DEInternal.Weighted>
1.0666

> <Gold.Chemscore.Rot.Weighted>
3.9446

> <Gold.Chemscore.Internal.Correction.Weighted>
   9.000000E+99

> <Gold.Protein.RotatedTorsions>
[ 6907 6896 6895 6894 ] final  171.83 input  -60.11 | X-H torsion
[ 7974 7965 7964 7962 ] final   94.42 input  175.53 | X-H torsion
[ 8008 7997 7996 7995 ] final -156.19 input   59.86 | X-H torsion
[ 10167 10162 10161 10158 ] final  -45.22 input  -65.29 | X-H torsion
[ 10718 10713 10712 10709 ] final -125.12 input   66.30 | X-H torsion
[ 10763 10752 10751 10750 ] final  -15.47 input  -60.55 | X-H torsion
[ 11005 11000 10999 10996 ] final   10.92 input  -57.11 | X-H torsion

> <Gold.Protein.ActiveResidues>
 VAL166  LYS551  ARG553  GLY616  TRP617  ASP618  TYR619  PRO620  LYS621  CYS622 
 ASP623  PHE694  ASN695  SER759  ASP760  ASP761  ALA762  ILE779  LEU786  VAL792 
 PHE793  MET794  SER795  GLU796  ALA797  LYS798  CYS799  TRP800  GLU811  SER814 

> <Gold.Protein.RotatedAtoms>
  151.7939  133.3362  159.3506 H   0  0  0  0  0  0  0  0  0  0  0  0  # atno 6907 bound_to 6896
  150.7382  134.5816  159.5951 H   0  0  0  0  0  0  0  0  0  0  0  0  # atno 6908 bound_to 6896
  152.3190  134.7405  160.0369 H   0  0  0  0  0  0  0  0  0  0  0  0  # atno 6909 bound_to 6896
  145.4658  139.2284  143.2962 H   0  0  0  0  0  0  0  0  0  0  0  0  # atno 7974 bound_to 7965
  155.7134  140.0781  157.2361 H   0  0  0  0  0  0  0  0  0  0  0  0  # atno 8008 bound_to 7997
  154.4055  140.1626  156.2376 H   0  0  0  0  0  0  0  0  0  0  0  0  # atno 8009 bound_to 7997
  155.9262  140.3394  155.6215 H   0  0  0  0  0  0  0  0  0  0  0  0  # atno 8010 bound_to 7997
  140.6866  143.2890  151.3608 H   0  0  0  0  0  0  0  0  0  0  0  0  # atno 10167 bound_to 10162
  156.1647  130.6626  151.0099 H   0  0  0  0  0  0  0  0  0  0  0  0  # atno 10718 bound_to 10713
  153.5439  135.7013  153.5623 H   0  0  0  0  0  0  0  0  0  0  0  0  # atno 10763 bound_to 10752
  153.3577  135.3978  155.1695 H   0  0  0  0  0  0  0  0  0  0  0  0  # atno 10764 bound_to 10752
  154.8670  135.3781  154.4945 H   0  0  0  0  0  0  0  0  0  0  0  0  # atno 10765 bound_to 10752
  140.5091  134.0670  155.7813 H   0  0  0  0  0  0  0  0  0  0  0  0  # atno 11005 bound_to 11000
  146.2425  140.5431  142.8928 LP  0  0  0  0  0  0  0  0  0  0  0  0  # atno 17320 bound_to 7965
  144.7975  140.6151  143.6500 LP  0  0  0  0  0  0  0  0  0  0  0  0  # atno 17321 bound_to 7965
  139.6231  144.0868  152.2409 LP  0  0  0  0  0  0  0  0  0  0  0  0  # atno 17342 bound_to 10162
  140.0319  144.6074  150.7481 LP  0  0  0  0  0  0  0  0  0  0  0  0  # atno 17343 bound_to 10162
  157.6759  131.0850  150.7495 LP  0  0  0  0  0  0  0  0  0  0  0  0  # atno 17370 bound_to 10713
  156.7556  130.4782  149.5447 LP  0  0  0  0  0  0  0  0  0  0  0  0  # atno 17371 bound_to 10713
  141.1395  133.9163  157.2358 LP  0  0  0  0  0  0  0  0  0  0  0  0  # atno 17394 bound_to 11000
  139.9669  135.0139  156.9411 LP  0  0  0  0  0  0  0  0  0  0  0  0  # atno 17395 bound_to 11000

$$$$
