AV-unprocessed.smi:1999|AV-procd|sdf|8093|dock5
  -GOLD-   2272010313D 1   1.00000     0.00000
 Structure written by MMmdl.
 38 39  0  0  0  0  0  0  0  0  1 V2000
  143.6431  132.9613  151.1229 C   0  0  0  0  0  0  0  0  0  0  0  0
  143.7215  134.3340  151.6979 C   0  0  0  0  0  0  0  0  0  0  0  0
  142.8234  134.8031  152.5723 N   0  0  0  0  0  0  0  0  0  0  0  0
  143.1046  136.1030  152.9694 N   0  0  0  0  0  0  0  0  0  0  0  0
  144.2122  136.5763  152.3819 C   0  0  0  0  0  0  0  0  0  0  0  0
  144.7296  137.8795  152.6064 N   0  0  0  0  0  0  0  0  0  0  0  0
  145.9126  138.2260  153.1437 C   0  0  0  0  0  0  0  0  0  0  0  0
  146.7756  137.4388  153.5333 O   0  0  0  0  0  0  0  0  0  0  0  0
  146.0447  139.5595  153.2029 N   0  0  0  0  0  0  0  0  0  0  0  0
  147.2036  140.2760  153.7285 C   0  0  1  0  0  0  0  0  0  0  0  0
  146.9072  141.7854  153.7596 C   0  0  0  0  0  0  0  0  0  0  0  0
  147.5352  139.7159  155.1271 C   0  0  0  0  0  0  0  0  0  0  0  0
  148.9586  139.5966  155.4455 N   0  0  0  0  0  0  0  0  0  0  0  0
  149.6193  140.8934  155.5843 C   0  0  0  0  0  0  0  0  0  0  0  0
  151.1208  140.7437  155.8867 C   0  0  0  0  0  0  0  0  0  0  0  0
  151.7404  139.9623  154.8706 O   0  0  0  0  0  0  0  0  0  0  0  0
  151.1549  138.6715  154.7395 C   0  0  0  0  0  0  0  0  0  0  0  0
  149.6556  138.8173  154.4279 C   0  0  0  0  0  0  0  0  0  0  0  0
  145.0074  135.4614  151.2837 S   0  0  0  0  0  0  0  0  0  0  0  0
  142.6025  132.6599  150.9996 H   0  0  0  0  0  0  0  0  0  0  0  0
  144.1384  132.2515  151.7853 H   0  0  0  0  0  0  0  0  0  0  0  0
  144.1314  132.9317  150.1487 H   0  0  0  0  0  0  0  0  0  0  0  0
  144.1263  138.6381  152.3252 H   0  0  0  0  0  0  0  0  0  0  0  0
  145.2843  140.1259  152.8570 H   0  0  0  0  0  0  0  0  0  0  0  0
  148.0474  140.0960  153.0619 H   0  0  0  0  0  0  0  0  0  0  0  0
  147.7691  142.3497  154.1165 H   0  0  0  0  0  0  0  0  0  0  0  0
  146.0665  142.0119  154.4162 H   0  0  0  0  0  0  0  0  0  0  0  0
  146.6641  142.1610  152.7652 H   0  0  0  0  0  0  0  0  0  0  0  0
  147.0633  140.3653  155.8659 H   0  0  0  0  0  0  0  0  0  0  0  0
  147.0597  138.7406  155.2451 H   0  0  0  0  0  0  0  0  0  0  0  0
  149.4909  141.4744  154.6699 H   0  0  0  0  0  0  0  0  0  0  0  0
  149.1626  141.4686  156.3886 H   0  0  0  0  0  0  0  0  0  0  0  0
  151.5993  141.7223  155.9255 H   0  0  0  0  0  0  0  0  0  0  0  0
  151.2728  140.2735  156.8595 H   0  0  0  0  0  0  0  0  0  0  0  0
  151.6586  138.1314  153.9376 H   0  0  0  0  0  0  0  0  0  0  0  0
  151.3059  138.0998  155.6566 H   0  0  0  0  0  0  0  0  0  0  0  0
  149.2076  137.8262  154.3490 H   0  0  0  0  0  0  0  0  0  0  0  0
  149.5362  139.2919  153.4527 H   0  0  0  0  0  0  0  0  0  0  0  0
  1  2  1  0  0  0  0
  1 20  1  0  0  0  0
  1 21  1  0  0  0  0
  1 22  1  0  0  0  0
  2 19  1  0  0  0  0
  2  3  2  0  0  0  0
  3  4  1  0  0  0  0
  4  5  2  0  0  0  0
  5  6  1  0  0  0  0
  5 19  1  0  0  0  0
  6  7  1  0  0  0  0
  6 23  1  0  0  0  0
  7  8  2  0  0  0  0
  7  9  1  0  0  0  0
  9 10  1  0  0  0  0
  9 24  1  0  0  0  0
 10 11  1  0  0  0  0
 10 12  1  0  0  0  0
 10 25  1  0  0  0  0
 11 26  1  0  0  0  0
 11 27  1  0  0  0  0
 11 28  1  0  0  0  0
 12 13  1  0  0  0  0
 12 29  1  0  0  0  0
 12 30  1  0  0  0  0
 13 18  1  0  0  0  0
 13 14  1  0  0  0  0
 14 15  1  0  0  0  0
 14 31  1  0  0  0  0
 14 32  1  0  0  0  0
 15 16  1  0  0  0  0
 15 33  1  0  0  0  0
 15 34  1  0  0  0  0
 16 17  1  0  0  0  0
 17 18  1  0  0  0  0
 17 35  1  0  0  0  0
 17 36  1  0  0  0  0
 18 37  1  0  0  0  0
 18 38  1  0  0  0  0
M  END
> <s_m_source_file>
AV-unprocessed.smi

> <i_m_source_file_index>
1999

> <i_lp_mmshare_version>
43012

> <i_f3d_flags>
0

> <s_epik_input>
W0NIM11jMW5uYyhzMSlbTkhdQyg9TylbTkhdW0NASF0oW0NIM10pW0NIMl1OMltDSDJdW0NIMl1PW0NIMl1bQ0gyXTI=

> <s_epik_cmdline>
J2VwaWtfcHl0aG9uJywgJy1waCcsICc3LjAnLCAnLXRuJywgJzgnLCAnLW1hJywgJzIwMCcsICctbWV0YWxfYmluZGluZycsICctaW1hZScsICc8aW5maWxlLm1hZT4nLCAnLW9tYWUnLCAnPG91dGZpbGUubWFlPic=

> <r_lp_tautomer_probability>
1

> <r_epik_Ionization_Penalty>
0.221412

> <r_epik_Ionization_Penalty_Charging>
0

> <r_epik_Ionization_Penalty_Neutral>
0.221412

> <r_epik_State_Penalty>
0.209349

> <r_epik_Charging_Adjusted_Penalty>
0.209349

> <i_epik_Tot_Q>
0

> <i_epik_Tot_abs_Q>
0

> <r_epik_Metal_State_Penalty>
0.56886

> <b_epik_Metal_Only>
0

> <s_lp_Force_Field>
OPLS_2005

> <r_lp_Energy>
22.0732

> <b_lp_Chiralities_Consistent>
1

> <s_lp_Variant>
AV-unprocessed.smi:1999-2

> <Gold.Version>
5.8.1

> <Gold.Id.Protein>
6NUR|6NUR_protein|mol2

> <Gold.PLP.Fitness>
38.1294

> <Gold.PLP.PLP>
-31.4948

> <Gold.PLP.part.hbond>
-4.0000

> <Gold.PLP.part.metal>
0.0000

> <Gold.PLP.part.buried>
-6.4536

> <Gold.PLP.part.nonpolar>
-23.3597

> <Gold.PLP.part.repulsive>
1.5078

> <Gold.PLP.ligand.clash>
0.0000

> <Gold.PLP.ligand.torsion>
1.1938

> <Gold.PLP.Chemscore.Hbond>
2.9920

> <Gold.PLP.Chemscore.CHOScore>
0.0000

> <Gold.PLP.Chemscore.Metal>
0.0000

> <Gold.Chemscore.Hbonds>
donor molecule, donor type, donor heavy atom, donor atom, acceptor molecule, acceptor atom, score
      L1  H     6    23       P1 10175  0.99
      L1  H     9    24       P1 10175  1.00
      P1  H  7989  7998       L1    16  1.00

> <Gold.PLP.Chemscore.Internal.Correction>
0.0462

> <Gold.Rescore>
     Score         DG    S(hbond)    S(metal)    S(lipo)     H(rot)  DE(clash)    DE(int)     intcor
     14.48     -17.12       2.57        0.00      60.91       1.58       0.06       2.58       ----

> <Gold.Chemscore.Fitness>
14.4832

> <Gold.Chemscore.DG>
-17.1204

> <Gold.Chemscore.ZeroCoef>
-5.4800

> <Gold.Chemscore.Hbond>
2.5653

> <Gold.Chemscore.Metal>
0.0000

> <Gold.Chemscore.Lipo>
60.9111

> <Gold.Chemscore.Internal_Hbond>
0.0000

> <Gold.Chemscore.DEClash>
0.0562

> <Gold.Chemscore.DEInternal>
2.5810

> <Gold.Chemscore.Rot>
1.5837

> <Gold.Chemscore.Internal.Correction>
   9.000000E+99

> <Gold.Chemscore.Hbonds>
donor molecule, donor type, donor heavy atom, donor atom, acceptor molecule, acceptor atom, score
      L1  H     6    23       P1 10175  0.94
      L1  H     9    24       P1 10175  0.97
      P1  H  7989  7998       L1    16  0.46

> <Gold.Chemscore.Hbond.Weighted>
-8.5680

> <Gold.Chemscore.Metal.Weighted>
-0.0000

> <Gold.Chemscore.Lipo.Weighted>
-7.1266

> <Gold.Chemscore.Internal_Hbond.Weighted>
0.0000

> <Gold.Chemscore.DEClash.Weighted>
0.0562

> <Gold.Chemscore.DEInternal.Weighted>
2.5810

> <Gold.Chemscore.Rot.Weighted>
4.0542

> <Gold.Chemscore.Internal.Correction.Weighted>
   9.000000E+99

> <Gold.Protein.RotatedTorsions>
[ 6907 6896 6895 6894 ] final   -8.11 input  -60.11 | X-H torsion
[ 7974 7965 7964 7962 ] final   98.84 input  175.53 | X-H torsion
[ 8008 7997 7996 7995 ] final  -70.44 input   59.86 | X-H torsion
[ 10167 10162 10161 10158 ] final  -52.49 input  -65.29 | X-H torsion
[ 10718 10713 10712 10709 ] final   51.62 input   66.30 | X-H torsion
[ 10763 10752 10751 10750 ] final -144.03 input  -60.55 | X-H torsion
[ 11005 11000 10999 10996 ] final  108.07 input  -57.11 | X-H torsion

> <Gold.Protein.ActiveResidues>
 VAL166  LYS551  ARG553  GLY616  TRP617  ASP618  TYR619  PRO620  LYS621  CYS622 
 ASP623  PHE694  ASN695  SER759  ASP760  ASP761  ALA762  ILE779  LEU786  VAL792 
 PHE793  MET794  SER795  GLU796  ALA797  LYS798  CYS799  TRP800  GLU811  SER814 

> <Gold.Protein.RotatedAtoms>
  151.4389  135.1018  159.9663 H   0  0  0  0  0  0  0  0  0  0  0  0  # atno 6907 bound_to 6896
  152.4930  133.8547  159.7230 H   0  0  0  0  0  0  0  0  0  0  0  0  # atno 6908 bound_to 6896
  150.9102  133.6948  159.2884 H   0  0  0  0  0  0  0  0  0  0  0  0  # atno 6909 bound_to 6896
  145.4068  139.2339  143.3270 H   0  0  0  0  0  0  0  0  0  0  0  0  # atno 7974 bound_to 7965
  154.5012  140.0834  156.7802 H   0  0  0  0  0  0  0  0  0  0  0  0  # atno 8008 bound_to 7997
  155.3998  140.3436  155.4238 H   0  0  0  0  0  0  0  0  0  0  0  0  # atno 8009 bound_to 7997
  156.1459  140.1543  156.8835 H   0  0  0  0  0  0  0  0  0  0  0  0  # atno 8010 bound_to 7997
  140.6535  143.2582  151.4655 H   0  0  0  0  0  0  0  0  0  0  0  0  # atno 10167 bound_to 10162
  157.4998  130.8430  149.8302 H   0  0  0  0  0  0  0  0  0  0  0  0  # atno 10718 bound_to 10713
  154.8445  135.3451  154.6282 H   0  0  0  0  0  0  0  0  0  0  0  0  # atno 10763 bound_to 10752
  153.6892  135.6976  153.5099 H   0  0  0  0  0  0  0  0  0  0  0  0  # atno 10764 bound_to 10752
  153.2608  135.4323  155.0848 H   0  0  0  0  0  0  0  0  0  0  0  0  # atno 10765 bound_to 10752
  139.8838  134.9420  156.5917 H   0  0  0  0  0  0  0  0  0  0  0  0  # atno 11005 bound_to 11000
  146.2725  140.4773  142.8809 LP  0  0  0  0  0  0  0  0  0  0  0  0  # atno 17320 bound_to 7965
  144.8336  140.6747  143.6275 LP  0  0  0  0  0  0  0  0  0  0  0  0  # atno 17321 bound_to 7965
  139.5753  144.1833  152.1894 LP  0  0  0  0  0  0  0  0  0  0  0  0  # atno 17342 bound_to 10162
  140.1142  144.5430  150.6905 LP  0  0  0  0  0  0  0  0  0  0  0  0  # atno 17343 bound_to 10162
  156.0222  130.3791  150.1928 LP  0  0  0  0  0  0  0  0  0  0  0  0  # atno 17370 bound_to 10713
  157.0118  130.9953  151.3364 LP  0  0  0  0  0  0  0  0  0  0  0  0  # atno 17371 bound_to 10713
  140.7951  133.8551  155.8678 LP  0  0  0  0  0  0  0  0  0  0  0  0  # atno 17394 bound_to 11000
  140.9643  134.1615  157.4629 LP  0  0  0  0  0  0  0  0  0  0  0  0  # atno 17395 bound_to 11000

$$$$
