AV-unprocessed.smi:3330|AV-procd|sdf|12804|dock3
  -GOLD-   2272019163D 1   1.00000     0.00000
 Structure written by MMmdl.
 39 40  0  0  0  0  0  0  0  0  2 V2000
  149.5954  142.6587  158.6123 C   0  0  0  0  0  0  0  0  0  0  0  0
  150.9730  142.7148  157.9312 C   0  0  1  0  0  0  0  0  0  0  0  0
  150.7682  142.9719  156.4858 N   0  3  0  0  0  0  0  0  0  0  0  0
  150.5295  141.7684  155.6634 C   0  0  0  0  0  0  0  0  0  0  0  0
  149.1485  141.1664  155.9589 C   0  0  0  0  0  0  0  0  0  0  0  0
  148.5732  140.5522  154.7600 N   0  0  0  0  0  0  0  0  0  0  0  0
  147.3786  140.8712  154.2461 C   0  0  0  0  0  0  0  0  0  0  0  0
  146.5827  141.7094  154.6678 O   0  0  0  0  0  0  0  0  0  0  0  0
  147.1332  140.0040  153.0306 C   0  0  0  0  0  0  0  0  0  0  0  0
  148.3542  139.2268  153.0468 N   0  0  0  0  0  0  0  0  0  0  0  0
  149.1616  139.5648  154.0602 C   0  0  0  0  0  0  0  0  0  0  0  0
  150.2493  139.0455  154.3057 O   0  0  0  0  0  0  0  0  0  0  0  0
  151.9041  143.7910  158.5569 C   0  0  1  0  0  0  0  0  0  0  0  0
  151.1378  144.9735  159.1798 C   0  0  0  0  0  0  0  0  0  0  0  0
  152.8051  143.2074  159.5456 N   0  0  0  0  0  0  0  0  0  0  0  0
  152.8632  143.4297  160.9080 C   0  0  0  0  0  0  0  0  0  0  0  0
  153.8342  142.6143  161.4144 C   0  0  0  0  0  0  0  0  0  0  0  0
  154.3162  141.9135  160.2744 C   0  0  0  0  0  0  0  0  0  0  0  0
  153.6935  142.2638  159.1610 N   0  0  0  0  0  0  0  0  0  0  0  0
  149.6720  142.3564  159.6566 H   0  0  0  0  0  0  0  0  0  0  0  0
  148.9467  141.9324  158.1211 H   0  0  0  0  0  0  0  0  0  0  0  0
  149.0946  143.6269  158.5788 H   0  0  0  0  0  0  0  0  0  0  0  0
  151.4340  141.7329  158.0533 H   0  0  0  0  0  0  0  0  0  0  0  0
  149.9717  143.5833  156.3779 H   0  0  0  0  0  0  0  0  0  0  0  0
  150.5953  142.0234  154.6063 H   0  0  0  0  0  0  0  0  0  0  0  0
  151.3152  141.0390  155.8640 H   0  0  0  0  0  0  0  0  0  0  0  0
  149.2246  140.4294  156.7603 H   0  0  0  0  0  0  0  0  0  0  0  0
  148.4770  141.9423  156.3315 H   0  0  0  0  0  0  0  0  0  0  0  0
  146.2526  139.3734  153.1554 H   0  0  0  0  0  0  0  0  0  0  0  0
  147.0464  140.5991  152.1211 H   0  0  0  0  0  0  0  0  0  0  0  0
  148.5566  138.5065  152.3684 H   0  0  0  0  0  0  0  0  0  0  0  0
  152.5252  144.2039  157.7593 H   0  0  0  0  0  0  0  0  0  0  0  0
  150.6131  145.5559  158.4231 H   0  0  0  0  0  0  0  0  0  0  0  0
  151.8190  145.6575  159.6875 H   0  0  0  0  0  0  0  0  0  0  0  0
  150.4016  144.6358  159.9098 H   0  0  0  0  0  0  0  0  0  0  0  0
  152.2132  144.1371  161.4014 H   0  0  0  0  0  0  0  0  0  0  0  0
  154.1495  142.5273  162.4436 H   0  0  0  0  0  0  0  0  0  0  0  0
  155.0892  141.1610  160.2241 H   0  0  0  0  0  0  0  0  0  0  0  0
  151.5874  143.4479  156.1347 H   0  0  0  0  0  0  0  0  0  0  0  0
  1  2  1  0  0  0  0
  1 20  1  0  0  0  0
  1 21  1  0  0  0  0
  1 22  1  0  0  0  0
  2  3  1  0  0  0  0
  2 13  1  0  0  0  0
  2 23  1  0  0  0  0
  3  4  1  0  0  0  0
  3 24  1  0  0  0  0
  3 39  1  0  0  0  0
  4  5  1  0  0  0  0
  4 25  1  0  0  0  0
  4 26  1  0  0  0  0
  5  6  1  0  0  0  0
  5 27  1  0  0  0  0
  5 28  1  0  0  0  0
  6 11  1  0  0  0  0
  6  7  1  0  0  0  0
  7  8  2  0  0  0  0
  7  9  1  0  0  0  0
  9 10  1  0  0  0  0
  9 29  1  0  0  0  0
  9 30  1  0  0  0  0
 10 11  1  0  0  0  0
 10 31  1  0  0  0  0
 11 12  2  0  0  0  0
 13 14  1  0  0  0  0
 13 15  1  0  0  0  0
 13 32  1  0  0  0  0
 14 33  1  0  0  0  0
 14 34  1  0  0  0  0
 14 35  1  0  0  0  0
 15 19  1  0  0  0  0
 15 16  1  0  0  0  0
 16 17  2  0  0  0  0
 16 36  1  0  0  0  0
 17 18  1  0  0  0  0
 17 37  1  0  0  0  0
 18 19  2  0  0  0  0
 18 38  1  0  0  0  0
M  CHG  1   3   1
M  END
> <s_m_source_file>
AV-unprocessed.smi

> <i_m_source_file_index>
3330

> <i_lp_mmshare_version>
43012

> <i_f3d_flags>
0

> <s_epik_input>
bjFbY0hdW2NIXVtjSF1uMVtDQEBIXShbQ0gzXSlbQ0BIXShbQ0gzXSlbTkhdW0NIMl1bQ0gyXU4yQyg9TylbQ0gyXVtOSF1DMj1P

> <s_epik_cmdline>
J2VwaWtfcHl0aG9uJywgJy1waCcsICc3LjAnLCAnLXRuJywgJzgnLCAnLW1hJywgJzIwMCcsICctbWV0YWxfYmluZGluZycsICctaW1hZScsICc8aW5maWxlLm1hZT4nLCAnLW9tYWUnLCAnPG91dGZpbGUubWFlPic=

> <r_lp_tautomer_probability>
1

> <r_epik_Ionization_Penalty>
0.0124905

> <r_epik_Ionization_Penalty_Charging>
0.0123685

> <r_epik_Ionization_Penalty_Neutral>
0.000122059

> <r_epik_State_Penalty>
0.00957041

> <r_epik_Charging_Adjusted_Penalty>
0.0219389

> <i_epik_Tot_Q>
1

> <i_epik_Tot_abs_Q>
1

> <r_epik_Metal_State_Penalty>
0.0858301

> <b_epik_Metal_Only>
0

> <s_lp_Force_Field>
OPLS_2005

> <r_lp_Energy>
25.1369

> <b_lp_Chiralities_Consistent>
1

> <s_lp_Variant>
AV-unprocessed.smi:3330-4

> <Gold.Version>
5.8.1

> <Gold.Id.Protein>
6NUR|6NUR_protein|mol2

> <Gold.PLP.Fitness>
49.5154

> <Gold.PLP.PLP>
-43.6108

> <Gold.PLP.part.hbond>
-2.9487

> <Gold.PLP.part.metal>
0.0000

> <Gold.PLP.part.buried>
-2.5873

> <Gold.PLP.part.nonpolar>
-38.1233

> <Gold.PLP.part.repulsive>
0.4384

> <Gold.PLP.ligand.clash>
0.0000

> <Gold.PLP.ligand.torsion>
1.6373

> <Gold.PLP.Chemscore.Hbond>
2.9913

> <Gold.PLP.Chemscore.CHOScore>
0.0000

> <Gold.PLP.Chemscore.Metal>
0.0000

> <Gold.Chemscore.Hbonds>
donor molecule, donor type, donor heavy atom, donor atom, acceptor molecule, acceptor atom, score
      L1  H     3    24       P1  8028  2.00
      L1  H    10    31       P1  7948  0.26
      P1  H  7989  7998       L1    12  0.03

> <Gold.PLP.Chemscore.Internal.Correction>
0.2054

> <Gold.Rescore>
     Score         DG    S(hbond)    S(metal)    S(lipo)     H(rot)  DE(clash)    DE(int)     intcor
     12.64     -14.92       1.96        0.00      83.03       2.67       0.11       2.17       ----

> <Gold.Chemscore.Fitness>
12.6382

> <Gold.Chemscore.DG>
-14.9191

> <Gold.Chemscore.ZeroCoef>
-5.4800

> <Gold.Chemscore.Hbond>
1.9615

> <Gold.Chemscore.Metal>
0.0000

> <Gold.Chemscore.Lipo>
83.0259

> <Gold.Chemscore.Internal_Hbond>
0.0000

> <Gold.Chemscore.DEClash>
0.1086

> <Gold.Chemscore.DEInternal>
2.1722

> <Gold.Chemscore.Rot>
2.6666

> <Gold.Chemscore.Internal.Correction>
   9.000000E+99

> <Gold.Chemscore.Hbonds>
donor molecule, donor type, donor heavy atom, donor atom, acceptor molecule, acceptor atom, score
      L1  H     3    24       P1  8028  1.00
      L1  H    10    31       P1  7948  0.24
      P1  H  7989  7998       L1    12  0.01

> <Gold.Chemscore.Hbond.Weighted>
-6.5515

> <Gold.Chemscore.Metal.Weighted>
-0.0000

> <Gold.Chemscore.Lipo.Weighted>
-9.7140

> <Gold.Chemscore.Internal_Hbond.Weighted>
0.0000

> <Gold.Chemscore.DEClash.Weighted>
0.1086

> <Gold.Chemscore.DEInternal.Weighted>
2.1722

> <Gold.Chemscore.Rot.Weighted>
6.8265

> <Gold.Chemscore.Internal.Correction.Weighted>
   9.000000E+99

> <Gold.Protein.RotatedTorsions>
[ 6907 6896 6895 6894 ] final  101.76 input  -60.11 | X-H torsion
[ 7974 7965 7964 7962 ] final  -24.09 input  175.53 | X-H torsion
[ 8008 7997 7996 7995 ] final -175.36 input   59.86 | X-H torsion
[ 10167 10162 10161 10158 ] final  -29.28 input  -65.29 | X-H torsion
[ 10718 10713 10712 10709 ] final  -84.14 input   66.30 | X-H torsion
[ 10763 10752 10751 10750 ] final  109.81 input  -60.55 | X-H torsion
[ 11005 11000 10999 10996 ] final  120.27 input  -57.11 | X-H torsion

> <Gold.Protein.ActiveResidues>
 VAL166  LYS551  ARG553  GLY616  TRP617  ASP618  TYR619  PRO620  LYS621  CYS622 
 ASP623  PHE694  ASN695  SER759  ASP760  ASP761  ALA762  ILE779  LEU786  VAL792 
 PHE793  MET794  SER795  GLU796  ALA797  LYS798  CYS799  TRP800  GLU811  SER814 

> <Gold.Protein.RotatedAtoms>
  152.5341  134.0077  159.7923 H   0  0  0  0  0  0  0  0  0  0  0  0  # atno 6907 bound_to 6896
  151.0285  133.5804  159.2670 H   0  0  0  0  0  0  0  0  0  0  0  0  # atno 6908 bound_to 6896
  151.2817  135.0723  159.9225 H   0  0  0  0  0  0  0  0  0  0  0  0  # atno 6909 bound_to 6896
  146.1576  140.4705  142.8585 H   0  0  0  0  0  0  0  0  0  0  0  0  # atno 7974 bound_to 7965
  155.9816  140.1183  157.0721 H   0  0  0  0  0  0  0  0  0  0  0  0  # atno 8008 bound_to 7997
  154.4184  140.1143  156.5511 H   0  0  0  0  0  0  0  0  0  0  0  0  # atno 8009 bound_to 7997
  155.6463  140.3473  155.4734 H   0  0  0  0  0  0  0  0  0  0  0  0  # atno 8010 bound_to 7997
  140.7262  143.3941  151.1378 H   0  0  0  0  0  0  0  0  0  0  0  0  # atno 10167 bound_to 10162
  156.0009  130.4688  150.4365 H   0  0  0  0  0  0  0  0  0  0  0  0  # atno 10718 bound_to 10713
  153.4400  135.3768  155.2222 H   0  0  0  0  0  0  0  0  0  0  0  0  # atno 10763 bound_to 10752
  154.8753  135.3860  154.4165 H   0  0  0  0  0  0  0  0  0  0  0  0  # atno 10764 bound_to 10752
  153.4709  135.7087  153.6057 H   0  0  0  0  0  0  0  0  0  0  0  0  # atno 10765 bound_to 10752
  139.9178  134.9633  156.7781 H   0  0  0  0  0  0  0  0  0  0  0  0  # atno 11005 bound_to 11000
  144.7984  140.6166  143.6495 LP  0  0  0  0  0  0  0  0  0  0  0  0  # atno 17320 bound_to 7965
  145.4669  139.1507  143.3835 LP  0  0  0  0  0  0  0  0  0  0  0  0  # atno 17321 bound_to 7965
  139.7551  143.8720  152.3086 LP  0  0  0  0  0  0  0  0  0  0  0  0  # atno 17342 bound_to 10162
  139.8586  144.7128  150.9126 LP  0  0  0  0  0  0  0  0  0  0  0  0  # atno 17343 bound_to 10162
  157.2410  131.0525  151.2437 LP  0  0  0  0  0  0  0  0  0  0  0  0  # atno 17370 bound_to 10713
  157.3620  130.7136  149.6508 LP  0  0  0  0  0  0  0  0  0  0  0  0  # atno 17371 bound_to 10713
  140.6566  133.9683  155.7783 LP  0  0  0  0  0  0  0  0  0  0  0  0  # atno 17394 bound_to 11000
  141.0672  134.0260  157.3578 LP  0  0  0  0  0  0  0  0  0  0  0  0  # atno 17395 bound_to 11000

$$$$
