#       Name:                AV-unprocessed.smi:2900
#       Creating user name   scv26
#       Creation time:       Fri Mar 27 16:02:40 2020


#       File generated by GOLD software.
#

@<TRIPOS>MOLECULE
AV-unprocessed.smi:2900
    42    43     1
SMALL
NO_CHARGES


@<TRIPOS>ATOM
      1 ****        -0.8732   1.7544   3.5229 O.2            1 S1                 0.0000
      2 ****        -1.3498   1.9422   2.4041 C.2            1 S1                 0.0000
      3 ****        -1.4530   3.2630   1.7887 C.2            1 S1                 0.0000
      4 ****        -1.9880   3.4349   0.5611 C.2            1 S1                 0.0000
      5 ****        -2.4796   2.2813  -0.1732 C.2            1 S1                 0.0000
      6 ****        -3.0933   2.3679  -1.5488 C.3            1 S1                 0.0000
      7 ****        -3.1289   3.6289  -1.9803 F              1 S1                 0.0000
      8 ****        -2.3809   1.6446  -2.4133 F              1 S1                 0.0000
      9 ****        -4.3391   1.8929  -1.5260 F              1 S1                 0.0000
     10 ****        -2.3923   1.1088   0.3673 N.2            1 S1                 0.0000
     11 ****        -1.8307   0.9331   1.6208 N.am           1 S1                 0.0000
     12 ****        -1.7951  -0.4640   2.0728 C.3            1 S1                 0.0000
     13 ****        -0.3881  -1.0955   1.9706 C.3            1 S1                 0.0000
     14 ****        -0.4707  -2.3895   2.5320 O.3            1 S1                 0.0000
     15 ****         0.1223  -1.2294   0.5247 C.3            1 S1                 0.0000
     16 ****         1.5280  -1.4367   0.5524 O.3            1 S1                 0.0000
     17 ****         2.1927  -1.5622  -0.6486 C.ar           1 S1                 0.0000
     18 ****         3.5840  -1.7849  -0.5888 C.ar           1 S1                 0.0000
     19 ****         4.3436  -1.9250  -1.7664 C.ar           1 S1                 0.0000
     20 ****         3.7155  -1.8420  -3.0226 C.ar           1 S1                 0.0000
     21 ****         2.3282  -1.6192  -3.0974 C.ar           1 S1                 0.0000
     22 ****         1.5682  -1.4801  -1.9195 C.ar           1 S1                 0.0000
     23 ****        -1.0895   4.1234   2.3312 H              1 S1                 0.0000
     24 ****        -2.0530   4.4210   0.1261 H              1 S1                 0.0000
     25 ****        -2.1492  -0.5119   3.1044 H              1 S1                 0.0000
     26 ****        -2.5061  -1.0624   1.4991 H              1 S1                 0.0000
     27 ****         0.3195  -0.5107   2.5591 H              1 S1                 0.0000
     28 ****         0.3892  -2.7809   2.5049 H              1 S1                 0.0000
     29 ****        -0.3944  -2.0377   0.0038 H              1 S1                 0.0000
     30 ****        -0.0681  -0.3054  -0.0212 H              1 S1                 0.0000
     31 ****         4.0745  -1.8502   0.3712 H              1 S1                 0.0000
     32 ****         5.4083  -2.0962  -1.7050 H              1 S1                 0.0000
     33 ****         4.2966  -1.9485  -3.9267 H              1 S1                 0.0000
     34 ****         1.8445  -1.5545  -4.0609 H              1 S1                 0.0000
     35 ****         0.5070  -1.3102  -2.0190 H              1 S1                 0.0000
     36 ****        -0.8253   0.8282   3.8970 LP             1 S1                 0.0000
     37 ****        -0.5338   2.5280   4.0581 LP             1 S1                 0.0000
     38 ****        -2.7375   0.3132  -0.1305 LP             1 S1                 0.0000
     39 ****        -1.1123  -2.9464   2.0046 LP             1 S1                 0.0000
     40 ****        -0.7840  -2.3274   3.4796 LP             1 S1                 0.0000
     41 ****         1.6937  -2.2750   1.0718 LP             1 S1                 0.0000
     42 ****         1.9326  -0.6600   1.0352 LP             1 S1                 0.0000
@<TRIPOS>BOND
    1    1    2 2     
    2    2   11 am    
    3    2    3 1     
    4    3    4 2     
    5    3   23 1     
    6    4    5 1     
    7    4   24 1     
    8    5    6 1     
    9    5   10 2     
   10    6    7 1     
   11    6    8 1     
   12    6    9 1     
   13   10   11 1     
   14   11   12 1     
   15   12   13 1     
   16   12   25 1     
   17   12   26 1     
   18   13   14 1     
   19   13   15 1     
   20   13   27 1     
   21   14   28 1     
   22   15   16 1     
   23   15   29 1     
   24   15   30 1     
   25   16   17 1     
   26   17   22 ar    
   27   17   18 ar    
   28   18   19 ar    
   29   18   31 1     
   30   19   20 ar    
   31   19   32 1     
   32   20   21 ar    
   33   20   33 1     
   34   21   22 ar    
   35   21   34 1     
   36   22   35 1     
   37    1   36 1     
   38    1   37 1     
   39   10   38 1     
   40   14   39 1     
   41   14   40 1     
   42   16   41 1     
   43   16   42 1     
@<TRIPOS>SUBSTRUCTURE
      1 S1             1
@<TRIPOS>SET
LONE_PAIRS      STATIC     ATOMS    <user>   **** ""
7 36 37 38 39 40 41 42
DONOR_HYDROGENS      STATIC     ATOMS    <user>   **** ""
1 28
ATOM$BLUE        STATIC     ATOMS    COLORGROUP SYSTEM
7 36 37 38 39 40 41 42
ATOM$RED        STATIC     ATOMS    COLORGROUP SYSTEM
1 28
