AV-unprocessed.smi:2618|AV-procd|sdf|10221|dock5
  -GOLD-   2272014223D 1   1.00000     0.00000
 Structure written by MMmdl.
 38 39  0  0  0  0  0  0  0  0  2 V2000
  160.2949  142.8608  161.3753 C   0  0  0  0  0  0  0  0  0  0  0  0
  159.3832  141.7921  161.1908 O   0  0  0  0  0  0  0  0  0  0  0  0
  159.8949  140.7852  160.3332 C   0  0  0  0  0  0  0  0  0  0  0  0
  159.1887  139.4554  160.6508 C   0  0  0  0  0  0  0  0  0  0  0  0
  157.7035  139.4771  160.3856 C   0  0  0  0  0  0  0  0  0  0  0  0
  156.9218  140.4412  160.7096 N   0  0  0  0  0  0  0  0  0  0  0  0
  155.6605  140.1903  160.3534 N   0  0  0  0  0  0  0  0  0  0  0  0
  154.6129  141.0766  160.6786 C   0  0  0  0  0  0  0  0  0  0  0  0
  153.7211  141.4338  159.7361 N   0  0  0  0  0  0  0  0  0  0  0  0
  152.7362  142.2876  160.0841 C   0  0  0  0  0  0  0  0  0  0  0  0
  151.7451  142.6554  159.0011 C   0  0  0  0  0  0  0  0  0  0  0  0
  152.6350  142.8124  161.3876 C   0  0  0  0  0  0  0  0  0  0  0  0
  153.6212  142.3881  162.2999 C   0  0  0  0  0  0  0  0  0  0  0  0
  153.6396  142.8784  163.7317 C   0  0  0  0  0  0  0  0  0  0  0  0
  154.5988  141.5280  161.9436 N   0  0  0  0  0  0  0  0  0  0  0  0
  155.5460  138.8645  159.7061 C   0  0  2  0  0  0  0  0  0  0  0  0
  155.1526  138.9707  158.4566 O   0  5  0  0  0  0  0  0  0  0  0  0
  154.6009  137.9046  160.4824 C   0  0  0  0  0  0  0  0  0  0  0  0
  154.6764  136.6744  159.9707 F   0  0  0  0  0  0  0  0  0  0  0  0
  154.9158  137.8320  161.7767 F   0  0  0  0  0  0  0  0  0  0  0  0
  153.3349  138.3166  160.3836 F   0  0  0  0  0  0  0  0  0  0  0  0
  156.9957  138.3583  159.7094 C   0  0  0  0  0  0  0  0  0  0  0  0
  159.8569  143.6060  162.0393 H   0  0  0  0  0  0  0  0  0  0  0  0
  160.5271  143.3490  160.4279 H   0  0  0  0  0  0  0  0  0  0  0  0
  161.2247  142.5122  161.8266 H   0  0  0  0  0  0  0  0  0  0  0  0
  159.7241  141.0676  159.2926 H   0  0  0  0  0  0  0  0  0  0  0  0
  160.9723  140.6899  160.4807 H   0  0  0  0  0  0  0  0  0  0  0  0
  159.6428  138.6552  160.0660 H   0  0  0  0  0  0  0  0  0  0  0  0
  159.3563  139.2031  161.6983 H   0  0  0  0  0  0  0  0  0  0  0  0
  150.9054  143.2175  159.4103 H   0  0  0  0  0  0  0  0  0  0  0  0
  151.3527  141.7570  158.5236 H   0  0  0  0  0  0  0  0  0  0  0  0
  152.2293  143.2667  158.2394 H   0  0  0  0  0  0  0  0  0  0  0  0
  151.8505  143.4992  161.6692 H   0  0  0  0  0  0  0  0  0  0  0  0
  152.7742  143.5067  163.9441 H   0  0  0  0  0  0  0  0  0  0  0  0
  154.5408  143.4629  163.9190 H   0  0  0  0  0  0  0  0  0  0  0  0
  153.6267  142.0350  164.4224 H   0  0  0  0  0  0  0  0  0  0  0  0
  157.4102  138.1912  158.7131 H   0  0  0  0  0  0  0  0  0  0  0  0
  157.1134  137.4362  160.2790 H   0  0  0  0  0  0  0  0  0  0  0  0
  1  2  1  0  0  0  0
  1 23  1  0  0  0  0
  1 24  1  0  0  0  0
  1 25  1  0  0  0  0
  2  3  1  0  0  0  0
  3  4  1  0  0  0  0
  3 26  1  0  0  0  0
  3 27  1  0  0  0  0
  4  5  1  0  0  0  0
  4 28  1  0  0  0  0
  4 29  1  0  0  0  0
  5 22  1  0  0  0  0
  5  6  2  0  0  0  0
  6  7  1  0  0  0  0
  7  8  1  0  0  0  0
  7 16  1  0  0  0  0
  8 15  1  0  0  0  0
  8  9  2  0  0  0  0
  9 10  1  0  0  0  0
 10 11  1  0  0  0  0
 10 12  2  0  0  0  0
 11 30  1  0  0  0  0
 11 31  1  0  0  0  0
 11 32  1  0  0  0  0
 12 13  1  0  0  0  0
 12 33  1  0  0  0  0
 13 14  1  0  0  0  0
 13 15  2  0  0  0  0
 14 34  1  0  0  0  0
 14 35  1  0  0  0  0
 14 36  1  0  0  0  0
 16 17  1  0  0  0  0
 16 18  1  0  0  0  0
 16 22  1  0  0  0  0
 18 19  1  0  0  0  0
 18 20  1  0  0  0  0
 18 21  1  0  0  0  0
 22 37  1  0  0  0  0
 22 38  1  0  0  0  0
M  CHG  1  17  -1
M  END
> <s_m_source_file>
AV-unprocessed.smi

> <i_m_source_file_index>
2618

> <i_lp_mmshare_version>
43012

> <i_f3d_flags>
0

> <s_epik_input>
W0NIM11PW0NIMl1bQ0gyXUMoW0NIMl0xKT1OTihbQ0BAXTEoW09IXSlDKEYpKEYpRiljMm5jKFtDSDNdKVtjSF1jKG4yKVtDSDNd

> <s_epik_cmdline>
J2VwaWtfcHl0aG9uJywgJy1waCcsICc3LjAnLCAnLXRuJywgJzgnLCAnLW1hJywgJzIwMCcsICctbWV0YWxfYmluZGluZycsICctaW1hZScsICc8aW5maWxlLm1hZT4nLCAnLW9tYWUnLCAnPG91dGZpbGUubWFlPic=

> <r_lp_tautomer_probability>
1

> <r_epik_Ionization_Penalty>
1.35617

> <r_epik_Ionization_Penalty_Charging>
1.35566

> <r_epik_Ionization_Penalty_Neutral>
0.000506926

> <r_epik_State_Penalty>
1.43411

> <r_epik_Charging_Adjusted_Penalty>
2.78977

> <i_epik_Tot_Q>
-1

> <i_epik_Tot_abs_Q>
1

> <r_epik_Metal_State_Penalty>
1.43499

> <b_epik_Metal_Only>
0

> <s_epik_Chemistry_Notes>
This compound has an imine and may undergo hydrolysis.

> <s_lp_Force_Field>
OPLS_2005

> <r_lp_Energy>
21.8368

> <b_lp_Chiralities_Consistent>
1

> <s_lp_Variant>
AV-unprocessed.smi:2618-4

> <Gold.Version>
5.8.1

> <Gold.Id.Protein>
6NUR|6NUR_protein|mol2

> <Gold.PLP.Fitness>
41.4214

> <Gold.PLP.PLP>
-37.8718

> <Gold.PLP.part.hbond>
-3.9593

> <Gold.PLP.part.metal>
0.0000

> <Gold.PLP.part.buried>
-4.0698

> <Gold.PLP.part.nonpolar>
-28.2387

> <Gold.PLP.part.repulsive>
0.0140

> <Gold.PLP.ligand.clash>
0.0000

> <Gold.PLP.ligand.torsion>
1.2949

> <Gold.PLP.Chemscore.Hbond>
2.0000

> <Gold.PLP.Chemscore.CHOScore>
0.0000

> <Gold.PLP.Chemscore.Metal>
0.0000

> <Gold.Chemscore.Hbonds>
donor molecule, donor type, donor heavy atom, donor atom, acceptor molecule, acceptor atom, score
      P1  H  7997  8010       L1    17  1.92

> <Gold.PLP.Chemscore.Internal.Correction>
0.1394

> <Gold.Rescore>
     Score         DG    S(hbond)    S(metal)    S(lipo)     H(rot)  DE(clash)    DE(int)     intcor
     11.41     -13.49       0.99        0.00      72.39       1.47       0.42       1.66       ----

> <Gold.Chemscore.Fitness>
11.4067

> <Gold.Chemscore.DG>
-13.4862

> <Gold.Chemscore.ZeroCoef>
-5.4800

> <Gold.Chemscore.Hbond>
0.9911

> <Gold.Chemscore.Metal>
0.0000

> <Gold.Chemscore.Lipo>
72.3925

> <Gold.Chemscore.Internal_Hbond>
0.0000

> <Gold.Chemscore.DEClash>
0.4168

> <Gold.Chemscore.DEInternal>
1.6627

> <Gold.Chemscore.Rot>
1.4742

> <Gold.Chemscore.Internal.Correction>
   9.000000E+99

> <Gold.Chemscore.Hbonds>
donor molecule, donor type, donor heavy atom, donor atom, acceptor molecule, acceptor atom, score
      P1  H  7997  8010       L1    17  0.90

> <Gold.Chemscore.Hbond.Weighted>
-3.3103

> <Gold.Chemscore.Metal.Weighted>
-0.0000

> <Gold.Chemscore.Lipo.Weighted>
-8.4699

> <Gold.Chemscore.Internal_Hbond.Weighted>
0.0000

> <Gold.Chemscore.DEClash.Weighted>
0.4168

> <Gold.Chemscore.DEInternal.Weighted>
1.6627

> <Gold.Chemscore.Rot.Weighted>
3.7740

> <Gold.Chemscore.Internal.Correction.Weighted>
   9.000000E+99

> <Gold.Protein.RotatedTorsions>
[ 6907 6896 6895 6894 ] final -109.17 input  -60.11 | X-H torsion
[ 7974 7965 7964 7962 ] final  169.53 input  175.53 | X-H torsion
[ 8008 7997 7996 7995 ] final   -9.20 input   59.86 | X-H torsion
[ 10167 10162 10161 10158 ] final -155.12 input  -65.29 | X-H torsion
[ 10718 10713 10712 10709 ] final  -12.89 input   66.30 | X-H torsion
[ 10763 10752 10751 10750 ] final   22.27 input  -60.55 | X-H torsion
[ 11005 11000 10999 10996 ] final -152.00 input  -57.11 | X-H torsion

> <Gold.Protein.ActiveResidues>
 VAL166  LYS551  ARG553  GLY616  TRP617  ASP618  TYR619  PRO620  LYS621  CYS622 
 ASP623  PHE694  ASN695  SER759  ASP760  ASP761  ALA762  ILE779  LEU786  VAL792 
 PHE793  MET794  SER795  GLU796  ALA797  LYS798  CYS799  TRP800  GLU811  SER814 

> <Gold.Protein.RotatedAtoms>
  150.7545  133.9569  159.3503 H   0  0  0  0  0  0  0  0  0  0  0  0  # atno 6907 bound_to 6896
  151.7491  135.0835  160.0337 H   0  0  0  0  0  0  0  0  0  0  0  0  # atno 6908 bound_to 6896
  152.3478  133.6105  159.5958 H   0  0  0  0  0  0  0  0  0  0  0  0  # atno 6909 bound_to 6896
  144.7352  139.9068  143.6412 H   0  0  0  0  0  0  0  0  0  0  0  0  # atno 7974 bound_to 7965
  154.5669  140.2361  155.8249 H   0  0  0  0  0  0  0  0  0  0  0  0  # atno 8008 bound_to 7997
  156.2076  140.3035  155.9619 H   0  0  0  0  0  0  0  0  0  0  0  0  # atno 8009 bound_to 7997
  155.2784  140.0421  157.3004 H   0  0  0  0  0  0  0  0  0  0  0  0  # atno 8010 bound_to 7997
  139.6957  143.9346  152.2406 H   0  0  0  0  0  0  0  0  0  0  0  0  # atno 10167 bound_to 10162
  156.6382  130.4920  149.6104 H   0  0  0  0  0  0  0  0  0  0  0  0  # atno 10718 bound_to 10713
  153.0929  135.6652  153.9819 H   0  0  0  0  0  0  0  0  0  0  0  0  # atno 10763 bound_to 10752
  153.9411  135.2994  155.3444 H   0  0  0  0  0  0  0  0  0  0  0  0  # atno 10764 bound_to 10752
  154.7345  135.5108  153.9092 H   0  0  0  0  0  0  0  0  0  0  0  0  # atno 10765 bound_to 10752
  140.7236  134.3700  157.5179 H   0  0  0  0  0  0  0  0  0  0  0  0  # atno 11005 bound_to 11000
  146.1030  139.4027  143.0335 LP  0  0  0  0  0  0  0  0  0  0  0  0  # atno 17320 bound_to 7965
  145.7551  140.9957  143.1230 LP  0  0  0  0  0  0  0  0  0  0  0  0  # atno 17321 bound_to 7965
  139.9174  144.6820  150.8497 LP  0  0  0  0  0  0  0  0  0  0  0  0  # atno 17342 bound_to 10162
  140.7696  143.3399  151.2230 LP  0  0  0  0  0  0  0  0  0  0  0  0  # atno 17343 bound_to 10162
  156.2180  130.6720  151.1339 LP  0  0  0  0  0  0  0  0  0  0  0  0  # atno 17370 bound_to 10713
  157.7179  131.0699  150.6254 LP  0  0  0  0  0  0  0  0  0  0  0  0  # atno 17371 bound_to 10713
  139.8842  134.8971  156.2716 LP  0  0  0  0  0  0  0  0  0  0  0  0  # atno 17394 bound_to 11000
  140.9982  133.7167  156.0919 LP  0  0  0  0  0  0  0  0  0  0  0  0  # atno 17395 bound_to 11000

$$$$
