AV-unprocessed.smi:3062|AV-procd|sdf|11683|dock2
  -GOLD-   2272017 83D 1   1.00000     0.00000
 Structure written by MMmdl.
 39 40  0  0  0  0  0  0  0  0  1 V2000
  153.2915  142.8587  159.8854 C   0  0  0  0  0  0  0  0  0  0  0  0
  152.6574  141.5789  159.4111 C   0  0  0  0  0  0  0  0  0  0  0  0
  151.6665  141.6916  158.5890 N   0  0  0  0  0  0  0  0  0  0  0  0
  151.0140  140.5809  158.0927 N   0  0  0  0  0  0  0  0  0  0  0  0
  149.9188  140.8985  157.1688 C   0  0  0  0  0  0  0  0  0  0  0  0
  150.4111  141.6807  155.9319 C   0  0  2  0  0  0  0  0  0  0  0  0
  150.5609  143.0518  156.2416 O   0  0  0  0  0  0  0  0  0  0  0  0
  149.4572  141.5673  154.7317 C   0  0  0  0  0  0  0  0  0  0  0  0
  148.5550  140.4841  154.9251 O   0  0  0  0  0  0  0  0  0  0  0  0
  147.4226  140.5130  154.0668 C   0  0  0  0  0  0  0  0  0  0  0  0
  146.5445  141.6605  154.4623 C   0  0  0  0  0  0  0  0  0  0  0  0
  146.1440  142.7083  153.6728 C   0  0  0  0  0  0  0  0  0  0  0  0
  145.3194  143.6475  154.3596 C   0  0  0  0  0  0  0  0  0  0  0  0
  145.1063  143.3091  155.6692 C   0  0  0  0  0  0  0  0  0  0  0  0
  145.9219  141.8278  156.0877 S   0  0  0  0  0  0  0  0  0  0  0  0
  151.3322  139.2907  158.3996 C   0  0  0  0  0  0  0  0  0  0  0  0
  150.7279  138.3281  157.9243 O   0  0  0  0  0  0  0  0  0  0  0  0
  152.4541  139.1697  159.3335 C   0  0  0  0  0  0  0  0  0  0  0  0
  152.8199  137.8351  159.6840 C   0  0  0  0  0  0  0  0  0  0  0  0
  153.1053  136.7546  159.9859 N   0  0  0  0  0  0  0  0  0  0  0  0
  153.1021  140.2534  159.8296 C   0  0  0  0  0  0  0  0  0  0  0  0
  154.2735  140.1826  160.7997 C   0  0  0  0  0  0  0  0  0  0  0  0
  154.3573  142.8729  159.6558 H   0  0  0  0  0  0  0  0  0  0  0  0
  153.1754  142.9708  160.9637 H   0  0  0  0  0  0  0  0  0  0  0  0
  152.8430  143.7341  159.4128 H   0  0  0  0  0  0  0  0  0  0  0  0
  149.4486  139.9666  156.8491 H   0  0  0  0  0  0  0  0  0  0  0  0
  149.1265  141.4505  157.6783 H   0  0  0  0  0  0  0  0  0  0  0  0
  151.3873  141.3118  155.6159 H   0  0  0  0  0  0  0  0  0  0  0  0
  149.7442  143.4905  156.0586 H   0  0  0  0  0  0  0  0  0  0  0  0
  148.9129  142.5002  154.5763 H   0  0  0  0  0  0  0  0  0  0  0  0
  150.0498  141.3922  153.8326 H   0  0  0  0  0  0  0  0  0  0  0  0
  147.7694  140.6597  153.0440 H   0  0  0  0  0  0  0  0  0  0  0  0
  146.8812  139.5660  154.0893 H   0  0  0  0  0  0  0  0  0  0  0  0
  146.4108  142.8309  152.6335 H   0  0  0  0  0  0  0  0  0  0  0  0
  144.9190  144.5265  153.8764 H   0  0  0  0  0  0  0  0  0  0  0  0
  144.5272  143.8390  156.4112 H   0  0  0  0  0  0  0  0  0  0  0  0
  154.5162  139.1582  161.0808 H   0  0  0  0  0  0  0  0  0  0  0  0
  154.0463  140.7277  161.7164 H   0  0  0  0  0  0  0  0  0  0  0  0
  155.1663  140.6199  160.3517 H   0  0  0  0  0  0  0  0  0  0  0  0
  1  2  1  0  0  0  0
  1 23  1  0  0  0  0
  1 24  1  0  0  0  0
  1 25  1  0  0  0  0
  2 21  1  0  0  0  0
  2  3  2  0  0  0  0
  3  4  1  0  0  0  0
  4  5  1  0  0  0  0
  4 16  1  0  0  0  0
  5  6  1  0  0  0  0
  5 26  1  0  0  0  0
  5 27  1  0  0  0  0
  6  7  1  0  0  0  0
  6  8  1  0  0  0  0
  6 28  1  0  0  0  0
  7 29  1  0  0  0  0
  8  9  1  0  0  0  0
  8 30  1  0  0  0  0
  8 31  1  0  0  0  0
  9 10  1  0  0  0  0
 10 11  1  0  0  0  0
 10 32  1  0  0  0  0
 10 33  1  0  0  0  0
 11 15  1  0  0  0  0
 11 12  2  0  0  0  0
 12 13  1  0  0  0  0
 12 34  1  0  0  0  0
 13 14  2  0  0  0  0
 13 35  1  0  0  0  0
 14 15  1  0  0  0  0
 14 36  1  0  0  0  0
 16 17  2  0  0  0  0
 16 18  1  0  0  0  0
 18 19  1  0  0  0  0
 18 21  2  0  0  0  0
 19 20  3  0  0  0  0
 21 22  1  0  0  0  0
 22 37  1  0  0  0  0
 22 38  1  0  0  0  0
 22 39  1  0  0  0  0
M  END
> <s_m_source_file>
AV-unprocessed.smi

> <i_m_source_file_index>
3062

> <i_lp_mmshare_version>
43012

> <i_f3d_flags>
0

> <s_epik_input>
TiNDYyhjMVtDSDNdKWMoPU8pbihuYzFbQ0gzXSlbQ0gyXVtDQEhdKFtPSF0pW0NIMl1PW0NIMl1jMltjSF1bY0hdW2NIXXMy

> <s_epik_cmdline>
J2VwaWtfcHl0aG9uJywgJy1waCcsICc3LjAnLCAnLXRuJywgJzgnLCAnLW1hJywgJzIwMCcsICctbWV0YWxfYmluZGluZycsICctaW1hZScsICc8aW5maWxlLm1hZT4nLCAnLW9tYWUnLCAnPG91dGZpbGUubWFlPic=

> <r_lp_tautomer_probability>
1

> <r_epik_Ionization_Penalty>
6.86395e-08

> <r_epik_Ionization_Penalty_Charging>
2.24757e-10

> <r_epik_Ionization_Penalty_Neutral>
6.84147e-08

> <r_epik_State_Penalty>
-0

> <r_epik_Charging_Adjusted_Penalty>
2.24757e-10

> <i_epik_Tot_Q>
0

> <i_epik_Tot_abs_Q>
0

> <r_epik_Metal_State_Penalty>
-0

> <b_epik_Metal_Only>
0

> <s_lp_Force_Field>
OPLS_2005

> <r_lp_Energy>
26.0533

> <b_lp_Chiralities_Consistent>
1

> <s_lp_Variant>
AV-unprocessed.smi:3062-1

> <Gold.Version>
5.8.1

> <Gold.Id.Protein>
6NUR|6NUR_protein|mol2

> <Gold.PLP.Fitness>
45.1821

> <Gold.PLP.PLP>
-40.9278

> <Gold.PLP.part.hbond>
-1.8694

> <Gold.PLP.part.metal>
0.0000

> <Gold.PLP.part.buried>
-6.2485

> <Gold.PLP.part.nonpolar>
-32.3955

> <Gold.PLP.part.repulsive>
0.0889

> <Gold.PLP.ligand.clash>
0.0000

> <Gold.PLP.ligand.torsion>
0.9092

> <Gold.PLP.Chemscore.Hbond>
2.0000

> <Gold.PLP.Chemscore.CHOScore>
0.0000

> <Gold.PLP.Chemscore.Metal>
0.0000

> <Gold.Chemscore.Hbonds>
donor molecule, donor type, donor heavy atom, donor atom, acceptor molecule, acceptor atom, score
      L1  H     7    29       P1  8028  1.00
      P1  H  6896  6909       L1    20  0.96

> <Gold.PLP.Chemscore.Internal.Correction>
0.0727

> <Gold.Rescore>
     Score         DG    S(hbond)    S(metal)    S(lipo)     H(rot)  DE(clash)    DE(int)     intcor
     15.11     -16.14       1.93        0.00      90.88       2.51       0.09       0.95       ----

> <Gold.Chemscore.Fitness>
15.1072

> <Gold.Chemscore.DG>
-16.1406

> <Gold.Chemscore.ZeroCoef>
-5.4800

> <Gold.Chemscore.Hbond>
1.9337

> <Gold.Chemscore.Metal>
0.0000

> <Gold.Chemscore.Lipo>
90.8776

> <Gold.Chemscore.Internal_Hbond>
0.0000

> <Gold.Chemscore.DEClash>
0.0869

> <Gold.Chemscore.DEInternal>
0.9466

> <Gold.Chemscore.Rot>
2.5119

> <Gold.Chemscore.Internal.Correction>
   9.000000E+99

> <Gold.Chemscore.Hbonds>
donor molecule, donor type, donor heavy atom, donor atom, acceptor molecule, acceptor atom, score
      L1  H     7    29       P1  8028  0.92
      P1  H  6896  6909       L1    20  0.91

> <Gold.Chemscore.Hbond.Weighted>
-6.4584

> <Gold.Chemscore.Metal.Weighted>
-0.0000

> <Gold.Chemscore.Lipo.Weighted>
-10.6327

> <Gold.Chemscore.Internal_Hbond.Weighted>
0.0000

> <Gold.Chemscore.DEClash.Weighted>
0.0869

> <Gold.Chemscore.DEInternal.Weighted>
0.9466

> <Gold.Chemscore.Rot.Weighted>
6.4305

> <Gold.Chemscore.Internal.Correction.Weighted>
   9.000000E+99

> <Gold.Protein.RotatedTorsions>
[ 6907 6896 6895 6894 ] final  164.21 input  -60.11 | X-H torsion
[ 7974 7965 7964 7962 ] final   34.38 input  175.53 | X-H torsion
[ 8008 7997 7996 7995 ] final -111.33 input   59.86 | X-H torsion
[ 10167 10162 10161 10158 ] final   16.13 input  -65.29 | X-H torsion
[ 10718 10713 10712 10709 ] final  130.12 input   66.30 | X-H torsion
[ 10763 10752 10751 10750 ] final  -19.87 input  -60.55 | X-H torsion
[ 11005 11000 10999 10996 ] final  -86.07 input  -57.11 | X-H torsion

> <Gold.Protein.ActiveResidues>
 VAL166  LYS551  ARG553  GLY616  TRP617  ASP618  TYR619  PRO620  LYS621  CYS622 
 ASP623  PHE694  ASN695  SER759  ASP760  ASP761  ALA762  ILE779  LEU786  VAL792 
 PHE793  MET794  SER795  GLU796  ALA797  LYS798  CYS799  TRP800  GLU811  SER814 

> <Gold.Protein.RotatedAtoms>
  151.9133  133.3566  159.3870 H   0  0  0  0  0  0  0  0  0  0  0  0  # atno 6907 bound_to 6896
  150.7053  134.4710  159.5434 H   0  0  0  0  0  0  0  0  0  0  0  0  # atno 6908 bound_to 6896
  152.2320  134.8313  160.0523 H   0  0  0  0  0  0  0  0  0  0  0  0  # atno 6909 bound_to 6896
  146.1357  139.6277  142.9197 H   0  0  0  0  0  0  0  0  0  0  0  0  # atno 7974 bound_to 7965
  154.9882  140.0395  157.2308 H   0  0  0  0  0  0  0  0  0  0  0  0  # atno 8008 bound_to 7997
  154.7652  140.2792  155.6159 H   0  0  0  0  0  0  0  0  0  0  0  0  # atno 8009 bound_to 7997
  156.2911  140.2620  156.2441 H   0  0  0  0  0  0  0  0  0  0  0  0  # atno 8010 bound_to 7997
  140.5819  143.8965  150.6797 H   0  0  0  0  0  0  0  0  0  0  0  0  # atno 10167 bound_to 10162
  157.5092  131.1096  150.9318 H   0  0  0  0  0  0  0  0  0  0  0  0  # atno 10718 bound_to 10713
  153.6115  135.6996  153.5345 H   0  0  0  0  0  0  0  0  0  0  0  0  # atno 10763 bound_to 10752
  153.3013  135.4128  155.1254 H   0  0  0  0  0  0  0  0  0  0  0  0  # atno 10764 bound_to 10752
  154.8562  135.3649  154.5653 H   0  0  0  0  0  0  0  0  0  0  0  0  # atno 10765 bound_to 10752
  141.1634  133.7434  156.9107 H   0  0  0  0  0  0  0  0  0  0  0  0  # atno 11005 bound_to 11000
  145.5162  141.0434  143.2461 LP  0  0  0  0  0  0  0  0  0  0  0  0  # atno 17320 bound_to 7965
  144.7737  139.6677  143.7184 LP  0  0  0  0  0  0  0  0  0  0  0  0  # atno 17321 bound_to 7965
  140.2466  143.3624  152.1441 LP  0  0  0  0  0  0  0  0  0  0  0  0  # atno 17342 bound_to 10162
  139.5174  144.6992  151.5543 LP  0  0  0  0  0  0  0  0  0  0  0  0  # atno 17343 bound_to 10162
  156.9963  130.5583  149.5307 LP  0  0  0  0  0  0  0  0  0  0  0  0  # atno 17370 bound_to 10713
  156.0278  130.5371  150.8453 LP  0  0  0  0  0  0  0  0  0  0  0  0  # atno 17371 bound_to 10713
  140.1518  134.9225  157.2603 LP  0  0  0  0  0  0  0  0  0  0  0  0  # atno 17394 bound_to 11000
  140.2713  134.3457  155.7372 LP  0  0  0  0  0  0  0  0  0  0  0  0  # atno 17395 bound_to 11000

$$$$
