AV-unprocessed.smi:1915|AV-procd|sdf|7763|dock1
  -GOLD-   22720 9503D 1   1.00000     0.00000
 Structure written by MMmdl.
 45 46  0  0  0  0  0  0  0  0  2 V2000
  152.3369  142.4732  159.7952 C   0  0  0  0  0  0  0  0  0  0  0  0
  151.8277  142.5465  158.3453 C   0  0  0  0  0  0  0  0  0  0  0  0
  150.9176  143.7699  158.1596 C   0  0  0  0  0  0  0  0  0  0  0  0
  151.1047  141.2612  157.8834 C   0  0  0  0  0  0  0  0  0  0  0  0
  150.8834  141.2140  156.4379 N   0  0  0  0  0  0  0  0  0  0  0  0
  149.9423  142.1252  155.8063 C   0  0  0  0  0  0  0  0  0  0  0  0
  149.7648  141.6103  154.3613 C   0  0  2  0  0  0  0  0  0  0  0  0
  148.3743  141.0044  154.1165 C   0  0  0  0  0  0  0  0  0  0  0  0
  147.5529  140.9478  155.0325 O   0  0  0  0  0  0  0  0  0  0  0  0
  148.1318  140.5376  152.8812 N   0  0  0  0  0  0  0  0  0  0  0  0
  146.8848  139.9174  152.4387 C   0  0  0  0  0  0  0  0  0  0  0  0
  146.9817  139.3033  151.0269 C   0  0  0  0  0  0  0  0  0  0  0  0
  146.2256  137.9951  150.8684 C   0  0  0  0  0  0  0  0  0  0  0  0
  146.7155  136.9431  150.0648 C   0  0  0  0  0  0  0  0  0  0  0  0
  145.9490  135.7675  149.9255 C   0  0  0  0  0  0  0  0  0  0  0  0
  144.7105  135.6676  150.5926 C   0  0  0  0  0  0  0  0  0  0  0  0
  144.2694  136.7475  151.3836 C   0  0  0  0  0  0  0  0  0  0  0  0
  145.0318  137.8577  151.4912 N   0  3  0  0  0  0  0  0  0  0  0  0
  150.8717  140.5548  154.1739 C   0  0  0  0  0  0  0  0  0  0  0  0
  151.4141  140.3385  155.5761 C   0  0  0  0  0  0  0  0  0  0  0  0
  152.2224  139.4512  155.8450 O   0  0  0  0  0  0  0  0  0  0  0  0
  151.5235  142.2629  160.4901 H   0  0  0  0  0  0  0  0  0  0  0  0
  152.7964  143.4145  160.0974 H   0  0  0  0  0  0  0  0  0  0  0  0
  153.0921  141.6972  159.9174 H   0  0  0  0  0  0  0  0  0  0  0  0
  152.6954  142.6917  157.7005 H   0  0  0  0  0  0  0  0  0  0  0  0
  150.0239  143.6975  158.7805 H   0  0  0  0  0  0  0  0  0  0  0  0
  150.5950  143.8674  157.1226 H   0  0  0  0  0  0  0  0  0  0  0  0
  151.4357  144.6910  158.4282 H   0  0  0  0  0  0  0  0  0  0  0  0
  151.6687  140.3822  158.2004 H   0  0  0  0  0  0  0  0  0  0  0  0
  150.1375  141.1859  158.3817 H   0  0  0  0  0  0  0  0  0  0  0  0
  149.0048  142.1628  156.3641 H   0  0  0  0  0  0  0  0  0  0  0  0
  150.3627  143.1318  155.8076 H   0  0  0  0  0  0  0  0  0  0  0  0
  149.9206  142.4346  153.6632 H   0  0  0  0  0  0  0  0  0  0  0  0
  148.8630  140.6296  152.1905 H   0  0  0  0  0  0  0  0  0  0  0  0
  146.5594  139.1611  153.1551 H   0  0  0  0  0  0  0  0  0  0  0  0
  146.1123  140.6867  152.4435 H   0  0  0  0  0  0  0  0  0  0  0  0
  146.5983  140.0152  150.2951 H   0  0  0  0  0  0  0  0  0  0  0  0
  148.0292  139.1420  150.7679 H   0  0  0  0  0  0  0  0  0  0  0  0
  147.6613  137.0393  149.5517 H   0  0  0  0  0  0  0  0  0  0  0  0
  146.3052  134.9540  149.3106 H   0  0  0  0  0  0  0  0  0  0  0  0
  144.1070  134.7768  150.4962 H   0  0  0  0  0  0  0  0  0  0  0  0
  143.3346  136.7593  151.9249 H   0  0  0  0  0  0  0  0  0  0  0  0
  150.5156  139.6129  153.7542 H   0  0  0  0  0  0  0  0  0  0  0  0
  151.6687  140.9303  153.5312 H   0  0  0  0  0  0  0  0  0  0  0  0
  144.6887  138.6304  152.0620 H   0  0  0  0  0  0  0  0  0  0  0  0
  1  2  1  0  0  0  0
  1 22  1  0  0  0  0
  1 23  1  0  0  0  0
  1 24  1  0  0  0  0
  2  3  1  0  0  0  0
  2  4  1  0  0  0  0
  2 25  1  0  0  0  0
  3 26  1  0  0  0  0
  3 27  1  0  0  0  0
  3 28  1  0  0  0  0
  4  5  1  0  0  0  0
  4 29  1  0  0  0  0
  4 30  1  0  0  0  0
  5 20  1  0  0  0  0
  5  6  1  0  0  0  0
  6  7  1  0  0  0  0
  6 31  1  0  0  0  0
  6 32  1  0  0  0  0
  7  8  1  0  0  0  0
  7 19  1  0  0  0  0
  7 33  1  0  0  0  0
  8  9  2  0  0  0  0
  8 10  1  0  0  0  0
 10 11  1  0  0  0  0
 10 34  1  0  0  0  0
 11 12  1  0  0  0  0
 11 35  1  0  0  0  0
 11 36  1  0  0  0  0
 12 13  1  0  0  0  0
 12 37  1  0  0  0  0
 12 38  1  0  0  0  0
 13 18  1  0  0  0  0
 13 14  2  0  0  0  0
 14 15  1  0  0  0  0
 14 39  1  0  0  0  0
 15 16  2  0  0  0  0
 15 40  1  0  0  0  0
 16 17  1  0  0  0  0
 16 41  1  0  0  0  0
 17 18  2  0  0  0  0
 17 42  1  0  0  0  0
 18 45  1  0  0  0  0
 19 20  1  0  0  0  0
 19 43  1  0  0  0  0
 19 44  1  0  0  0  0
 20 21  2  0  0  0  0
M  CHG  1  18   1
M  END
> <s_m_source_file>
AV-unprocessed.smi

> <i_m_source_file_index>
1915

> <i_lp_mmshare_version>
43012

> <i_f3d_flags>
0

> <s_epik_input>
W0NIM11bQ0hdKFtDSDNdKVtDSDJdTjFbQ0gyXVtDQEhdKFtDSDJdQzE9TylDKD1PKVtOSF1bQ0gyXVtDSDJdYzJbY0hdW2NIXVtjSF1bY0hdbjI=

> <s_epik_cmdline>
J2VwaWtfcHl0aG9uJywgJy1waCcsICc3LjAnLCAnLXRuJywgJzgnLCAnLW1hJywgJzIwMCcsICctbWV0YWxfYmluZGluZycsICctaW1hZScsICc8aW5maWxlLm1hZT4nLCAnLW9tYWUnLCAnPG91dGZpbGUubWFlPic=

> <r_epik_Ionization_Penalty>
1.88249

> <r_epik_Ionization_Penalty_Charging>
1.88249

> <r_epik_Ionization_Penalty_Neutral>
3.64574e-08

> <r_epik_State_Penalty>
2.00238

> <r_epik_Charging_Adjusted_Penalty>
3.88487

> <i_epik_Tot_Q>
1

> <i_epik_Tot_abs_Q>
1

> <r_epik_Metal_State_Penalty>
2.02676

> <b_epik_Metal_Only>
0

> <s_lp_Force_Field>
OPLS_2005

> <r_lp_Energy>
20.6112

> <b_lp_Chiralities_Consistent>
1

> <s_lp_Variant>
AV-unprocessed.smi:1915-4

> <Gold.Version>
5.8.1

> <Gold.Id.Protein>
6NUR|6NUR_protein|mol2

> <Gold.PLP.Fitness>
49.2916

> <Gold.PLP.PLP>
-41.9376

> <Gold.PLP.part.hbond>
-3.0000

> <Gold.PLP.part.metal>
0.0000

> <Gold.PLP.part.buried>
4.3885

> <Gold.PLP.part.nonpolar>
-42.9291

> <Gold.PLP.part.repulsive>
0.1985

> <Gold.PLP.ligand.clash>
0.0000

> <Gold.PLP.ligand.torsion>
0.7344

> <Gold.PLP.Chemscore.Hbond>
2.8480

> <Gold.PLP.Chemscore.CHOScore>
0.0000

> <Gold.PLP.Chemscore.Metal>
0.0000

> <Gold.Chemscore.Hbonds>
donor molecule, donor type, donor heavy atom, donor atom, acceptor molecule, acceptor atom, score
      L1  H    10    34       P1  7957  0.63
      L1  H    18    45       P1 10175  1.56
      P1  H  7997  8008       L1    21  0.04

> <Gold.PLP.Chemscore.Internal.Correction>
0.2788

> <Gold.Rescore>
     Score         DG    S(hbond)    S(metal)    S(lipo)     H(rot)  DE(clash)    DE(int)     intcor
     14.84     -17.12       1.49        0.00      97.73       1.86       1.45       0.83       ----

> <Gold.Chemscore.Fitness>
14.8444

> <Gold.Chemscore.DG>
-17.1186

> <Gold.Chemscore.ZeroCoef>
-5.4800

> <Gold.Chemscore.Hbond>
1.4898

> <Gold.Chemscore.Metal>
0.0000

> <Gold.Chemscore.Lipo>
97.7276

> <Gold.Chemscore.Internal_Hbond>
0.0000

> <Gold.Chemscore.DEClash>
1.4453

> <Gold.Chemscore.DEInternal>
0.8289

> <Gold.Chemscore.Rot>
1.8638

> <Gold.Chemscore.Internal.Correction>
   9.000000E+99

> <Gold.Chemscore.Hbonds>
donor molecule, donor type, donor heavy atom, donor atom, acceptor molecule, acceptor atom, score
      L1  H    10    34       P1  7957  0.60
      L1  H    18    45       P1 10175  0.77
      P1  H  7997  8008       L1    21  0.08

> <Gold.Chemscore.Hbond.Weighted>
-4.9758

> <Gold.Chemscore.Metal.Weighted>
-0.0000

> <Gold.Chemscore.Lipo.Weighted>
-11.4341

> <Gold.Chemscore.Internal_Hbond.Weighted>
0.0000

> <Gold.Chemscore.DEClash.Weighted>
1.4453

> <Gold.Chemscore.DEInternal.Weighted>
0.8289

> <Gold.Chemscore.Rot.Weighted>
4.7713

> <Gold.Chemscore.Internal.Correction.Weighted>
   9.000000E+99

> <Gold.Protein.RotatedTorsions>
[ 6907 6896 6895 6894 ] final   51.37 input  -60.11 | X-H torsion
[ 7974 7965 7964 7962 ] final   62.83 input  175.53 | X-H torsion
[ 8008 7997 7996 7995 ] final  -64.82 input   59.86 | X-H torsion
[ 10167 10162 10161 10158 ] final   82.71 input  -65.29 | X-H torsion
[ 10718 10713 10712 10709 ] final   73.95 input   66.30 | X-H torsion
[ 10763 10752 10751 10750 ] final  135.81 input  -60.55 | X-H torsion
[ 11005 11000 10999 10996 ] final   99.36 input  -57.11 | X-H torsion

> <Gold.Protein.ActiveResidues>
 VAL166  LYS551  ARG553  GLY616  TRP617  ASP618  TYR619  PRO620  LYS621  CYS622 
 ASP623  PHE694  ASN695  SER759  ASP760  ASP761  ALA762  ILE779  LEU786  VAL792 
 PHE793  MET794  SER795  GLU796  ALA797  LYS798  CYS799  TRP800  GLU811  SER814 

> <Gold.Protein.RotatedAtoms>
  152.3120  134.7486  160.0334 H   0  0  0  0  0  0  0  0  0  0  0  0  # atno 6907 bound_to 6896
  151.7964  133.3359  159.3522 H   0  0  0  0  0  0  0  0  0  0  0  0  # atno 6908 bound_to 6896
  150.7325  134.5725  159.5942 H   0  0  0  0  0  0  0  0  0  0  0  0  # atno 6909 bound_to 6896
  145.8688  139.3364  143.0775 H   0  0  0  0  0  0  0  0  0  0  0  0  # atno 7974 bound_to 7965
  154.4634  140.0946  156.6956 H   0  0  0  0  0  0  0  0  0  0  0  0  # atno 8008 bound_to 7997
  155.4927  140.3471  155.4339 H   0  0  0  0  0  0  0  0  0  0  0  0  # atno 8009 bound_to 7997
  156.0913  140.1398  156.9577 H   0  0  0  0  0  0  0  0  0  0  0  0  # atno 8010 bound_to 7997
  139.9259  144.6183  150.8393 H   0  0  0  0  0  0  0  0  0  0  0  0  # atno 10167 bound_to 10162
  157.6571  130.9654  150.1142 H   0  0  0  0  0  0  0  0  0  0  0  0  # atno 10718 bound_to 10713
  153.8462  135.3085  155.3429 H   0  0  0  0  0  0  0  0  0  0  0  0  # atno 10763 bound_to 10752
  154.7911  135.4782  154.0058 H   0  0  0  0  0  0  0  0  0  0  0  0  # atno 10764 bound_to 10752
  153.1546  135.6849  153.8924 H   0  0  0  0  0  0  0  0  0  0  0  0  # atno 10765 bound_to 10752
  139.8771  134.9092  156.4594 H   0  0  0  0  0  0  0  0  0  0  0  0  # atno 11005 bound_to 11000
  145.9161  140.9147  143.0429 LP  0  0  0  0  0  0  0  0  0  0  0  0  # atno 17320 bound_to 7965
  144.6726  140.1226  143.7449 LP  0  0  0  0  0  0  0  0  0  0  0  0  # atno 17321 bound_to 7965
  140.7650  143.3264  151.2507 LP  0  0  0  0  0  0  0  0  0  0  0  0  # atno 17342 bound_to 10162
  139.6822  143.9835  152.2815 LP  0  0  0  0  0  0  0  0  0  0  0  0  # atno 17343 bound_to 10162
  156.2030  130.3661  149.8764 LP  0  0  0  0  0  0  0  0  0  0  0  0  # atno 17370 bound_to 10713
  156.6662  130.8802  151.3555 LP  0  0  0  0  0  0  0  0  0  0  0  0  # atno 17371 bound_to 10713
  140.8874  133.7873  155.9534 LP  0  0  0  0  0  0  0  0  0  0  0  0  # atno 17394 bound_to 11000
  140.8789  134.2635  157.5154 LP  0  0  0  0  0  0  0  0  0  0  0  0  # atno 17395 bound_to 11000

$$$$
