AV-unprocessed.smi:1334|AV-procd|sdf|5493|dock7
  -GOLD-   22720 5 73D 1   1.00000     0.00000
 Structure written by MMmdl.
 38 39  0  0  0  0  0  0  0  0  1 V2000
  149.1475  138.6598  154.3881 C   0  0  0  0  0  0  0  0  0  0  0  0
  150.6545  138.4290  154.6232 C   0  0  1  0  0  0  0  0  0  0  0  0
  151.3237  139.5970  155.3625 C   0  0  0  0  0  0  0  0  0  0  0  0
  152.5509  139.6874  155.4088 O   0  0  0  0  0  0  0  0  0  0  0  0
  150.4955  140.4917  155.9254 N   0  0  0  0  0  0  0  0  0  0  0  0
  150.8990  141.7187  156.6065 C   0  0  0  0  0  0  0  0  0  0  0  0
  151.5761  141.4182  157.9563 C   0  0  0  0  0  0  0  0  0  0  0  0
  151.8438  142.6555  158.8010 C   0  0  0  0  0  0  0  0  0  0  0  0
  152.3906  142.5754  160.0300 C   0  0  0  0  0  0  0  0  0  0  0  0
  152.6621  143.7745  160.9199 C   0  0  0  0  0  0  0  0  0  0  0  0
  151.9037  145.0264  160.4517 C   0  0  0  0  0  0  0  0  0  0  0  0
  152.0263  145.2032  158.9334 C   0  0  0  0  0  0  0  0  0  0  0  0
  151.4528  143.9911  158.1772 C   0  0  0  0  0  0  0  0  0  0  0  0
  150.9205  137.1778  155.3227 N   0  0  0  0  0  0  0  0  0  0  0  0
  150.4551  135.9495  155.0867 C   0  0  0  0  0  0  0  0  0  0  0  0
  150.9393  135.0232  155.9020 N   0  0  0  0  0  0  0  0  0  0  0  0
  151.7682  135.7993  156.6613 C   0  0  0  0  0  0  0  0  0  0  0  0
  151.8057  137.0939  156.3474 N   0  0  0  0  0  0  0  0  0  0  0  0
  148.9756  139.5724  153.8165 H   0  0  0  0  0  0  0  0  0  0  0  0
  148.5931  138.7474  155.3235 H   0  0  0  0  0  0  0  0  0  0  0  0
  148.7125  137.8346  153.8236 H   0  0  0  0  0  0  0  0  0  0  0  0
  151.1240  138.3512  153.6411 H   0  0  0  0  0  0  0  0  0  0  0  0
  149.5027  140.3292  155.8418 H   0  0  0  0  0  0  0  0  0  0  0  0
  151.6001  142.2463  155.9598 H   0  0  0  0  0  0  0  0  0  0  0  0
  150.0558  142.3962  156.7492 H   0  0  0  0  0  0  0  0  0  0  0  0
  150.9537  140.7234  158.5221 H   0  0  0  0  0  0  0  0  0  0  0  0
  152.5223  140.9037  157.7862 H   0  0  0  0  0  0  0  0  0  0  0  0
  152.6705  141.6133  160.4337 H   0  0  0  0  0  0  0  0  0  0  0  0
  152.3868  143.5344  161.9461 H   0  0  0  0  0  0  0  0  0  0  0  0
  153.7364  143.9602  160.9173 H   0  0  0  0  0  0  0  0  0  0  0  0
  150.8498  144.9365  160.7185 H   0  0  0  0  0  0  0  0  0  0  0  0
  152.2814  145.9080  160.9704 H   0  0  0  0  0  0  0  0  0  0  0  0
  151.5188  146.1140  158.6145 H   0  0  0  0  0  0  0  0  0  0  0  0
  153.0780  145.3290  158.6730 H   0  0  0  0  0  0  0  0  0  0  0  0
  151.7844  144.0200  157.1391 H   0  0  0  0  0  0  0  0  0  0  0  0
  150.3653  144.0551  158.1607 H   0  0  0  0  0  0  0  0  0  0  0  0
  149.7478  135.7278  154.3011 H   0  0  0  0  0  0  0  0  0  0  0  0
  152.3710  135.3958  157.4613 H   0  0  0  0  0  0  0  0  0  0  0  0
  1  2  1  0  0  0  0
  1 19  1  0  0  0  0
  1 20  1  0  0  0  0
  1 21  1  0  0  0  0
  2  3  1  0  0  0  0
  2 14  1  0  0  0  0
  2 22  1  0  0  0  0
  3  4  2  0  0  0  0
  3  5  1  0  0  0  0
  5  6  1  0  0  0  0
  5 23  1  0  0  0  0
  6  7  1  0  0  0  0
  6 24  1  0  0  0  0
  6 25  1  0  0  0  0
  7  8  1  0  0  0  0
  7 26  1  0  0  0  0
  7 27  1  0  0  0  0
  8 13  1  0  0  0  0
  8  9  2  0  0  0  0
  9 10  1  0  0  0  0
  9 28  1  0  0  0  0
 10 11  1  0  0  0  0
 10 29  1  0  0  0  0
 10 30  1  0  0  0  0
 11 12  1  0  0  0  0
 11 31  1  0  0  0  0
 11 32  1  0  0  0  0
 12 13  1  0  0  0  0
 12 33  1  0  0  0  0
 12 34  1  0  0  0  0
 13 35  1  0  0  0  0
 13 36  1  0  0  0  0
 14 18  1  0  0  0  0
 14 15  1  0  0  0  0
 15 16  2  0  0  0  0
 15 37  1  0  0  0  0
 16 17  1  0  0  0  0
 17 18  2  0  0  0  0
 17 38  1  0  0  0  0
M  END
> <s_m_source_file>
AV-unprocessed.smi

> <i_m_source_file_index>
1334

> <i_lp_mmshare_version>
43012

> <i_f3d_flags>
0

> <s_epik_input>
bjFbY0hdbltjSF1uMVtDQEhdKFtDSDNdKUMoPU8pW05IXVtDSDJdW0NIMl1DMj1bQ0hdW0NIMl1bQ0gyXVtDSDJdW0NIMl0y

> <s_epik_cmdline>
J2VwaWtfcHl0aG9uJywgJy1waCcsICc3LjAnLCAnLXRuJywgJzgnLCAnLW1hJywgJzIwMCcsICctbWV0YWxfYmluZGluZycsICctaW1hZScsICc8aW5maWxlLm1hZT4nLCAnLW9tYWUnLCAnPG91dGZpbGUubWFlPic=

> <r_lp_tautomer_probability>
1

> <r_epik_Ionization_Penalty>
1.26383e-05

> <r_epik_Ionization_Penalty_Charging>
0

> <r_epik_Ionization_Penalty_Neutral>
1.26383e-05

> <r_epik_State_Penalty>
-0

> <r_epik_Charging_Adjusted_Penalty>
0

> <i_epik_Tot_Q>
0

> <i_epik_Tot_abs_Q>
0

> <r_epik_Metal_State_Penalty>
-0

> <b_epik_Metal_Only>
0

> <s_lp_Force_Field>
OPLS_2005

> <r_lp_Energy>
11.5149

> <b_lp_Chiralities_Consistent>
1

> <s_lp_Variant>
AV-unprocessed.smi:1334-2

> <Gold.Version>
5.8.1

> <Gold.Id.Protein>
6NUR|6NUR_protein|mol2

> <Gold.PLP.Fitness>
47.1101

> <Gold.PLP.PLP>
-42.1905

> <Gold.PLP.part.hbond>
-1.0000

> <Gold.PLP.part.metal>
0.0000

> <Gold.PLP.part.buried>
-5.1728

> <Gold.PLP.part.nonpolar>
-35.3698

> <Gold.PLP.part.repulsive>
0.1690

> <Gold.PLP.ligand.clash>
0.1759

> <Gold.PLP.ligand.torsion>
0.4991

> <Gold.PLP.Chemscore.Hbond>
1.0000

> <Gold.PLP.Chemscore.CHOScore>
0.9952

> <Gold.PLP.Chemscore.Metal>
0.0000

> <Gold.Chemscore.Hbonds>
donor molecule, donor type, donor heavy atom, donor atom, acceptor molecule, acceptor atom, score
      P1  H  7997  8010       L1     4  1.00
      L1  C    15    37       P1  7948  0.88

> <Gold.PLP.Chemscore.Internal.Correction>
0.1079

> <Gold.Rescore>
     Score         DG    S(hbond)    S(metal)    S(lipo)     H(rot)  DE(clash)    DE(int)     intcor
     12.84     -14.60       1.00        0.00     101.95       2.40       0.19       1.58       ----

> <Gold.Chemscore.Fitness>
12.8401

> <Gold.Chemscore.DG>
-14.6009

> <Gold.Chemscore.ZeroCoef>
-5.4800

> <Gold.Chemscore.Hbond>
0.9998

> <Gold.Chemscore.Metal>
0.0000

> <Gold.Chemscore.Lipo>
101.9513

> <Gold.Chemscore.Internal_Hbond>
0.0000

> <Gold.Chemscore.DEClash>
0.1854

> <Gold.Chemscore.DEInternal>
1.5755

> <Gold.Chemscore.Rot>
2.4011

> <Gold.Chemscore.Internal.Correction>
   9.000000E+99

> <Gold.Chemscore.Hbonds>
donor molecule, donor type, donor heavy atom, donor atom, acceptor molecule, acceptor atom, score
      P1  H  7997  8010       L1     4  0.93

> <Gold.Chemscore.Hbond.Weighted>
-3.3395

> <Gold.Chemscore.Metal.Weighted>
-0.0000

> <Gold.Chemscore.Lipo.Weighted>
-11.9283

> <Gold.Chemscore.Internal_Hbond.Weighted>
0.0000

> <Gold.Chemscore.DEClash.Weighted>
0.1854

> <Gold.Chemscore.DEInternal.Weighted>
1.5755

> <Gold.Chemscore.Rot.Weighted>
6.1469

> <Gold.Chemscore.Internal.Correction.Weighted>
   9.000000E+99

> <Gold.Protein.RotatedTorsions>
[ 6907 6896 6895 6894 ] final   67.41 input  -60.11 | X-H torsion
[ 7974 7965 7964 7962 ] final   81.74 input  175.53 | X-H torsion
[ 8008 7997 7996 7995 ] final   81.68 input   59.86 | X-H torsion
[ 10167 10162 10161 10158 ] final  -58.36 input  -65.29 | X-H torsion
[ 10718 10713 10712 10709 ] final  -53.40 input   66.30 | X-H torsion
[ 10763 10752 10751 10750 ] final -168.21 input  -60.55 | X-H torsion
[ 11005 11000 10999 10996 ] final -141.82 input  -57.11 | X-H torsion

> <Gold.Protein.ActiveResidues>
 VAL166  LYS551  ARG553  GLY616  TRP617  ASP618  TYR619  PRO620  LYS621  CYS622 
 ASP623  PHE694  ASN695  SER759  ASP760  ASP761  ALA762  ILE779  LEU786  VAL792 
 PHE793  MET794  SER795  GLU796  ALA797  LYS798  CYS799  TRP800  GLU811  SER814 

> <Gold.Protein.RotatedAtoms>
  152.4550  134.5312  159.9811 H   0  0  0  0  0  0  0  0  0  0  0  0  # atno 6907 bound_to 6896
  151.5375  133.3432  159.2937 H   0  0  0  0  0  0  0  0  0  0  0  0  # atno 6908 bound_to 6896
  150.8491  134.7841  159.7057 H   0  0  0  0  0  0  0  0  0  0  0  0  # atno 6909 bound_to 6896
  145.6342  139.2411  143.2067 H   0  0  0  0  0  0  0  0  0  0  0  0  # atno 7974 bound_to 7965
  155.9004  140.3433  155.6022 H   0  0  0  0  0  0  0  0  0  0  0  0  # atno 8008 bound_to 7997
  155.7507  140.0819  157.2221 H   0  0  0  0  0  0  0  0  0  0  0  0  # atno 8009 bound_to 7997
  154.4043  140.1554  156.2708 H   0  0  0  0  0  0  0  0  0  0  0  0  # atno 8010 bound_to 7997
  140.6202  143.2417  151.5499 H   0  0  0  0  0  0  0  0  0  0  0  0  # atno 10167 bound_to 10162
  156.1538  130.4151  149.9901 H   0  0  0  0  0  0  0  0  0  0  0  0  # atno 10718 bound_to 10713
  154.6652  135.2931  154.9814 H   0  0  0  0  0  0  0  0  0  0  0  0  # atno 10763 bound_to 10752
  154.0861  135.6597  153.4849 H   0  0  0  0  0  0  0  0  0  0  0  0  # atno 10764 bound_to 10752
  153.0453  135.5209  154.7622 H   0  0  0  0  0  0  0  0  0  0  0  0  # atno 10765 bound_to 10752
  140.8286  134.2544  157.4867 H   0  0  0  0  0  0  0  0  0  0  0  0  # atno 11005 bound_to 11000
  146.1333  140.7157  142.9402 LP  0  0  0  0  0  0  0  0  0  0  0  0  # atno 17320 bound_to 7965
  144.7182  140.4283  143.7028 LP  0  0  0  0  0  0  0  0  0  0  0  0  # atno 17321 bound_to 7965
  139.5432  144.2591  152.1392 LP  0  0  0  0  0  0  0  0  0  0  0  0  # atno 17342 bound_to 10162
  140.1809  144.4845  150.6529 LP  0  0  0  0  0  0  0  0  0  0  0  0  # atno 17343 bound_to 10162
  156.7751  130.9200  151.3645 LP  0  0  0  0  0  0  0  0  0  0  0  0  # atno 17370 bound_to 10713
  157.6679  130.9024  149.9973 LP  0  0  0  0  0  0  0  0  0  0  0  0  # atno 17371 bound_to 10713
  139.8705  134.9574  156.4268 LP  0  0  0  0  0  0  0  0  0  0  0  0  # atno 17394 bound_to 11000
  140.9022  133.7771  155.9693 LP  0  0  0  0  0  0  0  0  0  0  0  0  # atno 17395 bound_to 11000

$$$$
