AV-unprocessed.smi:1025|AV-procd|sdf|4466|dock2
  -GOLD-   22720 2443D 1   1.00000     0.00000
 Structure written by MMmdl.
 51 52  0  0  0  0  0  0  0  0  1 V2000
  151.2015  144.1072  157.8829 C   0  0  0  0  0  0  0  0  0  0  0  0
  150.3712  143.1471  157.1722 N   0  0  0  0  0  0  0  0  0  0  0  0
  150.5039  141.8164  157.2716 C   0  0  0  0  0  0  0  0  0  0  0  0
  151.3525  141.2767  157.9825 O   0  0  0  0  0  0  0  0  0  0  0  0
  149.5331  140.9649  156.4416 C   0  0  2  0  0  0  0  0  0  0  0  0
  149.5383  141.4043  154.9620 C   0  0  0  0  0  0  0  0  0  0  0  0
  148.5501  140.5753  154.1252 C   0  0  0  0  0  0  0  0  0  0  0  0
  147.1241  140.6493  154.7066 C   0  0  1  0  0  0  0  0  0  0  0  0
  146.2080  139.8103  153.9400 N   0  0  0  0  0  0  0  0  0  0  0  0
  146.3724  138.5016  153.7013 C   0  0  0  0  0  0  0  0  0  0  0  0
  147.3246  137.8468  154.1249 O   0  0  0  0  0  0  0  0  0  0  0  0
  145.3789  138.0207  152.9351 N   0  0  0  0  0  0  0  0  0  0  0  0
  145.2134  136.7009  152.4372 C   0  0  0  0  0  0  0  0  0  0  0  0
  146.2146  135.7431  152.6927 C   0  0  0  0  0  0  0  0  0  0  0  0
  146.1227  134.4749  152.2409 N   0  0  0  0  0  0  0  0  0  0  0  0
  145.0244  134.1383  151.5516 C   0  0  0  0  0  0  0  0  0  0  0  0
  144.9927  132.7322  150.9271 C   0  0  0  0  0  0  0  0  0  0  0  0
  145.0522  131.6352  152.0164 C   0  0  0  0  0  0  0  0  0  0  0  0
  146.2253  132.5008  150.0218 C   0  0  0  0  0  0  0  0  0  0  0  0
  143.7041  132.5653  150.1009 C   0  0  0  0  0  0  0  0  0  0  0  0
  144.0458  134.9846  151.2045 N   0  0  0  0  0  0  0  0  0  0  0  0
  144.1232  136.2560  151.6522 C   0  0  0  0  0  0  0  0  0  0  0  0
  147.1172  140.2099  156.1818 C   0  0  0  0  0  0  0  0  0  0  0  0
  148.1030  141.0424  157.0168 C   0  0  0  0  0  0  0  0  0  0  0  0
  150.8845  145.1221  157.6434 H   0  0  0  0  0  0  0  0  0  0  0  0
  152.2490  144.0007  157.5980 H   0  0  0  0  0  0  0  0  0  0  0  0
  151.1183  143.9692  158.9616 H   0  0  0  0  0  0  0  0  0  0  0  0
  149.6506  143.5154  156.5683 H   0  0  0  0  0  0  0  0  0  0  0  0
  149.8617  139.9250  156.4877 H   0  0  0  0  0  0  0  0  0  0  0  0
  149.2755  142.4604  154.8813 H   0  0  0  0  0  0  0  0  0  0  0  0
  150.5410  141.3039  154.5441 H   0  0  0  0  0  0  0  0  0  0  0  0
  148.5567  140.9327  153.0949 H   0  0  0  0  0  0  0  0  0  0  0  0
  148.8837  139.5372  154.0938 H   0  0  0  0  0  0  0  0  0  0  0  0
  146.7786  141.6844  154.6619 H   0  0  0  0  0  0  0  0  0  0  0  0
  145.3955  140.2650  153.5504 H   0  0  0  0  0  0  0  0  0  0  0  0
  144.6997  138.6947  152.6134 H   0  0  0  0  0  0  0  0  0  0  0  0
  147.0978  135.9935  153.2620 H   0  0  0  0  0  0  0  0  0  0  0  0
  145.0770  130.6385  151.5747 H   0  0  0  0  0  0  0  0  0  0  0  0
  144.1830  131.6649  152.6745 H   0  0  0  0  0  0  0  0  0  0  0  0
  145.9422  131.7400  152.6382 H   0  0  0  0  0  0  0  0  0  0  0  0
  147.1550  132.6346  150.5763 H   0  0  0  0  0  0  0  0  0  0  0  0
  146.2442  133.1859  149.1734 H   0  0  0  0  0  0  0  0  0  0  0  0
  146.2319  131.4911  149.6095 H   0  0  0  0  0  0  0  0  0  0  0  0
  143.6498  131.5763  149.6444 H   0  0  0  0  0  0  0  0  0  0  0  0
  143.6499  133.3013  149.2981 H   0  0  0  0  0  0  0  0  0  0  0  0
  142.8166  132.6905  150.7221 H   0  0  0  0  0  0  0  0  0  0  0  0
  143.3161  136.9049  151.3502 H   0  0  0  0  0  0  0  0  0  0  0  0
  146.1133  140.3076  156.5970 H   0  0  0  0  0  0  0  0  0  0  0  0
  147.3814  139.1540  156.2564 H   0  0  0  0  0  0  0  0  0  0  0  0
  148.0940  140.6888  158.0488 H   0  0  0  0  0  0  0  0  0  0  0  0
  147.7622  142.0788  157.0431 H   0  0  0  0  0  0  0  0  0  0  0  0
  1  2  1  0  0  0  0
  1 25  1  0  0  0  0
  1 26  1  0  0  0  0
  1 27  1  0  0  0  0
  2  3  1  0  0  0  0
  2 28  1  0  0  0  0
  3  4  2  0  0  0  0
  3  5  1  0  0  0  0
  5 24  1  0  0  0  0
  5  6  1  0  0  0  0
  5 29  1  0  0  0  0
  6  7  1  0  0  0  0
  6 30  1  0  0  0  0
  6 31  1  0  0  0  0
  7  8  1  0  0  0  0
  7 32  1  0  0  0  0
  7 33  1  0  0  0  0
  8  9  1  0  0  0  0
  8 23  1  0  0  0  0
  8 34  1  0  0  0  0
  9 10  1  0  0  0  0
  9 35  1  0  0  0  0
 10 11  2  0  0  0  0
 10 12  1  0  0  0  0
 12 13  1  0  0  0  0
 12 36  1  0  0  0  0
 13 22  1  0  0  0  0
 13 14  2  0  0  0  0
 14 15  1  0  0  0  0
 14 37  1  0  0  0  0
 15 16  2  0  0  0  0
 16 17  1  0  0  0  0
 16 21  1  0  0  0  0
 17 18  1  0  0  0  0
 17 19  1  0  0  0  0
 17 20  1  0  0  0  0
 18 38  1  0  0  0  0
 18 39  1  0  0  0  0
 18 40  1  0  0  0  0
 19 41  1  0  0  0  0
 19 42  1  0  0  0  0
 19 43  1  0  0  0  0
 20 44  1  0  0  0  0
 20 45  1  0  0  0  0
 20 46  1  0  0  0  0
 21 22  2  0  0  0  0
 22 47  1  0  0  0  0
 23 24  1  0  0  0  0
 23 48  1  0  0  0  0
 23 49  1  0  0  0  0
 24 50  1  0  0  0  0
 24 51  1  0  0  0  0
M  END
> <s_m_source_file>
AV-unprocessed.smi

> <i_m_source_file_index>
1025

> <i_lp_mmshare_version>
43012

> <i_f3d_flags>
0

> <s_epik_input>
W0NIM11bTkhdQyg9TylbQ0BASF0xW0NIMl1bQ0gyXVtDQEhdKFtDSDJdW0NIMl0xKVtOSF1DKD1PKVtOSF1jMltjSF1uYyhDKFtDSDNdKShbQ0gzXSlbQ0gzXSluW2NIXTI=

> <s_epik_cmdline>
J2VwaWtfcHl0aG9uJywgJy1waCcsICc3LjAnLCAnLXRuJywgJzgnLCAnLW1hJywgJzIwMCcsICctbWV0YWxfYmluZGluZycsICctaW1hZScsICc8aW5maWxlLm1hZT4nLCAnLW9tYWUnLCAnPG91dGZpbGUubWFlPic=

> <r_lp_tautomer_probability>
1

> <r_epik_Ionization_Penalty>
2.76239e-05

> <r_epik_Ionization_Penalty_Charging>
0

> <r_epik_Ionization_Penalty_Neutral>
2.76239e-05

> <r_epik_State_Penalty>
-0

> <r_epik_Charging_Adjusted_Penalty>
0

> <i_epik_Tot_Q>
0

> <i_epik_Tot_abs_Q>
0

> <r_epik_Metal_State_Penalty>
-0

> <b_epik_Metal_Only>
0

> <s_lp_Force_Field>
OPLS_2005

> <r_lp_Energy>
8.76335

> <b_lp_Chiralities_Consistent>
1

> <s_lp_Variant>
AV-unprocessed.smi:1025-1

> <Gold.Version>
5.8.1

> <Gold.Id.Protein>
6NUR|6NUR_protein|mol2

> <Gold.PLP.Fitness>
45.7923

> <Gold.PLP.PLP>
-33.1162

> <Gold.PLP.part.hbond>
-3.0000

> <Gold.PLP.part.metal>
0.0000

> <Gold.PLP.part.buried>
-0.9319

> <Gold.PLP.part.nonpolar>
-29.9919

> <Gold.PLP.part.repulsive>
0.4552

> <Gold.PLP.ligand.clash>
0.0000

> <Gold.PLP.ligand.torsion>
0.2697

> <Gold.PLP.Chemscore.Hbond>
3.0000

> <Gold.PLP.Chemscore.CHOScore>
1.3544

> <Gold.PLP.Chemscore.Metal>
0.0000

> <Gold.Chemscore.Hbonds>
donor molecule, donor type, donor heavy atom, donor atom, acceptor molecule, acceptor atom, score
      L1  H     2    28       P1  8028  1.00
      L1  H     9    35       P1 10175  0.99
      L1  H    12    36       P1 10175  0.98
      L1  C    14    37       P1  7948  0.61
      L1  C    22    47       P1 10171  0.74

> <Gold.PLP.Chemscore.Internal.Correction>
0.1524

> <Gold.Rescore>
     Score         DG    S(hbond)    S(metal)    S(lipo)     H(rot)  DE(clash)    DE(int)     intcor
     17.77     -20.94       2.83        0.00      84.59       1.52       0.20       2.98       ----

> <Gold.Chemscore.Fitness>
17.7663

> <Gold.Chemscore.DG>
-20.9432

> <Gold.Chemscore.ZeroCoef>
-5.4800

> <Gold.Chemscore.Hbond>
2.8292

> <Gold.Chemscore.Metal>
0.0000

> <Gold.Chemscore.Lipo>
84.5944

> <Gold.Chemscore.Internal_Hbond>
0.0000

> <Gold.Chemscore.DEClash>
0.1986

> <Gold.Chemscore.DEInternal>
2.9782

> <Gold.Chemscore.Rot>
1.5171

> <Gold.Chemscore.Internal.Correction>
   9.000000E+99

> <Gold.Chemscore.Hbonds>
donor molecule, donor type, donor heavy atom, donor atom, acceptor molecule, acceptor atom, score
      L1  H     2    28       P1  8028  0.97
      L1  H     9    35       P1 10175  0.92
      L1  H    12    36       P1 10175  0.92

> <Gold.Chemscore.Hbond.Weighted>
-9.4495

> <Gold.Chemscore.Metal.Weighted>
-0.0000

> <Gold.Chemscore.Lipo.Weighted>
-9.8975

> <Gold.Chemscore.Internal_Hbond.Weighted>
0.0000

> <Gold.Chemscore.DEClash.Weighted>
0.1986

> <Gold.Chemscore.DEInternal.Weighted>
2.9782

> <Gold.Chemscore.Rot.Weighted>
3.8839

> <Gold.Chemscore.Internal.Correction.Weighted>
   9.000000E+99

> <Gold.Protein.RotatedTorsions>
[ 6907 6896 6895 6894 ] final -129.34 input  -60.11 | X-H torsion
[ 7974 7965 7964 7962 ] final   59.73 input  175.53 | X-H torsion
[ 8008 7997 7996 7995 ] final -175.92 input   59.86 | X-H torsion
[ 10167 10162 10161 10158 ] final   36.89 input  -65.29 | X-H torsion
[ 10718 10713 10712 10709 ] final   41.82 input   66.30 | X-H torsion
[ 10763 10752 10751 10750 ] final  161.73 input  -60.55 | X-H torsion
[ 11005 11000 10999 10996 ] final  -11.84 input  -57.11 | X-H torsion

> <Gold.Protein.ActiveResidues>
 VAL166  LYS551  ARG553  GLY616  TRP617  ASP618  TYR619  PRO620  LYS621  CYS622 
 ASP623  PHE694  ASN695  SER759  ASP760  ASP761  ALA762  ILE779  LEU786  VAL792 
 PHE793  MET794  SER795  GLU796  ALA797  LYS798  CYS799  TRP800  GLU811  SER814 

> <Gold.Protein.RotatedAtoms>
  150.9277  133.6804  159.2817 H   0  0  0  0  0  0  0  0  0  0  0  0  # atno 6907 bound_to 6896
  151.4237  135.1000  159.9631 H   0  0  0  0  0  0  0  0  0  0  0  0  # atno 6908 bound_to 6896
  152.5011  133.8723  159.7359 H   0  0  0  0  0  0  0  0  0  0  0  0  # atno 6909 bound_to 6896
  145.9039  139.3602  143.0576 H   0  0  0  0  0  0  0  0  0  0  0  0  # atno 7974 bound_to 7965
  155.9885  140.1196  157.0660 H   0  0  0  0  0  0  0  0  0  0  0  0  # atno 8008 bound_to 7997
  154.4204  140.1130  156.5601 H   0  0  0  0  0  0  0  0  0  0  0  0  # atno 8009 bound_to 7997
  155.6375  140.3473  155.4705 H   0  0  0  0  0  0  0  0  0  0  0  0  # atno 8010 bound_to 7997
  140.4085  144.1625  150.6138 H   0  0  0  0  0  0  0  0  0  0  0  0  # atno 10167 bound_to 10162
  157.3979  130.7843  149.7324 H   0  0  0  0  0  0  0  0  0  0  0  0  # atno 10718 bound_to 10713
  154.2674  135.2766  155.2752 H   0  0  0  0  0  0  0  0  0  0  0  0  # atno 10763 bound_to 10752
  154.5331  135.5724  153.6779 H   0  0  0  0  0  0  0  0  0  0  0  0  # atno 10764 bound_to 10752
  152.9951  135.6232  154.2828 H   0  0  0  0  0  0  0  0  0  0  0  0  # atno 10765 bound_to 10752
  140.7594  133.8527  155.9112 H   0  0  0  0  0  0  0  0  0  0  0  0  # atno 11005 bound_to 11000
  145.8757  140.9393  143.0627 LP  0  0  0  0  0  0  0  0  0  0  0  0  # atno 17320 bound_to 7965
  144.6738  140.0713  143.7473 LP  0  0  0  0  0  0  0  0  0  0  0  0  # atno 17321 bound_to 7965
  140.4663  143.2429  151.9150 LP  0  0  0  0  0  0  0  0  0  0  0  0  # atno 17342 bound_to 10162
  139.4783  144.5415  151.8520 LP  0  0  0  0  0  0  0  0  0  0  0  0  # atno 17343 bound_to 10162
  155.9815  130.4018  150.3467 LP  0  0  0  0  0  0  0  0  0  0  0  0  # atno 17370 bound_to 10713
  157.1591  131.0340  151.2849 LP  0  0  0  0  0  0  0  0  0  0  0  0  # atno 17371 bound_to 10713
  140.9677  134.1573  157.4602 LP  0  0  0  0  0  0  0  0  0  0  0  0  # atno 17394 bound_to 11000
  139.8773  134.9967  156.5810 LP  0  0  0  0  0  0  0  0  0  0  0  0  # atno 17395 bound_to 11000

$$$$
