AV-unprocessed.smi:284|AV-procd|sdf|2161|dock10
  -GOLD-   2262021513D 1   1.00000     0.00000
 Structure written by MMmdl.
 60 62  0  0  0  0  0  0  0  0  1 V2000
  147.0254  128.3626  152.5010 C   0  0  0  0  0  0  0  0  0  0  0  0
  147.3257  129.7908  152.9288 C   0  0  0  0  0  0  0  0  0  0  0  0
  146.7292  130.8570  152.3476 C   0  0  0  0  0  0  0  0  0  0  0  0
  146.9743  132.1699  152.7118 N   0  0  0  0  0  0  0  0  0  0  0  0
  146.3507  133.3349  151.9661 C   0  0  2  0  0  0  0  0  0  0  0  0
  145.1224  133.9472  152.6553 C   0  0  0  0  0  0  0  0  0  0  0  0
  143.9828  133.4618  151.7767 C   0  0  1  0  0  0  0  0  0  0  0  0
  142.9130  134.3853  151.7881 O   0  0  0  0  0  0  0  0  0  0  0  0
  144.6523  133.3594  150.4034 C   0  0  2  0  0  0  0  0  0  0  0  0
  143.9462  132.3857  149.4477 C   0  0  0  0  0  0  0  0  0  0  0  0
  144.6026  132.3691  148.1983 O   0  0  0  0  0  0  0  0  0  0  0  0
  145.9548  132.8720  150.7117 O   0  0  0  0  0  0  0  0  0  0  0  0
  147.9762  132.4402  153.6693 C   0  0  0  0  0  0  0  0  0  0  0  0
  148.3002  133.5989  153.9397 O   0  0  0  0  0  0  0  0  0  0  0  0
  148.6005  131.3486  154.3146 N   0  0  0  0  0  0  0  0  0  0  0  0
  149.6265  131.6270  155.3449 C   0  0  0  0  0  0  0  0  0  0  0  0
  149.0440  131.9896  156.7205 C   0  0  0  0  0  0  0  0  0  0  0  0
  148.6524  131.1085  157.4869 O   0  0  0  0  0  0  0  0  0  0  0  0
  148.9792  133.3086  156.9783 N   0  0  0  0  0  0  0  0  0  0  0  0
  148.5156  133.9663  158.1499 C   0  0  0  0  0  0  0  0  0  0  0  0
  148.6174  135.3607  158.3605 C   0  0  0  0  0  0  0  0  0  0  0  0
  148.1113  135.9428  159.5390 C   0  0  0  0  0  0  0  0  0  0  0  0
  147.4839  135.1508  160.5323 C   0  0  0  0  0  0  0  0  0  0  0  0
  146.9160  135.7526  161.8321 C   0  0  0  0  0  0  0  0  0  0  0  0
  145.8455  136.8083  161.4868 C   0  0  0  0  0  0  0  0  0  0  0  0
  147.9935  136.4428  162.6987 C   0  0  0  0  0  0  0  0  0  0  0  0
  146.2751  134.6378  162.6853 C   0  0  0  0  0  0  0  0  0  0  0  0
  147.3744  133.7593  160.3022 C   0  0  0  0  0  0  0  0  0  0  0  0
  147.8791  133.1753  159.1254 C   0  0  0  0  0  0  0  0  0  0  0  0
  148.3108  130.0011  153.9908 C   0  0  0  0  0  0  0  0  0  0  0  0
  148.8819  129.0774  154.5737 O   0  0  0  0  0  0  0  0  0  0  0  0
  146.2741  128.3233  151.7118 H   0  0  0  0  0  0  0  0  0  0  0  0
  146.6516  127.7822  153.3451 H   0  0  0  0  0  0  0  0  0  0  0  0
  147.9284  127.8797  152.1257 H   0  0  0  0  0  0  0  0  0  0  0  0
  146.0341  130.6551  151.5492 H   0  0  0  0  0  0  0  0  0  0  0  0
  147.1311  134.0900  151.8647 H   0  0  0  0  0  0  0  0  0  0  0  0
  145.0367  133.6810  153.7088 H   0  0  0  0  0  0  0  0  0  0  0  0
  145.2167  135.0326  152.5925 H   0  0  0  0  0  0  0  0  0  0  0  0
  143.6317  132.4837  152.1057 H   0  0  0  0  0  0  0  0  0  0  0  0
  142.3388  134.1914  151.0627 H   0  0  0  0  0  0  0  0  0  0  0  0
  144.7406  134.3555  149.9644 H   0  0  0  0  0  0  0  0  0  0  0  0
  143.9003  131.3806  149.8684 H   0  0  0  0  0  0  0  0  0  0  0  0
  142.9203  132.7094  149.2707 H   0  0  0  0  0  0  0  0  0  0  0  0
  144.8281  133.2567  147.9649 H   0  0  0  0  0  0  0  0  0  0  0  0
  150.2943  130.7721  155.4645 H   0  0  0  0  0  0  0  0  0  0  0  0
  150.2909  132.4336  155.0308 H   0  0  0  0  0  0  0  0  0  0  0  0
  149.2456  133.9177  156.2186 H   0  0  0  0  0  0  0  0  0  0  0  0
  149.0661  136.0099  157.6248 H   0  0  0  0  0  0  0  0  0  0  0  0
  148.2155  137.0107  159.6494 H   0  0  0  0  0  0  0  0  0  0  0  0
  145.4350  137.2668  162.3872 H   0  0  0  0  0  0  0  0  0  0  0  0
  145.0078  136.3791  160.9370 H   0  0  0  0  0  0  0  0  0  0  0  0
  146.2642  137.6079  160.8744 H   0  0  0  0  0  0  0  0  0  0  0  0
  148.4655  137.2731  162.1717 H   0  0  0  0  0  0  0  0  0  0  0  0
  148.7753  135.7452  163.0017 H   0  0  0  0  0  0  0  0  0  0  0  0
  147.5618  136.8530  163.6124 H   0  0  0  0  0  0  0  0  0  0  0  0
  145.8834  135.0322  163.6236 H   0  0  0  0  0  0  0  0  0  0  0  0
  147.0024  133.8642  162.9343 H   0  0  0  0  0  0  0  0  0  0  0  0
  145.4437  134.1535  162.1734 H   0  0  0  0  0  0  0  0  0  0  0  0
  146.8962  133.1215  161.0303 H   0  0  0  0  0  0  0  0  0  0  0  0
  147.7779  132.1100  158.9774 H   0  0  0  0  0  0  0  0  0  0  0  0
  1  2  1  0  0  0  0
  1 32  1  0  0  0  0
  1 33  1  0  0  0  0
  1 34  1  0  0  0  0
  2 30  1  0  0  0  0
  2  3  2  0  0  0  0
  3  4  1  0  0  0  0
  3 35  1  0  0  0  0
  4  5  1  0  0  0  0
  4 13  1  0  0  0  0
  5 12  1  0  0  0  0
  5  6  1  0  0  0  0
  5 36  1  0  0  0  0
  6  7  1  0  0  0  0
  6 37  1  0  0  0  0
  6 38  1  0  0  0  0
  7  8  1  0  0  0  0
  7  9  1  0  0  0  0
  7 39  1  0  0  0  0
  8 40  1  0  0  0  0
  9 10  1  0  0  0  0
  9 12  1  0  0  0  0
  9 41  1  0  0  0  0
 10 11  1  0  0  0  0
 10 42  1  0  0  0  0
 10 43  1  0  0  0  0
 11 44  1  0  0  0  0
 13 14  2  0  0  0  0
 13 15  1  0  0  0  0
 15 16  1  0  0  0  0
 15 30  1  0  0  0  0
 16 17  1  0  0  0  0
 16 45  1  0  0  0  0
 16 46  1  0  0  0  0
 17 18  2  0  0  0  0
 17 19  1  0  0  0  0
 19 20  1  0  0  0  0
 19 47  1  0  0  0  0
 20 29  1  0  0  0  0
 20 21  2  0  0  0  0
 21 22  1  0  0  0  0
 21 48  1  0  0  0  0
 22 23  2  0  0  0  0
 22 49  1  0  0  0  0
 23 24  1  0  0  0  0
 23 28  1  0  0  0  0
 24 25  1  0  0  0  0
 24 26  1  0  0  0  0
 24 27  1  0  0  0  0
 25 50  1  0  0  0  0
 25 51  1  0  0  0  0
 25 52  1  0  0  0  0
 26 53  1  0  0  0  0
 26 54  1  0  0  0  0
 26 55  1  0  0  0  0
 27 56  1  0  0  0  0
 27 57  1  0  0  0  0
 27 58  1  0  0  0  0
 28 29  2  0  0  0  0
 28 59  1  0  0  0  0
 29 60  1  0  0  0  0
 30 31  2  0  0  0  0
M  END
> <s_m_source_file>
AV-unprocessed.smi

> <i_m_source_file_index>
284

> <i_lp_mmshare_version>
43012

> <i_f3d_flags>
0

> <s_epik_input>
W09IXVtDSDJdW0NAQEhdKE8xKVtDQEhdKFtPSF0pW0NIMl1bQ0BIXTFuKFtjSF1jMltDSDNdKWMoPU8pbihjMj1PKVtDSDJdQyg9TylbTkhdYzNbY0hdW2NIXWMoQyhbQ0gzXSkoW0NIM10pW0NIM10pW2NIXVtjSF0z

> <s_epik_cmdline>
J2VwaWtfcHl0aG9uJywgJy1waCcsICc3LjAnLCAnLXRuJywgJzgnLCAnLW1hJywgJzIwMCcsICctbWV0YWxfYmluZGluZycsICctaW1hZScsICc8aW5maWxlLm1hZT4nLCAnLW9tYWUnLCAnPG91dGZpbGUubWFlPic=

> <r_lp_tautomer_probability>
1

> <r_epik_Ionization_Penalty>
4.92358e-06

> <r_epik_Ionization_Penalty_Charging>
1.29777e-07

> <r_epik_Ionization_Penalty_Neutral>
4.79381e-06

> <r_epik_State_Penalty>
-0

> <r_epik_Charging_Adjusted_Penalty>
1.29777e-07

> <i_epik_Tot_Q>
0

> <i_epik_Tot_abs_Q>
0

> <r_epik_Metal_State_Penalty>
-0

> <b_epik_Metal_Only>
0

> <s_epik_Chemistry_Notes>
This compound contains an acetal/aminal-like group ( X-CH(R)-Y where X, Y are N, S, or O) that may be acid/base labile, releasing an aldehyde.

> <s_lp_Force_Field>
OPLS_2005

> <r_lp_Energy>
40.5501

> <b_lp_Chiralities_Consistent>
1

> <s_lp_Variant>
AV-unprocessed.smi:284-5

> <Gold.Version>
5.8.1

> <Gold.Id.Protein>
6NUR|6NUR_protein|mol2

> <Gold.PLP.Fitness>
51.1082

> <Gold.PLP.PLP>
-47.8246

> <Gold.PLP.part.hbond>
-3.2249

> <Gold.PLP.part.metal>
0.0000

> <Gold.PLP.part.buried>
-4.7023

> <Gold.PLP.part.nonpolar>
-40.1393

> <Gold.PLP.part.repulsive>
0.3941

> <Gold.PLP.ligand.clash>
0.0535

> <Gold.PLP.ligand.torsion>
1.2577

> <Gold.PLP.Chemscore.Hbond>
1.9000

> <Gold.PLP.Chemscore.CHOScore>
0.0000

> <Gold.PLP.Chemscore.Metal>
0.0000

> <Gold.Chemscore.Hbonds>
donor molecule, donor type, donor heavy atom, donor atom, acceptor molecule, acceptor atom, score
      L1  H     8    40       P1 10186  0.85
      L1  H    11    44       P1  7921  1.00

> <Gold.PLP.Chemscore.Internal.Correction>
0.1526

> <Gold.Rescore>
     Score         DG    S(hbond)    S(metal)    S(lipo)     H(rot)  DE(clash)    DE(int)     intcor
      9.50     -12.39       0.68        0.00     111.34       3.27       0.09       2.80       ----

> <Gold.Chemscore.Fitness>
9.5020

> <Gold.Chemscore.DG>
-12.3921

> <Gold.Chemscore.ZeroCoef>
-5.4800

> <Gold.Chemscore.Hbond>
0.6784

> <Gold.Chemscore.Metal>
0.0000

> <Gold.Chemscore.Lipo>
111.3367

> <Gold.Chemscore.Internal_Hbond>
0.0000

> <Gold.Chemscore.DEClash>
0.0914

> <Gold.Chemscore.DEInternal>
2.7987

> <Gold.Chemscore.Rot>
3.2735

> <Gold.Chemscore.Internal.Correction>
   9.000000E+99

> <Gold.Chemscore.Hbonds>
donor molecule, donor type, donor heavy atom, donor atom, acceptor molecule, acceptor atom, score
      L1  H     8    40       P1 10186  0.14
      L1  H    11    44       P1  7921  0.55

> <Gold.Chemscore.Hbond.Weighted>
-2.2658

> <Gold.Chemscore.Metal.Weighted>
-0.0000

> <Gold.Chemscore.Lipo.Weighted>
-13.0264

> <Gold.Chemscore.Internal_Hbond.Weighted>
0.0000

> <Gold.Chemscore.DEClash.Weighted>
0.0914

> <Gold.Chemscore.DEInternal.Weighted>
2.7987

> <Gold.Chemscore.Rot.Weighted>
8.3801

> <Gold.Chemscore.Internal.Correction.Weighted>
   9.000000E+99

> <Gold.Protein.RotatedTorsions>
[ 6907 6896 6895 6894 ] final    3.13 input  -60.11 | X-H torsion
[ 7974 7965 7964 7962 ] final    0.38 input  175.53 | X-H torsion
[ 8008 7997 7996 7995 ] final    3.74 input   59.86 | X-H torsion
[ 10167 10162 10161 10158 ] final    9.88 input  -65.29 | X-H torsion
[ 10718 10713 10712 10709 ] final -126.68 input   66.30 | X-H torsion
[ 10763 10752 10751 10750 ] final  -24.80 input  -60.55 | X-H torsion
[ 11005 11000 10999 10996 ] final   66.93 input  -57.11 | X-H torsion

> <Gold.Protein.ActiveResidues>
 VAL166  LYS551  ARG553  GLY616  TRP617  ASP618  TYR619  PRO620  LYS621  CYS622 
 ASP623  PHE694  ASN695  SER759  ASP760  ASP761  ALA762  ILE779  LEU786  VAL792 
 PHE793  MET794  SER795  GLU796  ALA797  LYS798  CYS799  TRP800  GLU811  SER814 

> <Gold.Protein.RotatedAtoms>
  151.6201  135.1033  160.0099 H   0  0  0  0  0  0  0  0  0  0  0  0  # atno 6907 bound_to 6896
  152.4162  133.7038  159.6450 H   0  0  0  0  0  0  0  0  0  0  0  0  # atno 6908 bound_to 6896
  150.8050  133.8453  159.3231 H   0  0  0  0  0  0  0  0  0  0  0  0  # atno 6909 bound_to 6896
  146.2434  140.1146  142.8342 H   0  0  0  0  0  0  0  0  0  0  0  0  # atno 7974 bound_to 7965
  154.7074  140.2685  155.6661 H   0  0  0  0  0  0  0  0  0  0  0  0  # atno 8008 bound_to 7997
  156.2784  140.2760  156.1629 H   0  0  0  0  0  0  0  0  0  0  0  0  # atno 8009 bound_to 7997
  155.0681  140.0372  157.2589 H   0  0  0  0  0  0  0  0  0  0  0  0  # atno 8010 bound_to 7997
  140.6228  143.8167  150.7196 H   0  0  0  0  0  0  0  0  0  0  0  0  # atno 10167 bound_to 10162
  156.1788  130.6717  151.0277 H   0  0  0  0  0  0  0  0  0  0  0  0  # atno 10718 bound_to 10713
  153.6896  135.6962  153.5094 H   0  0  0  0  0  0  0  0  0  0  0  0  # atno 10763 bound_to 10752
  153.2423  135.4302  155.0710 H   0  0  0  0  0  0  0  0  0  0  0  0  # atno 10764 bound_to 10752
  154.8376  135.3511  154.6437 H   0  0  0  0  0  0  0  0  0  0  0  0  # atno 10765 bound_to 10752
  139.9801  134.6757  156.0278 H   0  0  0  0  0  0  0  0  0  0  0  0  # atno 11005 bound_to 11000
  145.0458  140.8980  143.5025 LP  0  0  0  0  0  0  0  0  0  0  0  0  # atno 17320 bound_to 7965
  145.1235  139.2678  143.5576 LP  0  0  0  0  0  0  0  0  0  0  0  0  # atno 17321 bound_to 7965
  140.1761  143.4154  152.1966 LP  0  0  0  0  0  0  0  0  0  0  0  0  # atno 17342 bound_to 10162
  139.5453  144.7293  151.4602 LP  0  0  0  0  0  0  0  0  0  0  0  0  # atno 17343 bound_to 10162
  157.6854  131.0826  150.7258 LP  0  0  0  0  0  0  0  0  0  0  0  0  # atno 17370 bound_to 10713
  156.7315  130.4711  149.5498 LP  0  0  0  0  0  0  0  0  0  0  0  0  # atno 17371 bound_to 10713
  141.1474  133.6553  156.3910 LP  0  0  0  0  0  0  0  0  0  0  0  0  # atno 17394 bound_to 11000
  140.5113  134.6392  157.5285 LP  0  0  0  0  0  0  0  0  0  0  0  0  # atno 17395 bound_to 11000

$$$$
