#       Name:                AV-unprocessed.smi:794
#       Creating user name   scv26
#       Creation time:       Fri Mar 27 01:19:20 2020


#       File generated by GOLD software.
#

@<TRIPOS>MOLECULE
AV-unprocessed.smi:794
    46    48     1
SMALL
NO_CHARGES


@<TRIPOS>ATOM
      1 ****        -5.8435  -0.4994  -0.8851 C.3            1 S1                 0.0000
      2 ****        -4.8014   0.5029  -0.4932 C.2            1 S1                 0.0000
      3 ****        -3.4482   0.1623  -0.5789 N.2            1 S1                 0.0000
      4 ****        -2.6490   1.1629  -0.1953 C.2            1 S1                 0.0000
      5 ****        -1.2314   1.0953  -0.1776 N.am           1 S1                 0.0000
      6 ****        -0.4444   0.0558  -0.5054 C.2            1 S1                 0.0000
      7 ****        -0.8405  -1.0408  -0.9011 O.2            1 S1                 0.0000
      8 ****         0.8509   0.3584  -0.3364 N.am           1 S1                 0.0000
      9 ****         1.9736  -0.5433  -0.5981 C.3            1 S1                 0.0000
     10 ****         3.2249   0.2665  -1.0017 C.3            1 S1                 0.0000
     11 ****         4.2544  -0.6833  -1.6405 C.3            1 S1                 0.0000
     12 ****         4.7550  -1.4955  -0.4308 C.3            1 S1                 0.0000
     13 ****         3.9484  -0.8999   0.7405 C.3            1 S1                 0.0000
     14 ****         3.8764   0.5688   0.3424 C.3            1 S1                 0.0000
     15 ****         2.4725  -1.3578   0.6348 C.3            1 S1                 0.0000
     16 ****         1.6769  -1.1670   1.9465 C.3            1 S1                 0.0000
     17 ****         2.1808  -2.0135   2.9582 O.3            1 S1                 0.0000
     18 ****        -3.5159   2.6059   0.3010 S.3            1 S1                 0.0000
     19 ****        -5.0184   1.7819  -0.0348 C.2            1 S1                 0.0000
     20 ****        -6.3293   2.4630   0.1779 C.3            1 S1                 0.0000
     21 ****        -6.4687  -0.1196  -1.6933 H              1 S1                 0.0000
     22 ****        -6.4965  -0.7348  -0.0445 H              1 S1                 0.0000
     23 ****        -5.3975  -1.4341  -1.2264 H              1 S1                 0.0000
     24 ****        -0.7621   1.9334   0.1318 H              1 S1                 0.0000
     25 ****         1.0829   1.2833  -0.0052 H              1 S1                 0.0000
     26 ****         1.7000  -1.2181  -1.4118 H              1 S1                 0.0000
     27 ****         3.0094   1.1409  -1.6172 H              1 S1                 0.0000
     28 ****         3.8177  -1.3135  -2.4161 H              1 S1                 0.0000
     29 ****         5.0744  -0.1217  -2.0897 H              1 S1                 0.0000
     30 ****         4.5885  -2.5668  -0.5489 H              1 S1                 0.0000
     31 ****         5.8243  -1.3398  -0.2829 H              1 S1                 0.0000
     32 ****         4.4070  -1.0886   1.7115 H              1 S1                 0.0000
     33 ****         4.8561   1.0410   0.2512 H              1 S1                 0.0000
     34 ****         3.2525   1.1717   1.0036 H              1 S1                 0.0000
     35 ****         2.4384  -2.4207   0.3896 H              1 S1                 0.0000
     36 ****         1.7147  -0.1342   2.2934 H              1 S1                 0.0000
     37 ****         0.6278  -1.4226   1.7972 H              1 S1                 0.0000
     38 ****         1.6567  -1.8971   3.7361 H              1 S1                 0.0000
     39 ****        -6.9924   1.8458   0.7844 H              1 S1                 0.0000
     40 ****        -6.8233   2.6544  -0.7748 H              1 S1                 0.0000
     41 ****        -6.2010   3.4177   0.6886 H              1 S1                 0.0000
     42 ****        -3.1162  -0.7277  -0.8913 LP             1 S1                 0.0000
     43 ****        -1.8207  -1.2123  -1.0003 LP             1 S1                 0.0000
     44 ****        -0.1821  -1.7599  -1.1232 LP             1 S1                 0.0000
     45 ****         3.1322  -1.7757   3.1540 LP             1 S1                 0.0000
     46 ****         2.1304  -2.9658   2.6571 LP             1 S1                 0.0000
@<TRIPOS>BOND
    1    1    2 1     
    2    1   21 1     
    3    1   22 1     
    4    1   23 1     
    5    2   19 2     
    6    2    3 1     
    7    3    4 2     
    8    4    5 1     
    9    4   18 1     
   10    5    6 am    
   11    5   24 1     
   12    6    7 2     
   13    6    8 am    
   14    8    9 1     
   15    8   25 1     
   16    9   15 1     
   17    9   10 1     
   18    9   26 1     
   19   10   14 1     
   20   10   11 1     
   21   10   27 1     
   22   11   12 1     
   23   11   28 1     
   24   11   29 1     
   25   12   13 1     
   26   12   30 1     
   27   12   31 1     
   28   13   14 1     
   29   13   15 1     
   30   13   32 1     
   31   14   33 1     
   32   14   34 1     
   33   15   16 1     
   34   15   35 1     
   35   16   17 1     
   36   16   36 1     
   37   16   37 1     
   38   17   38 1     
   39   18   19 1     
   40   19   20 1     
   41   20   39 1     
   42   20   40 1     
   43   20   41 1     
   44    3   42 1     
   45    7   43 1     
   46    7   44 1     
   47   17   45 1     
   48   17   46 1     
@<TRIPOS>SUBSTRUCTURE
      1 S1             1
@<TRIPOS>SET
LONE_PAIRS      STATIC     ATOMS    <user>   **** ""
5 42 43 44 45 46
DONOR_HYDROGENS      STATIC     ATOMS    <user>   **** ""
3 24 25 38
ATOM$BLUE        STATIC     ATOMS    COLORGROUP SYSTEM
5 42 43 44 45 46
ATOM$RED        STATIC     ATOMS    COLORGROUP SYSTEM
3 24 25 38
