AV-unprocessed.smi:362|AV-procd|sdf|2421|dock5
  -GOLD-   2262022363D 1   1.00000     0.00000
 Structure written by MMmdl.
 36 38  0  0  0  0  0  0  0  0  1 V2000
  149.5985  141.2135  157.4659 O   0  0  0  0  0  0  0  0  0  0  0  0
  150.3348  142.0084  156.8804 C   0  0  0  0  0  0  0  0  0  0  0  0
  150.2557  142.1725  155.3559 C   0  0  0  0  0  0  0  0  0  0  0  0
  149.2826  141.2651  154.7302 N   0  0  0  0  0  0  0  0  0  0  0  0
  147.9606  141.6562  154.5715 C   0  0  0  0  0  0  0  0  0  0  0  0
  147.0118  140.8676  154.0135 C   0  0  0  0  0  0  0  0  0  0  0  0
  147.3483  139.5292  153.5401 C   0  0  0  0  0  0  0  0  0  0  0  0
  146.5610  138.7418  153.0203 O   0  0  0  0  0  0  0  0  0  0  0  0
  148.6872  139.1718  153.7195 N   0  0  0  0  0  0  0  0  0  0  0  0
  149.6696  139.9790  154.2948 C   0  0  0  0  0  0  0  0  0  0  0  0
  150.8223  139.5638  154.4089 O   0  0  0  0  0  0  0  0  0  0  0  0
  151.2264  142.7891  157.5099 N   0  0  0  0  0  0  0  0  0  0  0  0
  151.4770  142.8111  158.9471 C   0  0  0  0  0  0  0  0  0  0  0  0
  151.0869  144.1343  159.5852 C   0  0  0  0  0  0  0  0  0  0  0  0
  151.9009  145.3866  159.3581 C   0  0  0  0  0  0  0  0  0  0  0  0
  151.8885  144.7293  160.7191 C   0  0  0  0  0  0  0  0  0  0  0  0
  152.9242  142.4788  159.2623 C   0  0  0  0  0  0  0  0  0  0  0  0
  153.3619  141.0525  159.4950 C   0  0  0  0  0  0  0  0  0  0  0  0
  153.3516  142.0376  160.6423 C   0  0  0  0  0  0  0  0  0  0  0  0
  148.9666  138.2525  153.4093 H   0  0  0  0  0  0  0  0  0  0  0  0
  149.9986  143.2106  155.1413 H   0  0  0  0  0  0  0  0  0  0  0  0
  151.2432  142.0234  154.9142 H   0  0  0  0  0  0  0  0  0  0  0  0
  147.6643  142.6382  154.9122 H   0  0  0  0  0  0  0  0  0  0  0  0
  145.9979  141.2285  153.9181 H   0  0  0  0  0  0  0  0  0  0  0  0
  151.7821  143.4156  156.9459 H   0  0  0  0  0  0  0  0  0  0  0  0
  150.8682  142.0320  159.4107 H   0  0  0  0  0  0  0  0  0  0  0  0
  150.0101  144.2835  159.6425 H   0  0  0  0  0  0  0  0  0  0  0  0
  152.8163  145.3045  158.7759 H   0  0  0  0  0  0  0  0  0  0  0  0
  151.3590  146.3233  159.2453 H   0  0  0  0  0  0  0  0  0  0  0  0
  151.3380  145.2267  161.5148 H   0  0  0  0  0  0  0  0  0  0  0  0
  152.7931  144.2112  161.0313 H   0  0  0  0  0  0  0  0  0  0  0  0
  153.6367  143.1071  158.7307 H   0  0  0  0  0  0  0  0  0  0  0  0
  152.5956  140.2796  159.4901 H   0  0  0  0  0  0  0  0  0  0  0  0
  154.3290  140.7530  159.0964 H   0  0  0  0  0  0  0  0  0  0  0  0
  154.3121  142.3948  161.0079 H   0  0  0  0  0  0  0  0  0  0  0  0
  152.5820  141.9104  161.4008 H   0  0  0  0  0  0  0  0  0  0  0  0
  1  2  2  0  0  0  0
  2  3  1  0  0  0  0
  2 12  1  0  0  0  0
  3  4  1  0  0  0  0
  3 21  1  0  0  0  0
  3 22  1  0  0  0  0
  4 10  1  0  0  0  0
  4  5  1  0  0  0  0
  5  6  2  0  0  0  0
  5 23  1  0  0  0  0
  6  7  1  0  0  0  0
  6 24  1  0  0  0  0
  7  8  2  0  0  0  0
  7  9  1  0  0  0  0
  9 20  1  0  0  0  0
  9 10  1  0  0  0  0
 10 11  2  0  0  0  0
 12 13  1  0  0  0  0
 12 25  1  0  0  0  0
 13 14  1  0  0  0  0
 13 17  1  0  0  0  0
 13 26  1  0  0  0  0
 14 16  1  0  0  0  0
 14 15  1  0  0  0  0
 14 27  1  0  0  0  0
 15 16  1  0  0  0  0
 15 28  1  0  0  0  0
 15 29  1  0  0  0  0
 16 30  1  0  0  0  0
 16 31  1  0  0  0  0
 17 19  1  0  0  0  0
 17 18  1  0  0  0  0
 17 32  1  0  0  0  0
 18 19  1  0  0  0  0
 18 33  1  0  0  0  0
 18 34  1  0  0  0  0
 19 35  1  0  0  0  0
 19 36  1  0  0  0  0
M  END
> <s_m_source_file>
AV-unprocessed.smi

> <i_m_source_file_index>
362

> <i_lp_mmshare_version>
43012

> <i_f3d_flags>
0

> <s_epik_input>
W0NIMl0xW0NIMl1bQ0hdMVtDSF0oW0NIXTJbQ0gyXVtDSDJdMilbTkhdQyg9TylbQ0gyXW4zW2NIXVtjSF1jKD1PKVtuSF1jMz1P

> <s_epik_cmdline>
J2VwaWtfcHl0aG9uJywgJy1waCcsICc3LjAnLCAnLXRuJywgJzgnLCAnLW1hJywgJzIwMCcsICctbWV0YWxfYmluZGluZycsICctaW1hZScsICc8aW5maWxlLm1hZT4nLCAnLW9tYWUnLCAnPG91dGZpbGUubWFlPic=

> <r_lp_tautomer_probability>
0.999537

> <r_epik_Ionization_Penalty>
0.00315598

> <r_epik_Ionization_Penalty_Charging>
0.00315596

> <r_epik_Ionization_Penalty_Neutral>
2.04126e-08

> <r_epik_State_Penalty>
0.00222351

> <r_epik_Charging_Adjusted_Penalty>
0.00537947

> <i_epik_Tot_Q>
0

> <i_epik_Tot_abs_Q>
0

> <r_epik_Metal_State_Penalty>
0.363464

> <b_epik_Metal_Only>
0

> <s_lp_Force_Field>
OPLS_2005

> <r_lp_Energy>
23.1626

> <b_lp_Chiralities_Consistent>
1

> <s_lp_Variant>
AV-unprocessed.smi:362-1

> <Gold.Version>
5.8.1

> <Gold.Id.Protein>
6NUR|6NUR_protein|mol2

> <Gold.PLP.Fitness>
45.2643

> <Gold.PLP.PLP>
-40.2091

> <Gold.PLP.part.hbond>
-2.0000

> <Gold.PLP.part.metal>
0.0000

> <Gold.PLP.part.buried>
-2.5494

> <Gold.PLP.part.nonpolar>
-36.2651

> <Gold.PLP.part.repulsive>
0.5130

> <Gold.PLP.ligand.clash>
0.0000

> <Gold.PLP.ligand.torsion>
1.5304

> <Gold.PLP.Chemscore.Hbond>
1.0000

> <Gold.PLP.Chemscore.CHOScore>
1.0000

> <Gold.PLP.Chemscore.Metal>
0.0000

> <Gold.Chemscore.Hbonds>
donor molecule, donor type, donor heavy atom, donor atom, acceptor molecule, acceptor atom, score
      P1  H  7989  7998       L1    11  0.90
      L1  C     5    23       P1  8028  1.00

> <Gold.PLP.Chemscore.Internal.Correction>
2.1160

> <Gold.Rescore>
     Score         DG    S(hbond)    S(metal)    S(lipo)     H(rot)  DE(clash)    DE(int)     intcor
      9.77     -11.95       0.18        0.00      97.11       2.15       0.71       1.47       ----

> <Gold.Chemscore.Fitness>
9.7710

> <Gold.Chemscore.DG>
-11.9539

> <Gold.Chemscore.ZeroCoef>
-5.4800

> <Gold.Chemscore.Hbond>
0.1844

> <Gold.Chemscore.Metal>
0.0000

> <Gold.Chemscore.Lipo>
97.1120

> <Gold.Chemscore.Internal_Hbond>
0.0000

> <Gold.Chemscore.DEClash>
0.7104

> <Gold.Chemscore.DEInternal>
1.4725

> <Gold.Chemscore.Rot>
2.1500

> <Gold.Chemscore.Internal.Correction>
   9.000000E+99

> <Gold.Chemscore.Hbonds>
donor molecule, donor type, donor heavy atom, donor atom, acceptor molecule, acceptor atom, score
      L1  H     9    20       P1  7948  0.01
      P1  H  7989  7998       L1    11  0.18

> <Gold.Chemscore.Hbond.Weighted>
-0.6158

> <Gold.Chemscore.Metal.Weighted>
-0.0000

> <Gold.Chemscore.Lipo.Weighted>
-11.3621

> <Gold.Chemscore.Internal_Hbond.Weighted>
0.0000

> <Gold.Chemscore.DEClash.Weighted>
0.7104

> <Gold.Chemscore.DEInternal.Weighted>
1.4725

> <Gold.Chemscore.Rot.Weighted>
5.5040

> <Gold.Chemscore.Internal.Correction.Weighted>
   9.000000E+99

> <Gold.Protein.RotatedTorsions>
[ 6907 6896 6895 6894 ] final  -98.34 input  -60.11 | X-H torsion
[ 7974 7965 7964 7962 ] final   66.09 input  175.53 | X-H torsion
[ 8008 7997 7996 7995 ] final   91.52 input   59.86 | X-H torsion
[ 10167 10162 10161 10158 ] final  177.26 input  -65.29 | X-H torsion
[ 10718 10713 10712 10709 ] final -108.63 input   66.30 | X-H torsion
[ 10763 10752 10751 10750 ] final   13.81 input  -60.55 | X-H torsion
[ 11005 11000 10999 10996 ] final  -37.49 input  -57.11 | X-H torsion

> <Gold.Protein.ActiveResidues>
 VAL166  LYS551  ARG553  GLY616  TRP617  ASP618  TYR619  PRO620  LYS621  CYS622 
 ASP623  PHE694  ASN695  SER759  ASP760  ASP761  ALA762  ILE779  LEU786  VAL792 
 PHE793  MET794  SER795  GLU796  ALA797  LYS798  CYS799  TRP800  GLU811  SER814 

> <Gold.Protein.RotatedAtoms>
  150.7044  134.1210  159.4034 H   0  0  0  0  0  0  0  0  0  0  0  0  # atno 6907 bound_to 6896
  151.9196  135.0302  160.0530 H   0  0  0  0  0  0  0  0  0  0  0  0  # atno 6908 bound_to 6896
  152.2267  133.4991  159.5229 H   0  0  0  0  0  0  0  0  0  0  0  0  # atno 6909 bound_to 6896
  145.8308  139.3138  143.0989 H   0  0  0  0  0  0  0  0  0  0  0  0  # atno 7974 bound_to 7965
  156.0248  140.3336  155.7076 H   0  0  0  0  0  0  0  0  0  0  0  0  # atno 8008 bound_to 7997
  155.5971  140.0652  157.2761 H   0  0  0  0  0  0  0  0  0  0  0  0  # atno 8009 bound_to 7997
  154.4330  140.1817  156.1122 H   0  0  0  0  0  0  0  0  0  0  0  0  # atno 8010 bound_to 7997
  139.5246  144.2819  152.0539 H   0  0  0  0  0  0  0  0  0  0  0  0  # atno 10167 bound_to 10162
  156.0495  130.5723  150.7988 H   0  0  0  0  0  0  0  0  0  0  0  0  # atno 10718 bound_to 10713
  153.1684  135.6808  153.8643 H   0  0  0  0  0  0  0  0  0  0  0  0  # atno 10763 bound_to 10752
  153.8015  135.3155  155.3392 H   0  0  0  0  0  0  0  0  0  0  0  0  # atno 10764 bound_to 10752
  154.7981  135.4795  154.0300 H   0  0  0  0  0  0  0  0  0  0  0  0  # atno 10765 bound_to 10752
  140.9956  133.6982  156.1929 H   0  0  0  0  0  0  0  0  0  0  0  0  # atno 11005 bound_to 11000
  145.9573  140.8863  143.0228 LP  0  0  0  0  0  0  0  0  0  0  0  0  # atno 17320 bound_to 7965
  144.6740  140.1763  143.7410 LP  0  0  0  0  0  0  0  0  0  0  0  0  # atno 17321 bound_to 7965
  140.2273  144.4404  150.6315 LP  0  0  0  0  0  0  0  0  0  0  0  0  # atno 17342 bound_to 10162
  140.6378  143.2198  151.6356 LP  0  0  0  0  0  0  0  0  0  0  0  0  # atno 17343 bound_to 10162
  157.5407  131.0940  150.9831 LP  0  0  0  0  0  0  0  0  0  0  0  0  # atno 17370 bound_to 10713
  157.0114  130.5638  149.5321 LP  0  0  0  0  0  0  0  0  0  0  0  0  # atno 17371 bound_to 10713
  140.6971  134.4604  157.5587 LP  0  0  0  0  0  0  0  0  0  0  0  0  # atno 17394 bound_to 11000
  139.9013  134.8549  156.1884 LP  0  0  0  0  0  0  0  0  0  0  0  0  # atno 17395 bound_to 11000

$$$$
