AV-unprocessed.smi:3331|AV-procd|sdf|12819|dock8
  -GOLD-   2272019193D 1   1.00000     0.00000
 Structure written by MMmdl.
 47 48  0  0  0  0  0  0  0  0  2 V2000
  146.6919  141.3238  154.9324 C   0  0  0  0  0  0  0  0  0  0  0  0
  147.8688  141.3514  153.9410 C   0  0  1  0  0  0  0  0  0  0  0  0
  149.2066  141.6965  154.6324 C   0  0  0  0  0  0  0  0  0  0  0  0
  149.8005  140.5070  155.4201 C   0  0  2  0  0  0  0  0  0  0  0  0
  151.1893  140.8431  155.9808 C   0  0  0  0  0  0  0  0  0  0  0  0
  149.8357  139.2438  154.5350 C   0  0  0  0  0  0  0  0  0  0  0  0
  148.4812  138.9631  154.0381 N   0  0  0  0  0  0  0  0  0  0  0  0
  147.7678  137.8792  154.4389 C   0  0  0  0  0  0  0  0  0  0  0  0
  148.2437  137.0330  155.1973 O   0  0  0  0  0  0  0  0  0  0  0  0
  146.3296  137.6731  153.9216 C   0  0  2  0  0  0  0  0  0  0  0  0
  145.3281  137.4452  155.0739 C   0  0  0  0  0  0  0  0  0  0  0  0
  146.3075  136.5427  152.9664 N   0  3  0  0  0  0  0  0  0  0  0  0
  145.0943  136.4418  152.1302 C   0  0  0  0  0  0  0  0  0  0  0  0
  145.4212  135.8021  150.7732 C   0  0  0  0  0  0  0  0  0  0  0  0
  145.2688  134.3603  150.8034 N   0  0  0  0  0  0  0  0  0  0  0  0
  144.1047  133.6221  150.8441 C   0  0  0  0  0  0  0  0  0  0  0  0
  144.4607  132.3043  150.8680 C   0  0  0  0  0  0  0  0  0  0  0  0
  145.8829  132.3373  150.8457 C   0  0  0  0  0  0  0  0  0  0  0  0
  146.3637  133.5700  150.8094 N   0  0  0  0  0  0  0  0  0  0  0  0
  148.0101  140.0346  153.1467 C   0  0  0  0  0  0  0  0  0  0  0  0
  146.8131  140.5508  155.6911 H   0  0  0  0  0  0  0  0  0  0  0  0
  145.7507  141.1356  154.4155 H   0  0  0  0  0  0  0  0  0  0  0  0
  146.5948  142.2791  155.4492 H   0  0  0  0  0  0  0  0  0  0  0  0
  147.6544  142.1475  153.2269 H   0  0  0  0  0  0  0  0  0  0  0  0
  149.9217  142.0010  153.8667 H   0  0  0  0  0  0  0  0  0  0  0  0
  149.0830  142.5606  155.2864 H   0  0  0  0  0  0  0  0  0  0  0  0
  149.1494  140.3025  156.2710 H   0  0  0  0  0  0  0  0  0  0  0  0
  151.9023  141.0472  155.1814 H   0  0  0  0  0  0  0  0  0  0  0  0
  151.5826  140.0181  156.5755 H   0  0  0  0  0  0  0  0  0  0  0  0
  151.1495  141.7225  156.6243 H   0  0  0  0  0  0  0  0  0  0  0  0
  150.5063  139.3945  153.6875 H   0  0  0  0  0  0  0  0  0  0  0  0
  150.2604  138.4113  155.0978 H   0  0  0  0  0  0  0  0  0  0  0  0
  146.0180  138.5847  153.4120 H   0  0  0  0  0  0  0  0  0  0  0  0
  145.3975  138.2379  155.8201 H   0  0  0  0  0  0  0  0  0  0  0  0
  145.5034  136.4949  155.5798 H   0  0  0  0  0  0  0  0  0  0  0  0
  144.2991  137.4426  154.7150 H   0  0  0  0  0  0  0  0  0  0  0  0
  147.0929  136.6613  152.3425 H   0  0  0  0  0  0  0  0  0  0  0  0
  144.3401  135.8467  152.6455 H   0  0  0  0  0  0  0  0  0  0  0  0
  144.6761  137.4386  151.9816 H   0  0  0  0  0  0  0  0  0  0  0  0
  144.7706  136.2026  149.9943 H   0  0  0  0  0  0  0  0  0  0  0  0
  146.4462  136.0349  150.4817 H   0  0  0  0  0  0  0  0  0  0  0  0
  143.1309  134.0892  150.8515 H   0  0  0  0  0  0  0  0  0  0  0  0
  143.8045  131.4469  150.8995 H   0  0  0  0  0  0  0  0  0  0  0  0
  146.5751  131.5083  150.8553 H   0  0  0  0  0  0  0  0  0  0  0  0
  147.0809  139.8082  152.6278 H   0  0  0  0  0  0  0  0  0  0  0  0
  148.7441  140.1693  152.3507 H   0  0  0  0  0  0  0  0  0  0  0  0
  146.4351  135.6812  153.4779 H   0  0  0  0  0  0  0  0  0  0  0  0
  1  2  1  0  0  0  0
  1 21  1  0  0  0  0
  1 22  1  0  0  0  0
  1 23  1  0  0  0  0
  2 20  1  0  0  0  0
  2  3  1  0  0  0  0
  2 24  1  0  0  0  0
  3  4  1  0  0  0  0
  3 25  1  0  0  0  0
  3 26  1  0  0  0  0
  4  5  1  0  0  0  0
  4  6  1  0  0  0  0
  4 27  1  0  0  0  0
  5 28  1  0  0  0  0
  5 29  1  0  0  0  0
  5 30  1  0  0  0  0
  6  7  1  0  0  0  0
  6 31  1  0  0  0  0
  6 32  1  0  0  0  0
  7  8  1  0  0  0  0
  7 20  1  0  0  0  0
  8  9  2  0  0  0  0
  8 10  1  0  0  0  0
 10 11  1  0  0  0  0
 10 12  1  0  0  0  0
 10 33  1  0  0  0  0
 11 34  1  0  0  0  0
 11 35  1  0  0  0  0
 11 36  1  0  0  0  0
 12 13  1  0  0  0  0
 12 37  1  0  0  0  0
 12 47  1  0  0  0  0
 13 14  1  0  0  0  0
 13 38  1  0  0  0  0
 13 39  1  0  0  0  0
 14 15  1  0  0  0  0
 14 40  1  0  0  0  0
 14 41  1  0  0  0  0
 15 19  1  0  0  0  0
 15 16  1  0  0  0  0
 16 17  2  0  0  0  0
 16 42  1  0  0  0  0
 17 18  1  0  0  0  0
 17 43  1  0  0  0  0
 18 19  2  0  0  0  0
 18 44  1  0  0  0  0
 20 45  1  0  0  0  0
 20 46  1  0  0  0  0
M  CHG  1  12   1
M  END
> <s_m_source_file>
AV-unprocessed.smi

> <i_m_source_file_index>
3331

> <i_lp_mmshare_version>
43012

> <i_f3d_flags>
0

> <s_epik_input>
W0NIM11bQ0BASF0xW0NIMl1bQ0BASF0oW0NIM10pW0NIMl1OKFtDSDJdMSlDKD1PKVtDQEhdKFtDSDNdKVtOSF1bQ0gyXVtDSDJdbjJbY0hdW2NIXVtjSF1uMg==

> <s_epik_cmdline>
J2VwaWtfcHl0aG9uJywgJy1waCcsICc3LjAnLCAnLXRuJywgJzgnLCAnLW1hJywgJzIwMCcsICctbWV0YWxfYmluZGluZycsICctaW1hZScsICc8aW5maWxlLm1hZT4nLCAnLW9tYWUnLCAnPG91dGZpbGUubWFlPic=

> <r_lp_tautomer_probability>
1

> <r_epik_Ionization_Penalty>
0.189706

> <r_epik_Ionization_Penalty_Charging>
0.189703

> <r_epik_Ionization_Penalty_Neutral>
2.45875e-06

> <r_epik_State_Penalty>
0.179341

> <r_epik_Charging_Adjusted_Penalty>
0.369044

> <i_epik_Tot_Q>
1

> <i_epik_Tot_abs_Q>
1

> <r_epik_Metal_State_Penalty>
0.179578

> <b_epik_Metal_Only>
0

> <s_lp_Force_Field>
OPLS_2005

> <r_lp_Energy>
29.8768

> <b_lp_Chiralities_Consistent>
1

> <s_lp_Variant>
AV-unprocessed.smi:3331-3

> <Gold.Version>
5.8.1

> <Gold.Id.Protein>
6NUR|6NUR_protein|mol2

> <Gold.PLP.Fitness>
44.5970

> <Gold.PLP.PLP>
-34.0907

> <Gold.PLP.part.hbond>
-1.0000

> <Gold.PLP.part.metal>
0.0000

> <Gold.PLP.part.buried>
-0.0237

> <Gold.PLP.part.nonpolar>
-33.8220

> <Gold.PLP.part.repulsive>
0.3063

> <Gold.PLP.ligand.clash>
0.0000

> <Gold.PLP.ligand.torsion>
0.7785

> <Gold.PLP.Chemscore.Hbond>
2.0000

> <Gold.PLP.Chemscore.CHOScore>
2.0000

> <Gold.PLP.Chemscore.Metal>
0.0000

> <Gold.Chemscore.Hbonds>
donor molecule, donor type, donor heavy atom, donor atom, acceptor molecule, acceptor atom, score
      L1  H    12    37       P1  7948  2.00
      L1  C    16    42       P1 10186  1.00
      L1  C    18    44       P1 10747  0.95

> <Gold.PLP.Chemscore.Internal.Correction>
0.0633

> <Gold.Rescore>
     Score         DG    S(hbond)    S(metal)    S(lipo)     H(rot)  DE(clash)    DE(int)     intcor
     12.42     -14.90       0.98        0.00      90.15       1.73       1.68       0.80       ----

> <Gold.Chemscore.Fitness>
12.4170

> <Gold.Chemscore.DG>
-14.8985

> <Gold.Chemscore.ZeroCoef>
-5.4800

> <Gold.Chemscore.Hbond>
0.9846

> <Gold.Chemscore.Metal>
0.0000

> <Gold.Chemscore.Lipo>
90.1457

> <Gold.Chemscore.Internal_Hbond>
0.0000

> <Gold.Chemscore.DEClash>
1.6831

> <Gold.Chemscore.DEInternal>
0.7984

> <Gold.Chemscore.Rot>
1.7254

> <Gold.Chemscore.Internal.Correction>
   9.000000E+99

> <Gold.Chemscore.Hbonds>
donor molecule, donor type, donor heavy atom, donor atom, acceptor molecule, acceptor atom, score
      L1  H    12    37       P1  7948  0.93

> <Gold.Chemscore.Hbond.Weighted>
-3.2885

> <Gold.Chemscore.Metal.Weighted>
-0.0000

> <Gold.Chemscore.Lipo.Weighted>
-10.5471

> <Gold.Chemscore.Internal_Hbond.Weighted>
0.0000

> <Gold.Chemscore.DEClash.Weighted>
1.6831

> <Gold.Chemscore.DEInternal.Weighted>
0.7984

> <Gold.Chemscore.Rot.Weighted>
4.4170

> <Gold.Chemscore.Internal.Correction.Weighted>
   9.000000E+99

> <Gold.Protein.RotatedTorsions>
[ 6907 6896 6895 6894 ] final -137.07 input  -60.11 | X-H torsion
[ 7974 7965 7964 7962 ] final  133.56 input  175.53 | X-H torsion
[ 8008 7997 7996 7995 ] final -136.35 input   59.86 | X-H torsion
[ 10167 10162 10161 10158 ] final   25.73 input  -65.29 | X-H torsion
[ 10718 10713 10712 10709 ] final -137.95 input   66.30 | X-H torsion
[ 10763 10752 10751 10750 ] final -127.50 input  -60.55 | X-H torsion
[ 11005 11000 10999 10996 ] final -176.61 input  -57.11 | X-H torsion

> <Gold.Protein.ActiveResidues>
 VAL166  LYS551  ARG553  GLY616  TRP617  ASP618  TYR619  PRO620  LYS621  CYS622 
 ASP623  PHE694  ASN695  SER759  ASP760  ASP761  ALA762  ILE779  LEU786  VAL792 
 PHE793  MET794  SER795  GLU796  ALA797  LYS798  CYS799  TRP800  GLU811  SER814 

> <Gold.Protein.RotatedAtoms>
  151.0179  133.5903  159.2674 H   0  0  0  0  0  0  0  0  0  0  0  0  # atno 6907 bound_to 6896
  151.3031  135.0773  159.9255 H   0  0  0  0  0  0  0  0  0  0  0  0  # atno 6908 bound_to 6896
  152.5316  133.9858  159.7882 H   0  0  0  0  0  0  0  0  0  0  0  0  # atno 6909 bound_to 6896
  144.9853  139.4462  143.5366 H   0  0  0  0  0  0  0  0  0  0  0  0  # atno 7974 bound_to 7965
  155.3938  140.0501  157.3039 H   0  0  0  0  0  0  0  0  0  0  0  0  # atno 8008 bound_to 7997
  154.5023  140.2161  155.9282 H   0  0  0  0  0  0  0  0  0  0  0  0  # atno 8009 bound_to 7997
  156.1483  140.3141  155.8612 H   0  0  0  0  0  0  0  0  0  0  0  0  # atno 8010 bound_to 7997
  140.5082  144.0204  150.6361 H   0  0  0  0  0  0  0  0  0  0  0  0  # atno 10167 bound_to 10162
  156.2938  130.7390  151.1423 H   0  0  0  0  0  0  0  0  0  0  0  0  # atno 10718 bound_to 10713
  154.8752  135.3959  154.3604 H   0  0  0  0  0  0  0  0  0  0  0  0  # atno 10763 bound_to 10752
  153.4377  135.7026  153.6194 H   0  0  0  0  0  0  0  0  0  0  0  0  # atno 10764 bound_to 10752
  153.4788  135.3774  155.2400 H   0  0  0  0  0  0  0  0  0  0  0  0  # atno 10765 bound_to 10752
  140.4501  134.6351  157.4797 H   0  0  0  0  0  0  0  0  0  0  0  0  # atno 11005 bound_to 11000
  146.3418  139.9151  142.8774 LP  0  0  0  0  0  0  0  0  0  0  0  0  # atno 17320 bound_to 7965
  145.2363  140.9992  143.3962 LP  0  0  0  0  0  0  0  0  0  0  0  0  # atno 17321 bound_to 7965
  140.3519  143.2958  152.0478 LP  0  0  0  0  0  0  0  0  0  0  0  0  # atno 17342 bound_to 10162
  139.4889  144.6367  151.6960 LP  0  0  0  0  0  0  0  0  0  0  0  0  # atno 17343 bound_to 10162
  157.7350  131.0577  150.5495 LP  0  0  0  0  0  0  0  0  0  0  0  0  # atno 17370 bound_to 10713
  156.5615  130.4257  149.6061 LP  0  0  0  0  0  0  0  0  0  0  0  0  # atno 17371 bound_to 10713
  140.0012  134.6833  155.9527 LP  0  0  0  0  0  0  0  0  0  0  0  0  # atno 17394 bound_to 11000
  141.1668  133.6537  156.4507 LP  0  0  0  0  0  0  0  0  0  0  0  0  # atno 17395 bound_to 11000

$$$$
