#       Name:                AV-unprocessed.smi:1052
#       Creating user name   scv26
#       Creation time:       Fri Mar 27 03:11:49 2020


#       File generated by GOLD software.
#

@<TRIPOS>MOLECULE
AV-unprocessed.smi:1052
    45    46     1
SMALL
NO_CHARGES


@<TRIPOS>ATOM
      1 ****        -4.3538   1.9816   1.9233 C.3            1 S1                 0.0000
      2 ****        -3.2463   2.1207   0.8638 C.3            1 S1                 0.0000
      3 ****        -3.8976   2.3332  -0.5186 C.3            1 S1                 0.0000
      4 ****        -2.3497   3.3216   1.2335 C.3            1 S1                 0.0000
      5 ****        -2.4781   0.8702   0.8841 N.am           1 S1                 0.0000
      6 ****        -1.3994   0.5381   0.1526 C.2            1 S1                 0.0000
      7 ****        -0.8879   1.2758  -0.6904 O.2            1 S1                 0.0000
      8 ****        -0.8288  -0.8648   0.4041 C.3            1 S1                 0.0000
      9 ****         0.6257  -0.9411   0.2025 N.am           1 S1                 0.0000
     10 ****         0.9981  -1.4751  -1.0161 N.2            1 S1                 0.0000
     11 ****         2.2430  -1.5929  -1.3354 C.2            1 S1                 0.0000
     12 ****         2.5594  -2.1779  -2.6824 C.3            1 S1                 0.0000
     13 ****         2.3059  -3.6339  -2.9966 C.3            1 S1                 0.0000
     14 ****         3.7231  -3.1181  -2.9003 C.3            1 S1                 0.0000
     15 ****         3.2631  -1.1647  -0.3992 C.2            1 S1                 0.0000
     16 ****         2.9146  -0.6382   0.8002 C.2            1 S1                 0.0000
     17 ****         3.9589  -0.1874   1.8184 C.3            1 S1                 0.0000
     18 ****         3.8717   1.1271   2.0226 F              1 S1                 0.0000
     19 ****         3.7780  -0.8039   2.9870 F              1 S1                 0.0000
     20 ****         5.1985  -0.4564   1.4056 F              1 S1                 0.0000
     21 ****         1.4953  -0.5009   1.1602 C.2            1 S1                 0.0000
     22 ****         1.1066  -0.0278   2.2292 O.2            1 S1                 0.0000
     23 ****        -4.9742   2.8775   1.9688 H              1 S1                 0.0000
     24 ****        -3.9352   1.8226   2.9180 H              1 S1                 0.0000
     25 ****        -5.0117   1.1392   1.7049 H              1 S1                 0.0000
     26 ****        -4.5130   1.4788  -0.8030 H              1 S1                 0.0000
     27 ****        -3.1555   2.4807  -1.3031 H              1 S1                 0.0000
     28 ****        -4.5408   3.2137  -0.5180 H              1 S1                 0.0000
     29 ****        -2.9360   4.2373   1.3170 H              1 S1                 0.0000
     30 ****        -1.5790   3.5060   0.4852 H              1 S1                 0.0000
     31 ****        -1.8498   3.1646   2.1900 H              1 S1                 0.0000
     32 ****        -2.8056   0.1748   1.5390 H              1 S1                 0.0000
     33 ****        -1.0821  -1.1942   1.4138 H              1 S1                 0.0000
     34 ****        -1.3402  -1.5592  -0.2650 H              1 S1                 0.0000
     35 ****         2.3548  -1.4573  -3.4721 H              1 S1                 0.0000
     36 ****         1.9518  -4.2762  -2.1923 H              1 S1                 0.0000
     37 ****         1.9244  -3.8739  -3.9869 H              1 S1                 0.0000
     38 ****         4.2839  -3.0156  -3.8272 H              1 S1                 0.0000
     39 ****         4.3065  -3.4289  -2.0356 H              1 S1                 0.0000
     40 ****         4.2997  -1.2747  -0.6806 H              1 S1                 0.0000
     41 ****        -1.2753   2.1813  -0.8635 LP             1 S1                 0.0000
     42 ****        -0.0851   0.9693  -1.2019 LP             1 S1                 0.0000
     43 ****         0.2935  -1.7744  -1.6595 LP             1 S1                 0.0000
     44 ****         0.1272   0.0434   2.4177 LP             1 S1                 0.0000
     45 ****         1.7706   0.2850   2.9084 LP             1 S1                 0.0000
@<TRIPOS>BOND
    1    1    2 1     
    2    1   23 1     
    3    1   24 1     
    4    1   25 1     
    5    2    3 1     
    6    2    4 1     
    7    2    5 1     
    8    3   26 1     
    9    3   27 1     
   10    3   28 1     
   11    4   29 1     
   12    4   30 1     
   13    4   31 1     
   14    5    6 am    
   15    5   32 1     
   16    6    7 2     
   17    6    8 1     
   18    8    9 1     
   19    8   33 1     
   20    8   34 1     
   21    9   21 am    
   22    9   10 1     
   23   10   11 2     
   24   11   12 1     
   25   11   15 1     
   26   12   14 1     
   27   12   13 1     
   28   12   35 1     
   29   13   14 1     
   30   13   36 1     
   31   13   37 1     
   32   14   38 1     
   33   14   39 1     
   34   15   16 2     
   35   15   40 1     
   36   16   17 1     
   37   16   21 1     
   38   17   18 1     
   39   17   19 1     
   40   17   20 1     
   41   21   22 2     
   42    7   41 1     
   43    7   42 1     
   44   10   43 1     
   45   22   44 1     
   46   22   45 1     
@<TRIPOS>SUBSTRUCTURE
      1 S1             1
@<TRIPOS>SET
LONE_PAIRS      STATIC     ATOMS    <user>   **** ""
5 41 42 43 44 45
DONOR_HYDROGENS      STATIC     ATOMS    <user>   **** ""
1 32
ATOM$BLUE        STATIC     ATOMS    COLORGROUP SYSTEM
5 41 42 43 44 45
ATOM$RED        STATIC     ATOMS    COLORGROUP SYSTEM
1 32
