AV-unprocessed.smi:1789|AV-procd|sdf|7215|dock3
  -GOLD-   22720 8453D 1   1.00000     0.00000
 Structure written by MMmdl.
 34 35  0  0  0  0  0  0  0  0  1 V2000
  151.1421  136.8158  157.9920 C   0  0  0  0  0  0  0  0  0  0  0  0
  150.3788  135.9563  157.0437 C   0  0  0  0  0  0  0  0  0  0  0  0
  149.9465  136.1423  155.7609 C   0  0  0  0  0  0  0  0  0  0  0  0
  149.2872  134.9199  155.4651 C   0  0  0  0  0  0  0  0  0  0  0  0
  148.6885  134.7044  154.1977 N   0  0  0  0  0  0  0  0  0  0  0  0
  147.7197  133.8260  153.8883 C   0  0  0  0  0  0  0  0  0  0  0  0
  147.1798  133.0559  154.6832 O   0  0  0  0  0  0  0  0  0  0  0  0
  147.4078  133.8854  152.5854 N   0  0  0  0  0  0  0  0  0  0  0  0
  146.4090  133.0554  151.9190 C   0  0  2  0  0  0  0  0  0  0  0  0
  146.7153  132.9465  150.4117 C   0  0  0  0  0  0  0  0  0  0  0  0
  145.6378  132.1341  149.6728 C   0  0  0  0  0  0  0  0  0  0  0  0
  144.2200  132.6848  149.9162 C   0  0  2  0  0  0  0  0  0  0  0  0
  144.0636  133.9279  149.2603 O   0  0  0  0  0  0  0  0  0  0  0  0
  143.9223  132.8386  151.4198 C   0  0  0  0  0  0  0  0  0  0  0  0
  145.0076  133.6503  152.1485 C   0  0  0  0  0  0  0  0  0  0  0  0
  149.3117  134.0661  156.4770 N   0  0  0  0  0  0  0  0  0  0  0  0
  150.0107  134.7264  157.4941 O   0  0  0  0  0  0  0  0  0  0  0  0
  151.5805  137.6705  157.4768 H   0  0  0  0  0  0  0  0  0  0  0  0
  151.9501  136.2531  158.4601 H   0  0  0  0  0  0  0  0  0  0  0  0
  150.4907  137.1929  158.7804 H   0  0  0  0  0  0  0  0  0  0  0  0
  150.0834  137.0129  155.1369 H   0  0  0  0  0  0  0  0  0  0  0  0
  149.0421  135.2743  153.4437 H   0  0  0  0  0  0  0  0  0  0  0  0
  147.9043  134.5474  152.0070 H   0  0  0  0  0  0  0  0  0  0  0  0
  146.4273  132.0549  152.3562 H   0  0  0  0  0  0  0  0  0  0  0  0
  146.7822  133.9439  149.9748 H   0  0  0  0  0  0  0  0  0  0  0  0
  147.6890  132.4798  150.2583 H   0  0  0  0  0  0  0  0  0  0  0  0
  145.8556  132.1076  148.6045 H   0  0  0  0  0  0  0  0  0  0  0  0
  145.6803  131.0999  150.0165 H   0  0  0  0  0  0  0  0  0  0  0  0
  143.4930  132.0013  149.4766 H   0  0  0  0  0  0  0  0  0  0  0  0
  144.8229  134.0795  148.7185 H   0  0  0  0  0  0  0  0  0  0  0  0
  142.9454  133.3004  151.5679 H   0  0  0  0  0  0  0  0  0  0  0  0
  143.8604  131.8480  151.8721 H   0  0  0  0  0  0  0  0  0  0  0  0
  144.7853  133.6793  153.2160 H   0  0  0  0  0  0  0  0  0  0  0  0
  144.9826  134.6843  151.8017 H   0  0  0  0  0  0  0  0  0  0  0  0
  1  2  1  0  0  0  0
  1 18  1  0  0  0  0
  1 19  1  0  0  0  0
  1 20  1  0  0  0  0
  2 17  1  0  0  0  0
  2  3  2  0  0  0  0
  3  4  1  0  0  0  0
  3 21  1  0  0  0  0
  4  5  1  0  0  0  0
  4 16  2  0  0  0  0
  5  6  1  0  0  0  0
  5 22  1  0  0  0  0
  6  7  2  0  0  0  0
  6  8  1  0  0  0  0
  8  9  1  0  0  0  0
  8 23  1  0  0  0  0
  9 15  1  0  0  0  0
  9 10  1  0  0  0  0
  9 24  1  0  0  0  0
 10 11  1  0  0  0  0
 10 25  1  0  0  0  0
 10 26  1  0  0  0  0
 11 12  1  0  0  0  0
 11 27  1  0  0  0  0
 11 28  1  0  0  0  0
 12 13  1  0  0  0  0
 12 14  1  0  0  0  0
 12 29  1  0  0  0  0
 13 30  1  0  0  0  0
 14 15  1  0  0  0  0
 14 31  1  0  0  0  0
 14 32  1  0  0  0  0
 15 33  1  0  0  0  0
 15 34  1  0  0  0  0
 16 17  1  0  0  0  0
M  END
> <s_m_source_file>
AV-unprocessed.smi

> <i_m_source_file_index>
1789

> <i_lp_mmshare_version>
43012

> <i_f3d_flags>
0

> <s_epik_input>
W0NIM11jMVtjSF1jKG5vMSlbTkhdQyg9TylbTkhdW0NAQEhdMltDSDJdW0NIMl1bQ0BASF0oW09IXSlbQ0gyXVtDSDJdMg==

> <s_epik_cmdline>
J2VwaWtfcHl0aG9uJywgJy1waCcsICc3LjAnLCAnLXRuJywgJzgnLCAnLW1hJywgJzIwMCcsICctbWV0YWxfYmluZGluZycsICctaW1hZScsICc8aW5maWxlLm1hZT4nLCAnLW9tYWUnLCAnPG91dGZpbGUubWFlPic=

> <r_lp_tautomer_probability>
1

> <r_epik_Ionization_Penalty>
2.38512e-05

> <r_epik_Ionization_Penalty_Charging>
0

> <r_epik_Ionization_Penalty_Neutral>
2.38512e-05

> <r_epik_State_Penalty>
-0

> <r_epik_Charging_Adjusted_Penalty>
0

> <i_epik_Tot_Q>
0

> <i_epik_Tot_abs_Q>
0

> <r_epik_Metal_State_Penalty>
-0

> <b_epik_Metal_Only>
0

> <s_lp_Force_Field>
OPLS_2005

> <r_lp_Energy>
7.91579

> <b_lp_Chiralities_Consistent>
1

> <s_lp_Variant>
AV-unprocessed.smi:1789-2

> <Gold.Version>
5.8.1

> <Gold.Id.Protein>
6NUR|6NUR_protein|mol2

> <Gold.PLP.Fitness>
36.9109

> <Gold.PLP.PLP>
-26.4446

> <Gold.PLP.part.hbond>
-4.6233

> <Gold.PLP.part.metal>
0.0000

> <Gold.PLP.part.buried>
-4.2198

> <Gold.PLP.part.nonpolar>
-17.9488

> <Gold.PLP.part.repulsive>
0.0440

> <Gold.PLP.ligand.clash>
0.0000

> <Gold.PLP.ligand.torsion>
0.4266

> <Gold.PLP.Chemscore.Hbond>
3.7722

> <Gold.PLP.Chemscore.CHOScore>
0.0000

> <Gold.PLP.Chemscore.Metal>
0.0000

> <Gold.Chemscore.Hbonds>
donor molecule, donor type, donor heavy atom, donor atom, acceptor molecule, acceptor atom, score
      L1  H     5    22       P1  7948  1.00
      L1  H     8    23       P1  7948  1.00
      L1  H    13    30       P1  7921  1.00
      P1  H  6896  6907       L1    17  0.77

> <Gold.PLP.Chemscore.Internal.Correction>
0.0027

> <Gold.Rescore>
     Score         DG    S(hbond)    S(metal)    S(lipo)     H(rot)  DE(clash)    DE(int)     intcor
     18.71     -20.29       3.67        0.00      54.43       1.49       0.00       1.57       ----

> <Gold.Chemscore.Fitness>
18.7146

> <Gold.Chemscore.DG>
-20.2904

> <Gold.Chemscore.ZeroCoef>
-5.4800

> <Gold.Chemscore.Hbond>
3.6687

> <Gold.Chemscore.Metal>
0.0000

> <Gold.Chemscore.Lipo>
54.4271

> <Gold.Chemscore.Internal_Hbond>
0.0000

> <Gold.Chemscore.DEClash>
0.0038

> <Gold.Chemscore.DEInternal>
1.5720

> <Gold.Chemscore.Rot>
1.4887

> <Gold.Chemscore.Internal.Correction>
   9.000000E+99

> <Gold.Chemscore.Hbonds>
donor molecule, donor type, donor heavy atom, donor atom, acceptor molecule, acceptor atom, score
      L1  H     5    22       P1  7948  0.44
      L1  H     8    23       P1  7948  0.24
      L1  H    13    30       P1  7921  1.00
      P1  H  6896  6907       L1    17  0.66

> <Gold.Chemscore.Hbond.Weighted>
-12.2535

> <Gold.Chemscore.Metal.Weighted>
-0.0000

> <Gold.Chemscore.Lipo.Weighted>
-6.3680

> <Gold.Chemscore.Internal_Hbond.Weighted>
0.0000

> <Gold.Chemscore.DEClash.Weighted>
0.0038

> <Gold.Chemscore.DEInternal.Weighted>
1.5720

> <Gold.Chemscore.Rot.Weighted>
3.8111

> <Gold.Chemscore.Internal.Correction.Weighted>
   9.000000E+99

> <Gold.Protein.RotatedTorsions>
[ 6907 6896 6895 6894 ] final  -91.52 input  -60.11 | X-H torsion
[ 7974 7965 7964 7962 ] final  -76.06 input  175.53 | X-H torsion
[ 8008 7997 7996 7995 ] final -118.95 input   59.86 | X-H torsion
[ 10167 10162 10161 10158 ] final -133.91 input  -65.29 | X-H torsion
[ 10718 10713 10712 10709 ] final -125.07 input   66.30 | X-H torsion
[ 10763 10752 10751 10750 ] final    3.53 input  -60.55 | X-H torsion
[ 11005 11000 10999 10996 ] final   13.55 input  -57.11 | X-H torsion

> <Gold.Protein.ActiveResidues>
 VAL166  LYS551  ARG553  GLY616  TRP617  ASP618  TYR619  PRO620  LYS621  CYS622 
 ASP623  PHE694  ASN695  SER759  ASP760  ASP761  ALA762  ILE779  LEU786  VAL792 
 PHE793  MET794  SER795  GLU796  ALA797  LYS798  CYS799  TRP800  GLU811  SER814 

> <Gold.Protein.RotatedAtoms>
  150.6894  134.2264  159.4416 H   0  0  0  0  0  0  0  0  0  0  0  0  # atno 6907 bound_to 6896
  152.0217  134.9816  160.0580 H   0  0  0  0  0  0  0  0  0  0  0  0  # atno 6908 bound_to 6896
  152.1390  133.4418  159.4794 H   0  0  0  0  0  0  0  0  0  0  0  0  # atno 6909 bound_to 6896
  145.6179  140.9370  143.1154 H   0  0  0  0  0  0  0  0  0  0  0  0  # atno 7974 bound_to 7965
  155.1079  140.0397  157.2716 H   0  0  0  0  0  0  0  0  0  0  0  0  # atno 8008 bound_to 7997
  154.6707  140.2611  155.6984 H   0  0  0  0  0  0  0  0  0  0  0  0  # atno 8009 bound_to 7997
  156.2657  140.2798  156.1215 H   0  0  0  0  0  0  0  0  0  0  0  0  # atno 8010 bound_to 7997
  139.8935  143.6694  152.2608 H   0  0  0  0  0  0  0  0  0  0  0  0  # atno 10167 bound_to 10162
  156.1643  130.6623  151.0093 H   0  0  0  0  0  0  0  0  0  0  0  0  # atno 10718 bound_to 10713
  153.2822  135.6941  153.7375 H   0  0  0  0  0  0  0  0  0  0  0  0  # atno 10763 bound_to 10752
  153.6358  135.3402  155.3057 H   0  0  0  0  0  0  0  0  0  0  0  0  # atno 10764 bound_to 10752
  154.8498  135.4420  154.1878 H   0  0  0  0  0  0  0  0  0  0  0  0  # atno 10765 bound_to 10752
  140.4795  134.0950  155.7748 H   0  0  0  0  0  0  0  0  0  0  0  0  # atno 11005 bound_to 11000
  144.7243  139.7927  143.7370 LP  0  0  0  0  0  0  0  0  0  0  0  0  # atno 17320 bound_to 7965
  146.1454  139.4522  143.0082 LP  0  0  0  0  0  0  0  0  0  0  0  0  # atno 17321 bound_to 7965
  139.7089  144.7623  151.1146 LP  0  0  0  0  0  0  0  0  0  0  0  0  # atno 17342 bound_to 10162
  140.7722  143.5357  150.9370 LP  0  0  0  0  0  0  0  0  0  0  0  0  # atno 17343 bound_to 10162
  157.6756  131.0851  150.7503 LP  0  0  0  0  0  0  0  0  0  0  0  0  # atno 17370 bound_to 10713
  156.7564  130.4785  149.5446 LP  0  0  0  0  0  0  0  0  0  0  0  0  # atno 17371 bound_to 10713
  141.1538  133.8920  157.2030 LP  0  0  0  0  0  0  0  0  0  0  0  0  # atno 17394 bound_to 11000
  139.9835  135.0090  156.9807 LP  0  0  0  0  0  0  0  0  0  0  0  0  # atno 17395 bound_to 11000

$$$$
