AV-unprocessed.smi:9|AV-procd|sdf|50|dock6
  -GOLD-   2262015163D 1   1.00000     0.00000
 Structure written by MMmdl.
 34 36  0  0  0  0  0  0  0  0  2 V2000
  152.6520  137.9926  154.1740 O   0  0  0  0  0  0  0  0  0  0  0  0
  151.5505  137.6429  154.5935 C   0  0  0  0  0  0  0  0  0  0  0  0
  151.2338  136.3832  155.0301 N   0  5  0  0  0  0  0  0  0  0  0  0
  149.9467  136.0886  155.4947 C   0  0  0  0  0  0  0  0  0  0  0  0
  149.7000  134.6539  155.9509 C   0  0  0  0  0  0  0  0  0  0  0  0
  150.5636  134.2942  156.9030 F   0  0  0  0  0  0  0  0  0  0  0  0
  148.4669  134.5336  156.4427 F   0  0  0  0  0  0  0  0  0  0  0  0
  149.8327  133.7928  154.9398 F   0  0  0  0  0  0  0  0  0  0  0  0
  148.9605  136.9247  155.5525 N   0  0  0  0  0  0  0  0  0  0  0  0
  149.2449  138.2003  155.1169 C   0  0  0  0  0  0  0  0  0  0  0  0
  150.4494  138.6406  154.6456 C   0  0  0  0  0  0  0  0  0  0  0  0
  150.3941  139.9865  154.3013 N   0  0  0  0  0  0  0  0  0  0  0  0
  149.1294  140.2960  154.5873 C   0  0  0  0  0  0  0  0  0  0  0  0
  148.3777  139.2840  155.0660 N   0  0  0  0  0  0  0  0  0  0  0  0
  146.9762  139.3320  155.4561 C   0  0  0  0  0  0  0  0  0  0  0  0
  146.0547  138.3859  154.6436 C   0  0  2  0  0  0  0  0  0  0  0  0
  144.7446  138.9182  154.7068 O   0  0  0  0  0  0  0  0  0  0  0  0
  146.0481  136.9485  155.2100 C   0  0  0  0  0  0  0  0  0  0  0  0
  145.3583  135.9650  154.2591 C   0  0  0  0  0  0  0  0  0  0  0  0
  145.9519  136.0872  152.8517 C   0  0  0  0  0  0  0  0  0  0  0  0
  145.7780  137.4190  152.3886 O   0  0  0  0  0  0  0  0  0  0  0  0
  146.4808  138.3931  153.1563 C   0  0  0  0  0  0  0  0  0  0  0  0
  148.7338  141.2898  154.4373 H   0  0  0  0  0  0  0  0  0  0  0  0
  146.9076  139.1074  156.5215 H   0  0  0  0  0  0  0  0  0  0  0  0
  146.6380  140.3630  155.3446 H   0  0  0  0  0  0  0  0  0  0  0  0
  144.5769  139.3951  153.9085 H   0  0  0  0  0  0  0  0  0  0  0  0
  147.0769  136.6191  155.3621 H   0  0  0  0  0  0  0  0  0  0  0  0
  145.5659  136.9143  156.1878 H   0  0  0  0  0  0  0  0  0  0  0  0
  145.4715  134.9455  154.6286 H   0  0  0  0  0  0  0  0  0  0  0  0
  144.2873  136.1680  154.2249 H   0  0  0  0  0  0  0  0  0  0  0  0
  147.0091  135.8173  152.8438 H   0  0  0  0  0  0  0  0  0  0  0  0
  145.4420  135.4071  152.1693 H   0  0  0  0  0  0  0  0  0  0  0  0
  146.3200  139.3767  152.7131 H   0  0  0  0  0  0  0  0  0  0  0  0
  147.5495  138.1896  153.0708 H   0  0  0  0  0  0  0  0  0  0  0  0
  1  2  2  0  0  0  0
  2 11  1  0  0  0  0
  2  3  1  0  0  0  0
  3  4  1  0  0  0  0
  4  5  1  0  0  0  0
  4  9  2  0  0  0  0
  5  6  1  0  0  0  0
  5  7  1  0  0  0  0
  5  8  1  0  0  0  0
  9 10  1  0  0  0  0
 10 14  1  0  0  0  0
 10 11  2  0  0  0  0
 11 12  1  0  0  0  0
 12 13  2  0  0  0  0
 13 14  1  0  0  0  0
 13 23  1  0  0  0  0
 14 15  1  0  0  0  0
 15 16  1  0  0  0  0
 15 24  1  0  0  0  0
 15 25  1  0  0  0  0
 16 22  1  0  0  0  0
 16 17  1  0  0  0  0
 16 18  1  0  0  0  0
 17 26  1  0  0  0  0
 18 19  1  0  0  0  0
 18 27  1  0  0  0  0
 18 28  1  0  0  0  0
 19 20  1  0  0  0  0
 19 29  1  0  0  0  0
 19 30  1  0  0  0  0
 20 21  1  0  0  0  0
 20 31  1  0  0  0  0
 20 32  1  0  0  0  0
 21 22  1  0  0  0  0
 22 33  1  0  0  0  0
 22 34  1  0  0  0  0
M  CHG  1   3  -1
M  END
> <s_m_source_file>
AV-unprocessed.smi

> <i_m_source_file_index>
9

> <i_lp_mmshare_version>
43012

> <i_f3d_flags>
0

> <s_epik_input>
RkMoRikoRiljKG4xKVtuSF1jKD1PKWMoYzEyKW5bY0hdbjJbQ0gyXVtDQEBdMyhbT0hdKVtDSDJdW0NIMl1bQ0gyXU9bQ0gyXTM=

> <s_epik_cmdline>
J2VwaWtfcHl0aG9uJywgJy1waCcsICc3LjAnLCAnLXRuJywgJzgnLCAnLW1hJywgJzIwMCcsICctbWV0YWxfYmluZGluZycsICctaW1hZScsICc8aW5maWxlLm1hZT4nLCAnLW9tYWUnLCAnPG91dGZpbGUubWFlPic=

> <r_lp_tautomer_probability>
1

> <r_epik_Ionization_Penalty>
0.188582

> <r_epik_Ionization_Penalty_Charging>
1.37005e-11

> <r_epik_Ionization_Penalty_Neutral>
0.188582

> <r_epik_State_Penalty>
0.012336

> <r_epik_Charging_Adjusted_Penalty>
0.012336

> <i_epik_Tot_Q>
-1

> <i_epik_Tot_abs_Q>
1

> <r_epik_Metal_State_Penalty>
0.0089237

> <b_epik_Metal_Only>
0

> <s_lp_Force_Field>
OPLS_2005

> <r_lp_Energy>
37.4202

> <b_lp_Chiralities_Consistent>
1

> <s_lp_Variant>
AV-unprocessed.smi:9-2

> <Gold.Version>
5.8.1

> <Gold.Id.Protein>
6NUR|6NUR_protein|mol2

> <Gold.PLP.Fitness>
35.8838

> <Gold.PLP.PLP>
-24.7072

> <Gold.PLP.part.hbond>
-3.7899

> <Gold.PLP.part.metal>
0.0000

> <Gold.PLP.part.buried>
-2.8947

> <Gold.PLP.part.nonpolar>
-19.2601

> <Gold.PLP.part.repulsive>
1.0748

> <Gold.PLP.ligand.clash>
0.0000

> <Gold.PLP.ligand.torsion>
0.4150

> <Gold.PLP.Chemscore.Hbond>
4.0000

> <Gold.PLP.Chemscore.CHOScore>
0.0000

> <Gold.PLP.Chemscore.Metal>
0.0000

> <Gold.Chemscore.Hbonds>
donor molecule, donor type, donor heavy atom, donor atom, acceptor molecule, acceptor atom, score
      L1  H    17    26       P1 10175  1.00
      P1  H  7989  7998       L1    12  1.00
      P1  H 10752 10765       L1     3  1.60

> <Gold.PLP.Chemscore.Internal.Correction>
0.0066

> <Gold.Rescore>
     Score         DG    S(hbond)    S(metal)    S(lipo)     H(rot)  DE(clash)    DE(int)     intcor
      8.63     -11.59       2.41        0.00      29.98       2.12       1.43       1.54       ----

> <Gold.Chemscore.Fitness>
8.6254

> <Gold.Chemscore.DG>
-11.5936

> <Gold.Chemscore.ZeroCoef>
-5.4800

> <Gold.Chemscore.Hbond>
2.4082

> <Gold.Chemscore.Metal>
0.0000

> <Gold.Chemscore.Lipo>
29.9787

> <Gold.Chemscore.Internal_Hbond>
0.0000

> <Gold.Chemscore.DEClash>
1.4313

> <Gold.Chemscore.DEInternal>
1.5369

> <Gold.Chemscore.Rot>
2.1239

> <Gold.Chemscore.Internal.Correction>
   9.000000E+99

> <Gold.Chemscore.Hbonds>
donor molecule, donor type, donor heavy atom, donor atom, acceptor molecule, acceptor atom, score
      L1  H    17    26       P1 10175  0.96
      P1  H  7989  7998       L1    12  0.99
      P1  H 10752 10765       L1     3  0.12

> <Gold.Chemscore.Hbond.Weighted>
-8.0434

> <Gold.Chemscore.Metal.Weighted>
-0.0000

> <Gold.Chemscore.Lipo.Weighted>
-3.5075

> <Gold.Chemscore.Internal_Hbond.Weighted>
0.0000

> <Gold.Chemscore.DEClash.Weighted>
1.4313

> <Gold.Chemscore.DEInternal.Weighted>
1.5369

> <Gold.Chemscore.Rot.Weighted>
5.4373

> <Gold.Chemscore.Internal.Correction.Weighted>
   9.000000E+99

> <Gold.Protein.RotatedTorsions>
[ 6907 6896 6895 6894 ] final  165.27 input  -60.11 | X-H torsion
[ 7974 7965 7964 7962 ] final  167.38 input  175.53 | X-H torsion
[ 8008 7997 7996 7995 ] final   87.25 input   59.86 | X-H torsion
[ 10167 10162 10161 10158 ] final  -34.29 input  -65.29 | X-H torsion
[ 10718 10713 10712 10709 ] final  -57.76 input   66.30 | X-H torsion
[ 10763 10752 10751 10750 ] final -177.25 input  -60.55 | X-H torsion
[ 11005 11000 10999 10996 ] final   87.29 input  -57.11 | X-H torsion

> <Gold.Protein.ActiveResidues>
 VAL166  LYS551  ARG553  GLY616  TRP617  ASP618  TYR619  PRO620  LYS621  CYS622 
 ASP623  PHE694  ASN695  SER759  ASP760  ASP761  ALA762  ILE779  LEU786  VAL792 
 PHE793  MET794  SER795  GLU796  ALA797  LYS798  CYS799  TRP800  GLU811  SER814 

> <Gold.Protein.RotatedAtoms>
  151.8971  133.3529  159.3817 H   0  0  0  0  0  0  0  0  0  0  0  0  # atno 6907 bound_to 6896
  150.7089  134.4866  159.5505 H   0  0  0  0  0  0  0  0  0  0  0  0  # atno 6908 bound_to 6896
  152.2447  134.8194  160.0506 H   0  0  0  0  0  0  0  0  0  0  0  0  # atno 6909 bound_to 6896
  144.7426  139.8753  143.6392 H   0  0  0  0  0  0  0  0  0  0  0  0  # atno 7974 bound_to 7965
  155.9731  140.3384  155.6593 H   0  0  0  0  0  0  0  0  0  0  0  0  # atno 8008 bound_to 7997
  155.6648  140.0720  157.2559 H   0  0  0  0  0  0  0  0  0  0  0  0  # atno 8009 bound_to 7997
  154.4171  140.1702  156.1803 H   0  0  0  0  0  0  0  0  0  0  0  0  # atno 8010 bound_to 7997
  140.7188  143.3559  151.2061 H   0  0  0  0  0  0  0  0  0  0  0  0  # atno 10167 bound_to 10162
  156.1186  130.4168  150.0484 H   0  0  0  0  0  0  0  0  0  0  0  0  # atno 10718 bound_to 10713
  154.5625  135.2821  155.0906 H   0  0  0  0  0  0  0  0  0  0  0  0  # atno 10763 bound_to 10752
  154.2309  135.6374  153.5179 H   0  0  0  0  0  0  0  0  0  0  0  0  # atno 10764 bound_to 10752
  153.0033  135.5537  154.6223 H   0  0  0  0  0  0  0  0  0  0  0  0  # atno 10765 bound_to 10752
  139.8923  134.8412  156.2839 H   0  0  0  0  0  0  0  0  0  0  0  0  # atno 11005 bound_to 11000
  146.1251  139.4275  143.0204 LP  0  0  0  0  0  0  0  0  0  0  0  0  # atno 17320 bound_to 7965
  145.7247  141.0063  143.1383 LP  0  0  0  0  0  0  0  0  0  0  0  0  # atno 17321 bound_to 7965
  139.7100  143.9392  152.2943 LP  0  0  0  0  0  0  0  0  0  0  0  0  # atno 17342 bound_to 10162
  139.9114  144.6854  150.8558 LP  0  0  0  0  0  0  0  0  0  0  0  0  # atno 17343 bound_to 10162
  156.8428  130.9432  151.3631 LP  0  0  0  0  0  0  0  0  0  0  0  0  # atno 17370 bound_to 10713
  157.6370  130.8774  149.9377 LP  0  0  0  0  0  0  0  0  0  0  0  0  # atno 17371 bound_to 10713
  141.0021  133.7145  156.0976 LP  0  0  0  0  0  0  0  0  0  0  0  0  # atno 17394 bound_to 11000
  140.7484  134.4072  157.5545 LP  0  0  0  0  0  0  0  0  0  0  0  0  # atno 17395 bound_to 11000

$$$$
