AV-unprocessed.smi:1893|AV-procd|sdf|7671|dock8
  -GOLD-   22720 9413D 1   1.00000     0.00000
 Structure written by MMmdl.
 43 44  0  0  0  0  0  0  0  0  2 V2000
  148.4185  144.1877  159.7137 C   0  0  0  0  0  0  0  0  0  0  0  0
  149.9096  143.9592  159.3849 C   0  0  2  0  0  0  0  0  0  0  0  0
  150.6481  145.3101  159.5199 C   0  0  0  0  0  0  0  0  0  0  0  0
  152.1408  145.1872  159.2077 C   0  0  0  0  0  0  0  0  0  0  0  0
  152.3149  144.5903  157.8121 C   0  0  0  0  0  0  0  0  0  0  0  0
  151.5881  143.2424  157.7112 C   0  0  0  0  0  0  0  0  0  0  0  0
  150.1344  143.3606  158.0266 N   0  3  1  0  0  0  0  0  0  0  0  0
  149.4214  142.0699  157.8021 C   0  0  0  0  0  0  0  0  0  0  0  0
  149.7025  141.4563  156.4141 C   0  0  0  0  0  0  0  0  0  0  0  0
  150.1911  140.0876  156.5319 N   0  0  0  0  0  0  0  0  0  0  0  0
  151.1403  139.5412  155.7551 C   0  0  0  0  0  0  0  0  0  0  0  0
  151.7240  140.1700  154.8712 O   0  0  0  0  0  0  0  0  0  0  0  0
  151.4629  138.0604  156.0132 C   0  0  2  0  0  0  0  0  0  0  0  0
  151.0791  137.1471  154.8311 C   0  0  0  0  0  0  0  0  0  0  0  0
  150.8500  137.6226  157.2615 N   0  0  0  0  0  0  0  0  0  0  0  0
  151.4164  137.2210  158.4015 C   0  0  0  0  0  0  0  0  0  0  0  0
  150.5493  136.9365  159.3629 N   0  0  0  0  0  0  0  0  0  0  0  0
  149.3827  137.2060  158.7053 C   0  0  0  0  0  0  0  0  0  0  0  0
  149.5062  137.6316  157.4481 N   0  0  0  0  0  0  0  0  0  0  0  0
  148.3074  144.7897  160.6162 H   0  0  0  0  0  0  0  0  0  0  0  0
  147.8849  143.2587  159.9105 H   0  0  0  0  0  0  0  0  0  0  0  0
  147.9075  144.7133  158.9064 H   0  0  0  0  0  0  0  0  0  0  0  0
  150.3189  143.2714  160.1268 H   0  0  0  0  0  0  0  0  0  0  0  0
  150.1987  146.0438  158.8489 H   0  0  0  0  0  0  0  0  0  0  0  0
  150.5260  145.7045  160.5296 H   0  0  0  0  0  0  0  0  0  0  0  0
  152.6215  146.1643  159.2646 H   0  0  0  0  0  0  0  0  0  0  0  0
  152.6271  144.5527  159.9500 H   0  0  0  0  0  0  0  0  0  0  0  0
  151.9246  145.2785  157.0609 H   0  0  0  0  0  0  0  0  0  0  0  0
  153.3752  144.4597  157.5934 H   0  0  0  0  0  0  0  0  0  0  0  0
  151.7358  142.8616  156.7024 H   0  0  0  0  0  0  0  0  0  0  0  0
  152.0487  142.5209  158.3880 H   0  0  0  0  0  0  0  0  0  0  0  0
  149.6785  141.3649  158.5940 H   0  0  0  0  0  0  0  0  0  0  0  0
  148.3460  142.2122  157.8637 H   0  0  0  0  0  0  0  0  0  0  0  0
  148.8046  141.4815  155.7939 H   0  0  0  0  0  0  0  0  0  0  0  0
  150.4677  142.0160  155.8788 H   0  0  0  0  0  0  0  0  0  0  0  0
  149.7630  139.5071  157.2390 H   0  0  0  0  0  0  0  0  0  0  0  0
  152.5441  137.9843  156.1417 H   0  0  0  0  0  0  0  0  0  0  0  0
  151.5837  137.4560  153.9150 H   0  0  0  0  0  0  0  0  0  0  0  0
  150.0059  137.1568  154.6367 H   0  0  0  0  0  0  0  0  0  0  0  0
  151.3680  136.1145  155.0292 H   0  0  0  0  0  0  0  0  0  0  0  0
  152.4855  137.1405  158.5333 H   0  0  0  0  0  0  0  0  0  0  0  0
  148.4140  137.0927  159.1695 H   0  0  0  0  0  0  0  0  0  0  0  0
  149.7445  144.0185  157.3668 H   0  0  0  0  0  0  0  0  0  0  0  0
  1  2  1  0  0  0  0
  1 20  1  0  0  0  0
  1 21  1  0  0  0  0
  1 22  1  0  0  0  0
  2  7  1  0  0  0  0
  2  3  1  0  0  0  0
  2 23  1  0  0  0  0
  3  4  1  0  0  0  0
  3 24  1  0  0  0  0
  3 25  1  0  0  0  0
  4  5  1  0  0  0  0
  4 26  1  0  0  0  0
  4 27  1  0  0  0  0
  5  6  1  0  0  0  0
  5 28  1  0  0  0  0
  5 29  1  0  0  0  0
  6  7  1  0  0  0  0
  6 30  1  0  0  0  0
  6 31  1  0  0  0  0
  7  8  1  0  0  0  0
  7 43  1  0  0  0  0
  8  9  1  0  0  0  0
  8 32  1  0  0  0  0
  8 33  1  0  0  0  0
  9 10  1  0  0  0  0
  9 34  1  0  0  0  0
  9 35  1  0  0  0  0
 10 11  1  0  0  0  0
 10 36  1  0  0  0  0
 11 12  2  0  0  0  0
 11 13  1  0  0  0  0
 13 14  1  0  0  0  0
 13 15  1  0  0  0  0
 13 37  1  0  0  0  0
 14 38  1  0  0  0  0
 14 39  1  0  0  0  0
 14 40  1  0  0  0  0
 15 19  1  0  0  0  0
 15 16  1  0  0  0  0
 16 17  2  0  0  0  0
 16 41  1  0  0  0  0
 17 18  1  0  0  0  0
 18 19  2  0  0  0  0
 18 42  1  0  0  0  0
M  CHG  1   7   1
M  END
> <s_m_source_file>
AV-unprocessed.smi

> <i_m_source_file_index>
1893

> <i_lp_mmshare_version>
43012

> <i_f3d_flags>
0

> <s_epik_input>
W0NIM11bQ0BASF0xW0NIMl1bQ0gyXVtDSDJdW0NIMl1OMVtDSDJdW0NIMl1bTkhdQyg9TylbQ0BIXShbQ0gzXSluMltjSF1uW2NIXW4y

> <s_epik_cmdline>
J2VwaWtfcHl0aG9uJywgJy1waCcsICc3LjAnLCAnLXRuJywgJzgnLCAnLW1hJywgJzIwMCcsICctbWV0YWxfYmluZGluZycsICctaW1hZScsICc8aW5maWxlLm1hZT4nLCAnLW9tYWUnLCAnPG91dGZpbGUubWFlPic=

> <r_lp_tautomer_probability>
1

> <r_epik_Ionization_Penalty>
0.00266409

> <r_epik_Ionization_Penalty_Charging>
0.00265606

> <r_epik_Ionization_Penalty_Neutral>
8.02794e-06

> <r_epik_State_Penalty>
0.00184955

> <r_epik_Charging_Adjusted_Penalty>
0.00450561

> <i_epik_Tot_Q>
1

> <i_epik_Tot_abs_Q>
1

> <r_epik_Metal_State_Penalty>
-0

> <b_epik_Metal_Only>
0

> <s_lp_Force_Field>
OPLS_2005

> <r_lp_Energy>
24.7489

> <b_lp_Chiralities_Consistent>
1

> <s_lp_Variant>
AV-unprocessed.smi:1893-1

> <Gold.Version>
5.8.1

> <Gold.Id.Protein>
6NUR|6NUR_protein|mol2

> <Gold.PLP.Fitness>
42.5536

> <Gold.PLP.PLP>
-31.9844

> <Gold.PLP.part.hbond>
-2.7162

> <Gold.PLP.part.metal>
0.0000

> <Gold.PLP.part.buried>
-4.7299

> <Gold.PLP.part.nonpolar>
-25.2281

> <Gold.PLP.part.repulsive>
0.1304

> <Gold.PLP.ligand.clash>
0.0000

> <Gold.PLP.ligand.torsion>
0.7314

> <Gold.PLP.Chemscore.Hbond>
3.9675

> <Gold.PLP.Chemscore.CHOScore>
0.0000

> <Gold.PLP.Chemscore.Metal>
0.0000

> <Gold.Chemscore.Hbonds>
donor molecule, donor type, donor heavy atom, donor atom, acceptor molecule, acceptor atom, score
      L1  H     7    43       P1  8028  2.00
      P1  H  6896  6907       L1    17  1.00
      P1  H  7989  7998       L1    12  0.96

> <Gold.PLP.Chemscore.Internal.Correction>
0.1297

> <Gold.Rescore>
     Score         DG    S(hbond)    S(metal)    S(lipo)     H(rot)  DE(clash)    DE(int)     intcor
     13.07     -15.64       2.15        0.00      80.90       2.54       0.11       2.46       ----

> <Gold.Chemscore.Fitness>
13.0672

> <Gold.Chemscore.DG>
-15.6366

> <Gold.Chemscore.ZeroCoef>
-5.4800

> <Gold.Chemscore.Hbond>
2.1521

> <Gold.Chemscore.Metal>
0.0000

> <Gold.Chemscore.Lipo>
80.8984

> <Gold.Chemscore.Internal_Hbond>
0.0000

> <Gold.Chemscore.DEClash>
0.1059

> <Gold.Chemscore.DEInternal>
2.4635

> <Gold.Chemscore.Rot>
2.5377

> <Gold.Chemscore.Internal.Correction>
   9.000000E+99

> <Gold.Chemscore.Hbonds>
donor molecule, donor type, donor heavy atom, donor atom, acceptor molecule, acceptor atom, score
      L1  H     7    43       P1  8028  0.52
      P1  H  6896  6907       L1    17  0.24
      P1  H  7989  7998       L1    12  0.86

> <Gold.Chemscore.Hbond.Weighted>
-7.1881

> <Gold.Chemscore.Metal.Weighted>
-0.0000

> <Gold.Chemscore.Lipo.Weighted>
-9.4651

> <Gold.Chemscore.Internal_Hbond.Weighted>
0.0000

> <Gold.Chemscore.DEClash.Weighted>
0.1059

> <Gold.Chemscore.DEInternal.Weighted>
2.4635

> <Gold.Chemscore.Rot.Weighted>
6.4966

> <Gold.Chemscore.Internal.Correction.Weighted>
   9.000000E+99

> <Gold.Protein.RotatedTorsions>
[ 6907 6896 6895 6894 ] final  -25.52 input  -60.11 | X-H torsion
[ 7974 7965 7964 7962 ] final  148.56 input  175.53 | X-H torsion
[ 8008 7997 7996 7995 ] final -103.51 input   59.86 | X-H torsion
[ 10167 10162 10161 10158 ] final -152.72 input  -65.29 | X-H torsion
[ 10718 10713 10712 10709 ] final  -31.95 input   66.30 | X-H torsion
[ 10763 10752 10751 10750 ] final   -0.77 input  -60.55 | X-H torsion
[ 11005 11000 10999 10996 ] final  124.85 input  -57.11 | X-H torsion

> <Gold.Protein.ActiveResidues>
 VAL166  LYS551  ARG553  GLY616  TRP617  ASP618  TYR619  PRO620  LYS621  CYS622 
 ASP623  PHE694  ASN695  SER759  ASP760  ASP761  ALA762  ILE779  LEU786  VAL792 
 PHE793  MET794  SER795  GLU796  ALA797  LYS798  CYS799  TRP800  GLU811  SER814 

> <Gold.Protein.RotatedAtoms>
  151.1741  135.0331  159.8763 H   0  0  0  0  0  0  0  0  0  0  0  0  # atno 6907 bound_to 6896
  152.5447  134.1137  159.8380 H   0  0  0  0  0  0  0  0  0  0  0  0  # atno 6908 bound_to 6896
  151.1247  133.5033  159.2633 H   0  0  0  0  0  0  0  0  0  0  0  0  # atno 6909 bound_to 6896
  144.8504  139.6169  143.5976 H   0  0  0  0  0  0  0  0  0  0  0  0  # atno 7974 bound_to 7965
  154.8720  140.0422  157.1730 H   0  0  0  0  0  0  0  0  0  0  0  0  # atno 8008 bound_to 7997
  154.8729  140.2961  155.5450 H   0  0  0  0  0  0  0  0  0  0  0  0  # atno 8009 bound_to 7997
  156.2999  140.2425  156.3721 H   0  0  0  0  0  0  0  0  0  0  0  0  # atno 8010 bound_to 7997
  139.7157  143.9037  152.2485 H   0  0  0  0  0  0  0  0  0  0  0  0  # atno 10167 bound_to 10162
  156.3809  130.4356  149.7469 H   0  0  0  0  0  0  0  0  0  0  0  0  # atno 10718 bound_to 10713
  153.3361  135.6978  153.6906 H   0  0  0  0  0  0  0  0  0  0  0  0  # atno 10763 bound_to 10752
  153.5689  135.3520  155.2830 H   0  0  0  0  0  0  0  0  0  0  0  0  # atno 10764 bound_to 10752
  154.8628  135.4267  154.2562 H   0  0  0  0  0  0  0  0  0  0  0  0  # atno 10765 bound_to 10752
  139.9378  134.9638  156.8471 H   0  0  0  0  0  0  0  0  0  0  0  0  # atno 11005 bound_to 11000
  146.2780  139.6803  142.9249 LP  0  0  0  0  0  0  0  0  0  0  0  0  # atno 17320 bound_to 7965
  145.4511  141.0428  143.2804 LP  0  0  0  0  0  0  0  0  0  0  0  0  # atno 17321 bound_to 7965
  139.8918  144.6961  150.8761 LP  0  0  0  0  0  0  0  0  0  0  0  0  # atno 17342 bound_to 10162
  140.7743  143.3580  151.1883 LP  0  0  0  0  0  0  0  0  0  0  0  0  # atno 17343 bound_to 10162
  156.4560  130.7929  151.2950 LP  0  0  0  0  0  0  0  0  0  0  0  0  # atno 17370 bound_to 10713
  157.7492  131.0080  150.3213 LP  0  0  0  0  0  0  0  0  0  0  0  0  # atno 17371 bound_to 10713
  140.6029  134.0155  155.7545 LP  0  0  0  0  0  0  0  0  0  0  0  0  # atno 17394 bound_to 11000
  141.1000  133.9783  157.3095 LP  0  0  0  0  0  0  0  0  0  0  0  0  # atno 17395 bound_to 11000

$$$$
