#       Name:                AV-unprocessed.smi:2149
#       Creating user name   scv26
#       Creation time:       Fri Mar 27 11:53:03 2020


#       File generated by GOLD software.
#

@<TRIPOS>MOLECULE
AV-unprocessed.smi:2149
    46    47     1
SMALL
NO_CHARGES


@<TRIPOS>ATOM
      1 ****        -5.6648  -1.1969   1.7923 C.3            1 S1                 0.0000
      2 ****        -3.9784  -1.9185   1.9414 S.o2           1 S1                 0.0000
      3 ****        -3.2740  -1.1852   3.0045 O.2            1 S1                 0.0000
      4 ****        -4.0841  -3.3840   2.0059 O.2            1 S1                 0.0000
      5 ****        -3.2348  -1.5071   0.4289 N.3            1 S1                 0.0000
      6 ****        -3.7632  -2.1551  -0.7888 C.3            1 S1                 0.0000
      7 ****        -3.3137  -1.4181  -2.0605 C.3            1 S1                 0.0000
      8 ****        -1.7900  -1.2752  -2.1077 C.3            1 S1                 0.0000
      9 ****        -1.3105  -0.5471  -0.8422 C.3            1 S1                 0.0000
     10 ****         0.2137  -0.3683  -0.8536 C.2            1 S1                 0.0000
     11 ****         0.9554  -1.3512  -0.8524 O.2            1 S1                 0.0000
     12 ****         0.6663   0.8953  -0.8634 N.am           1 S1                 0.0000
     13 ****         2.0712   1.2856  -0.8727 C.3            1 S1                 0.0000
     14 ****         2.6816   1.2399   0.5379 C.3            1 S1                 0.0000
     15 ****         4.1232   1.7128   0.5545 C.ar           1 S1                 0.0000
     16 ****         4.4455   3.0253   0.9614 C.ar           1 S1                 0.0000
     17 ****         5.7981   3.4181   0.9508 C.ar           1 S1                 0.0000
     18 ****         6.7709   2.4888   0.5346 C.ar           1 S1                 0.0000
     19 ****         6.3460   1.2024   0.1461 C.ar           1 S1                 0.0000
     20 ****         5.0519   0.8160   0.1524 N.ar           1 S1                 0.0000
     21 ****        -1.7702  -1.3085   0.4195 C.3            1 S1                 0.0000
     22 ****        -6.1920  -1.3200   2.7380 H              1 S1                 0.0000
     23 ****        -6.2225  -1.7047   1.0069 H              1 S1                 0.0000
     24 ****        -5.5870  -0.1355   1.5587 H              1 S1                 0.0000
     25 ****        -3.4231  -3.1913  -0.8131 H              1 S1                 0.0000
     26 ****        -4.8511  -2.1829  -0.7529 H              1 S1                 0.0000
     27 ****        -3.6643  -1.9536  -2.9430 H              1 S1                 0.0000
     28 ****        -3.7769  -0.4310  -2.0947 H              1 S1                 0.0000
     29 ****        -1.3304  -2.2624  -2.1806 H              1 S1                 0.0000
     30 ****        -1.4967  -0.7238  -3.0020 H              1 S1                 0.0000
     31 ****        -1.7702   0.4432  -0.8241 H              1 S1                 0.0000
     32 ****        -0.0139   1.6416  -0.8638 H              1 S1                 0.0000
     33 ****         2.6344   0.6490  -1.5574 H              1 S1                 0.0000
     34 ****         2.1340   2.2995  -1.2691 H              1 S1                 0.0000
     35 ****         2.0944   1.8584   1.2182 H              1 S1                 0.0000
     36 ****         2.6399   0.2245   0.9351 H              1 S1                 0.0000
     37 ****         3.6763   3.7167   1.2730 H              1 S1                 0.0000
     38 ****         6.0837   4.4143   1.2552 H              1 S1                 0.0000
     39 ****         7.8172   2.7551   0.5131 H              1 S1                 0.0000
     40 ****         7.0645   0.4644  -0.1792 H              1 S1                 0.0000
     41 ****        -1.4713  -0.7466   1.3045 H              1 S1                 0.0000
     42 ****        -1.2858  -2.2841   0.4875 H              1 S1                 0.0000
     43 ****        -3.5873  -0.5739   0.3581 LP             1 S1                 0.0000
     44 ****         0.5653  -2.2719  -0.8439 LP             1 S1                 0.0000
     45 ****         1.9479  -1.2286  -0.8598 LP             1 S1                 0.0000
     46 ****         4.7884  -0.1058  -0.1318 LP             1 S1                 0.0000
@<TRIPOS>BOND
    1    1    2 1     
    2    1   22 1     
    3    1   23 1     
    4    1   24 1     
    5    2    3 2     
    6    2    4 2     
    7    2    5 1     
    8    5   21 1     
    9    5    6 1     
   10    6    7 1     
   11    6   25 1     
   12    6   26 1     
   13    7    8 1     
   14    7   27 1     
   15    7   28 1     
   16    8    9 1     
   17    8   29 1     
   18    8   30 1     
   19    9   10 1     
   20    9   21 1     
   21    9   31 1     
   22   10   11 2     
   23   10   12 am    
   24   12   13 1     
   25   12   32 1     
   26   13   14 1     
   27   13   33 1     
   28   13   34 1     
   29   14   15 1     
   30   14   35 1     
   31   14   36 1     
   32   15   20 ar    
   33   15   16 ar    
   34   16   17 ar    
   35   16   37 1     
   36   17   18 ar    
   37   17   38 1     
   38   18   19 ar    
   39   18   39 1     
   40   19   20 ar    
   41   19   40 1     
   42   21   41 1     
   43   21   42 1     
   44    5   43 1     
   45   11   44 1     
   46   11   45 1     
   47   20   46 1     
@<TRIPOS>SUBSTRUCTURE
      1 S1             1
@<TRIPOS>SET
LONE_PAIRS      STATIC     ATOMS    <user>   **** ""
6 3 4 43 44 45 46
DONOR_HYDROGENS      STATIC     ATOMS    <user>   **** ""
1 32
ATOM$BLUE        STATIC     ATOMS    COLORGROUP SYSTEM
6 3 4 43 44 45 46
ATOM$RED        STATIC     ATOMS    COLORGROUP SYSTEM
1 32
