AV-unprocessed.smi:40|AV-procd|sdf|382|dock9
  -GOLD-   2262016243D 1   1.00000     0.00000
 Structure written by MMmdl.
 47 48  0  0  0  0  0  0  0  0  1 V2000
  145.5952  143.7754  153.5085 C   0  0  0  0  0  0  0  0  0  0  0  0
  146.2891  142.7750  154.4423 C   0  0  0  0  0  0  0  0  0  0  0  0
  145.3429  142.1150  155.4583 C   0  0  0  0  0  0  0  0  0  0  0  0
  146.0710  141.3274  156.5625 C   0  0  0  0  0  0  0  0  0  0  0  0
  145.1653  140.3133  157.2741 C   0  0  0  0  0  0  0  0  0  0  0  0
  144.3970  139.6159  156.3086 O   0  0  0  0  0  0  0  0  0  0  0  0
  144.9955  138.8379  155.3882 C   0  0  0  0  0  0  0  0  0  0  0  0
  146.1995  138.5824  155.3782 O   0  0  0  0  0  0  0  0  0  0  0  0
  144.0320  138.3077  154.4386 N   0  0  0  0  0  0  0  0  0  0  0  0
  144.2565  137.4925  153.3798 C   0  0  0  0  0  0  0  0  0  0  0  0
  145.3077  137.6399  152.5882 N   0  0  0  0  0  0  0  0  0  0  0  0
  145.5788  136.8314  151.5179 C   0  0  0  0  0  0  0  0  0  0  0  0
  146.5542  137.0444  150.7992 O   0  0  0  0  0  0  0  0  0  0  0  0
  144.6891  135.7598  151.2728 N   0  0  0  0  0  0  0  0  0  0  0  0
  144.9455  134.8528  150.0925 C   0  0  1  0  0  0  0  0  0  0  0  0
  145.7750  133.8034  150.5010 O   0  0  0  0  0  0  0  0  0  0  0  0
  145.2056  132.5551  150.1223 C   0  0  1  0  0  0  0  0  0  0  0  0
  145.6455  131.4567  151.0973 C   0  0  0  0  0  0  0  0  0  0  0  0
  143.7023  132.8266  150.1203 C   0  0  2  0  0  0  0  0  0  0  0  0
  142.9727  131.8957  149.3437 O   0  0  0  0  0  0  0  0  0  0  0  0
  143.6232  134.2523  149.5864 C   0  0  2  0  0  0  0  0  0  0  0  0
  143.5512  134.3042  148.1732 O   0  0  0  0  0  0  0  0  0  0  0  0
  143.5838  135.5840  152.0925 C   0  0  0  0  0  0  0  0  0  0  0  0
  143.3372  136.4014  153.1389 C   0  0  0  0  0  0  0  0  0  0  0  0
  142.2635  136.2075  153.9243 F   0  0  0  0  0  0  0  0  0  0  0  0
  145.4739  135.4543  149.3507 H   0  0  0  0  0  0  0  0  0  0  0  0
  145.5458  132.3227  149.1117 H   0  0  0  0  0  0  0  0  0  0  0  0
  143.3244  132.8089  151.1436 H   0  0  0  0  0  0  0  0  0  0  0  0
  142.7649  134.7904  149.9914 H   0  0  0  0  0  0  0  0  0  0  0  0
  146.3200  144.2531  152.8491 H   0  0  0  0  0  0  0  0  0  0  0  0
  145.0950  144.5611  154.0752 H   0  0  0  0  0  0  0  0  0  0  0  0
  144.8513  143.2885  152.8784 H   0  0  0  0  0  0  0  0  0  0  0  0
  146.7932  142.0080  153.8533 H   0  0  0  0  0  0  0  0  0  0  0  0
  147.0744  143.2991  154.9879 H   0  0  0  0  0  0  0  0  0  0  0  0
  144.7411  142.8997  155.9179 H   0  0  0  0  0  0  0  0  0  0  0  0
  144.6401  141.4628  154.9389 H   0  0  0  0  0  0  0  0  0  0  0  0
  146.9159  140.7912  156.1309 H   0  0  0  0  0  0  0  0  0  0  0  0
  146.4882  142.0175  157.2969 H   0  0  0  0  0  0  0  0  0  0  0  0
  145.7620  139.6110  157.8578 H   0  0  0  0  0  0  0  0  0  0  0  0
  144.4995  140.8329  157.9645 H   0  0  0  0  0  0  0  0  0  0  0  0
  143.0836  138.6190  154.5902 H   0  0  0  0  0  0  0  0  0  0  0  0
  145.2058  130.4963  150.8276 H   0  0  0  0  0  0  0  0  0  0  0  0
  145.3421  131.6888  152.1184 H   0  0  0  0  0  0  0  0  0  0  0  0
  146.7294  131.3411  151.0901 H   0  0  0  0  0  0  0  0  0  0  0  0
  142.0993  131.8298  149.6984 H   0  0  0  0  0  0  0  0  0  0  0  0
  144.4304  134.2801  147.8278 H   0  0  0  0  0  0  0  0  0  0  0  0
  142.8891  134.7787  151.9048 H   0  0  0  0  0  0  0  0  0  0  0  0
  1  2  1  0  0  0  0
  1 30  1  0  0  0  0
  1 31  1  0  0  0  0
  1 32  1  0  0  0  0
  2  3  1  0  0  0  0
  2 33  1  0  0  0  0
  2 34  1  0  0  0  0
  3  4  1  0  0  0  0
  3 35  1  0  0  0  0
  3 36  1  0  0  0  0
  4  5  1  0  0  0  0
  4 37  1  0  0  0  0
  4 38  1  0  0  0  0
  5  6  1  0  0  0  0
  5 39  1  0  0  0  0
  5 40  1  0  0  0  0
  6  7  1  0  0  0  0
  7  8  2  0  0  0  0
  7  9  1  0  0  0  0
  9 10  1  0  0  0  0
  9 41  1  0  0  0  0
 10 24  1  0  0  0  0
 10 11  2  0  0  0  0
 11 12  1  0  0  0  0
 12 13  2  0  0  0  0
 12 14  1  0  0  0  0
 14 15  1  0  0  0  0
 14 23  1  0  0  0  0
 15 26  1  0  0  0  0
 15 21  1  0  0  0  0
 15 16  1  0  0  0  0
 16 17  1  0  0  0  0
 17 27  1  0  0  0  0
 17 18  1  0  0  0  0
 17 19  1  0  0  0  0
 18 42  1  0  0  0  0
 18 43  1  0  0  0  0
 18 44  1  0  0  0  0
 19 28  1  0  0  0  0
 19 20  1  0  0  0  0
 19 21  1  0  0  0  0
 20 45  1  0  0  0  0
 21 29  1  0  0  0  0
 21 22  1  0  0  0  0
 22 46  1  0  0  0  0
 23 24  2  0  0  0  0
 23 47  1  0  0  0  0
 24 25  1  0  0  0  0
M  END
> <s_m_source_file>
AV-unprocessed.smi

> <i_m_source_file_index>
40

> <i_lp_mmshare_version>
43012

> <i_f3d_flags>
0

> <s_epik_input>
W0NIM11bQ0gyXVtDSDJdW0NIMl1bQ0gyXU9DKD1PKVtOSF1jMW5jKD1PKW4oW2NIXWMxRilbQ0BASF0yT1tDQEhdKFtDSDNdKVtDQEBIXShbT0hdKVtDQEhdMltPSF0=

> <s_epik_cmdline>
J2VwaWtfcHl0aG9uJywgJy1waCcsICc3LjAnLCAnLXRuJywgJzgnLCAnLW1hJywgJzIwMCcsICctbWV0YWxfYmluZGluZycsICctaW1hZScsICc8aW5maWxlLm1hZT4nLCAnLW9tYWUnLCAnPG91dGZpbGUubWFlPic=

> <r_lp_tautomer_probability>
1

> <r_epik_Ionization_Penalty>
2.29506e-06

> <r_epik_Ionization_Penalty_Charging>
8.26867e-09

> <r_epik_Ionization_Penalty_Neutral>
2.2868e-06

> <r_epik_State_Penalty>
-0

> <r_epik_Charging_Adjusted_Penalty>
8.26867e-09

> <i_epik_Tot_Q>
0

> <i_epik_Tot_abs_Q>
0

> <r_epik_Metal_State_Penalty>
-0

> <b_epik_Metal_Only>
0

> <s_epik_Chemistry_Notes>
This compound has an ester and may undergo hydrolysis at high or low pH. This compound contains an acetal/aminal-like group ( X-CH(R)-Y where X, Y are N, S, or O) that may be acid/base labile, releasing an aldehyde.

> <s_lp_Force_Field>
OPLS_2005

> <r_lp_Energy>
35.629

> <b_lp_Chiralities_Consistent>
1

> <s_lp_Variant>
AV-unprocessed.smi:40-16

> <Gold.Version>
5.8.1

> <Gold.Id.Protein>
6NUR|6NUR_protein|mol2

> <Gold.PLP.Fitness>
43.9054

> <Gold.PLP.PLP>
-32.5775

> <Gold.PLP.part.hbond>
-7.4620

> <Gold.PLP.part.metal>
0.0000

> <Gold.PLP.part.buried>
2.5648

> <Gold.PLP.part.nonpolar>
-31.4308

> <Gold.PLP.part.repulsive>
3.9893

> <Gold.PLP.ligand.clash>
0.0000

> <Gold.PLP.ligand.torsion>
1.2747

> <Gold.PLP.Chemscore.Hbond>
4.5920

> <Gold.PLP.Chemscore.CHOScore>
0.0000

> <Gold.PLP.Chemscore.Metal>
0.0000

> <Gold.Chemscore.Hbonds>
donor molecule, donor type, donor heavy atom, donor atom, acceptor molecule, acceptor atom, score
      L1  H    20    45       P1 10952  0.59
      L1  H    22    46       P1  7921  1.00
      P1  H  7954  7966       L1    13  1.00
      P1  H 10192 10197       L1    22  0.99
      P1  H 10785 10796       L1    20  0.95

> <Gold.PLP.Chemscore.Internal.Correction>
0.1014

> <Gold.Rescore>
     Score         DG    S(hbond)    S(metal)    S(lipo)     H(rot)  DE(clash)    DE(int)     intcor
      8.74     -14.83       3.52        0.00      60.28       3.70       4.09       2.00       ----

> <Gold.Chemscore.Fitness>
8.7419

> <Gold.Chemscore.DG>
-14.8325

> <Gold.Chemscore.ZeroCoef>
-5.4800

> <Gold.Chemscore.Hbond>
3.5212

> <Gold.Chemscore.Metal>
0.0000

> <Gold.Chemscore.Lipo>
60.2805

> <Gold.Chemscore.Internal_Hbond>
0.0000

> <Gold.Chemscore.DEClash>
4.0929

> <Gold.Chemscore.DEInternal>
1.9978

> <Gold.Chemscore.Rot>
3.6957

> <Gold.Chemscore.Internal.Correction>
   9.000000E+99

> <Gold.Chemscore.Hbonds>
donor molecule, donor type, donor heavy atom, donor atom, acceptor molecule, acceptor atom, score
      L1  H    20    45       P1 10952  0.59
      L1  H    22    46       P1  7921  0.99
      P1  H  7954  7966       L1    13  0.91
      P1  H 10192 10197       L1    22  0.91
      P1  H 10785 10796       L1    20  0.22

> <Gold.Chemscore.Hbond.Weighted>
-11.7607

> <Gold.Chemscore.Metal.Weighted>
-0.0000

> <Gold.Chemscore.Lipo.Weighted>
-7.0528

> <Gold.Chemscore.Internal_Hbond.Weighted>
0.0000

> <Gold.Chemscore.DEClash.Weighted>
4.0929

> <Gold.Chemscore.DEInternal.Weighted>
1.9978

> <Gold.Chemscore.Rot.Weighted>
9.4610

> <Gold.Chemscore.Internal.Correction.Weighted>
   9.000000E+99

> <Gold.Protein.RotatedTorsions>
[ 6907 6896 6895 6894 ] final   15.68 input  -60.11 | X-H torsion
[ 7974 7965 7964 7962 ] final  141.04 input  175.53 | X-H torsion
[ 8008 7997 7996 7995 ] final -109.18 input   59.86 | X-H torsion
[ 10167 10162 10161 10158 ] final  -12.03 input  -65.29 | X-H torsion
[ 10718 10713 10712 10709 ] final  -56.16 input   66.30 | X-H torsion
[ 10763 10752 10751 10750 ] final  110.59 input  -60.55 | X-H torsion
[ 11005 11000 10999 10996 ] final  -37.16 input  -57.11 | X-H torsion

> <Gold.Protein.ActiveResidues>
 VAL166  LYS551  ARG553  GLY616  TRP617  ASP618  TYR619  PRO620  LYS621  CYS622 
 ASP623  PHE694  ASN695  SER759  ASP760  ASP761  ALA762  ILE779  LEU786  VAL792 
 PHE793  MET794  SER795  GLU796  ALA797  LYS798  CYS799  TRP800  GLU811  SER814 

> <Gold.Protein.RotatedAtoms>
  151.8220  135.0649  160.0425 H   0  0  0  0  0  0  0  0  0  0  0  0  # atno 6907 bound_to 6896
  152.2944  133.5588  159.5586 H   0  0  0  0  0  0  0  0  0  0  0  0  # atno 6908 bound_to 6896
  150.7244  134.0298  159.3771 H   0  0  0  0  0  0  0  0  0  0  0  0  # atno 6909 bound_to 6896
  144.9132  139.5265  143.5698 H   0  0  0  0  0  0  0  0  0  0  0  0  # atno 7974 bound_to 7965
  154.9555  140.0400  157.2165 H   0  0  0  0  0  0  0  0  0  0  0  0  # atno 8008 bound_to 7997
  154.7938  140.2840  155.5950 H   0  0  0  0  0  0  0  0  0  0  0  0  # atno 8009 bound_to 7997
  156.2953  140.2568  156.2791 H   0  0  0  0  0  0  0  0  0  0  0  0  # atno 8010 bound_to 7997
  140.7152  143.5576  150.9231 H   0  0  0  0  0  0  0  0  0  0  0  0  # atno 10167 bound_to 10162
  156.1311  130.4159  150.0267 H   0  0  0  0  0  0  0  0  0  0  0  0  # atno 10718 bound_to 10713
  153.4512  135.3743  155.2285 H   0  0  0  0  0  0  0  0  0  0  0  0  # atno 10763 bound_to 10752
  154.8756  135.3886  154.4036 H   0  0  0  0  0  0  0  0  0  0  0  0  # atno 10764 bound_to 10752
  153.4596  135.7086  153.6122 H   0  0  0  0  0  0  0  0  0  0  0  0  # atno 10765 bound_to 10752
  140.9930  133.6995  156.1885 H   0  0  0  0  0  0  0  0  0  0  0  0  # atno 11005 bound_to 11000
  146.3169  139.7955  142.8976 LP  0  0  0  0  0  0  0  0  0  0  0  0  # atno 17320 bound_to 7965
  145.3419  141.0289  143.3387 LP  0  0  0  0  0  0  0  0  0  0  0  0  # atno 17321 bound_to 7965
  139.9301  143.6503  152.3078 LP  0  0  0  0  0  0  0  0  0  0  0  0  # atno 17342 bound_to 10162
  139.6951  144.7642  151.1370 LP  0  0  0  0  0  0  0  0  0  0  0  0  # atno 17343 bound_to 10162
  156.8179  130.9348  151.3642 LP  0  0  0  0  0  0  0  0  0  0  0  0  # atno 17370 bound_to 10713
  157.6489  130.8867  149.9593 LP  0  0  0  0  0  0  0  0  0  0  0  0  # atno 17371 bound_to 10713
  140.7009  134.4564  157.5586 LP  0  0  0  0  0  0  0  0  0  0  0  0  # atno 17394 bound_to 11000
  139.9001  134.8575  156.1931 LP  0  0  0  0  0  0  0  0  0  0  0  0  # atno 17395 bound_to 11000

$$$$
