#       Name:                AV-unprocessed.smi:1381
#       Creating user name   scv26
#       Creation time:       Fri Mar 27 05:21:38 2020


#       File generated by GOLD software.
#

@<TRIPOS>MOLECULE
AV-unprocessed.smi:1381
    50    51     1
SMALL
NO_CHARGES


@<TRIPOS>ATOM
      1 ****        -3.5195   7.3144   2.1126 C.3            1 S1                 0.0000
      2 ****        -3.0670   5.9326   1.7864 C.2            1 S1                 0.0000
      3 ****        -2.8162   5.2898   0.6067 C.2            1 S1                 0.0000
      4 ****        -2.4198   3.9926   1.0277 C.2            1 S1                 0.0000
      5 ****        -2.0627   2.9974   0.0824 N.am           1 S1                 0.0000
      6 ****        -1.6596   1.7399   0.3321 C.2            1 S1                 0.0000
      7 ****        -1.5443   1.2391   1.4512 O.2            1 S1                 0.0000
      8 ****        -1.3862   1.0787  -0.8020 N.am           1 S1                 0.0000
      9 ****        -0.9229  -0.3025  -0.8679 C.3            1 S1                 0.0000
     10 ****         0.5698  -0.4142  -0.5016 C.3            1 S1                 0.0000
     11 ****         1.0790  -1.8034  -0.6125 N.4            1 S1                 1.0000
     12 ****         2.5523  -1.8537  -0.7552 C.3            1 S1                 0.0000
     13 ****         3.0241  -3.3022  -0.9744 C.3            1 S1                 0.0000
     14 ****         4.5520  -3.4056  -1.0371 C.3            1 S1                 0.0000
     15 ****         2.5738  -4.1163   0.1053 O.3            1 S1                 0.0000
     16 ****         1.1600  -4.1234   0.3032 C.3            1 S1                 0.0000
     17 ****         0.4205  -4.8984  -0.8019 C.3            1 S1                 0.0000
     18 ****         0.6414  -2.6848   0.4979 C.3            1 S1                 0.0000
     19 ****        -2.4285   3.8556   2.3447 N.2            1 S1                 0.0000
     20 ****        -2.8442   5.0979   2.8377 O.3            1 S1                 0.0000
     21 ****        -3.4824   7.9549   1.2314 H              1 S1                 0.0000
     22 ****        -2.8854   7.7586   2.8799 H              1 S1                 0.0000
     23 ****        -4.5446   7.3073   2.4829 H              1 S1                 0.0000
     24 ****        -2.9025   5.6875  -0.3937 H              1 S1                 0.0000
     25 ****        -2.1142   3.2757  -0.8864 H              1 S1                 0.0000
     26 ****        -1.5076   1.5634  -1.6794 H              1 S1                 0.0000
     27 ****        -1.5432  -0.9173  -0.2151 H              1 S1                 0.0000
     28 ****        -1.0851  -0.6658  -1.8830 H              1 S1                 0.0000
     29 ****         1.1318   0.2279  -1.1814 H              1 S1                 0.0000
     30 ****         0.7599  -0.0369   0.5045 H              1 S1                 0.0000
     31 ****         2.8618  -1.2388  -1.6013 H              1 S1                 0.0000
     32 ****         3.0196  -1.4313   0.1361 H              1 S1                 0.0000
     33 ****         2.6217  -3.6798  -1.9145 H              1 S1                 0.0000
     34 ****         4.9542  -2.8033  -1.8521 H              1 S1                 0.0000
     35 ****         4.8659  -4.4368  -1.2006 H              1 S1                 0.0000
     36 ****         5.0103  -3.0621  -0.1093 H              1 S1                 0.0000
     37 ****         0.9897  -4.6653   1.2340 H              1 S1                 0.0000
     38 ****        -0.6364  -5.0057  -0.5567 H              1 S1                 0.0000
     39 ****         0.8341  -5.9006  -0.9169 H              1 S1                 0.0000
     40 ****         0.4785  -4.3996  -1.7690 H              1 S1                 0.0000
     41 ****         1.0220  -2.2849   1.4392 H              1 S1                 0.0000
     42 ****        -0.4449  -2.6971   0.5807 H              1 S1                 0.0000
     43 ****         0.6969  -2.1855  -1.4658 H              1 S1                 0.0000
     44 ****        -1.7583   1.7792   2.2652 LP             1 S1                 0.0000
     45 ****        -1.2367   0.2924   1.5460 LP             1 S1                 0.0000
     46 ****         3.0034  -3.7842   0.9451 LP             1 S1                 0.0000
     47 ****         2.8676  -5.0558  -0.0704 LP             1 S1                 0.0000
     48 ****        -2.1898   3.0408   2.8729 LP             1 S1                 0.0000
     49 ****        -3.6877   4.9862   3.3632 LP             1 S1                 0.0000
     50 ****        -2.1329   5.4813   3.4268 LP             1 S1                 0.0000
@<TRIPOS>BOND
    1    1    2 1     
    2    1   21 1     
    3    1   22 1     
    4    1   23 1     
    5    2   20 1     
    6    2    3 2     
    7    3    4 1     
    8    3   24 1     
    9    4    5 1     
   10    4   19 2     
   11    5    6 am    
   12    5   25 1     
   13    6    7 2     
   14    6    8 am    
   15    8    9 1     
   16    8   26 1     
   17    9   10 1     
   18    9   27 1     
   19    9   28 1     
   20   10   11 1     
   21   10   29 1     
   22   10   30 1     
   23   11   18 1     
   24   11   12 1     
   25   11   43 1     
   26   12   13 1     
   27   12   31 1     
   28   12   32 1     
   29   13   14 1     
   30   13   15 1     
   31   13   33 1     
   32   14   34 1     
   33   14   35 1     
   34   14   36 1     
   35   15   16 1     
   36   16   17 1     
   37   16   18 1     
   38   16   37 1     
   39   17   38 1     
   40   17   39 1     
   41   17   40 1     
   42   18   41 1     
   43   18   42 1     
   44   19   20 1     
   45    7   44 1     
   46    7   45 1     
   47   15   46 1     
   48   15   47 1     
   49   19   48 1     
   50   20   49 1     
   51   20   50 1     
@<TRIPOS>SUBSTRUCTURE
      1 S1             1
@<TRIPOS>SET
LONE_PAIRS      STATIC     ATOMS    <user>   **** ""
7 44 45 46 47 48 49 50
DONOR_HYDROGENS      STATIC     ATOMS    <user>   **** ""
3 25 26 43
ATOM$BLUE        STATIC     ATOMS    COLORGROUP SYSTEM
7 44 45 46 47 48 49 50
ATOM$RED        STATIC     ATOMS    COLORGROUP SYSTEM
3 25 26 43
