#       Name:                AV-unprocessed.smi:1948
#       Creating user name   scv26
#       Creation time:       Fri Mar 27 10:02:41 2020


#       File generated by GOLD software.
#

@<TRIPOS>MOLECULE
AV-unprocessed.smi:1948
    36    37     1
SMALL
NO_CHARGES


@<TRIPOS>ATOM
      1 ****        -0.9601   2.0429   0.6175 O.2            1 S1                 0.0000
      2 ****        -1.4039   1.0689   0.0088 C.2            1 S1                 0.0000
      3 ****        -2.6992   0.8604  -0.2865 N.am           1 S1                 0.0000
      4 ****        -3.8151   1.6845   0.0175 C.2            1 S1                 0.0000
      5 ****        -3.7192   2.8650   0.6497 N.2            1 S1                 0.0000
      6 ****        -4.9599   3.4658   0.8201 N.2            1 S1                 0.0000
      7 ****        -5.9413   2.7162   0.3101 C.2            1 S1                 0.0000
      8 ****        -5.4458   1.2035  -0.4295 S.3            1 S1                 0.0000
      9 ****        -0.6358   0.0666  -0.4430 N.am           1 S1                 0.0000
     10 ****         0.8128  -0.0225  -0.2838 C.3            1 S1                 0.0000
     11 ****         1.4055  -0.8872  -1.4110 C.3            1 S1                 0.0000
     12 ****         2.9287  -1.0445  -1.2591 C.3            1 S1                 0.0000
     13 ****         3.3238  -1.5932   0.1251 C.3            1 S1                 0.0000
     14 ****         2.9365  -2.9484   0.2370 O.3            1 S1                 0.0000
     15 ****         2.6945  -0.7675   1.2630 C.3            1 S1                 0.0000
     16 ****         1.1730  -0.6070   1.0972 C.3            1 S1                 0.0000
     17 ****        -2.9133   0.0090  -0.7843 H              1 S1                 0.0000
     18 ****        -6.9642   3.0573   0.3690 H              1 S1                 0.0000
     19 ****        -1.0848  -0.6942  -0.9316 H              1 S1                 0.0000
     20 ****         1.2413   0.9784  -0.3662 H              1 S1                 0.0000
     21 ****         0.9361  -1.8721  -1.4094 H              1 S1                 0.0000
     22 ****         1.1805  -0.4419  -2.3808 H              1 S1                 0.0000
     23 ****         3.3199  -1.6889  -2.0471 H              1 S1                 0.0000
     24 ****         3.3996  -0.0710  -1.4021 H              1 S1                 0.0000
     25 ****         4.4097  -1.5649   0.2222 H              1 S1                 0.0000
     26 ****         3.2311  -3.2770   1.0726 H              1 S1                 0.0000
     27 ****         2.9206  -1.2195   2.2295 H              1 S1                 0.0000
     28 ****         3.1522   0.2224   1.2772 H              1 S1                 0.0000
     29 ****         0.7887   0.0358   1.8900 H              1 S1                 0.0000
     30 ****         0.6881  -1.5757   1.2267 H              1 S1                 0.0000
     31 ****        -1.5811   2.7594   0.9351 LP             1 S1                 0.0000
     32 ****         0.0213   2.1173   0.7943 LP             1 S1                 0.0000
     33 ****        -2.8569   3.2643   0.9610 LP             1 S1                 0.0000
     34 ****        -5.1009   4.3485   1.2683 LP             1 S1                 0.0000
     35 ****         3.3532  -3.4802  -0.5003 LP             1 S1                 0.0000
     36 ****         1.9408  -3.0205   0.1784 LP             1 S1                 0.0000
@<TRIPOS>BOND
    1    1    2 2     
    2    2    3 am    
    3    2    9 am    
    4    3    4 1     
    5    3   17 1     
    6    4    8 1     
    7    4    5 2     
    8    5    6 1     
    9    6    7 2     
   10    7    8 1     
   11    7   18 1     
   12    9   10 1     
   13    9   19 1     
   14   10   16 1     
   15   10   11 1     
   16   10   20 1     
   17   11   12 1     
   18   11   21 1     
   19   11   22 1     
   20   12   13 1     
   21   12   23 1     
   22   12   24 1     
   23   13   14 1     
   24   13   15 1     
   25   13   25 1     
   26   14   26 1     
   27   15   16 1     
   28   15   27 1     
   29   15   28 1     
   30   16   29 1     
   31   16   30 1     
   32    1   31 1     
   33    1   32 1     
   34    5   33 1     
   35    6   34 1     
   36   14   35 1     
   37   14   36 1     
@<TRIPOS>SUBSTRUCTURE
      1 S1             1
@<TRIPOS>SET
LONE_PAIRS      STATIC     ATOMS    <user>   **** ""
6 31 32 33 34 35 36
DONOR_HYDROGENS      STATIC     ATOMS    <user>   **** ""
3 17 19 26
ATOM$BLUE        STATIC     ATOMS    COLORGROUP SYSTEM
6 31 32 33 34 35 36
ATOM$RED        STATIC     ATOMS    COLORGROUP SYSTEM
3 17 19 26
