AV-unprocessed.smi:2360|AV-procd|sdf|9409|dock4
  -GOLD-   2272013 43D 1   1.00000     0.00000
 Structure written by MMmdl.
 34 35  0  0  0  0  0  0  0  0  1 V2000
  147.9159  138.6660  153.5574 C   0  0  0  0  0  0  0  0  0  0  0  0
  148.8616  139.5888  154.3057 C   0  0  0  0  0  0  0  0  0  0  0  0
  148.3633  140.8641  154.5876 N   0  0  0  0  0  0  0  0  0  0  0  0
  149.1001  141.7196  155.2176 C   0  0  0  0  0  0  0  0  0  0  0  0
  150.4044  141.4055  155.6327 N   0  0  0  0  0  0  0  0  0  0  0  0
  151.1388  142.4690  156.3389 C   0  0  0  0  0  0  0  0  0  0  0  0
  150.6215  142.6832  157.7788 C   0  0  2  0  0  0  0  0  0  0  0  0
  150.2623  144.0422  157.9338 O   0  0  0  0  0  0  0  0  0  0  0  0
  151.6697  142.2682  158.8001 C   0  0  0  0  0  0  0  0  0  0  0  0
  152.1561  143.2112  159.7309 C   0  0  0  0  0  0  0  0  0  0  0  0
  153.1195  142.8340  160.6867 C   0  0  0  0  0  0  0  0  0  0  0  0
  153.6006  141.5110  160.7192 C   0  0  0  0  0  0  0  0  0  0  0  0
  154.5267  141.1503  161.6389 F   0  0  0  0  0  0  0  0  0  0  0  0
  153.1159  140.5641  159.7959 C   0  0  0  0  0  0  0  0  0  0  0  0
  153.5745  139.2902  159.8266 F   0  0  0  0  0  0  0  0  0  0  0  0
  152.1523  140.9411  158.8402 C   0  0  0  0  0  0  0  0  0  0  0  0
  150.9638  140.1813  155.4076 C   0  0  0  0  0  0  0  0  0  0  0  0
  152.1041  139.9111  155.7901 O   0  0  0  0  0  0  0  0  0  0  0  0
  150.1151  139.2195  154.6859 C   0  0  0  0  0  0  0  0  0  0  0  0
  150.7111  137.8454  154.4063 C   0  0  0  0  0  0  0  0  0  0  0  0
  148.3532  138.3616  152.6061 H   0  0  0  0  0  0  0  0  0  0  0  0
  146.9657  139.1577  153.3447 H   0  0  0  0  0  0  0  0  0  0  0  0
  147.7060  137.7736  154.1475 H   0  0  0  0  0  0  0  0  0  0  0  0
  148.7571  142.7255  155.4659 H   0  0  0  0  0  0  0  0  0  0  0  0
  152.1909  142.1794  156.3764 H   0  0  0  0  0  0  0  0  0  0  0  0
  151.1404  143.4119  155.7876 H   0  0  0  0  0  0  0  0  0  0  0  0
  149.7250  142.0861  157.9507 H   0  0  0  0  0  0  0  0  0  0  0  0
  149.5400  144.2287  157.3533 H   0  0  0  0  0  0  0  0  0  0  0  0
  151.7904  144.2276  159.7173 H   0  0  0  0  0  0  0  0  0  0  0  0
  153.4883  143.5602  161.3960 H   0  0  0  0  0  0  0  0  0  0  0  0
  151.7828  140.2070  158.1392 H   0  0  0  0  0  0  0  0  0  0  0  0
  150.9733  137.3517  155.3424 H   0  0  0  0  0  0  0  0  0  0  0  0
  151.6185  137.9440  153.8095 H   0  0  0  0  0  0  0  0  0  0  0  0
  150.0346  137.1851  153.8661 H   0  0  0  0  0  0  0  0  0  0  0  0
  1  2  1  0  0  0  0
  1 21  1  0  0  0  0
  1 22  1  0  0  0  0
  1 23  1  0  0  0  0
  2 19  2  0  0  0  0
  2  3  1  0  0  0  0
  3  4  2  0  0  0  0
  4  5  1  0  0  0  0
  4 24  1  0  0  0  0
  5  6  1  0  0  0  0
  5 17  1  0  0  0  0
  6  7  1  0  0  0  0
  6 25  1  0  0  0  0
  6 26  1  0  0  0  0
  7  8  1  0  0  0  0
  7  9  1  0  0  0  0
  7 27  1  0  0  0  0
  8 28  1  0  0  0  0
  9 16  1  0  0  0  0
  9 10  2  0  0  0  0
 10 11  1  0  0  0  0
 10 29  1  0  0  0  0
 11 12  2  0  0  0  0
 11 30  1  0  0  0  0
 12 13  1  0  0  0  0
 12 14  1  0  0  0  0
 14 15  1  0  0  0  0
 14 16  2  0  0  0  0
 16 31  1  0  0  0  0
 17 18  2  0  0  0  0
 17 19  1  0  0  0  0
 19 20  1  0  0  0  0
 20 32  1  0  0  0  0
 20 33  1  0  0  0  0
 20 34  1  0  0  0  0
M  END
> <s_m_source_file>
AV-unprocessed.smi

> <i_m_source_file_index>
2360

> <i_lp_mmshare_version>
43012

> <i_f3d_flags>
0

> <s_epik_input>
W0NIM11jMW5bY0hdbihjKD1PKWMxW0NIM10pW0NIMl1bQ0BIXShbT0hdKWMyW2NIXVtjSF1jKEYpYyhGKVtjSF0y

> <s_epik_cmdline>
J2VwaWtfcHl0aG9uJywgJy1waCcsICc3LjAnLCAnLXRuJywgJzgnLCAnLW1hJywgJzIwMCcsICctbWV0YWxfYmluZGluZycsICctaW1hZScsICc8aW5maWxlLm1hZT4nLCAnLW9tYWUnLCAnPG91dGZpbGUubWFlPic=

> <r_lp_tautomer_probability>
1

> <r_epik_Ionization_Penalty>
5.07449e-05

> <r_epik_Ionization_Penalty_Charging>
7.56727e-08

> <r_epik_Ionization_Penalty_Neutral>
5.06692e-05

> <r_epik_State_Penalty>
-0

> <r_epik_Charging_Adjusted_Penalty>
7.56727e-08

> <i_epik_Tot_Q>
0

> <i_epik_Tot_abs_Q>
0

> <r_epik_Metal_State_Penalty>
-0

> <b_epik_Metal_Only>
0

> <s_lp_Force_Field>
OPLS_2005

> <r_lp_Energy>
18.6732

> <b_lp_Chiralities_Consistent>
1

> <s_lp_Variant>
AV-unprocessed.smi:2360-1

> <Gold.Version>
5.8.1

> <Gold.Id.Protein>
6NUR|6NUR_protein|mol2

> <Gold.PLP.Fitness>
45.5676

> <Gold.PLP.PLP>
-41.7202

> <Gold.PLP.part.hbond>
-1.5346

> <Gold.PLP.part.metal>
0.0000

> <Gold.PLP.part.buried>
-1.3645

> <Gold.PLP.part.nonpolar>
-38.6157

> <Gold.PLP.part.repulsive>
0.1150

> <Gold.PLP.ligand.clash>
0.3675

> <Gold.PLP.ligand.torsion>
0.8975

> <Gold.PLP.Chemscore.Hbond>
1.0000

> <Gold.PLP.Chemscore.CHOScore>
1.0000

> <Gold.PLP.Chemscore.Metal>
0.0000

> <Gold.Chemscore.Hbonds>
donor molecule, donor type, donor heavy atom, donor atom, acceptor molecule, acceptor atom, score
      L1  H     8    28       P1  8028  0.95
      L1  C     4    24       P1  8028  0.92

> <Gold.PLP.Chemscore.Internal.Correction>
0.0098

> <Gold.Rescore>
     Score         DG    S(hbond)    S(metal)    S(lipo)     H(rot)  DE(clash)    DE(int)     intcor
     13.01     -14.44       0.94        0.00      95.84       2.11       0.58       0.85       ----

> <Gold.Chemscore.Fitness>
13.0092

> <Gold.Chemscore.DG>
-14.4375

> <Gold.Chemscore.ZeroCoef>
-5.4800

> <Gold.Chemscore.Hbond>
0.9418

> <Gold.Chemscore.Metal>
0.0000

> <Gold.Chemscore.Lipo>
95.8362

> <Gold.Chemscore.Internal_Hbond>
0.0000

> <Gold.Chemscore.DEClash>
0.5758

> <Gold.Chemscore.DEInternal>
0.8525

> <Gold.Chemscore.Rot>
2.1097

> <Gold.Chemscore.Internal.Correction>
   9.000000E+99

> <Gold.Chemscore.Hbonds>
donor molecule, donor type, donor heavy atom, donor atom, acceptor molecule, acceptor atom, score
      L1  H     8    28       P1  8028  0.21

> <Gold.Chemscore.Hbond.Weighted>
-3.1456

> <Gold.Chemscore.Metal.Weighted>
-0.0000

> <Gold.Chemscore.Lipo.Weighted>
-11.2128

> <Gold.Chemscore.Internal_Hbond.Weighted>
0.0000

> <Gold.Chemscore.DEClash.Weighted>
0.5758

> <Gold.Chemscore.DEInternal.Weighted>
0.8525

> <Gold.Chemscore.Rot.Weighted>
5.4009

> <Gold.Chemscore.Internal.Correction.Weighted>
   9.000000E+99

> <Gold.Protein.RotatedTorsions>
[ 6907 6896 6895 6894 ] final  -76.85 input  -60.11 | X-H torsion
[ 7974 7965 7964 7962 ] final  160.77 input  175.53 | X-H torsion
[ 8008 7997 7996 7995 ] final  -89.08 input   59.86 | X-H torsion
[ 10167 10162 10161 10158 ] final  -70.78 input  -65.29 | X-H torsion
[ 10718 10713 10712 10709 ] final  108.56 input   66.30 | X-H torsion
[ 10763 10752 10751 10750 ] final  -37.81 input  -60.55 | X-H torsion
[ 11005 11000 10999 10996 ] final -177.63 input  -57.11 | X-H torsion

> <Gold.Protein.ActiveResidues>
 VAL166  LYS551  ARG553  GLY616  TRP617  ASP618  TYR619  PRO620  LYS621  CYS622 
 ASP623  PHE694  ASN695  SER759  ASP760  ASP761  ALA762  ILE779  LEU786  VAL792 
 PHE793  MET794  SER795  GLU796  ALA797  LYS798  CYS799  TRP800  GLU811  SER814 

> <Gold.Protein.RotatedAtoms>
  150.7015  134.4510  159.5336 H   0  0  0  0  0  0  0  0  0  0  0  0  # atno 6907 bound_to 6896
  152.2203  134.8416  160.0496 H   0  0  0  0  0  0  0  0  0  0  0  0  # atno 6908 bound_to 6896
  151.9270  133.3565  159.3954 H   0  0  0  0  0  0  0  0  0  0  0  0  # atno 6909 bound_to 6896
  144.7720  139.7804  143.6293 H   0  0  0  0  0  0  0  0  0  0  0  0  # atno 7974 bound_to 7965
  154.6823  140.0546  157.0279 H   0  0  0  0  0  0  0  0  0  0  0  0  # atno 8008 bound_to 7997
  155.0933  140.3221  155.4548 H   0  0  0  0  0  0  0  0  0  0  0  0  # atno 8009 bound_to 7997
  156.2699  140.2044  156.6060 H   0  0  0  0  0  0  0  0  0  0  0  0  # atno 8010 bound_to 7997
  140.5325  143.2320  151.7236 H   0  0  0  0  0  0  0  0  0  0  0  0  # atno 10167 bound_to 10162
  157.6581  131.0896  150.6323 H   0  0  0  0  0  0  0  0  0  0  0  0  # atno 10718 bound_to 10713
  153.9024  135.6801  153.4754 H   0  0  0  0  0  0  0  0  0  0  0  0  # atno 10763 bound_to 10752
  153.1122  135.4778  154.9052 H   0  0  0  0  0  0  0  0  0  0  0  0  # atno 10764 bound_to 10752
  154.7568  135.3200  154.8408 H   0  0  0  0  0  0  0  0  0  0  0  0  # atno 10765 bound_to 10752
  140.4388  134.6451  157.4747 H   0  0  0  0  0  0  0  0  0  0  0  0  # atno 11005 bound_to 11000
  146.1873  139.5095  142.9828 LP  0  0  0  0  0  0  0  0  0  0  0  0  # atno 17320 bound_to 7965
  145.6297  141.0306  143.1870 LP  0  0  0  0  0  0  0  0  0  0  0  0  # atno 17321 bound_to 7965
  139.4959  144.4092  152.0099 LP  0  0  0  0  0  0  0  0  0  0  0  0  # atno 17342 bound_to 10162
  140.3195  144.3444  150.6013 LP  0  0  0  0  0  0  0  0  0  0  0  0  # atno 17343 bound_to 10162
  156.6628  130.4517  149.5682 LP  0  0  0  0  0  0  0  0  0  0  0  0  # atno 17370 bound_to 10713
  156.2054  130.6646  151.1213 LP  0  0  0  0  0  0  0  0  0  0  0  0  # atno 17371 bound_to 10713
  140.0084  134.6728  155.9419 LP  0  0  0  0  0  0  0  0  0  0  0  0  # atno 17394 bound_to 11000
  141.1714  133.6537  156.4667 LP  0  0  0  0  0  0  0  0  0  0  0  0  # atno 17395 bound_to 11000

$$$$
