AV-unprocessed.smi:104|AV-procd|sdf|994|dock8
  -GOLD-   2262017573D 1   1.00000     0.00000
 Structure written by MMmdl.
 47 49  0  0  0  0  0  0  0  0  1 V2000
  142.7165  134.9315  163.2609 C   0  0  0  0  0  0  0  0  0  0  0  0
  143.2671  134.0372  162.1573 C   0  0  0  0  0  0  0  0  0  0  0  0
  142.5742  133.7072  161.1951 O   0  0  0  0  0  0  0  0  0  0  0  0
  144.5448  133.6866  162.3689 O   0  0  0  0  0  0  0  0  0  0  0  0
  145.2406  132.9241  161.3954 C   0  0  0  0  0  0  0  0  0  0  0  0
  146.7507  132.9486  161.6930 C   0  0  1  0  0  0  0  0  0  0  0  0
  147.4113  132.3077  160.6005 O   0  0  0  0  0  0  0  0  0  0  0  0
  148.2835  133.1946  159.9682 C   0  0  1  0  0  0  0  0  0  0  0  0
  148.2458  132.9697  158.4877 N   0  0  0  0  0  0  0  0  0  0  0  0
  147.1533  132.9865  157.6522 C   0  0  0  0  0  0  0  0  0  0  0  0
  145.3942  133.3244  158.2972 Br  0  0  0  0  0  0  0  0  0  0  0  0
  147.3611  132.7335  156.3907 N   0  0  0  0  0  0  0  0  0  0  0  0
  148.7306  132.5051  156.3479 C   0  0  0  0  0  0  0  0  0  0  0  0
  149.6385  132.1634  155.3140 C   0  0  0  0  0  0  0  0  0  0  0  0
  149.2635  131.9926  154.0384 N   0  0  0  0  0  0  0  0  0  0  0  0
  150.9441  131.9966  155.6285 N   0  0  0  0  0  0  0  0  0  0  0  0
  151.3434  132.1571  156.8943 C   0  0  0  0  0  0  0  0  0  0  0  0
  150.6141  132.4777  157.9660 N   0  0  0  0  0  0  0  0  0  0  0  0
  149.2968  132.6492  157.6492 C   0  0  0  0  0  0  0  0  0  0  0  0
  147.8603  134.6133  160.3693 C   0  0  1  0  0  0  0  0  0  0  0  0
  146.8043  135.1018  159.5413 O   0  0  0  0  0  0  0  0  0  0  0  0
  146.5451  136.4188  159.4580 C   0  0  0  0  0  0  0  0  0  0  0  0
  145.2070  136.7025  158.7894 C   0  0  0  0  0  0  0  0  0  0  0  0
  147.2793  137.3296  159.8404 O   0  0  0  0  0  0  0  0  0  0  0  0
  147.3844  134.3498  161.7850 C   0  0  1  0  0  0  0  0  0  0  0  0
  146.5296  135.3874  162.2549 O   0  0  0  0  0  0  0  0  0  0  0  0
  147.0191  136.6172  162.4867 C   0  0  0  0  0  0  0  0  0  0  0  0
  145.9186  137.6523  162.6754 C   0  0  0  0  0  0  0  0  0  0  0  0
  148.2093  136.9211  162.5648 O   0  0  0  0  0  0  0  0  0  0  0  0
  143.4013  134.9731  164.1086 H   0  0  0  0  0  0  0  0  0  0  0  0
  141.7574  134.5503  163.6118 H   0  0  0  0  0  0  0  0  0  0  0  0
  142.5703  135.9444  162.8856 H   0  0  0  0  0  0  0  0  0  0  0  0
  144.8706  131.8995  161.4462 H   0  0  0  0  0  0  0  0  0  0  0  0
  145.0425  133.2865  160.3860 H   0  0  0  0  0  0  0  0  0  0  0  0
  146.9516  132.3801  162.6017 H   0  0  0  0  0  0  0  0  0  0  0  0
  149.3037  132.9588  160.2717 H   0  0  0  0  0  0  0  0  0  0  0  0
  148.2942  132.1075  153.7789 H   0  0  0  0  0  0  0  0  0  0  0  0
  149.9500  131.7488  153.3393 H   0  0  0  0  0  0  0  0  0  0  0  0
  152.3977  132.0074  157.0746 H   0  0  0  0  0  0  0  0  0  0  0  0
  148.7252  135.2780  160.3606 H   0  0  0  0  0  0  0  0  0  0  0  0
  145.0451  136.0184  157.9558 H   0  0  0  0  0  0  0  0  0  0  0  0
  145.1813  137.7230  158.4063 H   0  0  0  0  0  0  0  0  0  0  0  0
  144.3934  136.5788  159.5040 H   0  0  0  0  0  0  0  0  0  0  0  0
  148.2745  134.2852  162.4136 H   0  0  0  0  0  0  0  0  0  0  0  0
  145.1562  137.5440  161.9038 H   0  0  0  0  0  0  0  0  0  0  0  0
  146.3278  138.6611  162.6171 H   0  0  0  0  0  0  0  0  0  0  0  0
  145.4466  137.5261  163.6496 H   0  0  0  0  0  0  0  0  0  0  0  0
  1  2  1  0  0  0  0
  1 30  1  0  0  0  0
  1 31  1  0  0  0  0
  1 32  1  0  0  0  0
  2  3  2  0  0  0  0
  2  4  1  0  0  0  0
  4  5  1  0  0  0  0
  5  6  1  0  0  0  0
  5 33  1  0  0  0  0
  5 34  1  0  0  0  0
  6 25  1  0  0  0  0
  6  7  1  0  0  0  0
  6 35  1  0  0  0  0
  7  8  1  0  0  0  0
  8  9  1  0  0  0  0
  8 20  1  0  0  0  0
  8 36  1  0  0  0  0
  9 19  1  0  0  0  0
  9 10  1  0  0  0  0
 10 11  1  0  0  0  0
 10 12  2  0  0  0  0
 12 13  1  0  0  0  0
 13 19  2  0  0  0  0
 13 14  1  0  0  0  0
 14 15  1  0  0  0  0
 14 16  2  0  0  0  0
 15 37  1  0  0  0  0
 15 38  1  0  0  0  0
 16 17  1  0  0  0  0
 17 18  2  0  0  0  0
 17 39  1  0  0  0  0
 18 19  1  0  0  0  0
 20 21  1  0  0  0  0
 20 25  1  0  0  0  0
 20 40  1  0  0  0  0
 21 22  1  0  0  0  0
 22 23  1  0  0  0  0
 22 24  2  0  0  0  0
 23 41  1  0  0  0  0
 23 42  1  0  0  0  0
 23 43  1  0  0  0  0
 25 26  1  0  0  0  0
 25 44  1  0  0  0  0
 26 27  1  0  0  0  0
 27 28  1  0  0  0  0
 27 29  2  0  0  0  0
 28 45  1  0  0  0  0
 28 46  1  0  0  0  0
 28 47  1  0  0  0  0
M  END
> <s_m_source_file>
AV-unprocessed.smi

> <i_m_source_file_index>
104

> <i_lp_mmshare_version>
43012

> <i_f3d_flags>
0

> <s_epik_input>
W0NIM11DKD1PKU9bQ0gyXVtDQEBIXTFPW0NASF0oW0NAQEhdKE9DKD1PKVtDSDNdKVtDQEhdMU9DKD1PKVtDSDNdKW4oYyhCciluMiljKGMyMyluW2NIXW5jM1tOSDJd

> <s_epik_cmdline>
J2VwaWtfcHl0aG9uJywgJy1waCcsICc3LjAnLCAnLXRuJywgJzgnLCAnLW1hJywgJzIwMCcsICctbWV0YWxfYmluZGluZycsICctaW1hZScsICc8aW5maWxlLm1hZT4nLCAnLW9tYWUnLCAnPG91dGZpbGUubWFlPic=

> <r_lp_tautomer_probability>
1

> <r_epik_Ionization_Penalty>
7.36622e-05

> <r_epik_Ionization_Penalty_Charging>
0

> <r_epik_Ionization_Penalty_Neutral>
7.36622e-05

> <r_epik_State_Penalty>
-0

> <r_epik_Charging_Adjusted_Penalty>
0

> <i_epik_Tot_Q>
0

> <i_epik_Tot_abs_Q>
0

> <r_epik_Metal_State_Penalty>
-0

> <b_epik_Metal_Only>
0

> <s_epik_Chemistry_Notes>
This compound has an ester and may undergo hydrolysis at high or low pH. This compound contains an acetal/aminal-like group ( X-CH(R)-Y where X, Y are N, S, or O) that may be acid/base labile, releasing an aldehyde.

> <s_lp_Force_Field>
OPLS_2005

> <r_lp_Energy>
22.6214

> <b_lp_Chiralities_Consistent>
1

> <s_lp_Variant>
AV-unprocessed.smi:104-2

> <Gold.Version>
5.8.1

> <Gold.Id.Protein>
6NUR|6NUR_protein|mol2

> <Gold.PLP.Fitness>
39.7238

> <Gold.PLP.PLP>
-31.7223

> <Gold.PLP.part.hbond>
-3.0000

> <Gold.PLP.part.metal>
0.0000

> <Gold.PLP.part.buried>
-7.3465

> <Gold.PLP.part.nonpolar>
-21.8907

> <Gold.PLP.part.repulsive>
0.1359

> <Gold.PLP.ligand.clash>
0.0000

> <Gold.PLP.ligand.torsion>
0.7046

> <Gold.PLP.Chemscore.Hbond>
3.0000

> <Gold.PLP.Chemscore.CHOScore>
0.0000

> <Gold.PLP.Chemscore.Metal>
0.0000

> <Gold.Chemscore.Hbonds>
donor molecule, donor type, donor heavy atom, donor atom, acceptor molecule, acceptor atom, score
      P1  H  6896  6907       L1    18  1.00
      P1  H  6931  6943       L1    29  1.00
      P1  H  6934  6947       L1    24  0.96

> <Gold.PLP.Chemscore.Internal.Correction>
0.4108

> <Gold.Rescore>
     Score         DG    S(hbond)    S(metal)    S(lipo)     H(rot)  DE(clash)    DE(int)     intcor
      2.64      -8.27       2.59        0.00      44.07       4.31       0.00       5.63       ----

> <Gold.Chemscore.Fitness>
2.6441

> <Gold.Chemscore.DG>
-8.2698

> <Gold.Chemscore.ZeroCoef>
-5.4800

> <Gold.Chemscore.Hbond>
2.5928

> <Gold.Chemscore.Metal>
0.0000

> <Gold.Chemscore.Lipo>
44.0658

> <Gold.Chemscore.Internal_Hbond>
0.0000

> <Gold.Chemscore.DEClash>
0.0000

> <Gold.Chemscore.DEInternal>
5.6257

> <Gold.Chemscore.Rot>
4.3070

> <Gold.Chemscore.Internal.Correction>
   9.000000E+99

> <Gold.Chemscore.Hbonds>
donor molecule, donor type, donor heavy atom, donor atom, acceptor molecule, acceptor atom, score
      P1  H  6896  6907       L1    18  0.90
      P1  H  6931  6943       L1    29  0.95
      P1  H  6934  6947       L1    24  0.89

> <Gold.Chemscore.Hbond.Weighted>
-8.6600

> <Gold.Chemscore.Metal.Weighted>
-0.0000

> <Gold.Chemscore.Lipo.Weighted>
-5.1557

> <Gold.Chemscore.Internal_Hbond.Weighted>
0.0000

> <Gold.Chemscore.DEClash.Weighted>
0.0000

> <Gold.Chemscore.DEInternal.Weighted>
5.6257

> <Gold.Chemscore.Rot.Weighted>
11.0259

> <Gold.Chemscore.Internal.Correction.Weighted>
   9.000000E+99

> <Gold.Protein.RotatedTorsions>
[ 6907 6896 6895 6894 ] final -150.43 input  -60.11 | X-H torsion
[ 7974 7965 7964 7962 ] final -123.98 input  175.53 | X-H torsion
[ 8008 7997 7996 7995 ] final -138.17 input   59.86 | X-H torsion
[ 10167 10162 10161 10158 ] final  -66.78 input  -65.29 | X-H torsion
[ 10718 10713 10712 10709 ] final   86.14 input   66.30 | X-H torsion
[ 10763 10752 10751 10750 ] final   82.41 input  -60.55 | X-H torsion
[ 11005 11000 10999 10996 ] final -164.76 input  -57.11 | X-H torsion

> <Gold.Protein.ActiveResidues>
 VAL166  LYS551  ARG553  GLY616  TRP617  ASP618  TYR619  PRO620  LYS621  CYS622 
 ASP623  PHE694  ASN695  SER759  ASP760  ASP761  ALA762  ILE779  LEU786  VAL792 
 PHE793  MET794  SER795  GLU796  ALA797  LYS798  CYS799  TRP800  GLU811  SER814 

> <Gold.Protein.RotatedAtoms>
  151.1984  133.4625  159.2595 H   0  0  0  0  0  0  0  0  0  0  0  0  # atno 6907 bound_to 6896
  151.1093  135.0017  159.8496 H   0  0  0  0  0  0  0  0  0  0  0  0  # atno 6908 bound_to 6896
  152.5449  134.1905  159.8725 H   0  0  0  0  0  0  0  0  0  0  0  0  # atno 6909 bound_to 6896
  145.0129  140.7922  143.4427 H   0  0  0  0  0  0  0  0  0  0  0  0  # atno 7974 bound_to 7965
  155.4239  140.0520  157.3023 H   0  0  0  0  0  0  0  0  0  0  0  0  # atno 8008 bound_to 7997
  154.4890  140.2112  155.9549 H   0  0  0  0  0  0  0  0  0  0  0  0  # atno 8009 bound_to 7997
  156.1315  140.3171  155.8362 H   0  0  0  0  0  0  0  0  0  0  0  0  # atno 8010 bound_to 7997
  140.5632  143.2313  151.6687 H   0  0  0  0  0  0  0  0  0  0  0  0  # atno 10167 bound_to 10162
  157.6925  131.0203  150.2928 H   0  0  0  0  0  0  0  0  0  0  0  0  # atno 10718 bound_to 10713
  153.1200  135.4729  154.9179 H   0  0  0  0  0  0  0  0  0  0  0  0  # atno 10763 bound_to 10752
  154.7566  135.3120  154.8461 H   0  0  0  0  0  0  0  0  0  0  0  0  # atno 10764 bound_to 10752
  153.9027  135.6873  153.4808 H   0  0  0  0  0  0  0  0  0  0  0  0  # atno 10765 bound_to 10752
  140.5833  134.5120  157.5182 H   0  0  0  0  0  0  0  0  0  0  0  0  # atno 11005 bound_to 11000
  145.1998  139.2258  143.5199 LP  0  0  0  0  0  0  0  0  0  0  0  0  # atno 17320 bound_to 7965
  146.3473  140.1813  142.8589 LP  0  0  0  0  0  0  0  0  0  0  0  0  # atno 17321 bound_to 7965
  139.5080  144.3626  152.0547 LP  0  0  0  0  0  0  0  0  0  0  0  0  # atno 17342 bound_to 10162
  140.2755  144.3917  150.6136 LP  0  0  0  0  0  0  0  0  0  0  0  0  # atno 17343 bound_to 10162
  156.3456  130.3822  149.7372 LP  0  0  0  0  0  0  0  0  0  0  0  0  # atno 17370 bound_to 10713
  156.4866  130.8066  151.3077 LP  0  0  0  0  0  0  0  0  0  0  0  0  # atno 17371 bound_to 10713
  139.9307  134.7969  156.0938 LP  0  0  0  0  0  0  0  0  0  0  0  0  # atno 17394 bound_to 11000
  141.0982  133.6687  156.2694 LP  0  0  0  0  0  0  0  0  0  0  0  0  # atno 17395 bound_to 11000

$$$$
