#       Name:                AV-unprocessed.smi:1166
#       Creating user name   scv26
#       Creation time:       Fri Mar 27 03:52:10 2020


#       File generated by GOLD software.
#

@<TRIPOS>MOLECULE
AV-unprocessed.smi:1166
    49    50     1
SMALL
NO_CHARGES


@<TRIPOS>ATOM
      1 ****        -7.0614   0.3424   0.4266 C.3            1 S1                 0.0000
      2 ****        -6.3981  -0.8498  -0.0917 N.pl3          1 S1                 0.0000
      3 ****        -7.1927  -1.9974  -0.5115 C.3            1 S1                 0.0000
      4 ****        -4.9957  -0.8524  -0.2712 C.ar           1 S1                 0.0000
      5 ****        -4.3183  -1.9845  -0.7884 C.ar           1 S1                 0.0000
      6 ****        -2.9206  -1.9359  -0.9474 C.ar           1 S1                 0.0000
      7 ****        -2.2241  -0.7688  -0.5812 C.ar           1 S1                 0.0000
      8 ****        -0.8164  -0.7428  -0.7718 N.am           1 S1                 0.0000
      9 ****         0.0919   0.0544  -0.1843 C.2            1 S1                 0.0000
     10 ****        -0.1539   0.9100   0.6657 O.2            1 S1                 0.0000
     11 ****         1.3280  -0.2140  -0.6277 N.am           1 S1                 0.0000
     12 ****         2.5484   0.4419  -0.1695 C.3            1 S1                 0.0000
     13 ****         2.7740   1.7654  -0.9186 C.3            1 S1                 0.0000
     14 ****         4.0875   2.4044  -0.4537 C.3            1 S1                 0.0000
     15 ****         5.2734   1.4397  -0.6307 C.3            1 S1                 0.0000
     16 ****         5.0191   0.1365   0.0171 N.pl3          1 S1                 0.0000
     17 ****         5.7415  -0.2266   1.5582 S.o2           1 S1                 0.0000
     18 ****         4.7230   0.7134   2.7680 C.3            1 S1                 0.0000
     19 ****         5.5505  -1.6620   1.8167 O.2            1 S1                 0.0000
     20 ****         7.0988   0.3404   1.5629 O.2            1 S1                 0.0000
     21 ****         3.7471  -0.5057  -0.3687 C.3            1 S1                 0.0000
     22 ****        -2.9824   0.3167  -0.0841 C.ar           1 S1                 0.0000
     23 ****        -4.3226   0.2742   0.0684 N.ar           1 S1                 0.0000
     24 ****        -6.6625   0.6090   1.4058 H              1 S1                 0.0000
     25 ****        -8.1344   0.1848   0.5375 H              1 S1                 0.0000
     26 ****        -6.9148   1.1857  -0.2490 H              1 S1                 0.0000
     27 ****        -7.0520  -2.1925  -1.5751 H              1 S1                 0.0000
     28 ****        -8.2561  -1.8269  -0.3432 H              1 S1                 0.0000
     29 ****        -6.9066  -2.8877   0.0491 H              1 S1                 0.0000
     30 ****        -4.8408  -2.8874  -1.0658 H              1 S1                 0.0000
     31 ****        -2.3916  -2.7906  -1.3431 H              1 S1                 0.0000
     32 ****        -0.4508  -1.4539  -1.3879 H              1 S1                 0.0000
     33 ****         1.4360  -0.9355  -1.3254 H              1 S1                 0.0000
     34 ****         2.4478   0.6554   0.8946 H              1 S1                 0.0000
     35 ****         2.8107   1.5878  -1.9944 H              1 S1                 0.0000
     36 ****         1.9457   2.4525  -0.7412 H              1 S1                 0.0000
     37 ****         4.2719   3.3201  -1.0160 H              1 S1                 0.0000
     38 ****         3.9993   2.7027   0.5902 H              1 S1                 0.0000
     39 ****         5.4460   1.2661  -1.6934 H              1 S1                 0.0000
     40 ****         6.1871   1.8868  -0.2405 H              1 S1                 0.0000
     41 ****         5.1275   0.5586   3.7679 H              1 S1                 0.0000
     42 ****         3.6950   0.3562   2.7462 H              1 S1                 0.0000
     43 ****         4.7549   1.7763   2.5353 H              1 S1                 0.0000
     44 ****         3.6040  -1.4259   0.1975 H              1 S1                 0.0000
     45 ****         3.8173  -0.7986  -1.4173 H              1 S1                 0.0000
     46 ****        -2.5285   1.2579   0.1835 H              1 S1                 0.0000
     47 ****        -1.0949   1.0551   0.9716 LP             1 S1                 0.0000
     48 ****         0.5873   1.4600   1.0505 LP             1 S1                 0.0000
     49 ****        -4.8148   1.0667   0.4287 LP             1 S1                 0.0000
@<TRIPOS>BOND
    1    1    2 1     
    2    1   24 1     
    3    1   25 1     
    4    1   26 1     
    5    2    3 1     
    6    2    4 1     
    7    3   27 1     
    8    3   28 1     
    9    3   29 1     
   10    4   23 ar    
   11    4    5 ar    
   12    5    6 ar    
   13    5   30 1     
   14    6    7 ar    
   15    6   31 1     
   16    7    8 1     
   17    7   22 ar    
   18    8    9 am    
   19    8   32 1     
   20    9   10 2     
   21    9   11 am    
   22   11   12 1     
   23   11   33 1     
   24   12   21 1     
   25   12   13 1     
   26   12   34 1     
   27   13   14 1     
   28   13   35 1     
   29   13   36 1     
   30   14   15 1     
   31   14   37 1     
   32   14   38 1     
   33   15   16 1     
   34   15   39 1     
   35   15   40 1     
   36   16   17 1     
   37   16   21 1     
   38   17   18 1     
   39   17   19 2     
   40   17   20 2     
   41   18   41 1     
   42   18   42 1     
   43   18   43 1     
   44   21   44 1     
   45   21   45 1     
   46   22   23 ar    
   47   22   46 1     
   48   10   47 1     
   49   10   48 1     
   50   23   49 1     
@<TRIPOS>SUBSTRUCTURE
      1 S1             1
@<TRIPOS>SET
LONE_PAIRS      STATIC     ATOMS    <user>   **** ""
5 47 48 19 20 49
DONOR_HYDROGENS      STATIC     ATOMS    <user>   **** ""
2 32 33
ATOM$BLUE        STATIC     ATOMS    COLORGROUP SYSTEM
5 47 48 19 20 49
ATOM$RED        STATIC     ATOMS    COLORGROUP SYSTEM
2 32 33
