AV-unprocessed.smi:2639|AV-procd|sdf|10265|dock2
  -GOLD-   2272014273D 1   1.00000     0.00000
 Structure written by MMmdl.
 43 44  0  0  0  0  0  0  0  0  1 V2000
  145.7568  138.5521  154.4063 C   0  0  0  0  0  0  0  0  0  0  0  0
  146.7685  138.5664  153.2308 C   0  0  2  0  0  0  0  0  0  0  0  0
  146.1956  139.4230  152.0685 C   0  0  0  0  0  0  0  0  0  0  0  0
  146.6087  138.9496  150.8007 O   0  0  0  0  0  0  0  0  0  0  0  0
  146.9214  137.2018  152.6995 N   0  0  0  0  0  0  0  0  0  0  0  0
  145.9788  136.3727  152.2186 C   0  0  0  0  0  0  0  0  0  0  0  0
  144.7815  136.6506  152.1610 O   0  0  0  0  0  0  0  0  0  0  0  0
  146.5269  135.2190  151.7990 N   0  0  0  0  0  0  0  0  0  0  0  0
  145.8832  134.0696  151.2646 C   0  0  0  0  0  0  0  0  0  0  0  0
  144.4747  134.0798  151.1932 C   0  0  0  0  0  0  0  0  0  0  0  0
  143.8138  132.9597  150.6504 C   0  0  0  0  0  0  0  0  0  0  0  0
  144.4602  131.8714  150.1824 N   0  0  0  0  0  0  0  0  0  0  0  0
  145.8088  131.8693  150.2384 C   0  0  0  0  0  0  0  0  0  0  0  0
  146.5666  132.9363  150.7611 C   0  0  0  0  0  0  0  0  0  0  0  0
  148.1611  139.1194  153.7064 C   0  0  0  0  0  0  0  0  0  0  0  0
  148.9478  138.1631  154.6397 C   0  0  0  0  0  0  0  0  0  0  0  0
  150.3491  138.7064  154.9640 C   0  0  0  0  0  0  0  0  0  0  0  0
  150.2730  140.1059  155.5897 C   0  0  0  0  0  0  0  0  0  0  0  0
  149.4990  141.0709  154.6811 C   0  0  0  0  0  0  0  0  0  0  0  0
  148.0986  140.5290  154.3524 C   0  0  0  0  0  0  0  0  0  0  0  0
  145.4261  139.5576  154.6657 H   0  0  0  0  0  0  0  0  0  0  0  0
  146.1826  138.1101  155.3071 H   0  0  0  0  0  0  0  0  0  0  0  0
  144.8619  137.9801  154.1584 H   0  0  0  0  0  0  0  0  0  0  0  0
  145.1065  139.4129  152.0720 H   0  0  0  0  0  0  0  0  0  0  0  0
  146.5032  140.4650  152.1534 H   0  0  0  0  0  0  0  0  0  0  0  0
  145.8528  138.9067  150.2351 H   0  0  0  0  0  0  0  0  0  0  0  0
  147.8709  136.8594  152.6814 H   0  0  0  0  0  0  0  0  0  0  0  0
  147.5348  135.1733  151.8276 H   0  0  0  0  0  0  0  0  0  0  0  0
  143.9061  134.9255  151.5514 H   0  0  0  0  0  0  0  0  0  0  0  0
  142.7358  132.9390  150.5891 H   0  0  0  0  0  0  0  0  0  0  0  0
  146.3017  130.9913  149.8477 H   0  0  0  0  0  0  0  0  0  0  0  0
  147.6432  132.8680  150.7523 H   0  0  0  0  0  0  0  0  0  0  0  0
  148.7791  139.2234  152.8141 H   0  0  0  0  0  0  0  0  0  0  0  0
  148.4088  138.0130  155.5747 H   0  0  0  0  0  0  0  0  0  0  0  0
  149.0590  137.1802  154.1838 H   0  0  0  0  0  0  0  0  0  0  0  0
  150.8638  138.0249  155.6418 H   0  0  0  0  0  0  0  0  0  0  0  0
  150.9471  138.7448  154.0527 H   0  0  0  0  0  0  0  0  0  0  0  0
  149.7840  140.0464  156.5629 H   0  0  0  0  0  0  0  0  0  0  0  0
  151.2778  140.4891  155.7699 H   0  0  0  0  0  0  0  0  0  0  0  0
  149.4159  142.0461  155.1617 H   0  0  0  0  0  0  0  0  0  0  0  0
  150.0553  141.2293  153.7564 H   0  0  0  0  0  0  0  0  0  0  0  0
  147.6027  141.2405  153.6926 H   0  0  0  0  0  0  0  0  0  0  0  0
  147.5106  140.4987  155.2693 H   0  0  0  0  0  0  0  0  0  0  0  0
  1  2  1  0  0  0  0
  1 21  1  0  0  0  0
  1 22  1  0  0  0  0
  1 23  1  0  0  0  0
  2  3  1  0  0  0  0
  2  5  1  0  0  0  0
  2 15  1  0  0  0  0
  3  4  1  0  0  0  0
  3 24  1  0  0  0  0
  3 25  1  0  0  0  0
  4 26  1  0  0  0  0
  5  6  1  0  0  0  0
  5 27  1  0  0  0  0
  6  7  2  0  0  0  0
  6  8  1  0  0  0  0
  8  9  1  0  0  0  0
  8 28  1  0  0  0  0
  9 14  1  0  0  0  0
  9 10  2  0  0  0  0
 10 11  1  0  0  0  0
 10 29  1  0  0  0  0
 11 12  2  0  0  0  0
 11 30  1  0  0  0  0
 12 13  1  0  0  0  0
 13 14  2  0  0  0  0
 13 31  1  0  0  0  0
 14 32  1  0  0  0  0
 15 20  1  0  0  0  0
 15 16  1  0  0  0  0
 15 33  1  0  0  0  0
 16 17  1  0  0  0  0
 16 34  1  0  0  0  0
 16 35  1  0  0  0  0
 17 18  1  0  0  0  0
 17 36  1  0  0  0  0
 17 37  1  0  0  0  0
 18 19  1  0  0  0  0
 18 38  1  0  0  0  0
 18 39  1  0  0  0  0
 19 20  1  0  0  0  0
 19 40  1  0  0  0  0
 19 41  1  0  0  0  0
 20 42  1  0  0  0  0
 20 43  1  0  0  0  0
M  END
> <s_m_source_file>
AV-unprocessed.smi

> <i_m_source_file_index>
2639

> <i_lp_mmshare_version>
43012

> <i_f3d_flags>
0

> <s_epik_input>
W0NIMl0xW0NIMl1bQ0gyXVtDSDJdW0NIMl1bQ0hdMVtDQF0oW0NIM10pKFtDSDJdW09IXSlbTkhdQyg9TylbTkhdYzJbY0hdW2NIXW5bY0hdW2NIXTI=

> <s_epik_cmdline>
J2VwaWtfcHl0aG9uJywgJy1waCcsICc3LjAnLCAnLXRuJywgJzgnLCAnLW1hJywgJzIwMCcsICctbWV0YWxfYmluZGluZycsICctaW1hZScsICc8aW5maWxlLm1hZT4nLCAnLW9tYWUnLCAnPG91dGZpbGUubWFlPic=

> <r_epik_Ionization_Penalty>
0.119032

> <r_epik_Ionization_Penalty_Charging>
0

> <r_epik_Ionization_Penalty_Neutral>
0.119032

> <r_epik_State_Penalty>
0.108564

> <r_epik_Charging_Adjusted_Penalty>
0.108564

> <i_epik_Tot_Q>
0

> <i_epik_Tot_abs_Q>
0

> <r_epik_Metal_State_Penalty>
0.0902516

> <b_epik_Metal_Only>
0

> <s_lp_Force_Field>
OPLS_2005

> <r_lp_Energy>
26.8318

> <b_lp_Chiralities_Consistent>
1

> <s_lp_Variant>
AV-unprocessed.smi:2639-2

> <Gold.Version>
5.8.1

> <Gold.Id.Protein>
6NUR|6NUR_protein|mol2

> <Gold.PLP.Fitness>
45.3047

> <Gold.PLP.PLP>
-32.1992

> <Gold.PLP.part.hbond>
-4.2495

> <Gold.PLP.part.metal>
0.0000

> <Gold.PLP.part.buried>
0.9814

> <Gold.PLP.part.nonpolar>
-30.4275

> <Gold.PLP.part.repulsive>
0.4426

> <Gold.PLP.ligand.clash>
0.0000

> <Gold.PLP.ligand.torsion>
0.6944

> <Gold.PLP.Chemscore.Hbond>
3.3631

> <Gold.PLP.Chemscore.CHOScore>
1.4478

> <Gold.PLP.Chemscore.Metal>
0.0000

> <Gold.Chemscore.Hbonds>
donor molecule, donor type, donor heavy atom, donor atom, acceptor molecule, acceptor atom, score
      L1  H     4    26       P1 10171  1.00
      L1  H     5    27       P1  7948  0.83
      L1  H     8    28       P1  7948  0.83
      P1  H  7954  7966       L1     4  0.65
      L1  C    11    30       P1 10186  1.00
      L1  C    13    31       P1 10747  0.43

> <Gold.PLP.Chemscore.Internal.Correction>
0.0616

> <Gold.Rescore>
     Score         DG    S(hbond)    S(metal)    S(lipo)     H(rot)  DE(clash)    DE(int)     intcor
     17.58     -22.59       3.35        0.00      93.96       1.98       1.48       3.53       ----

> <Gold.Chemscore.Fitness>
17.5799

> <Gold.Chemscore.DG>
-22.5907

> <Gold.Chemscore.ZeroCoef>
-5.4800

> <Gold.Chemscore.Hbond>
3.3490

> <Gold.Chemscore.Metal>
0.0000

> <Gold.Chemscore.Lipo>
93.9587

> <Gold.Chemscore.Internal_Hbond>
0.0000

> <Gold.Chemscore.DEClash>
1.4839

> <Gold.Chemscore.DEInternal>
3.5269

> <Gold.Chemscore.Rot>
1.9798

> <Gold.Chemscore.Internal.Correction>
   9.000000E+99

> <Gold.Chemscore.Hbonds>
donor molecule, donor type, donor heavy atom, donor atom, acceptor molecule, acceptor atom, score
      L1  H     4    26       P1 10171  0.93
      L1  H     5    27       P1  7948  0.78
      L1  H     8    28       P1  7948  0.75
      P1  H  7954  7966       L1     4  0.43

> <Gold.Chemscore.Hbond.Weighted>
-11.1857

> <Gold.Chemscore.Metal.Weighted>
-0.0000

> <Gold.Chemscore.Lipo.Weighted>
-10.9932

> <Gold.Chemscore.Internal_Hbond.Weighted>
0.0000

> <Gold.Chemscore.DEClash.Weighted>
1.4839

> <Gold.Chemscore.DEInternal.Weighted>
3.5269

> <Gold.Chemscore.Rot.Weighted>
5.0682

> <Gold.Chemscore.Internal.Correction.Weighted>
   9.000000E+99

> <Gold.Protein.RotatedTorsions>
[ 6907 6896 6895 6894 ] final    7.08 input  -60.11 | X-H torsion
[ 7974 7965 7964 7962 ] final   56.45 input  175.53 | X-H torsion
[ 8008 7997 7996 7995 ] final  -84.59 input   59.86 | X-H torsion
[ 10167 10162 10161 10158 ] final  161.07 input  -65.29 | X-H torsion
[ 10718 10713 10712 10709 ] final  -98.96 input   66.30 | X-H torsion
[ 10763 10752 10751 10750 ] final  -94.00 input  -60.55 | X-H torsion
[ 11005 11000 10999 10996 ] final -146.40 input  -57.11 | X-H torsion

> <Gold.Protein.ActiveResidues>
 VAL166  LYS551  ARG553  GLY616  TRP617  ASP618  TYR619  PRO620  LYS621  CYS622 
 ASP623  PHE694  ASN695  SER759  ASP760  ASP761  ALA762  ILE779  LEU786  VAL792 
 PHE793  MET794  SER795  GLU796  ALA797  LYS798  CYS799  TRP800  GLU811  SER814 

> <Gold.Protein.RotatedAtoms>
  151.6841  135.0957  160.0221 H   0  0  0  0  0  0  0  0  0  0  0  0  # atno 6907 bound_to 6896
  152.3817  133.6552  159.6175 H   0  0  0  0  0  0  0  0  0  0  0  0  # atno 6908 bound_to 6896
  150.7753  133.9018  159.3385 H   0  0  0  0  0  0  0  0  0  0  0  0  # atno 6909 bound_to 6896
  145.9397  139.3877  143.0371 H   0  0  0  0  0  0  0  0  0  0  0  0  # atno 7974 bound_to 7965
  154.6315  140.0603  156.9737 H   0  0  0  0  0  0  0  0  0  0  0  0  # atno 8008 bound_to 7997
  155.1659  140.3286  155.4384 H   0  0  0  0  0  0  0  0  0  0  0  0  # atno 8009 bound_to 7997
  156.2485  140.1922  156.6763 H   0  0  0  0  0  0  0  0  0  0  0  0  # atno 8010 bound_to 7997
  139.4846  144.4572  151.8752 H   0  0  0  0  0  0  0  0  0  0  0  0  # atno 10167 bound_to 10162
  156.0121  130.5261  150.6600 H   0  0  0  0  0  0  0  0  0  0  0  0  # atno 10718 bound_to 10713
  154.7013  135.5173  153.8531 H   0  0  0  0  0  0  0  0  0  0  0  0  # atno 10763 bound_to 10752
  153.0706  135.6600  154.0264 H   0  0  0  0  0  0  0  0  0  0  0  0  # atno 10764 bound_to 10752
  154.0123  135.3001  155.3370 H   0  0  0  0  0  0  0  0  0  0  0  0  # atno 10765 bound_to 10752
  140.7824  134.3064  157.5041 H   0  0  0  0  0  0  0  0  0  0  0  0  # atno 11005 bound_to 11000
  145.8316  140.9627  143.0846 LP  0  0  0  0  0  0  0  0  0  0  0  0  # atno 17320 bound_to 7965
  144.6777  140.0170  143.7484 LP  0  0  0  0  0  0  0  0  0  0  0  0  # atno 17321 bound_to 7965
  140.4032  144.2465  150.5892 LP  0  0  0  0  0  0  0  0  0  0  0  0  # atno 17342 bound_to 10162
  140.5037  143.2310  151.8641 LP  0  0  0  0  0  0  0  0  0  0  0  0  # atno 17343 bound_to 10162
  157.4344  131.0853  151.1006 LP  0  0  0  0  0  0  0  0  0  0  0  0  # atno 17370 bound_to 10713
  157.1569  130.6208  149.5599 LP  0  0  0  0  0  0  0  0  0  0  0  0  # atno 17371 bound_to 10713
  139.8741  134.9326  156.3559 LP  0  0  0  0  0  0  0  0  0  0  0  0  # atno 17394 bound_to 11000
  140.9470  133.7476  156.0221 LP  0  0  0  0  0  0  0  0  0  0  0  0  # atno 17395 bound_to 11000

$$$$
