#       Name:                AV-unprocessed.smi:2148
#       Creating user name   scv26
#       Creation time:       Fri Mar 27 11:52:22 2020


#       File generated by GOLD software.
#

@<TRIPOS>MOLECULE
AV-unprocessed.smi:2148
    50    51     1
SMALL
NO_CHARGES


@<TRIPOS>ATOM
      1 ****        -5.4206  -2.5151   1.3374 C.3            1 S1                 0.0000
      2 ****        -5.7619  -3.2602  -0.2806 S.3            1 S1                 0.0000
      3 ****        -5.1220  -1.9759  -1.3976 C.3            1 S1                 0.0000
      4 ****        -5.6465  -2.2040  -2.8244 C.3            1 S1                 0.0000
      5 ****        -3.5892  -1.9064  -1.3740 C.2            1 S1                 0.0000
      6 ****        -2.9297  -2.7668  -1.9574 O.2            1 S1                 0.0000
      7 ****        -3.0615  -0.8894  -0.6672 N.am           1 S1                 0.0000
      8 ****        -1.6931  -0.5662  -0.4609 C.ar           1 S1                 0.0000
      9 ****        -0.6391  -0.9733  -1.3109 C.ar           1 S1                 0.0000
     10 ****         0.6754  -0.5692  -1.0088 C.ar           1 S1                 0.0000
     11 ****         0.9085   0.2396   0.1283 C.ar           1 S1                 0.0000
     12 ****         2.2194   0.6565   0.4460 N.3            1 S1                 0.0000
     13 ****         2.9481   1.3221  -0.6304 C.3            1 S1                 0.0000
     14 ****         4.4429   1.4413  -0.2762 C.3            1 S1                 0.0000
     15 ****         5.2192   2.2462  -1.3235 C.3            1 S1                 0.0000
     16 ****         4.5774   2.0979   0.9814 O.3            1 S1                 0.0000
     17 ****         3.9565   1.3756   2.0412 C.3            1 S1                 0.0000
     18 ****         4.2407   2.1095   3.3560 C.3            1 S1                 0.0000
     19 ****         2.4474   1.2615   1.7566 C.3            1 S1                 0.0000
     20 ****        -0.1059   0.6328   0.9371 N.ar           1 S1                 0.0000
     21 ****        -1.3643   0.2449   0.6431 C.ar           1 S1                 0.0000
     22 ****        -5.8060  -3.1546   2.1312 H              1 S1                 0.0000
     23 ****        -5.8993  -1.5392   1.4178 H              1 S1                 0.0000
     24 ****        -4.3482  -2.3925   1.4885 H              1 S1                 0.0000
     25 ****        -5.5214  -1.0210  -1.0520 H              1 S1                 0.0000
     26 ****        -5.2639  -1.4508  -3.5145 H              1 S1                 0.0000
     27 ****        -6.7351  -2.1477  -2.8510 H              1 S1                 0.0000
     28 ****        -5.3592  -3.1845  -3.2067 H              1 S1                 0.0000
     29 ****        -3.7221  -0.3111  -0.1684 H              1 S1                 0.0000
     30 ****        -0.8097  -1.5739  -2.1906 H              1 S1                 0.0000
     31 ****         1.4861  -0.8915  -1.6449 H              1 S1                 0.0000
     32 ****         2.8486   0.7869  -1.5737 H              1 S1                 0.0000
     33 ****         2.5177   2.3129  -0.7821 H              1 S1                 0.0000
     34 ****         4.8840   0.4452  -0.2085 H              1 S1                 0.0000
     35 ****         5.1585   1.7750  -2.3047 H              1 S1                 0.0000
     36 ****         6.2732   2.3206  -1.0549 H              1 S1                 0.0000
     37 ****         4.8261   3.2592  -1.4134 H              1 S1                 0.0000
     38 ****         4.3959   0.3782   2.0997 H              1 S1                 0.0000
     39 ****         3.7959   1.5848   4.2018 H              1 S1                 0.0000
     40 ****         3.8354   3.1216   3.3386 H              1 S1                 0.0000
     41 ****         5.3133   2.1825   3.5369 H              1 S1                 0.0000
     42 ****         1.9835   2.2487   1.7825 H              1 S1                 0.0000
     43 ****         1.9773   0.6586   2.5347 H              1 S1                 0.0000
     44 ****        -2.1339   0.5917   1.3173 H              1 S1                 0.0000
     45 ****        -3.3930  -3.5073  -2.4442 LP             1 S1                 0.0000
     46 ****        -1.9306  -2.7252  -1.9445 LP             1 S1                 0.0000
     47 ****         2.6471  -0.2417   0.5481 LP             1 S1                 0.0000
     48 ****         4.1548   3.0020   0.9184 LP             1 S1                 0.0000
     49 ****         5.5506   2.1986   1.1885 LP             1 S1                 0.0000
     50 ****         0.0757   1.2016   1.7393 LP             1 S1                 0.0000
@<TRIPOS>BOND
    1    1    2 1     
    2    1   22 1     
    3    1   23 1     
    4    1   24 1     
    5    2    3 1     
    6    3    4 1     
    7    3    5 1     
    8    3   25 1     
    9    4   26 1     
   10    4   27 1     
   11    4   28 1     
   12    5    6 2     
   13    5    7 am    
   14    7    8 1     
   15    7   29 1     
   16    8   21 ar    
   17    8    9 ar    
   18    9   10 ar    
   19    9   30 1     
   20   10   11 ar    
   21   10   31 1     
   22   11   12 1     
   23   11   20 ar    
   24   12   19 1     
   25   12   13 1     
   26   13   14 1     
   27   13   32 1     
   28   13   33 1     
   29   14   15 1     
   30   14   16 1     
   31   14   34 1     
   32   15   35 1     
   33   15   36 1     
   34   15   37 1     
   35   16   17 1     
   36   17   18 1     
   37   17   19 1     
   38   17   38 1     
   39   18   39 1     
   40   18   40 1     
   41   18   41 1     
   42   19   42 1     
   43   19   43 1     
   44   20   21 ar    
   45   21   44 1     
   46    6   45 1     
   47    6   46 1     
   48   12   47 1     
   49   16   48 1     
   50   16   49 1     
   51   20   50 1     
@<TRIPOS>SUBSTRUCTURE
      1 S1             1
@<TRIPOS>SET
LONE_PAIRS      STATIC     ATOMS    <user>   **** ""
6 45 46 47 48 49 50
DONOR_HYDROGENS      STATIC     ATOMS    <user>   **** ""
1 29
ATOM$BLUE        STATIC     ATOMS    COLORGROUP SYSTEM
6 45 46 47 48 49 50
ATOM$RED        STATIC     ATOMS    COLORGROUP SYSTEM
1 29
