AV-unprocessed.smi:111|AV-procd|sdf|1082|dock8
  -GOLD-   2262018173D 1   1.00000     0.00000
 Structure written by MMmdl.
 46 48  0  0  0  0  0  0  0  0  1 V2000
  149.9457  140.0666  154.1200 O   0  0  0  0  0  0  0  0  0  0  0  0
  150.2909  140.4756  155.2299 C   0  0  0  0  0  0  0  0  0  0  0  0
  149.5617  141.4974  155.9705 C   0  0  0  0  0  0  0  0  0  0  0  0
  148.4209  141.9969  155.4656 F   0  0  0  0  0  0  0  0  0  0  0  0
  150.0041  141.9412  157.1666 C   0  0  0  0  0  0  0  0  0  0  0  0
  151.1727  141.4909  157.7604 N   0  0  0  0  0  0  0  0  0  0  0  0
  151.5908  141.9499  159.1428 C   0  0  1  0  0  0  0  0  0  0  0  0
  153.0325  142.4826  159.2221 C   0  0  0  0  0  0  0  0  0  0  0  0
  152.8198  143.9808  159.3193 C   0  0  0  0  0  0  0  0  0  0  0  0
  151.4900  144.0548  160.0596 C   0  0  0  0  0  0  0  0  0  0  0  0
  150.7288  142.9821  159.5198 O   0  0  0  0  0  0  0  0  0  0  0  0
  151.8980  140.4420  157.1491 C   0  0  0  0  0  0  0  0  0  0  0  0
  152.8989  139.9666  157.6908 O   0  0  0  0  0  0  0  0  0  0  0  0
  151.4405  139.9789  155.8903 N   0  0  0  0  0  0  0  0  0  0  0  0
  152.1983  138.9358  155.2104 C   0  0  0  0  0  0  0  0  0  0  0  0
  151.3727  137.7237  154.7015 C   0  0  1  0  0  0  0  0  0  0  0  0
  152.1983  136.9253  153.8771 O   0  0  0  0  0  0  0  0  0  0  0  0
  150.6942  136.8546  155.7818 C   0  0  0  0  0  0  0  0  0  0  0  0
  149.6520  137.6165  156.6163 C   0  0  0  0  0  0  0  0  0  0  0  0
  149.1334  136.7848  157.7739 C   0  0  0  0  0  0  0  0  0  0  0  0
  148.5592  135.5186  157.5339 C   0  0  0  0  0  0  0  0  0  0  0  0
  148.0827  134.7425  158.6085 C   0  0  0  0  0  0  0  0  0  0  0  0
  148.1793  135.2292  159.9265 C   0  0  0  0  0  0  0  0  0  0  0  0
  148.7532  136.4923  160.1699 C   0  0  0  0  0  0  0  0  0  0  0  0
  149.2302  137.2688  159.0957 C   0  0  0  0  0  0  0  0  0  0  0  0
  149.3987  142.6787  157.6687 H   0  0  0  0  0  0  0  0  0  0  0  0
  151.4736  141.0864  159.7994 H   0  0  0  0  0  0  0  0  0  0  0  0
  153.4784  142.1138  160.1466 H   0  0  0  0  0  0  0  0  0  0  0  0
  153.6632  142.1577  158.3948 H   0  0  0  0  0  0  0  0  0  0  0  0
  153.6272  144.4935  159.8431 H   0  0  0  0  0  0  0  0  0  0  0  0
  152.7217  144.4237  158.3282 H   0  0  0  0  0  0  0  0  0  0  0  0
  151.6356  143.8881  161.1279 H   0  0  0  0  0  0  0  0  0  0  0  0
  150.9849  145.0118  159.9274 H   0  0  0  0  0  0  0  0  0  0  0  0
  152.7198  139.4029  154.3744 H   0  0  0  0  0  0  0  0  0  0  0  0
  153.0102  138.6353  155.8767 H   0  0  0  0  0  0  0  0  0  0  0  0
  150.5959  138.1167  154.0446 H   0  0  0  0  0  0  0  0  0  0  0  0
  151.7129  136.6954  153.0990 H   0  0  0  0  0  0  0  0  0  0  0  0
  150.2254  135.9823  155.3242 H   0  0  0  0  0  0  0  0  0  0  0  0
  151.4582  136.4760  156.4611 H   0  0  0  0  0  0  0  0  0  0  0  0
  150.0855  138.5391  157.0047 H   0  0  0  0  0  0  0  0  0  0  0  0
  148.8083  137.9127  155.9917 H   0  0  0  0  0  0  0  0  0  0  0  0
  148.4856  135.1388  156.5251 H   0  0  0  0  0  0  0  0  0  0  0  0
  147.6438  133.7735  158.4216 H   0  0  0  0  0  0  0  0  0  0  0  0
  147.8140  134.6338  160.7505 H   0  0  0  0  0  0  0  0  0  0  0  0
  148.8285  136.8652  161.1808 H   0  0  0  0  0  0  0  0  0  0  0  0
  149.6718  138.2353  159.2900 H   0  0  0  0  0  0  0  0  0  0  0  0
  1  2  2  0  0  0  0
  2 14  1  0  0  0  0
  2  3  1  0  0  0  0
  3  4  1  0  0  0  0
  3  5  2  0  0  0  0
  5  6  1  0  0  0  0
  5 26  1  0  0  0  0
  6  7  1  0  0  0  0
  6 12  1  0  0  0  0
  7 11  1  0  0  0  0
  7  8  1  0  0  0  0
  7 27  1  0  0  0  0
  8  9  1  0  0  0  0
  8 28  1  0  0  0  0
  8 29  1  0  0  0  0
  9 10  1  0  0  0  0
  9 30  1  0  0  0  0
  9 31  1  0  0  0  0
 10 11  1  0  0  0  0
 10 32  1  0  0  0  0
 10 33  1  0  0  0  0
 12 13  2  0  0  0  0
 12 14  1  0  0  0  0
 14 15  1  0  0  0  0
 15 16  1  0  0  0  0
 15 34  1  0  0  0  0
 15 35  1  0  0  0  0
 16 17  1  0  0  0  0
 16 18  1  0  0  0  0
 16 36  1  0  0  0  0
 17 37  1  0  0  0  0
 18 19  1  0  0  0  0
 18 38  1  0  0  0  0
 18 39  1  0  0  0  0
 19 20  1  0  0  0  0
 19 40  1  0  0  0  0
 19 41  1  0  0  0  0
 20 25  1  0  0  0  0
 20 21  2  0  0  0  0
 21 22  1  0  0  0  0
 21 42  1  0  0  0  0
 22 23  2  0  0  0  0
 22 43  1  0  0  0  0
 23 24  1  0  0  0  0
 23 44  1  0  0  0  0
 24 25  2  0  0  0  0
 24 45  1  0  0  0  0
 25 46  1  0  0  0  0
M  END
> <s_m_source_file>
AV-unprocessed.smi

> <i_m_source_file_index>
111

> <i_lp_mmshare_version>
43012

> <i_f3d_flags>
0

> <s_epik_input>
TzFbQ0gyXVtDSDJdW0NIMl1bQ0BIXTFuKFtjSF1jKEYpYzI9TyljKD1PKW4yW0NIMl1bQ0BIXShbT0hdKVtDSDJdW0NIMl1jM1tjSF1bY0hdW2NIXVtjSF1bY0hdMw==

> <s_epik_cmdline>
J2VwaWtfcHl0aG9uJywgJy1waCcsICc3LjAnLCAnLXRuJywgJzgnLCAnLW1hJywgJzIwMCcsICctbWV0YWxfYmluZGluZycsICctaW1hZScsICc8aW5maWxlLm1hZT4nLCAnLW9tYWUnLCAnPG91dGZpbGUubWFlPic=

> <r_lp_tautomer_probability>
1

> <r_epik_Ionization_Penalty>
1.88248e-07

> <r_epik_Ionization_Penalty_Charging>
4.03974e-08

> <r_epik_Ionization_Penalty_Neutral>
1.47851e-07

> <r_epik_State_Penalty>
-0

> <r_epik_Charging_Adjusted_Penalty>
4.03974e-08

> <i_epik_Tot_Q>
0

> <i_epik_Tot_abs_Q>
0

> <r_epik_Metal_State_Penalty>
-0

> <b_epik_Metal_Only>
0

> <s_epik_Chemistry_Notes>
This compound contains an acetal/aminal-like group ( X-CH(R)-Y where X, Y are N, S, or O) that may be acid/base labile, releasing an aldehyde.

> <s_lp_Force_Field>
OPLS_2005

> <r_lp_Energy>
37.7752

> <b_lp_Chiralities_Consistent>
1

> <s_lp_Variant>
AV-unprocessed.smi:111-4

> <Gold.Version>
5.8.1

> <Gold.Id.Protein>
6NUR|6NUR_protein|mol2

> <Gold.PLP.Fitness>
53.9399

> <Gold.PLP.PLP>
-44.4326

> <Gold.PLP.part.hbond>
-4.7286

> <Gold.PLP.part.metal>
0.0000

> <Gold.PLP.part.buried>
-2.2925

> <Gold.PLP.part.nonpolar>
-38.3552

> <Gold.PLP.part.repulsive>
1.2098

> <Gold.PLP.ligand.clash>
0.0000

> <Gold.PLP.ligand.torsion>
0.2344

> <Gold.PLP.Chemscore.Hbond>
3.2688

> <Gold.PLP.Chemscore.CHOScore>
0.0085

> <Gold.PLP.Chemscore.Metal>
0.0000

> <Gold.Chemscore.Hbonds>
donor molecule, donor type, donor heavy atom, donor atom, acceptor molecule, acceptor atom, score
      L1  H    17    37       P1  7949  1.00
      P1  H  7989  7998       L1     1  0.27
      P1  H  7997  8008       L1    13  1.00
      P1  H 10752 10764       L1    17  0.83
      L1  C     5    26       P1  8028  0.04

> <Gold.PLP.Chemscore.Internal.Correction>
0.1441

> <Gold.Rescore>
     Score         DG    S(hbond)    S(metal)    S(lipo)     H(rot)  DE(clash)    DE(int)     intcor
     14.82     -18.64       2.77        0.00      91.87       2.67       0.99       2.83       ----

> <Gold.Chemscore.Fitness>
14.8168

> <Gold.Chemscore.DG>
-18.6406

> <Gold.Chemscore.ZeroCoef>
-5.4800

> <Gold.Chemscore.Hbond>
2.7717

> <Gold.Chemscore.Metal>
0.0000

> <Gold.Chemscore.Lipo>
91.8745

> <Gold.Chemscore.Internal_Hbond>
0.0000

> <Gold.Chemscore.DEClash>
0.9943

> <Gold.Chemscore.DEInternal>
2.8295

> <Gold.Chemscore.Rot>
2.6743

> <Gold.Chemscore.Internal.Correction>
   9.000000E+99

> <Gold.Chemscore.Hbonds>
donor molecule, donor type, donor heavy atom, donor atom, acceptor molecule, acceptor atom, score
      L1  H    17    37       P1  7949  0.99
      P1  H  7997  8008       L1    13  0.97
      P1  H 10752 10764       L1    17  0.18

> <Gold.Chemscore.Hbond.Weighted>
-9.2575

> <Gold.Chemscore.Metal.Weighted>
-0.0000

> <Gold.Chemscore.Lipo.Weighted>
-10.7493

> <Gold.Chemscore.Internal_Hbond.Weighted>
0.0000

> <Gold.Chemscore.DEClash.Weighted>
0.9943

> <Gold.Chemscore.DEInternal.Weighted>
2.8295

> <Gold.Chemscore.Rot.Weighted>
6.8463

> <Gold.Chemscore.Internal.Correction.Weighted>
   9.000000E+99

> <Gold.Protein.RotatedTorsions>
[ 6907 6896 6895 6894 ] final   49.29 input  -60.11 | X-H torsion
[ 7974 7965 7964 7962 ] final    6.13 input  175.53 | X-H torsion
[ 8008 7997 7996 7995 ] final  -78.69 input   59.86 | X-H torsion
[ 10167 10162 10161 10158 ] final   37.75 input  -65.29 | X-H torsion
[ 10718 10713 10712 10709 ] final    4.29 input   66.30 | X-H torsion
[ 10763 10752 10751 10750 ] final  -97.43 input  -60.55 | X-H torsion
[ 11005 11000 10999 10996 ] final  -92.17 input  -57.11 | X-H torsion

> <Gold.Protein.ActiveResidues>
 VAL166  LYS551  ARG553  GLY616  TRP617  ASP618  TYR619  PRO620  LYS621  CYS622 
 ASP623  PHE694  ASN695  SER759  ASP760  ASP761  ALA762  ILE779  LEU786  VAL792 
 PHE793  MET794  SER795  GLU796  ALA797  LYS798  CYS799  TRP800  GLU811  SER814 

> <Gold.Protein.RotatedAtoms>
  152.2891  134.7742  160.0381 H   0  0  0  0  0  0  0  0  0  0  0  0  # atno 6907 bound_to 6896
  151.8294  133.3401  159.3617 H   0  0  0  0  0  0  0  0  0  0  0  0  # atno 6908 bound_to 6896
  150.7222  134.5426  159.5799 H   0  0  0  0  0  0  0  0  0  0  0  0  # atno 6909 bound_to 6896
  146.2436  140.0279  142.8392 H   0  0  0  0  0  0  0  0  0  0  0  0  # atno 7974 bound_to 7965
  154.5714  140.0690  156.8969 H   0  0  0  0  0  0  0  0  0  0  0  0  # atno 8008 bound_to 7997
  155.2628  140.3359  155.4253 H   0  0  0  0  0  0  0  0  0  0  0  0  # atno 8009 bound_to 7997
  156.2121  140.1763  156.7657 H   0  0  0  0  0  0  0  0  0  0  0  0  # atno 8010 bound_to 7997
  140.4003  144.1733  150.6133 H   0  0  0  0  0  0  0  0  0  0  0  0  # atno 10167 bound_to 10162
  156.8905  130.5686  149.5650 H   0  0  0  0  0  0  0  0  0  0  0  0  # atno 10718 bound_to 10713
  154.7327  135.5047  153.8991 H   0  0  0  0  0  0  0  0  0  0  0  0  # atno 10763 bound_to 10752
  153.0965  135.6674  153.9761 H   0  0  0  0  0  0  0  0  0  0  0  0  # atno 10764 bound_to 10752
  153.9558  135.3053  155.3415 H   0  0  0  0  0  0  0  0  0  0  0  0  # atno 10765 bound_to 10752
  141.1528  133.7803  156.9982 H   0  0  0  0  0  0  0  0  0  0  0  0  # atno 11005 bound_to 11000
  145.1181  140.9446  143.4616 LP  0  0  0  0  0  0  0  0  0  0  0  0  # atno 17320 bound_to 7965
  145.0508  139.3183  143.5929 LP  0  0  0  0  0  0  0  0  0  0  0  0  # atno 17321 bound_to 7965
  140.4747  143.2400  151.9040 LP  0  0  0  0  0  0  0  0  0  0  0  0  # atno 17342 bound_to 10162
  139.4785  144.5333  151.8635 LP  0  0  0  0  0  0  0  0  0  0  0  0  # atno 17343 bound_to 10162
  156.0631  130.5680  150.9234 LP  0  0  0  0  0  0  0  0  0  0  0  0  # atno 17370 bound_to 10713
  157.6087  131.0937  150.8834 LP  0  0  0  0  0  0  0  0  0  0  0  0  # atno 17371 bound_to 10713
  140.0957  134.9565  157.1846 LP  0  0  0  0  0  0  0  0  0  0  0  0  # atno 17394 bound_to 11000
  140.3385  134.2730  155.7216 LP  0  0  0  0  0  0  0  0  0  0  0  0  # atno 17395 bound_to 11000

$$$$
