AV-unprocessed.smi:1793|AV-procd|sdf|7227|dock4
  -GOLD-   22720 8473D 1   1.00000     0.00000
 Structure written by MMmdl.
 46 48  0  0  0  0  0  0  0  0  1 V2000
  146.8528  139.4885  151.3406 C   0  0  0  0  0  0  0  0  0  0  0  0
  146.4492  138.6644  152.5734 C   0  0  1  0  0  0  0  0  0  0  0  0
  146.8631  137.2730  152.4073 N   0  0  0  0  0  0  0  0  0  0  0  0
  146.0432  136.2169  152.3264 C   0  0  0  0  0  0  0  0  0  0  0  0
  144.8157  136.2970  152.3767 O   0  0  0  0  0  0  0  0  0  0  0  0
  146.7388  135.0797  152.1670 N   0  0  0  0  0  0  0  0  0  0  0  0
  146.2282  133.7670  151.9691 C   0  0  0  0  0  0  0  0  0  0  0  0
  145.0036  133.5494  151.2923 C   0  0  0  0  0  0  0  0  0  0  0  0
  144.5003  132.2421  151.1818 C   0  0  0  0  0  0  0  0  0  0  0  0
  145.2332  131.1967  151.7678 C   0  0  0  0  0  0  0  0  0  0  0  0
  146.3932  131.3891  152.4271 N   0  0  0  0  0  0  0  0  0  0  0  0
  146.9000  132.6428  152.5295 C   0  0  0  0  0  0  0  0  0  0  0  0
  148.1288  132.7814  153.2158 N   0  0  0  0  0  0  0  0  0  0  0  0
  148.2443  133.6850  154.3559 C   0  0  0  0  0  0  0  0  0  0  0  0
  149.5357  133.2747  155.0580 C   0  0  0  0  0  0  0  0  0  0  0  0
  149.5485  131.7629  154.8565 C   0  0  0  0  0  0  0  0  0  0  0  0
  148.9159  131.5786  153.4736 C   0  0  0  0  0  0  0  0  0  0  0  0
  147.0352  139.2412  153.8773 C   0  0  1  0  0  0  0  0  0  0  0  0
  148.5737  139.2637  153.9347 C   0  0  0  0  0  0  0  0  0  0  0  0
  148.9176  140.7258  154.1553 C   0  0  0  0  0  0  0  0  0  0  0  0
  147.6386  141.2820  154.7638 C   0  0  0  0  0  0  0  0  0  0  0  0
  146.6270  140.5972  154.0452 O   0  0  0  0  0  0  0  0  0  0  0  0
  146.5400  140.5276  151.4449 H   0  0  0  0  0  0  0  0  0  0  0  0
  146.3883  139.0958  150.4354 H   0  0  0  0  0  0  0  0  0  0  0  0
  147.9328  139.4794  151.1908 H   0  0  0  0  0  0  0  0  0  0  0  0
  145.3621  138.7082  152.6605 H   0  0  0  0  0  0  0  0  0  0  0  0
  147.8573  137.1060  152.3519 H   0  0  0  0  0  0  0  0  0  0  0  0
  147.7362  135.1797  152.0480 H   0  0  0  0  0  0  0  0  0  0  0  0
  144.4335  134.3669  150.8777 H   0  0  0  0  0  0  0  0  0  0  0  0
  143.5686  132.0479  150.6714 H   0  0  0  0  0  0  0  0  0  0  0  0
  144.8765  130.1790  151.7109 H   0  0  0  0  0  0  0  0  0  0  0  0
  148.2695  134.7270  154.0365 H   0  0  0  0  0  0  0  0  0  0  0  0
  147.4045  133.5550  155.0397 H   0  0  0  0  0  0  0  0  0  0  0  0
  150.3937  133.7249  154.5571 H   0  0  0  0  0  0  0  0  0  0  0  0
  149.5609  133.5679  156.1078 H   0  0  0  0  0  0  0  0  0  0  0  0
  150.5468  131.3305  154.9269 H   0  0  0  0  0  0  0  0  0  0  0  0
  148.9218  131.2879  155.6125 H   0  0  0  0  0  0  0  0  0  0  0  0
  148.3117  130.6714  153.4289 H   0  0  0  0  0  0  0  0  0  0  0  0
  149.6971  131.5025  152.7171 H   0  0  0  0  0  0  0  0  0  0  0  0
  146.6637  138.6703  154.7299 H   0  0  0  0  0  0  0  0  0  0  0  0
  148.9216  138.6604  154.7739 H   0  0  0  0  0  0  0  0  0  0  0  0
  149.0473  138.8722  153.0336 H   0  0  0  0  0  0  0  0  0  0  0  0
  149.7910  140.8696  154.7921 H   0  0  0  0  0  0  0  0  0  0  0  0
  149.1104  141.2095  153.1969 H   0  0  0  0  0  0  0  0  0  0  0  0
  147.5686  141.0344  155.8242 H   0  0  0  0  0  0  0  0  0  0  0  0
  147.5523  142.3628  154.6518 H   0  0  0  0  0  0  0  0  0  0  0  0
  1  2  1  0  0  0  0
  1 23  1  0  0  0  0
  1 24  1  0  0  0  0
  1 25  1  0  0  0  0
  2  3  1  0  0  0  0
  2 18  1  0  0  0  0
  2 26  1  0  0  0  0
  3  4  1  0  0  0  0
  3 27  1  0  0  0  0
  4  5  2  0  0  0  0
  4  6  1  0  0  0  0
  6  7  1  0  0  0  0
  6 28  1  0  0  0  0
  7 12  1  0  0  0  0
  7  8  2  0  0  0  0
  8  9  1  0  0  0  0
  8 29  1  0  0  0  0
  9 10  2  0  0  0  0
  9 30  1  0  0  0  0
 10 11  1  0  0  0  0
 10 31  1  0  0  0  0
 11 12  2  0  0  0  0
 12 13  1  0  0  0  0
 13 17  1  0  0  0  0
 13 14  1  0  0  0  0
 14 15  1  0  0  0  0
 14 32  1  0  0  0  0
 14 33  1  0  0  0  0
 15 16  1  0  0  0  0
 15 34  1  0  0  0  0
 15 35  1  0  0  0  0
 16 17  1  0  0  0  0
 16 36  1  0  0  0  0
 16 37  1  0  0  0  0
 17 38  1  0  0  0  0
 17 39  1  0  0  0  0
 18 22  1  0  0  0  0
 18 19  1  0  0  0  0
 18 40  1  0  0  0  0
 19 20  1  0  0  0  0
 19 41  1  0  0  0  0
 19 42  1  0  0  0  0
 20 21  1  0  0  0  0
 20 43  1  0  0  0  0
 20 44  1  0  0  0  0
 21 22  1  0  0  0  0
 21 45  1  0  0  0  0
 21 46  1  0  0  0  0
M  END
> <s_m_source_file>
AV-unprocessed.smi

> <i_m_source_file_index>
1793

> <i_lp_mmshare_version>
43012

> <i_f3d_flags>
0

> <s_epik_input>
TzFbQ0gyXVtDSDJdW0NIMl1bQ0BIXTFbQ0BIXShbQ0gzXSlbTkhdQyg9TylbTkhdYzJbY0hdW2NIXVtjSF1uYzJOM1tDSDJdW0NIMl1bQ0gyXVtDSDJdMw==

> <s_epik_cmdline>
J2VwaWtfcHl0aG9uJywgJy1waCcsICc3LjAnLCAnLXRuJywgJzgnLCAnLW1hJywgJzIwMCcsICctbWV0YWxfYmluZGluZycsICctaW1hZScsICc8aW5maWxlLm1hZT4nLCAnLW9tYWUnLCAnPG91dGZpbGUubWFlPic=

> <r_lp_tautomer_probability>
1

> <r_epik_Ionization_Penalty>
0.0992086

> <r_epik_Ionization_Penalty_Charging>
0

> <r_epik_Ionization_Penalty_Neutral>
0.0992086

> <r_epik_State_Penalty>
0.0887141

> <r_epik_Charging_Adjusted_Penalty>
0.0887141

> <i_epik_Tot_Q>
0

> <i_epik_Tot_abs_Q>
0

> <r_epik_Metal_State_Penalty>
0.075945

> <b_epik_Metal_Only>
0

> <s_lp_Force_Field>
OPLS_2005

> <r_lp_Energy>
46.9131

> <b_lp_Chiralities_Consistent>
1

> <s_lp_Variant>
AV-unprocessed.smi:1793-4

> <Gold.Version>
5.8.1

> <Gold.Id.Protein>
6NUR|6NUR_protein|mol2

> <Gold.PLP.Fitness>
39.6458

> <Gold.PLP.PLP>
-34.4451

> <Gold.PLP.part.hbond>
-1.6450

> <Gold.PLP.part.metal>
0.0000

> <Gold.PLP.part.buried>
-0.9128

> <Gold.PLP.part.nonpolar>
-32.2741

> <Gold.PLP.part.repulsive>
0.6771

> <Gold.PLP.ligand.clash>
0.0000

> <Gold.PLP.ligand.torsion>
0.4339

> <Gold.PLP.Chemscore.Hbond>
1.9040

> <Gold.PLP.Chemscore.CHOScore>
0.0000

> <Gold.PLP.Chemscore.Metal>
0.0000

> <Gold.Chemscore.Hbonds>
donor molecule, donor type, donor heavy atom, donor atom, acceptor molecule, acceptor atom, score
      L1  H     3    27       P1  7948  0.81
      L1  H     6    28       P1  7948  0.93

> <Gold.PLP.Chemscore.Internal.Correction>
0.3565

> <Gold.Rescore>
     Score         DG    S(hbond)    S(metal)    S(lipo)     H(rot)  DE(clash)    DE(int)     intcor
     16.34     -18.44       1.92        0.00      85.78       1.36       0.38       1.71       ----

> <Gold.Chemscore.Fitness>
16.3390

> <Gold.Chemscore.DG>
-18.4361

> <Gold.Chemscore.ZeroCoef>
-5.4800

> <Gold.Chemscore.Hbond>
1.9154

> <Gold.Chemscore.Metal>
0.0000

> <Gold.Chemscore.Lipo>
85.7766

> <Gold.Chemscore.Internal_Hbond>
0.0000

> <Gold.Chemscore.DEClash>
0.3828

> <Gold.Chemscore.DEInternal>
1.7143

> <Gold.Chemscore.Rot>
1.3582

> <Gold.Chemscore.Internal.Correction>
   9.000000E+99

> <Gold.Chemscore.Hbonds>
donor molecule, donor type, donor heavy atom, donor atom, acceptor molecule, acceptor atom, score
      L1  H     3    27       P1  7948  0.76
      L1  H     6    28       P1  7948  0.82

> <Gold.Chemscore.Hbond.Weighted>
-6.3973

> <Gold.Chemscore.Metal.Weighted>
-0.0000

> <Gold.Chemscore.Lipo.Weighted>
-10.0359

> <Gold.Chemscore.Internal_Hbond.Weighted>
0.0000

> <Gold.Chemscore.DEClash.Weighted>
0.3828

> <Gold.Chemscore.DEInternal.Weighted>
1.7143

> <Gold.Chemscore.Rot.Weighted>
3.4771

> <Gold.Chemscore.Internal.Correction.Weighted>
   9.000000E+99

> <Gold.Protein.RotatedTorsions>
[ 6907 6896 6895 6894 ] final  144.05 input  -60.11 | X-H torsion
[ 7974 7965 7964 7962 ] final -132.34 input  175.53 | X-H torsion
[ 8008 7997 7996 7995 ] final   80.94 input   59.86 | X-H torsion
[ 10167 10162 10161 10158 ] final -113.64 input  -65.29 | X-H torsion
[ 10718 10713 10712 10709 ] final   63.90 input   66.30 | X-H torsion
[ 10763 10752 10751 10750 ] final  148.20 input  -60.55 | X-H torsion
[ 11005 11000 10999 10996 ] final   52.81 input  -57.11 | X-H torsion

> <Gold.Protein.ActiveResidues>
 VAL166  LYS551  ARG553  GLY616  TRP617  ASP618  TYR619  PRO620  LYS621  CYS622 
 ASP623  PHE694  ASN695  SER759  ASP760  ASP761  ALA762  ILE779  LEU786  VAL792 
 PHE793  MET794  SER795  GLU796  ALA797  LYS798  CYS799  TRP800  GLU811  SER814 

> <Gold.Protein.RotatedAtoms>
  152.1985  133.4824  159.5045 H   0  0  0  0  0  0  0  0  0  0  0  0  # atno 6907 bound_to 6896
  150.6965  134.1621  159.4189 H   0  0  0  0  0  0  0  0  0  0  0  0  # atno 6908 bound_to 6896
  151.9538  135.0156  160.0594 H   0  0  0  0  0  0  0  0  0  0  0  0  # atno 6909 bound_to 6896
  144.9294  140.7110  143.4915 H   0  0  0  0  0  0  0  0  0  0  0  0  # atno 7974 bound_to 7965
  155.8903  140.3439  155.5951 H   0  0  0  0  0  0  0  0  0  0  0  0  # atno 8008 bound_to 7997
  155.7618  140.0833  157.2170 H   0  0  0  0  0  0  0  0  0  0  0  0  # atno 8009 bound_to 7997
  154.4032  140.1534  156.2829 H   0  0  0  0  0  0  0  0  0  0  0  0  # atno 8010 bound_to 7997
  140.1097  143.4539  152.1760 H   0  0  0  0  0  0  0  0  0  0  0  0  # atno 10167 bound_to 10162
  157.6003  130.9130  149.9776 H   0  0  0  0  0  0  0  0  0  0  0  0  # atno 10718 bound_to 10713
  154.0509  135.2882  155.3340 H   0  0  0  0  0  0  0  0  0  0  0  0  # atno 10763 bound_to 10752
  154.6870  135.5241  153.8343 H   0  0  0  0  0  0  0  0  0  0  0  0  # atno 10764 bound_to 10752
  153.0561  135.6596  154.0705 H   0  0  0  0  0  0  0  0  0  0  0  0  # atno 10765 bound_to 10752
  140.0819  134.5327  155.8938 H   0  0  0  0  0  0  0  0  0  0  0  0  # atno 11005 bound_to 11000
  145.3166  139.1801  143.4610 LP  0  0  0  0  0  0  0  0  0  0  0  0  # atno 17320 bound_to 7965
  146.3240  140.3178  142.8631 LP  0  0  0  0  0  0  0  0  0  0  0  0  # atno 17321 bound_to 7965
  139.5626  144.7415  151.4112 LP  0  0  0  0  0  0  0  0  0  0  0  0  # atno 17342 bound_to 10162
  140.6932  143.7810  150.7287 LP  0  0  0  0  0  0  0  0  0  0  0  0  # atno 17343 bound_to 10162
  156.1074  130.3652  150.0108 LP  0  0  0  0  0  0  0  0  0  0  0  0  # atno 17370 bound_to 10713
  156.8213  130.9359  151.3641 LP  0  0  0  0  0  0  0  0  0  0  0  0  # atno 17371 bound_to 10713
  141.2049  133.6643  156.6151 LP  0  0  0  0  0  0  0  0  0  0  0  0  # atno 17394 bound_to 11000
  140.3476  134.7796  157.4443 LP  0  0  0  0  0  0  0  0  0  0  0  0  # atno 17395 bound_to 11000

$$$$
