AV-unprocessed.smi:1540|AV-procd|sdf|6201|dock10
  -GOLD-   22720 6373D 1   1.00000     0.00000
 Structure written by MMmdl.
 32 32  0  0  0  0  0  0  0  0  2 V2000
  150.5630  138.9857  154.5234 C   0  0  0  0  0  0  0  0  0  0  0  0
  151.3188  138.0087  155.0469 C   0  0  0  0  0  0  0  0  0  0  0  0
  152.7907  138.1413  155.3697 C   0  0  0  0  0  0  0  0  0  0  0  0
  153.1922  137.1101  156.2630 O   0  0  0  0  0  0  0  0  0  0  0  0
  152.6883  137.2209  157.5922 C   0  0  1  0  0  0  0  0  0  0  0  0
  153.0554  135.9273  158.3349 C   0  0  0  0  0  0  0  0  0  0  0  0
  153.2832  138.4550  158.2903 C   0  0  0  0  0  0  0  0  0  0  0  0
  154.5004  138.5234  158.4593 O   0  0  0  0  0  0  0  0  0  0  0  0
  152.3876  139.3876  158.6704 N   0  0  0  0  0  0  0  0  0  0  0  0
  152.5867  140.6266  159.3043 C   0  0  0  0  0  0  0  0  0  0  0  0
  152.0860  141.8175  158.8727 C   0  0  0  0  0  0  0  0  0  0  0  0
  152.3270  143.0685  159.5809 C   0  0  0  0  0  0  0  0  0  0  0  0
  151.7212  144.3984  159.1686 C   0  0  0  0  0  0  0  0  0  0  0  0
  152.1415  145.3849  159.9608 F   0  0  0  0  0  0  0  0  0  0  0  0
  152.0758  144.6898  157.9180 F   0  0  0  0  0  0  0  0  0  0  0  0
  150.3899  144.3534  159.2229 F   0  0  0  0  0  0  0  0  0  0  0  0
  153.0781  142.8868  160.7258 C   0  0  0  0  0  0  0  0  0  0  0  0
  153.6158  141.7497  161.2183 N   0  5  0  0  0  0  0  0  0  0  0  0
  153.3915  140.5873  160.5432 C   0  0  0  0  0  0  0  0  0  0  0  0
  153.8432  139.5136  160.9429 O   0  0  0  0  0  0  0  0  0  0  0  0
  150.9784  139.9564  154.2955 H   0  0  0  0  0  0  0  0  0  0  0  0
  149.5151  138.8254  154.3164 H   0  0  0  0  0  0  0  0  0  0  0  0
  150.8690  137.0505  155.2623 H   0  0  0  0  0  0  0  0  0  0  0  0
  153.3485  138.0906  154.4343 H   0  0  0  0  0  0  0  0  0  0  0  0
  152.9821  139.1189  155.8154 H   0  0  0  0  0  0  0  0  0  0  0  0
  151.5996  137.2987  157.5610 H   0  0  0  0  0  0  0  0  0  0  0  0
  152.7081  135.9516  159.3685 H   0  0  0  0  0  0  0  0  0  0  0  0
  154.1335  135.7622  158.3463 H   0  0  0  0  0  0  0  0  0  0  0  0
  152.5963  135.0629  157.8544 H   0  0  0  0  0  0  0  0  0  0  0  0
  151.4174  139.1634  158.5033 H   0  0  0  0  0  0  0  0  0  0  0  0
  151.4777  141.8775  157.9864 H   0  0  0  0  0  0  0  0  0  0  0  0
  153.2728  143.7909  161.3414 H   0  0  0  0  0  0  0  0  0  0  0  0
  1  2  2  0  0  0  0
  1 21  1  0  0  0  0
  1 22  1  0  0  0  0
  2  3  1  0  0  0  0
  2 23  1  0  0  0  0
  3  4  1  0  0  0  0
  3 24  1  0  0  0  0
  3 25  1  0  0  0  0
  4  5  1  0  0  0  0
  5  6  1  0  0  0  0
  5  7  1  0  0  0  0
  5 26  1  0  0  0  0
  6 27  1  0  0  0  0
  6 28  1  0  0  0  0
  6 29  1  0  0  0  0
  7  8  2  0  0  0  0
  7  9  1  0  0  0  0
  9 10  1  0  0  0  0
  9 30  1  0  0  0  0
 10 19  1  0  0  0  0
 10 11  2  0  0  0  0
 11 12  1  0  0  0  0
 11 31  1  0  0  0  0
 12 13  1  0  0  0  0
 12 17  2  0  0  0  0
 13 14  1  0  0  0  0
 13 15  1  0  0  0  0
 13 16  1  0  0  0  0
 17 18  1  0  0  0  0
 17 32  1  0  0  0  0
 18 19  1  0  0  0  0
 19 20  2  0  0  0  0
M  CHG  1  18  -1
M  END
> <s_m_source_file>
AV-unprocessed.smi

> <i_m_source_file_index>
1540

> <i_lp_mmshare_version>
43012

> <i_f3d_flags>
0

> <s_epik_input>
W0NIMl09W0NIXVtDSDJdT1tDQEhdKFtDSDNdKUMoPU8pW05IXWMxW2NIXWMoQyhGKShGKUYpW2NIXVtuSF1jMT1P

> <s_epik_cmdline>
J2VwaWtfcHl0aG9uJywgJy1waCcsICc3LjAnLCAnLXRuJywgJzgnLCAnLW1hJywgJzIwMCcsICctbWV0YWxfYmluZGluZycsICctaW1hZScsICc8aW5maWxlLm1hZT4nLCAnLW9tYWUnLCAnPG91dGZpbGUubWFlPic=

> <r_epik_Ionization_Penalty>
2.56803

> <r_epik_Ionization_Penalty_Charging>
0.0609694

> <r_epik_Ionization_Penalty_Neutral>
2.50706

> <r_epik_State_Penalty>
2.67253

> <r_epik_Charging_Adjusted_Penalty>
2.7335

> <i_epik_Tot_Q>
-1

> <i_epik_Tot_abs_Q>
1

> <r_epik_Metal_State_Penalty>
0.517713

> <b_epik_Metal_Only>
0

> <s_lp_Force_Field>
OPLS_2005

> <r_lp_Energy>
20.9633

> <b_lp_Chiralities_Consistent>
1

> <s_lp_Variant>
AV-unprocessed.smi:1540-4

> <Gold.Version>
5.8.1

> <Gold.Id.Protein>
6NUR|6NUR_protein|mol2

> <Gold.PLP.Fitness>
45.6462

> <Gold.PLP.PLP>
-42.9689

> <Gold.PLP.part.hbond>
-1.7722

> <Gold.PLP.part.metal>
0.0000

> <Gold.PLP.part.buried>
-4.9407

> <Gold.PLP.part.nonpolar>
-35.8622

> <Gold.PLP.part.repulsive>
0.0923

> <Gold.PLP.ligand.clash>
0.0000

> <Gold.PLP.ligand.torsion>
0.7255

> <Gold.PLP.Chemscore.Hbond>
1.3352

> <Gold.PLP.Chemscore.CHOScore>
0.0000

> <Gold.PLP.Chemscore.Metal>
0.0000

> <Gold.Chemscore.Hbonds>
donor molecule, donor type, donor heavy atom, donor atom, acceptor molecule, acceptor atom, score
      P1  H  7997  8009       L1     8  1.00
      P1  H 10752 10764       L1     4  0.62

> <Gold.PLP.Chemscore.Internal.Correction>
0.1227

> <Gold.Rescore>
     Score         DG    S(hbond)    S(metal)    S(lipo)     H(rot)  DE(clash)    DE(int)     intcor
     10.87     -14.32       1.24        0.00      78.99       1.77       0.01       3.43       ----

> <Gold.Chemscore.Fitness>
10.8742

> <Gold.Chemscore.DG>
-14.3199

> <Gold.Chemscore.ZeroCoef>
-5.4800

> <Gold.Chemscore.Hbond>
1.2403

> <Gold.Chemscore.Metal>
0.0000

> <Gold.Chemscore.Lipo>
78.9852

> <Gold.Chemscore.Internal_Hbond>
0.0000

> <Gold.Chemscore.DEClash>
0.0108

> <Gold.Chemscore.DEInternal>
3.4349

> <Gold.Chemscore.Rot>
1.7750

> <Gold.Chemscore.Internal.Correction>
   9.000000E+99

> <Gold.Chemscore.Hbonds>
donor molecule, donor type, donor heavy atom, donor atom, acceptor molecule, acceptor atom, score
      P1  H  7997  8009       L1     8  0.64
      P1  H 10752 10764       L1     4  0.31

> <Gold.Chemscore.Hbond.Weighted>
-4.1425

> <Gold.Chemscore.Metal.Weighted>
-0.0000

> <Gold.Chemscore.Lipo.Weighted>
-9.2413

> <Gold.Chemscore.Internal_Hbond.Weighted>
0.0000

> <Gold.Chemscore.DEClash.Weighted>
0.0108

> <Gold.Chemscore.DEInternal.Weighted>
3.4349

> <Gold.Chemscore.Rot.Weighted>
4.5439

> <Gold.Chemscore.Internal.Correction.Weighted>
   9.000000E+99

> <Gold.Protein.RotatedTorsions>
[ 6907 6896 6895 6894 ] final  -85.35 input  -60.11 | X-H torsion
[ 7974 7965 7964 7962 ] final  171.04 input  175.53 | X-H torsion
[ 8008 7997 7996 7995 ] final  111.64 input   59.86 | X-H torsion
[ 10167 10162 10161 10158 ] final  -14.80 input  -65.29 | X-H torsion
[ 10718 10713 10712 10709 ] final  -43.61 input   66.30 | X-H torsion
[ 10763 10752 10751 10750 ] final  -20.65 input  -60.55 | X-H torsion
[ 11005 11000 10999 10996 ] final -152.08 input  -57.11 | X-H torsion

> <Gold.Protein.ActiveResidues>
 VAL166  LYS551  ARG553  GLY616  TRP617  ASP618  TYR619  PRO620  LYS621  CYS622 
 ASP623  PHE694  ASN695  SER759  ASP760  ASP761  ALA762  ILE779  LEU786  VAL792 
 PHE793  MET794  SER795  GLU796  ALA797  LYS798  CYS799  TRP800  GLU811  SER814 

> <Gold.Protein.RotatedAtoms>
  150.6871  134.3218  159.4789 H   0  0  0  0  0  0  0  0  0  0  0  0  # atno 6907 bound_to 6896
  152.1092  134.9284  160.0576 H   0  0  0  0  0  0  0  0  0  0  0  0  # atno 6908 bound_to 6896
  152.0533  133.3994  159.4423 H   0  0  0  0  0  0  0  0  0  0  0  0  # atno 6909 bound_to 6896
  144.7306  139.9291  143.6424 H   0  0  0  0  0  0  0  0  0  0  0  0  # atno 7974 bound_to 7965
  156.2138  140.3015  155.9792 H   0  0  0  0  0  0  0  0  0  0  0  0  # atno 8008 bound_to 7997
  155.2657  140.0431  157.3019 H   0  0  0  0  0  0  0  0  0  0  0  0  # atno 8009 bound_to 7997
  154.5738  140.2355  155.8161 H   0  0  0  0  0  0  0  0  0  0  0  0  # atno 8010 bound_to 7997
  140.7207  143.5284  150.9549 H   0  0  0  0  0  0  0  0  0  0  0  0  # atno 10167 bound_to 10162
  156.2472  130.4185  149.8691 H   0  0  0  0  0  0  0  0  0  0  0  0  # atno 10718 bound_to 10713
  153.6237  135.6992  153.5301 H   0  0  0  0  0  0  0  0  0  0  0  0  # atno 10763 bound_to 10752
  153.2916  135.4155  155.1172 H   0  0  0  0  0  0  0  0  0  0  0  0  # atno 10764 bound_to 10752
  154.8537  135.3627  154.5778 H   0  0  0  0  0  0  0  0  0  0  0  0  # atno 10765 bound_to 10752
  140.7228  134.3708  157.5180 H   0  0  0  0  0  0  0  0  0  0  0  0  # atno 11005 bound_to 11000
  146.0871  139.3860  143.0429 LP  0  0  0  0  0  0  0  0  0  0  0  0  # atno 17320 bound_to 7965
  145.7762  140.9876  143.1123 LP  0  0  0  0  0  0  0  0  0  0  0  0  # atno 17321 bound_to 7965
  139.9004  143.6843  152.3132 LP  0  0  0  0  0  0  0  0  0  0  0  0  # atno 17342 bound_to 10162
  139.7190  144.7606  151.0986 LP  0  0  0  0  0  0  0  0  0  0  0  0  # atno 17343 bound_to 10162
  156.6252  130.8643  151.3484 LP  0  0  0  0  0  0  0  0  0  0  0  0  # atno 17370 bound_to 10713
  157.7200  130.9546  150.1401 LP  0  0  0  0  0  0  0  0  0  0  0  0  # atno 17371 bound_to 10713
  139.8844  134.8966  156.2705 LP  0  0  0  0  0  0  0  0  0  0  0  0  # atno 17394 bound_to 11000
  140.9989  133.7163  156.0929 LP  0  0  0  0  0  0  0  0  0  0  0  0  # atno 17395 bound_to 11000

$$$$
