AV-unprocessed.smi:2151|AV-procd|sdf|8760|dock1
  -GOLD-   2272011533D 1   1.00000     0.00000
 Structure written by MMmdl.
 39 40  0  0  0  0  0  0  0  0  1 V2000
  148.7295  138.6782  154.1631 C   0  0  0  0  0  0  0  0  0  0  0  0
  149.6313  139.8712  154.5127 C   0  0  2  0  0  0  0  0  0  0  0  0
  150.2123  139.6527  155.8362 N   0  0  0  0  0  0  0  0  0  0  0  0
  150.8614  140.5674  156.5733 C   0  0  0  0  0  0  0  0  0  0  0  0
  151.0762  141.7186  156.1918 O   0  0  0  0  0  0  0  0  0  0  0  0
  151.3459  140.0958  157.9516 C   0  0  0  0  0  0  0  0  0  0  0  0
  152.1721  141.0964  158.6476 N   0  0  0  0  0  0  0  0  0  0  0  0
  151.6094  142.3736  158.8385 C   0  0  0  0  0  0  0  0  0  0  0  0
  152.2629  143.3784  159.4528 C   0  0  0  0  0  0  0  0  0  0  0  0
  151.6041  144.7260  159.7040 C   0  0  0  0  0  0  0  0  0  0  0  0
  152.4457  145.5669  160.3057 F   0  0  0  0  0  0  0  0  0  0  0  0
  151.2306  145.2702  158.5468 F   0  0  0  0  0  0  0  0  0  0  0  0
  150.5205  144.5976  160.4709 F   0  0  0  0  0  0  0  0  0  0  0  0
  153.5916  143.0761  159.9476 C   0  0  0  0  0  0  0  0  0  0  0  0
  154.1392  141.8554  159.7859 C   0  0  0  0  0  0  0  0  0  0  0  0
  153.4207  140.7771  159.1034 C   0  0  0  0  0  0  0  0  0  0  0  0
  153.9092  139.6567  158.9525 O   0  0  0  0  0  0  0  0  0  0  0  0
  148.8558  141.2048  154.4813 C   0  0  1  0  0  0  0  0  0  0  0  0
  147.6544  141.2362  153.5329 C   0  0  0  0  0  0  0  0  0  0  0  0
  146.8150  142.3354  154.1412 C   0  0  0  0  0  0  0  0  0  0  0  0
  147.0141  142.0865  155.6329 C   0  0  0  0  0  0  0  0  0  0  0  0
  148.3048  141.4954  155.7645 O   0  0  0  0  0  0  0  0  0  0  0  0
  148.3006  138.7878  153.1669 H   0  0  0  0  0  0  0  0  0  0  0  0
  147.9050  138.5815  154.8706 H   0  0  0  0  0  0  0  0  0  0  0  0
  149.2919  137.7441  154.1755 H   0  0  0  0  0  0  0  0  0  0  0  0
  150.4224  139.9158  153.7621 H   0  0  0  0  0  0  0  0  0  0  0  0
  150.0894  138.7328  156.2341 H   0  0  0  0  0  0  0  0  0  0  0  0
  150.4859  139.8298  158.5694 H   0  0  0  0  0  0  0  0  0  0  0  0
  151.8989  139.1653  157.8164 H   0  0  0  0  0  0  0  0  0  0  0  0
  150.6017  142.4810  158.4638 H   0  0  0  0  0  0  0  0  0  0  0  0
  154.1596  143.8422  160.4543 H   0  0  0  0  0  0  0  0  0  0  0  0
  155.1323  141.6661  160.1670 H   0  0  0  0  0  0  0  0  0  0  0  0
  149.5297  142.0223  154.2193 H   0  0  0  0  0  0  0  0  0  0  0  0
  147.9321  141.4341  152.4971 H   0  0  0  0  0  0  0  0  0  0  0  0
  147.1108  140.2909  153.5672 H   0  0  0  0  0  0  0  0  0  0  0  0
  147.2186  143.3105  153.8647 H   0  0  0  0  0  0  0  0  0  0  0  0
  145.7686  142.2979  153.8372 H   0  0  0  0  0  0  0  0  0  0  0  0
  146.9330  143.0014  156.2202 H   0  0  0  0  0  0  0  0  0  0  0  0
  146.2716  141.3789  156.0039 H   0  0  0  0  0  0  0  0  0  0  0  0
  1  2  1  0  0  0  0
  1 23  1  0  0  0  0
  1 24  1  0  0  0  0
  1 25  1  0  0  0  0
  2  3  1  0  0  0  0
  2 18  1  0  0  0  0
  2 26  1  0  0  0  0
  3  4  1  0  0  0  0
  3 27  1  0  0  0  0
  4  5  2  0  0  0  0
  4  6  1  0  0  0  0
  6  7  1  0  0  0  0
  6 28  1  0  0  0  0
  6 29  1  0  0  0  0
  7 16  1  0  0  0  0
  7  8  1  0  0  0  0
  8  9  2  0  0  0  0
  8 30  1  0  0  0  0
  9 10  1  0  0  0  0
  9 14  1  0  0  0  0
 10 11  1  0  0  0  0
 10 12  1  0  0  0  0
 10 13  1  0  0  0  0
 14 15  2  0  0  0  0
 14 31  1  0  0  0  0
 15 16  1  0  0  0  0
 15 32  1  0  0  0  0
 16 17  2  0  0  0  0
 18 22  1  0  0  0  0
 18 19  1  0  0  0  0
 18 33  1  0  0  0  0
 19 20  1  0  0  0  0
 19 34  1  0  0  0  0
 19 35  1  0  0  0  0
 20 21  1  0  0  0  0
 20 36  1  0  0  0  0
 20 37  1  0  0  0  0
 21 22  1  0  0  0  0
 21 38  1  0  0  0  0
 21 39  1  0  0  0  0
M  END
> <s_m_source_file>
AV-unprocessed.smi

> <i_m_source_file_index>
2151

> <i_lp_mmshare_version>
43012

> <i_f3d_flags>
0

> <s_epik_input>
TzFbQ0gyXVtDSDJdW0NIMl1bQ0BIXTFbQ0BIXShbQ0gzXSlbTkhdQyg9TylbQ0gyXW4yW2NIXWMoQyhGKShGKUYpW2NIXVtjSF1jMj1P

> <s_epik_cmdline>
J2VwaWtfcHl0aG9uJywgJy1waCcsICc3LjAnLCAnLXRuJywgJzgnLCAnLW1hJywgJzIwMCcsICctbWV0YWxfYmluZGluZycsICctaW1hZScsICc8aW5maWxlLm1hZT4nLCAnLW9tYWUnLCAnPG91dGZpbGUubWFlPic=

> <r_lp_tautomer_probability>
1

> <r_epik_Ionization_Penalty>
4.20109e-08

> <r_epik_Ionization_Penalty_Charging>
1.89977e-08

> <r_epik_Ionization_Penalty_Neutral>
2.30132e-08

> <r_epik_State_Penalty>
-0

> <r_epik_Charging_Adjusted_Penalty>
1.89977e-08

> <i_epik_Tot_Q>
0

> <i_epik_Tot_abs_Q>
0

> <r_epik_Metal_State_Penalty>
-0

> <b_epik_Metal_Only>
0

> <s_lp_Force_Field>
OPLS_2005

> <r_lp_Energy>
29.4657

> <b_lp_Chiralities_Consistent>
1

> <s_lp_Variant>
AV-unprocessed.smi:2151-3

> <Gold.Version>
5.8.1

> <Gold.Id.Protein>
6NUR|6NUR_protein|mol2

> <Gold.PLP.Fitness>
48.9504

> <Gold.PLP.PLP>
-47.9611

> <Gold.PLP.part.hbond>
-1.0000

> <Gold.PLP.part.metal>
0.0000

> <Gold.PLP.part.buried>
-6.5622

> <Gold.PLP.part.nonpolar>
-39.0518

> <Gold.PLP.part.repulsive>
0.2306

> <Gold.PLP.ligand.clash>
0.0000

> <Gold.PLP.ligand.torsion>
1.0367

> <Gold.PLP.Chemscore.Hbond>
0.9913

> <Gold.PLP.Chemscore.CHOScore>
0.0000

> <Gold.PLP.Chemscore.Metal>
0.0000

> <Gold.Chemscore.Hbonds>
donor molecule, donor type, donor heavy atom, donor atom, acceptor molecule, acceptor atom, score
      P1  H  7997  8008       L1    17  0.80

> <Gold.PLP.Chemscore.Internal.Correction>
0.0890

> <Gold.Rescore>
     Score         DG    S(hbond)    S(metal)    S(lipo)     H(rot)  DE(clash)    DE(int)     intcor
     11.44     -14.84       0.91        0.00      93.85       1.82       0.54       2.87       ----

> <Gold.Chemscore.Fitness>
11.4366

> <Gold.Chemscore.DG>
-14.8444

> <Gold.Chemscore.ZeroCoef>
-5.4800

> <Gold.Chemscore.Hbond>
0.9133

> <Gold.Chemscore.Metal>
0.0000

> <Gold.Chemscore.Lipo>
93.8510

> <Gold.Chemscore.Internal_Hbond>
0.0000

> <Gold.Chemscore.DEClash>
0.5422

> <Gold.Chemscore.DEInternal>
2.8656

> <Gold.Chemscore.Rot>
1.8228

> <Gold.Chemscore.Internal.Correction>
   9.000000E+99

> <Gold.Chemscore.Hbonds>
donor molecule, donor type, donor heavy atom, donor atom, acceptor molecule, acceptor atom, score
      P1  H  7997  8008       L1    17  0.11

> <Gold.Chemscore.Hbond.Weighted>
-3.0503

> <Gold.Chemscore.Metal.Weighted>
-0.0000

> <Gold.Chemscore.Lipo.Weighted>
-10.9806

> <Gold.Chemscore.Internal_Hbond.Weighted>
0.0000

> <Gold.Chemscore.DEClash.Weighted>
0.5422

> <Gold.Chemscore.DEInternal.Weighted>
2.8656

> <Gold.Chemscore.Rot.Weighted>
4.6665

> <Gold.Chemscore.Internal.Correction.Weighted>
   9.000000E+99

> <Gold.Protein.RotatedTorsions>
[ 6907 6896 6895 6894 ] final -140.70 input  -60.11 | X-H torsion
[ 7974 7965 7964 7962 ] final -125.27 input  175.53 | X-H torsion
[ 8008 7997 7996 7995 ] final  -95.86 input   59.86 | X-H torsion
[ 10167 10162 10161 10158 ] final -128.33 input  -65.29 | X-H torsion
[ 10718 10713 10712 10709 ] final -134.38 input   66.30 | X-H torsion
[ 10763 10752 10751 10750 ] final   37.58 input  -60.55 | X-H torsion
[ 11005 11000 10999 10996 ] final   91.08 input  -57.11 | X-H torsion

> <Gold.Protein.ActiveResidues>
 VAL166  LYS551  ARG553  GLY616  TRP617  ASP618  TYR619  PRO620  LYS621  CYS622 
 ASP623  PHE694  ASN695  SER759  ASP760  ASP761  ALA762  ILE779  LEU786  VAL792 
 PHE793  MET794  SER795  GLU796  ALA797  LYS798  CYS799  TRP800  GLU811  SER814 

> <Gold.Protein.RotatedAtoms>
  151.0641  133.5519  159.2631 H   0  0  0  0  0  0  0  0  0  0  0  0  # atno 6907 bound_to 6896
  151.2483  135.0612  159.9062 H   0  0  0  0  0  0  0  0  0  0  0  0  # atno 6908 bound_to 6896
  152.5402  134.0406  159.8119 H   0  0  0  0  0  0  0  0  0  0  0  0  # atno 6909 bound_to 6896
  144.9993  140.7806  143.4506 H   0  0  0  0  0  0  0  0  0  0  0  0  # atno 7974 bound_to 7965
  154.7669  140.0476  157.1019 H   0  0  0  0  0  0  0  0  0  0  0  0  # atno 8008 bound_to 7997
  154.9869  140.3108  155.4903 H   0  0  0  0  0  0  0  0  0  0  0  0  # atno 8009 bound_to 7997
  156.2914  140.2226  156.4971 H   0  0  0  0  0  0  0  0  0  0  0  0  # atno 8010 bound_to 7997
  139.9514  143.6051  152.2474 H   0  0  0  0  0  0  0  0  0  0  0  0  # atno 10167 bound_to 10162
  156.2549  130.7175  151.1088 H   0  0  0  0  0  0  0  0  0  0  0  0  # atno 10718 bound_to 10713
  153.0032  135.6274  154.2167 H   0  0  0  0  0  0  0  0  0  0  0  0  # atno 10763 bound_to 10752
  154.1910  135.2808  155.3023 H   0  0  0  0  0  0  0  0  0  0  0  0  # atno 10764 bound_to 10752
  154.5760  135.5662  153.7199 H   0  0  0  0  0  0  0  0  0  0  0  0  # atno 10765 bound_to 10752
  139.8845  134.8652  156.3376 H   0  0  0  0  0  0  0  0  0  0  0  0  # atno 11005 bound_to 11000
  145.2175  139.2175  143.5110 LP  0  0  0  0  0  0  0  0  0  0  0  0  # atno 17320 bound_to 7965
  146.3448  140.2026  142.8589 LP  0  0  0  0  0  0  0  0  0  0  0  0  # atno 17321 bound_to 7965
  139.6625  144.7662  151.1935 LP  0  0  0  0  0  0  0  0  0  0  0  0  # atno 17342 bound_to 10162
  140.7581  143.5988  150.8721 LP  0  0  0  0  0  0  0  0  0  0  0  0  # atno 17343 bound_to 10162
  157.7228  131.0670  150.6061 LP  0  0  0  0  0  0  0  0  0  0  0  0  # atno 17370 bound_to 10713
  156.6144  130.4388  149.5846 LP  0  0  0  0  0  0  0  0  0  0  0  0  # atno 17371 bound_to 10713
  140.9680  133.7345  156.0495 LP  0  0  0  0  0  0  0  0  0  0  0  0  # atno 17394 bound_to 11000
  140.7906  134.3622  157.5465 LP  0  0  0  0  0  0  0  0  0  0  0  0  # atno 17395 bound_to 11000

$$$$
