AV-unprocessed.smi:19|AV-procd|sdf|112|dock4
  -GOLD-   2262015273D 1   1.00000     0.00000
 Structure written by MMmdl.
 57 60  0  0  0  0  0  0  0  0  1 V2000
  154.8353  139.9094  160.2847 C   0  0  0  0  0  0  0  0  0  0  0  0
  154.8446  141.0972  161.0570 O   0  0  0  0  0  0  0  0  0  0  0  0
  153.5458  141.6398  161.2360 C   0  0  0  0  0  0  0  0  0  0  0  0
  153.0342  142.2326  159.9156 C   0  0  1  0  0  0  0  0  0  0  0  0
  152.4306  141.1742  158.9739 C   0  0  0  0  0  0  0  0  0  0  0  0
  151.8790  141.8159  157.7865 N   0  0  0  0  0  0  0  0  0  0  0  0
  151.5984  140.9740  156.7588 C   0  0  0  0  0  0  0  0  0  0  0  0
  152.4952  140.0162  156.4002 N   0  0  0  0  0  0  0  0  0  0  0  0
  152.2337  139.1924  155.3815 C   0  0  0  0  0  0  0  0  0  0  0  0
  151.1527  139.1482  154.6015 N   0  0  0  0  0  0  0  0  0  0  0  0
  150.2406  140.0947  154.9634 C   0  0  0  0  0  0  0  0  0  0  0  0
  150.3840  141.0412  156.0179 C   0  0  0  0  0  0  0  0  0  0  0  0
  149.2506  141.8422  156.0890 N   0  0  0  0  0  0  0  0  0  0  0  0
  148.4890  141.4044  155.1246 C   0  0  0  0  0  0  0  0  0  0  0  0
  148.9973  140.3447  154.4066 N   0  0  0  0  0  0  0  0  0  0  0  0
  148.3610  139.6689  153.2832 C   0  0  0  0  0  0  0  0  0  0  0  0
  147.1304  138.7879  153.6543 C   0  0  0  0  0  0  0  0  0  0  0  0
  146.4666  138.2050  152.3737 C   0  0  0  0  0  0  0  0  0  0  0  0
  146.2005  139.2016  151.4075 O   0  0  0  0  0  0  0  0  0  0  0  0
  147.5702  137.6270  154.5830 C   0  0  0  0  0  0  0  0  0  0  0  0
  146.3863  136.9080  155.2572 C   0  0  0  0  0  0  0  0  0  0  0  0
  145.5819  137.8417  155.9654 O   0  0  0  0  0  0  0  0  0  0  0  0
  145.0136  138.8317  155.1183 C   0  0  0  0  0  0  0  0  0  0  0  0
  146.1331  139.6579  154.4613 C   0  0  0  0  0  0  0  0  0  0  0  0
  150.9077  142.8600  158.1038 C   0  0  0  0  0  0  0  0  0  0  0  0
  151.5106  143.8954  159.0732 C   0  0  2  0  0  0  0  0  0  0  0  0
  152.5174  144.8466  158.4029 C   0  0  0  0  0  0  0  0  0  0  0  0
  152.0677  143.2397  160.2145 O   0  0  0  0  0  0  0  0  0  0  0  0
  155.8522  139.5310  160.1816 H   0  0  0  0  0  0  0  0  0  0  0  0
  154.4417  140.0928  159.2841 H   0  0  0  0  0  0  0  0  0  0  0  0
  154.2344  139.1337  160.7612 H   0  0  0  0  0  0  0  0  0  0  0  0
  152.8583  140.8690  161.5879 H   0  0  0  0  0  0  0  0  0  0  0  0
  153.5782  142.4188  161.9993 H   0  0  0  0  0  0  0  0  0  0  0  0
  153.8863  142.7001  159.4219 H   0  0  0  0  0  0  0  0  0  0  0  0
  153.1937  140.4409  158.7167 H   0  0  0  0  0  0  0  0  0  0  0  0
  151.6291  140.6314  159.4768 H   0  0  0  0  0  0  0  0  0  0  0  0
  153.0004  138.4650  155.1590 H   0  0  0  0  0  0  0  0  0  0  0  0
  147.5244  141.8424  154.9131 H   0  0  0  0  0  0  0  0  0  0  0  0
  148.0663  140.4368  152.5668 H   0  0  0  0  0  0  0  0  0  0  0  0
  149.1165  139.0705  152.7728 H   0  0  0  0  0  0  0  0  0  0  0  0
  147.1003  137.4430  151.9198 H   0  0  0  0  0  0  0  0  0  0  0  0
  145.5224  137.7119  152.5976 H   0  0  0  0  0  0  0  0  0  0  0  0
  145.4102  138.9685  150.9446 H   0  0  0  0  0  0  0  0  0  0  0  0
  148.1642  136.8972  154.0320 H   0  0  0  0  0  0  0  0  0  0  0  0
  148.2193  138.0178  155.3680 H   0  0  0  0  0  0  0  0  0  0  0  0
  145.7806  136.3632  154.5326 H   0  0  0  0  0  0  0  0  0  0  0  0
  146.7594  136.1676  155.9647 H   0  0  0  0  0  0  0  0  0  0  0  0
  144.3644  138.3693  154.3741 H   0  0  0  0  0  0  0  0  0  0  0  0
  144.3802  139.4821  155.7216 H   0  0  0  0  0  0  0  0  0  0  0  0
  146.6682  140.1839  155.2531 H   0  0  0  0  0  0  0  0  0  0  0  0
  145.6993  140.4363  153.8331 H   0  0  0  0  0  0  0  0  0  0  0  0
  150.5710  143.3576  157.1932 H   0  0  0  0  0  0  0  0  0  0  0  0
  150.0314  142.3991  158.5618 H   0  0  0  0  0  0  0  0  0  0  0  0
  150.6944  144.5138  159.4475 H   0  0  0  0  0  0  0  0  0  0  0  0
  152.0312  145.4365  157.6253 H   0  0  0  0  0  0  0  0  0  0  0  0
  153.3422  144.3117  157.9332 H   0  0  0  0  0  0  0  0  0  0  0  0
  152.9383  145.5420  159.1292 H   0  0  0  0  0  0  0  0  0  0  0  0
  1  2  1  0  0  0  0
  1 29  1  0  0  0  0
  1 30  1  0  0  0  0
  1 31  1  0  0  0  0
  2  3  1  0  0  0  0
  3  4  1  0  0  0  0
  3 32  1  0  0  0  0
  3 33  1  0  0  0  0
  4 28  1  0  0  0  0
  4  5  1  0  0  0  0
  4 34  1  0  0  0  0
  5  6  1  0  0  0  0
  5 35  1  0  0  0  0
  5 36  1  0  0  0  0
  6  7  1  0  0  0  0
  6 25  1  0  0  0  0
  7 12  1  0  0  0  0
  7  8  2  0  0  0  0
  8  9  1  0  0  0  0
  9 10  2  0  0  0  0
  9 37  1  0  0  0  0
 10 11  1  0  0  0  0
 11 15  1  0  0  0  0
 11 12  2  0  0  0  0
 12 13  1  0  0  0  0
 13 14  2  0  0  0  0
 14 15  1  0  0  0  0
 14 38  1  0  0  0  0
 15 16  1  0  0  0  0
 16 17  1  0  0  0  0
 16 39  1  0  0  0  0
 16 40  1  0  0  0  0
 17 24  1  0  0  0  0
 17 18  1  0  0  0  0
 17 20  1  0  0  0  0
 18 19  1  0  0  0  0
 18 41  1  0  0  0  0
 18 42  1  0  0  0  0
 19 43  1  0  0  0  0
 20 21  1  0  0  0  0
 20 44  1  0  0  0  0
 20 45  1  0  0  0  0
 21 22  1  0  0  0  0
 21 46  1  0  0  0  0
 21 47  1  0  0  0  0
 22 23  1  0  0  0  0
 23 24  1  0  0  0  0
 23 48  1  0  0  0  0
 23 49  1  0  0  0  0
 24 50  1  0  0  0  0
 24 51  1  0  0  0  0
 25 26  1  0  0  0  0
 25 52  1  0  0  0  0
 25 53  1  0  0  0  0
 26 27  1  0  0  0  0
 26 28  1  0  0  0  0
 26 54  1  0  0  0  0
 27 55  1  0  0  0  0
 27 56  1  0  0  0  0
 27 57  1  0  0  0  0
M  END
> <s_m_source_file>
AV-unprocessed.smi

> <i_m_source_file_index>
19

> <i_lp_mmshare_version>
43012

> <i_f3d_flags>
0

> <s_epik_input>
W0NIM11PW0NIMl1bQ0BASF0xW0NIMl1OKFtDSDJdW0NASF0oTzEpW0NIM10pYyhuW2NIXW4yKWMoYzIzKW5bY0hdbjNbQ0gyXUM0KFtDSDJdW09IXSlbQ0gyXVtDSDJdT1tDSDJdW0NIMl00

> <s_epik_cmdline>
J2VwaWtfcHl0aG9uJywgJy1waCcsICc3LjAnLCAnLXRuJywgJzgnLCAnLW1hJywgJzIwMCcsICctbWV0YWxfYmluZGluZycsICctaW1hZScsICc8aW5maWxlLm1hZT4nLCAnLW9tYWUnLCAnPG91dGZpbGUubWFlPic=

> <r_lp_tautomer_probability>
1

> <r_epik_Ionization_Penalty>
6.20357e-05

> <r_epik_Ionization_Penalty_Charging>
0

> <r_epik_Ionization_Penalty_Neutral>
6.20357e-05

> <r_epik_State_Penalty>
-0

> <r_epik_Charging_Adjusted_Penalty>
0

> <i_epik_Tot_Q>
0

> <i_epik_Tot_abs_Q>
0

> <r_epik_Metal_State_Penalty>
-0

> <b_epik_Metal_Only>
0

> <s_lp_Force_Field>
OPLS_2005

> <r_lp_Energy>
39.077

> <b_lp_Chiralities_Consistent>
1

> <s_lp_Variant>
AV-unprocessed.smi:19-4

> <Gold.Version>
5.8.1

> <Gold.Id.Protein>
6NUR|6NUR_protein|mol2

> <Gold.PLP.Fitness>
52.1809

> <Gold.PLP.PLP>
-47.1699

> <Gold.PLP.part.hbond>
-4.8309

> <Gold.PLP.part.metal>
0.0000

> <Gold.PLP.part.buried>
-0.5628

> <Gold.PLP.part.nonpolar>
-42.7516

> <Gold.PLP.part.repulsive>
1.5066

> <Gold.PLP.ligand.clash>
0.0000

> <Gold.PLP.ligand.torsion>
0.6576

> <Gold.PLP.Chemscore.Hbond>
2.0000

> <Gold.PLP.Chemscore.CHOScore>
0.0000

> <Gold.PLP.Chemscore.Metal>
0.0000

> <Gold.Chemscore.Hbonds>
donor molecule, donor type, donor heavy atom, donor atom, acceptor molecule, acceptor atom, score
      L1  H    19    43       P1 10171  1.00
      P1  H  7997  8010       L1     8  1.00

> <Gold.PLP.Chemscore.Internal.Correction>
0.3261

> <Gold.Rescore>
     Score         DG    S(hbond)    S(metal)    S(lipo)     H(rot)  DE(clash)    DE(int)     intcor
     12.10     -15.47       1.85        0.00      95.51       2.87       1.14       2.23       ----

> <Gold.Chemscore.Fitness>
12.0989

> <Gold.Chemscore.DG>
-15.4700

> <Gold.Chemscore.ZeroCoef>
-5.4800

> <Gold.Chemscore.Hbond>
1.8471

> <Gold.Chemscore.Metal>
0.0000

> <Gold.Chemscore.Lipo>
95.5146

> <Gold.Chemscore.Internal_Hbond>
0.0000

> <Gold.Chemscore.DEClash>
1.1422

> <Gold.Chemscore.DEInternal>
2.2289

> <Gold.Chemscore.Rot>
2.8729

> <Gold.Chemscore.Internal.Correction>
   9.000000E+99

> <Gold.Chemscore.Hbonds>
donor molecule, donor type, donor heavy atom, donor atom, acceptor molecule, acceptor atom, score
      L1  H    19    43       P1 10171  1.00
      P1  H  7997  8010       L1     8  0.30

> <Gold.Chemscore.Hbond.Weighted>
-6.1694

> <Gold.Chemscore.Metal.Weighted>
-0.0000

> <Gold.Chemscore.Lipo.Weighted>
-11.1752

> <Gold.Chemscore.Internal_Hbond.Weighted>
0.0000

> <Gold.Chemscore.DEClash.Weighted>
1.1422

> <Gold.Chemscore.DEInternal.Weighted>
2.2289

> <Gold.Chemscore.Rot.Weighted>
7.3546

> <Gold.Chemscore.Internal.Correction.Weighted>
   9.000000E+99

> <Gold.Protein.RotatedTorsions>
[ 6907 6896 6895 6894 ] final   -3.84 input  -60.11 | X-H torsion
[ 7974 7965 7964 7962 ] final -107.80 input  175.53 | X-H torsion
[ 8008 7997 7996 7995 ] final   79.82 input   59.86 | X-H torsion
[ 10167 10162 10161 10158 ] final -134.98 input  -65.29 | X-H torsion
[ 10718 10713 10712 10709 ] final  149.87 input   66.30 | X-H torsion
[ 10763 10752 10751 10750 ] final  128.33 input  -60.55 | X-H torsion
[ 11005 11000 10999 10996 ] final   10.16 input  -57.11 | X-H torsion

> <Gold.Protein.ActiveResidues>
 VAL166  LYS551  ARG553  GLY616  TRP617  ASP618  TYR619  PRO620  LYS621  CYS622 
 ASP623  PHE694  ASN695  SER759  ASP760  ASP761  ALA762  ILE779  LEU786  VAL792 
 PHE793  MET794  SER795  GLU796  ALA797  LYS798  CYS799  TRP800  GLU811  SER814 

> <Gold.Protein.RotatedAtoms>
  151.5072  135.1064  159.9844 H   0  0  0  0  0  0  0  0  0  0  0  0  # atno 6907 bound_to 6896
  152.4677  133.7955  159.6935 H   0  0  0  0  0  0  0  0  0  0  0  0  # atno 6908 bound_to 6896
  150.8669  133.7498  159.2999 H   0  0  0  0  0  0  0  0  0  0  0  0  # atno 6909 bound_to 6896
  145.2008  140.9055  143.3371 H   0  0  0  0  0  0  0  0  0  0  0  0  # atno 7974 bound_to 7965
  155.8750  140.3447  155.5848 H   0  0  0  0  0  0  0  0  0  0  0  0  # atno 8008 bound_to 7997
  155.7784  140.0855  157.2091 H   0  0  0  0  0  0  0  0  0  0  0  0  # atno 8009 bound_to 7997
  154.4020  140.1505  156.3011 H   0  0  0  0  0  0  0  0  0  0  0  0  # atno 8010 bound_to 7997
  139.8825  143.6821  152.2625 H   0  0  0  0  0  0  0  0  0  0  0  0  # atno 10167 bound_to 10162
  157.2906  131.0852  151.1465 H   0  0  0  0  0  0  0  0  0  0  0  0  # atno 10718 bound_to 10713
  153.7237  135.3249  155.3272 H   0  0  0  0  0  0  0  0  0  0  0  0  # atno 10763 bound_to 10752
  154.8348  135.4505  154.1191 H   0  0  0  0  0  0  0  0  0  0  0  0  # atno 10764 bound_to 10752
  153.2319  135.6961  153.7961 H   0  0  0  0  0  0  0  0  0  0  0  0  # atno 10765 bound_to 10752
  140.5177  134.0590  155.7835 H   0  0  0  0  0  0  0  0  0  0  0  0  # atno 11005 bound_to 11000
  144.9950  139.3653  143.6196 LP  0  0  0  0  0  0  0  0  0  0  0  0  # atno 17320 bound_to 7965
  146.3418  139.9149  142.8775 LP  0  0  0  0  0  0  0  0  0  0  0  0  # atno 17321 bound_to 7965
  139.7183  144.7607  151.0998 LP  0  0  0  0  0  0  0  0  0  0  0  0  # atno 17342 bound_to 10162
  140.7742  143.5241  150.9501 LP  0  0  0  0  0  0  0  0  0  0  0  0  # atno 17343 bound_to 10162
  157.2863  130.6774  149.6091 LP  0  0  0  0  0  0  0  0  0  0  0  0  # atno 17370 bound_to 10713
  155.9667  130.4434  150.5422 LP  0  0  0  0  0  0  0  0  0  0  0  0  # atno 17371 bound_to 10713
  141.1351  133.9235  157.2450 LP  0  0  0  0  0  0  0  0  0  0  0  0  # atno 17394 bound_to 11000
  139.9623  135.0151  156.9295 LP  0  0  0  0  0  0  0  0  0  0  0  0  # atno 17395 bound_to 11000

$$$$
