#       Name:                AV-unprocessed.smi:1559
#       Creating user name   scv26
#       Creation time:       Fri Mar 27 06:46:37 2020


#       File generated by GOLD software.
#

@<TRIPOS>MOLECULE
AV-unprocessed.smi:1559
    57    58     1
SMALL
NO_CHARGES


@<TRIPOS>ATOM
      1 ****        -4.6309  -2.9897  -0.4053 C.3            1 S1                 0.0000
      2 ****        -3.2513  -3.2728  -0.8794 N.4            1 S1                 1.0000
      3 ****        -2.9048  -4.6991  -0.6477 C.3            1 S1                 0.0000
      4 ****        -2.9110  -2.7457  -2.2496 C.3            1 S1                 0.0000
      5 ****        -3.6059  -3.5628  -3.3639 C.3            1 S1                 0.0000
      6 ****        -3.3671  -1.2726  -2.3950 C.3            1 S1                 0.0000
      7 ****        -1.3730  -2.7981  -2.4908 C.3            1 S1                 0.0000
      8 ****        -0.5817  -2.2682  -1.3794 N.am           1 S1                 0.0000
      9 ****        -0.0994  -1.0204  -1.2912 C.2            1 S1                 0.0000
     10 ****        -0.2877  -0.1582  -2.1485 O.2            1 S1                 0.0000
     11 ****         0.6153  -0.8545  -0.1655 N.am           1 S1                 0.0000
     12 ****         1.2645   0.3200   0.3016 C.ar           1 S1                 0.0000
     13 ****         0.9095   1.6338  -0.0826 C.ar           1 S1                 0.0000
     14 ****         1.6194   2.7197   0.4643 C.ar           1 S1                 0.0000
     15 ****         2.6606   2.4723   1.3899 C.ar           1 S1                 0.0000
     16 ****         3.3860   3.5472   1.9483 N.3            1 S1                 0.0000
     17 ****         4.6049   3.2385   2.6940 C.3            1 S1                 0.0000
     18 ****         5.4062   4.5225   2.9667 C.3            1 S1                 0.0000
     19 ****         4.5799   5.4706   3.6337 O.3            1 S1                 0.0000
     20 ****         3.4560   5.8413   2.8425 C.3            1 S1                 0.0000
     21 ****         2.5851   4.6045   2.5608 C.3            1 S1                 0.0000
     22 ****         2.9911   1.2113   1.7622 N.ar           1 S1                 0.0000
     23 ****         2.3080   0.1735   1.2366 C.ar           1 S1                 0.0000
     24 ****        -5.3811  -3.4251  -1.0656 H              1 S1                 0.0000
     25 ****        -4.8218  -1.9210  -0.3164 H              1 S1                 0.0000
     26 ****        -4.7857  -3.4082   0.5898 H              1 S1                 0.0000
     27 ****        -3.5466  -5.3659  -1.2240 H              1 S1                 0.0000
     28 ****        -3.0352  -4.9506   0.4053 H              1 S1                 0.0000
     29 ****        -1.8676  -4.9213  -0.8926 H              1 S1                 0.0000
     30 ****        -3.3839  -3.1456  -4.3470 H              1 S1                 0.0000
     31 ****        -4.6904  -3.5635  -3.2572 H              1 S1                 0.0000
     32 ****        -3.2742  -4.6008  -3.3837 H              1 S1                 0.0000
     33 ****        -2.9839  -0.8279  -3.3143 H              1 S1                 0.0000
     34 ****        -3.0193  -0.6553  -1.5663 H              1 S1                 0.0000
     35 ****        -4.4525  -1.1805  -2.4414 H              1 S1                 0.0000
     36 ****        -1.0478  -3.8265  -2.6479 H              1 S1                 0.0000
     37 ****        -1.1144  -2.2865  -3.4200 H              1 S1                 0.0000
     38 ****        -0.3582  -2.9117  -0.6344 H              1 S1                 0.0000
     39 ****         0.7609  -1.6800   0.3972 H              1 S1                 0.0000
     40 ****         0.1053   1.8325  -0.7739 H              1 S1                 0.0000
     41 ****         1.3654   3.7236   0.1588 H              1 S1                 0.0000
     42 ****         4.3394   2.7574   3.6362 H              1 S1                 0.0000
     43 ****         5.2251   2.5384   2.1327 H              1 S1                 0.0000
     44 ****         6.2696   4.2997   3.5935 H              1 S1                 0.0000
     45 ****         5.7888   4.9472   2.0372 H              1 S1                 0.0000
     46 ****         2.8774   6.5929   3.3795 H              1 S1                 0.0000
     47 ****         3.7892   6.3021   1.9111 H              1 S1                 0.0000
     48 ****         1.7486   4.8974   1.9283 H              1 S1                 0.0000
     49 ****         2.1610   4.2281   3.4924 H              1 S1                 0.0000
     50 ****         2.6109  -0.8080   1.5715 H              1 S1                 0.0000
     51 ****        -2.6538  -2.7526  -0.2527 H              1 S1                 0.0000
     52 ****        -0.8252  -0.3729  -2.9639 LP             1 S1                 0.0000
     53 ****         0.0968   0.7572  -2.0298 LP             1 S1                 0.0000
     54 ****         3.7473   3.9411   1.1032 LP             1 S1                 0.0000
     55 ****         5.1203   6.2884   3.8317 LP             1 S1                 0.0000
     56 ****         4.2548   5.0705   4.4906 LP             1 S1                 0.0000
     57 ****         3.7303   1.0528   2.4168 LP             1 S1                 0.0000
@<TRIPOS>BOND
    1    1    2 1     
    2    1   24 1     
    3    1   25 1     
    4    1   26 1     
    5    2    3 1     
    6    2    4 1     
    7    2   51 1     
    8    3   27 1     
    9    3   28 1     
   10    3   29 1     
   11    4    5 1     
   12    4    6 1     
   13    4    7 1     
   14    5   30 1     
   15    5   31 1     
   16    5   32 1     
   17    6   33 1     
   18    6   34 1     
   19    6   35 1     
   20    7    8 1     
   21    7   36 1     
   22    7   37 1     
   23    8    9 am    
   24    8   38 1     
   25    9   10 2     
   26    9   11 am    
   27   11   12 1     
   28   11   39 1     
   29   12   23 ar    
   30   12   13 ar    
   31   13   14 ar    
   32   13   40 1     
   33   14   15 ar    
   34   14   41 1     
   35   15   16 1     
   36   15   22 ar    
   37   16   21 1     
   38   16   17 1     
   39   17   18 1     
   40   17   42 1     
   41   17   43 1     
   42   18   19 1     
   43   18   44 1     
   44   18   45 1     
   45   19   20 1     
   46   20   21 1     
   47   20   46 1     
   48   20   47 1     
   49   21   48 1     
   50   21   49 1     
   51   22   23 ar    
   52   23   50 1     
   53   10   52 1     
   54   10   53 1     
   55   16   54 1     
   56   19   55 1     
   57   19   56 1     
   58   22   57 1     
@<TRIPOS>SUBSTRUCTURE
      1 S1             1
@<TRIPOS>SET
LONE_PAIRS      STATIC     ATOMS    <user>   **** ""
6 52 53 54 55 56 57
DONOR_HYDROGENS      STATIC     ATOMS    <user>   **** ""
3 51 38 39
ATOM$BLUE        STATIC     ATOMS    COLORGROUP SYSTEM
6 52 53 54 55 56 57
ATOM$RED        STATIC     ATOMS    COLORGROUP SYSTEM
3 51 38 39
