AV-unprocessed.smi:1027|AV-procd|sdf|4471|dock2
  -GOLD-   22720 2443D 1   1.00000     0.00000
 Structure written by MMmdl.
 34 35  0  0  0  0  0  0  0  0  2 V2000
  152.1773  143.6962  161.6202 C   0  0  0  0  0  0  0  0  0  0  0  0
  152.3197  143.1570  160.1851 C   0  0  0  0  0  0  0  0  0  0  0  0
  151.0730  143.5463  159.3664 C   0  0  0  0  0  0  0  0  0  0  0  0
  152.5908  141.6294  160.1501 C   0  0  2  0  0  0  0  0  0  0  0  0
  153.9790  141.2437  160.6957 C   0  0  0  0  0  0  0  0  0  0  0  0
  152.4657  141.1278  158.7809 N   0  0  0  0  0  0  0  0  0  0  0  0
  152.3326  139.8458  158.4094 C   0  0  0  0  0  0  0  0  0  0  0  0
  152.3212  138.9540  159.2612 O   0  0  0  0  0  0  0  0  0  0  0  0
  152.2197  139.6772  157.0720 N   0  5  0  0  0  0  0  0  0  0  0  0
  151.9380  138.4634  156.5700 C   0  0  0  0  0  0  0  0  0  0  0  0
  152.3156  138.0895  155.3395 N   0  0  0  0  0  0  0  0  0  0  0  0
  151.9223  136.7985  155.0183 N   0  0  0  0  0  0  0  0  0  0  0  0
  151.2445  136.2166  156.0105 C   0  0  0  0  0  0  0  0  0  0  0  0
  150.7175  134.8242  155.9094 C   0  0  0  0  0  0  0  0  0  0  0  0
  149.8955  134.2061  157.0194 C   0  0  0  0  0  0  0  0  0  0  0  0
  151.2967  133.7158  156.7583 C   0  0  0  0  0  0  0  0  0  0  0  0
  151.0261  137.2248  157.4321 S   0  0  0  0  0  0  0  0  0  0  0  0
  151.3794  143.1837  162.1583 H   0  0  0  0  0  0  0  0  0  0  0  0
  151.9431  144.7611  161.6176 H   0  0  0  0  0  0  0  0  0  0  0  0
  153.0976  143.5791  162.1913 H   0  0  0  0  0  0  0  0  0  0  0  0
  153.1738  143.6620  159.7313 H   0  0  0  0  0  0  0  0  0  0  0  0
  150.1833  143.0364  159.7372 H   0  0  0  0  0  0  0  0  0  0  0  0
  151.1834  143.2966  158.3109 H   0  0  0  0  0  0  0  0  0  0  0  0
  150.8867  144.6192  159.4200 H   0  0  0  0  0  0  0  0  0  0  0  0
  151.8346  141.1454  160.7709 H   0  0  0  0  0  0  0  0  0  0  0  0
  154.0797  141.4843  161.7533 H   0  0  0  0  0  0  0  0  0  0  0  0
  154.7744  141.7581  160.1556 H   0  0  0  0  0  0  0  0  0  0  0  0
  154.1551  140.1716  160.6005 H   0  0  0  0  0  0  0  0  0  0  0  0
  152.4714  141.8190  158.0451 H   0  0  0  0  0  0  0  0  0  0  0  0
  150.4432  134.5907  154.8825 H   0  0  0  0  0  0  0  0  0  0  0  0
  149.7333  134.7869  157.9253 H   0  0  0  0  0  0  0  0  0  0  0  0
  149.0733  133.5548  156.7306 H   0  0  0  0  0  0  0  0  0  0  0  0
  151.4105  132.7374  156.2961 H   0  0  0  0  0  0  0  0  0  0  0  0
  152.0643  133.9826  157.4822 H   0  0  0  0  0  0  0  0  0  0  0  0
  1  2  1  0  0  0  0
  1 18  1  0  0  0  0
  1 19  1  0  0  0  0
  1 20  1  0  0  0  0
  2  3  1  0  0  0  0
  2  4  1  0  0  0  0
  2 21  1  0  0  0  0
  3 22  1  0  0  0  0
  3 23  1  0  0  0  0
  3 24  1  0  0  0  0
  4  5  1  0  0  0  0
  4  6  1  0  0  0  0
  4 25  1  0  0  0  0
  5 26  1  0  0  0  0
  5 27  1  0  0  0  0
  5 28  1  0  0  0  0
  6  7  1  0  0  0  0
  6 29  1  0  0  0  0
  7  8  2  0  0  0  0
  7  9  1  0  0  0  0
  9 10  1  0  0  0  0
 10 17  1  0  0  0  0
 10 11  2  0  0  0  0
 11 12  1  0  0  0  0
 12 13  2  0  0  0  0
 13 14  1  0  0  0  0
 13 17  1  0  0  0  0
 14 16  1  0  0  0  0
 14 15  1  0  0  0  0
 14 30  1  0  0  0  0
 15 16  1  0  0  0  0
 15 31  1  0  0  0  0
 15 32  1  0  0  0  0
 16 33  1  0  0  0  0
 16 34  1  0  0  0  0
M  CHG  1   9  -1
M  END
> <s_m_source_file>
AV-unprocessed.smi

> <i_m_source_file_index>
1027

> <i_lp_mmshare_version>
43012

> <i_f3d_flags>
0

> <s_epik_input>
W0NIM11bQ0hdKFtDSDNdKVtDQEhdKFtDSDNdKVtOSF1DKD1PKVtOSF1jMW5uYyhzMSlbQ0hdMltDSDJdW0NIMl0y

> <s_epik_cmdline>
J2VwaWtfcHl0aG9uJywgJy1waCcsICc3LjAnLCAnLXRuJywgJzgnLCAnLW1hJywgJzIwMCcsICctbWV0YWxfYmluZGluZycsICctaW1hZScsICc8aW5maWxlLm1hZT4nLCAnLW9tYWUnLCAnPG91dGZpbGUubWFlPic=

> <r_lp_tautomer_probability>
1

> <r_epik_Ionization_Penalty>
3.99975

> <r_epik_Ionization_Penalty_Charging>
3.83446

> <r_epik_Ionization_Penalty_Neutral>
0.165297

> <r_epik_State_Penalty>
3.83354

> <r_epik_Charging_Adjusted_Penalty>
7.668

> <i_epik_Tot_Q>
-1

> <i_epik_Tot_abs_Q>
1

> <r_epik_Metal_State_Penalty>
0.575872

> <b_epik_Metal_Only>
1

> <s_lp_Force_Field>
OPLS_2005

> <r_lp_Energy>
2.28672

> <b_lp_Chiralities_Consistent>
1

> <s_lp_Variant>
AV-unprocessed.smi:1027-3

> <Gold.Version>
5.8.1

> <Gold.Id.Protein>
6NUR|6NUR_protein|mol2

> <Gold.PLP.Fitness>
39.4051

> <Gold.PLP.PLP>
-31.5064

> <Gold.PLP.part.hbond>
-2.0000

> <Gold.PLP.part.metal>
0.0000

> <Gold.PLP.part.buried>
-4.9027

> <Gold.PLP.part.nonpolar>
-24.6721

> <Gold.PLP.part.repulsive>
0.2530

> <Gold.PLP.ligand.clash>
0.0000

> <Gold.PLP.ligand.torsion>
0.5461

> <Gold.PLP.Chemscore.Hbond>
2.9440

> <Gold.PLP.Chemscore.CHOScore>
0.0000

> <Gold.PLP.Chemscore.Metal>
0.0000

> <Gold.Chemscore.Hbonds>
donor molecule, donor type, donor heavy atom, donor atom, acceptor molecule, acceptor atom, score
      P1  H  7997  8010       L1     9  0.88
      P1  H 10752 10763       L1    12  0.96

> <Gold.PLP.Chemscore.Internal.Correction>
0.1589

> <Gold.Rescore>
     Score         DG    S(hbond)    S(metal)    S(lipo)     H(rot)  DE(clash)    DE(int)     intcor
     14.35     -16.30       1.67        0.00      74.54       1.36       0.00       1.95       ----

> <Gold.Chemscore.Fitness>
14.3512

> <Gold.Chemscore.DG>
-16.2971

> <Gold.Chemscore.ZeroCoef>
-5.4800

> <Gold.Chemscore.Hbond>
1.6714

> <Gold.Chemscore.Metal>
0.0000

> <Gold.Chemscore.Lipo>
74.5371

> <Gold.Chemscore.Internal_Hbond>
0.0000

> <Gold.Chemscore.DEClash>
0.0000

> <Gold.Chemscore.DEInternal>
1.9460

> <Gold.Chemscore.Rot>
1.3618

> <Gold.Chemscore.Internal.Correction>
   9.000000E+99

> <Gold.Chemscore.Hbonds>
donor molecule, donor type, donor heavy atom, donor atom, acceptor molecule, acceptor atom, score
      P1  H  7997  8010       L1     9  0.06
      P1  H 10752 10763       L1    12  0.60

> <Gold.Chemscore.Hbond.Weighted>
-5.5825

> <Gold.Chemscore.Metal.Weighted>
-0.0000

> <Gold.Chemscore.Lipo.Weighted>
-8.7208

> <Gold.Chemscore.Internal_Hbond.Weighted>
0.0000

> <Gold.Chemscore.DEClash.Weighted>
0.0000

> <Gold.Chemscore.DEInternal.Weighted>
1.9460

> <Gold.Chemscore.Rot.Weighted>
3.4863

> <Gold.Chemscore.Internal.Correction.Weighted>
   9.000000E+99

> <Gold.Protein.RotatedTorsions>
[ 6907 6896 6895 6894 ] final  -54.45 input  -60.11 | X-H torsion
[ 7974 7965 7964 7962 ] final  106.06 input  175.53 | X-H torsion
[ 8008 7997 7996 7995 ] final   73.27 input   59.86 | X-H torsion
[ 10167 10162 10161 10158 ] final   -4.50 input  -65.29 | X-H torsion
[ 10718 10713 10712 10709 ] final -122.05 input   66.30 | X-H torsion
[ 10763 10752 10751 10750 ] final   45.09 input  -60.55 | X-H torsion
[ 11005 11000 10999 10996 ] final -176.49 input  -57.11 | X-H torsion

> <Gold.Protein.ActiveResidues>
 VAL166  LYS551  ARG553  GLY616  TRP617  ASP618  TYR619  PRO620  LYS621  CYS622 
 ASP623  PHE694  ASN695  SER759  ASP760  ASP761  ALA762  ILE779  LEU786  VAL792 
 PHE793  MET794  SER795  GLU796  ALA797  LYS798  CYS799  TRP800  GLU811  SER814 

> <Gold.Protein.RotatedAtoms>
  150.8337  134.7601  159.6874 H   0  0  0  0  0  0  0  0  0  0  0  0  # atno 6907 bound_to 6896
  152.4437  134.5535  159.9883 H   0  0  0  0  0  0  0  0  0  0  0  0  # atno 6908 bound_to 6896
  151.5690  133.3355  159.3021 H   0  0  0  0  0  0  0  0  0  0  0  0  # atno 6909 bound_to 6896
  145.3116  139.2539  143.3760 H   0  0  0  0  0  0  0  0  0  0  0  0  # atno 7974 bound_to 7965
  155.7812  140.3482  155.5298 H   0  0  0  0  0  0  0  0  0  0  0  0  # atno 8008 bound_to 7997
  155.8727  140.0989  157.1560 H   0  0  0  0  0  0  0  0  0  0  0  0  # atno 8009 bound_to 7997
  154.4018  140.1337  156.4085 H   0  0  0  0  0  0  0  0  0  0  0  0  # atno 8010 bound_to 7997
  140.6929  143.6417  150.8430 H   0  0  0  0  0  0  0  0  0  0  0  0  # atno 10167 bound_to 10162
  156.1387  130.6449  150.9736 H   0  0  0  0  0  0  0  0  0  0  0  0  # atno 10718 bound_to 10713
  152.9830  135.6050  154.3379 H   0  0  0  0  0  0  0  0  0  0  0  0  # atno 10763 bound_to 10752
  154.3078  135.2771  155.2582 H   0  0  0  0  0  0  0  0  0  0  0  0  # atno 10764 bound_to 10752
  154.4805  135.5918  153.6442 H   0  0  0  0  0  0  0  0  0  0  0  0  # atno 10765 bound_to 10752
  140.4515  134.6339  157.4803 H   0  0  0  0  0  0  0  0  0  0  0  0  # atno 11005 bound_to 11000
  146.3116  140.3653  142.8669 LP  0  0  0  0  0  0  0  0  0  0  0  0  # atno 17320 bound_to 7965
  144.9011  140.7644  143.5866 LP  0  0  0  0  0  0  0  0  0  0  0  0  # atno 17321 bound_to 7965
  140.0132  143.5621  152.2831 LP  0  0  0  0  0  0  0  0  0  0  0  0  # atno 17342 bound_to 10162
  139.6352  144.7649  151.2453 LP  0  0  0  0  0  0  0  0  0  0  0  0  # atno 17343 bound_to 10162
  157.6555  131.0890  150.7956 LP  0  0  0  0  0  0  0  0  0  0  0  0  # atno 17370 bound_to 10713
  156.8033  130.4928  149.5366 LP  0  0  0  0  0  0  0  0  0  0  0  0  # atno 17371 bound_to 10713
  140.0004  134.6846  155.9540 LP  0  0  0  0  0  0  0  0  0  0  0  0  # atno 17394 bound_to 11000
  141.1662  133.6537  156.4488 LP  0  0  0  0  0  0  0  0  0  0  0  0  # atno 17395 bound_to 11000

$$$$
