AV-unprocessed.smi:753|AV-procd|sdf|3599|dock10
  -GOLD-   22720 0593D 1   1.00000     0.00000
 Structure written by MMmdl.
 43 45  0  0  0  0  0  0  0  0  1 V2000
  143.2346  146.4315  155.2981 C   0  0  0  0  0  0  0  0  0  0  0  0
  144.1696  145.3263  154.8531 C   0  0  0  0  0  0  0  0  0  0  0  0
  144.5817  145.2247  153.5075 C   0  0  0  0  0  0  0  0  0  0  0  0
  145.4475  144.1739  153.1487 C   0  0  0  0  0  0  0  0  0  0  0  0
  145.8677  143.2693  154.1451 C   0  0  0  0  0  0  0  0  0  0  0  0
  146.7919  142.1161  153.8081 C   0  0  0  0  0  0  0  0  0  0  0  0
  147.3445  141.4344  155.0698 C   0  0  0  0  0  0  0  0  0  0  0  0
  148.2550  142.3112  155.7949 N   0  0  0  0  0  0  0  0  0  0  0  0
  148.9017  141.9875  156.9274 C   0  0  0  0  0  0  0  0  0  0  0  0
  148.7851  140.8990  157.4874 O   0  0  0  0  0  0  0  0  0  0  0  0
  149.7025  142.9529  157.4118 N   0  0  0  0  0  0  0  0  0  0  0  0
  150.5340  142.9108  158.6166 C   0  0  2  0  0  0  0  0  0  0  0  0
  150.3533  144.1527  159.5215 C   0  0  0  0  0  0  0  0  0  0  0  0
  151.7809  144.7229  159.6107 C   0  0  1  0  0  0  0  0  0  0  0  0
  152.6661  143.7694  160.4366 C   0  0  0  0  0  0  0  0  0  0  0  0
  152.8619  142.5729  159.4844 C   0  0  0  0  0  0  0  0  0  0  0  0
  152.0334  142.9850  158.2534 C   0  0  2  0  0  0  0  0  0  0  0  0
  152.2971  144.4871  158.1979 C   0  0  0  0  0  0  0  0  0  0  0  0
  145.3980  143.4598  155.4618 C   0  0  0  0  0  0  0  0  0  0  0  0
  144.5667  144.4638  155.8149 N   0  0  0  0  0  0  0  0  0  0  0  0
  143.0044  147.1102  154.4764 H   0  0  0  0  0  0  0  0  0  0  0  0
  143.6877  147.0128  156.1016 H   0  0  0  0  0  0  0  0  0  0  0  0
  142.2977  146.0103  155.6640 H   0  0  0  0  0  0  0  0  0  0  0  0
  144.2425  145.9318  152.7647 H   0  0  0  0  0  0  0  0  0  0  0  0
  145.7794  144.0651  152.1266 H   0  0  0  0  0  0  0  0  0  0  0  0
  146.2497  141.3947  153.1950 H   0  0  0  0  0  0  0  0  0  0  0  0
  147.6120  142.4881  153.1924 H   0  0  0  0  0  0  0  0  0  0  0  0
  146.5255  141.1712  155.7398 H   0  0  0  0  0  0  0  0  0  0  0  0
  147.8477  140.5007  154.8121 H   0  0  0  0  0  0  0  0  0  0  0  0
  148.4124  143.2293  155.4055 H   0  0  0  0  0  0  0  0  0  0  0  0
  149.7364  143.8146  156.8866 H   0  0  0  0  0  0  0  0  0  0  0  0
  150.3276  141.9881  159.1622 H   0  0  0  0  0  0  0  0  0  0  0  0
  149.6813  144.8849  159.0706 H   0  0  0  0  0  0  0  0  0  0  0  0
  149.9491  143.8945  160.5010 H   0  0  0  0  0  0  0  0  0  0  0  0
  151.8177  145.7589  159.9487 H   0  0  0  0  0  0  0  0  0  0  0  0
  153.6251  144.2332  160.6711 H   0  0  0  0  0  0  0  0  0  0  0  0
  152.1949  143.4807  161.3768 H   0  0  0  0  0  0  0  0  0  0  0  0
  153.9149  142.4611  159.2225 H   0  0  0  0  0  0  0  0  0  0  0  0
  152.5254  141.6316  159.9205 H   0  0  0  0  0  0  0  0  0  0  0  0
  152.3015  142.4342  157.3507 H   0  0  0  0  0  0  0  0  0  0  0  0
  151.7154  145.0035  157.4323 H   0  0  0  0  0  0  0  0  0  0  0  0
  153.3525  144.7374  158.0748 H   0  0  0  0  0  0  0  0  0  0  0  0
  145.6931  142.7856  156.2527 H   0  0  0  0  0  0  0  0  0  0  0  0
  1  2  1  0  0  0  0
  1 21  1  0  0  0  0
  1 22  1  0  0  0  0
  1 23  1  0  0  0  0
  2 20  1  0  0  0  0
  2  3  2  0  0  0  0
  3  4  1  0  0  0  0
  3 24  1  0  0  0  0
  4  5  2  0  0  0  0
  4 25  1  0  0  0  0
  5  6  1  0  0  0  0
  5 19  1  0  0  0  0
  6  7  1  0  0  0  0
  6 26  1  0  0  0  0
  6 27  1  0  0  0  0
  7  8  1  0  0  0  0
  7 28  1  0  0  0  0
  7 29  1  0  0  0  0
  8  9  1  0  0  0  0
  8 30  1  0  0  0  0
  9 10  2  0  0  0  0
  9 11  1  0  0  0  0
 11 12  1  0  0  0  0
 11 31  1  0  0  0  0
 12 17  1  0  0  0  0
 12 13  1  0  0  0  0
 12 32  1  0  0  0  0
 13 14  1  0  0  0  0
 13 33  1  0  0  0  0
 13 34  1  0  0  0  0
 14 18  1  0  0  0  0
 14 15  1  0  0  0  0
 14 35  1  0  0  0  0
 15 16  1  0  0  0  0
 15 36  1  0  0  0  0
 15 37  1  0  0  0  0
 16 17  1  0  0  0  0
 16 38  1  0  0  0  0
 16 39  1  0  0  0  0
 17 18  1  0  0  0  0
 17 40  1  0  0  0  0
 18 41  1  0  0  0  0
 18 42  1  0  0  0  0
 19 20  2  0  0  0  0
 19 43  1  0  0  0  0
M  END
> <s_m_source_file>
AV-unprocessed.smi

> <i_m_source_file_index>
753

> <i_lp_mmshare_version>
43012

> <i_f3d_flags>
0

> <s_epik_input>
W0NIM11jMVtjSF1bY0hdYyhbY0hdbjEpW0NIMl1bQ0gyXVtOSF1DKD1PKVtOSF1bQ0BIXShbQ0gyXVtDQEBIXTIzKVtDQEBIXShbQ0gyXTMpW0NIMl1bQ0gyXTI=

> <s_epik_cmdline>
J2VwaWtfcHl0aG9uJywgJy1waCcsICc3LjAnLCAnLXRuJywgJzgnLCAnLW1hJywgJzIwMCcsICctbWV0YWxfYmluZGluZycsICctaW1hZScsICc8aW5maWxlLm1hZT4nLCAnLW9tYWUnLCAnPG91dGZpbGUubWFlPic=

> <r_epik_Ionization_Penalty>
0.0569047

> <r_epik_Ionization_Penalty_Charging>
0

> <r_epik_Ionization_Penalty_Neutral>
0.0569047

> <r_epik_State_Penalty>
0.0490541

> <r_epik_Charging_Adjusted_Penalty>
0.0490541

> <i_epik_Tot_Q>
0

> <i_epik_Tot_abs_Q>
0

> <r_epik_Metal_State_Penalty>
0.0447357

> <b_epik_Metal_Only>
0

> <s_lp_Force_Field>
OPLS_2005

> <r_lp_Energy>
50.812

> <b_lp_Chiralities_Consistent>
1

> <s_lp_Variant>
AV-unprocessed.smi:753-1

> <Gold.Version>
5.8.1

> <Gold.Id.Protein>
6NUR|6NUR_protein|mol2

> <Gold.PLP.Fitness>
52.2274

> <Gold.PLP.PLP>
-46.9518

> <Gold.PLP.part.hbond>
-1.8882

> <Gold.PLP.part.metal>
0.0000

> <Gold.PLP.part.buried>
-6.6690

> <Gold.PLP.part.nonpolar>
-39.4538

> <Gold.PLP.part.repulsive>
0.2550

> <Gold.PLP.ligand.clash>
0.0000

> <Gold.PLP.ligand.torsion>
0.2104

> <Gold.PLP.Chemscore.Hbond>
1.8880

> <Gold.PLP.Chemscore.CHOScore>
0.0000

> <Gold.PLP.Chemscore.Metal>
0.0000

> <Gold.Chemscore.Hbonds>
donor molecule, donor type, donor heavy atom, donor atom, acceptor molecule, acceptor atom, score
      L1  H     8    30       P1  8028  0.96
      L1  H    11    31       P1  8028  0.86

> <Gold.PLP.Chemscore.Internal.Correction>
0.0323

> <Gold.Rescore>
     Score         DG    S(hbond)    S(metal)    S(lipo)     H(rot)  DE(clash)    DE(int)     intcor
     22.62     -22.85       1.76        0.00     129.53       1.43       0.13       0.10       ----

> <Gold.Chemscore.Fitness>
22.6223

> <Gold.Chemscore.DG>
-22.8477

> <Gold.Chemscore.ZeroCoef>
-5.4800

> <Gold.Chemscore.Hbond>
1.7578

> <Gold.Chemscore.Metal>
0.0000

> <Gold.Chemscore.Lipo>
129.5310

> <Gold.Chemscore.Internal_Hbond>
0.0000

> <Gold.Chemscore.DEClash>
0.1277

> <Gold.Chemscore.DEInternal>
0.0977

> <Gold.Chemscore.Rot>
1.4291

> <Gold.Chemscore.Internal.Correction>
   9.000000E+99

> <Gold.Chemscore.Hbonds>
donor molecule, donor type, donor heavy atom, donor atom, acceptor molecule, acceptor atom, score
      L1  H     8    30       P1  8028  0.88
      L1  H    11    31       P1  8028  0.81

> <Gold.Chemscore.Hbond.Weighted>
-5.8711

> <Gold.Chemscore.Metal.Weighted>
-0.0000

> <Gold.Chemscore.Lipo.Weighted>
-15.1551

> <Gold.Chemscore.Internal_Hbond.Weighted>
0.0000

> <Gold.Chemscore.DEClash.Weighted>
0.1277

> <Gold.Chemscore.DEInternal.Weighted>
0.0977

> <Gold.Chemscore.Rot.Weighted>
3.6585

> <Gold.Chemscore.Internal.Correction.Weighted>
   9.000000E+99

> <Gold.Protein.RotatedTorsions>
[ 6907 6896 6895 6894 ] final  108.06 input  -60.11 | X-H torsion
[ 7974 7965 7964 7962 ] final   12.89 input  175.53 | X-H torsion
[ 8008 7997 7996 7995 ] final -169.52 input   59.86 | X-H torsion
[ 10167 10162 10161 10158 ] final   54.51 input  -65.29 | X-H torsion
[ 10718 10713 10712 10709 ] final -147.83 input   66.30 | X-H torsion
[ 10763 10752 10751 10750 ] final -103.16 input  -60.55 | X-H torsion
[ 11005 11000 10999 10996 ] final -135.33 input  -57.11 | X-H torsion

> <Gold.Protein.ActiveResidues>
 VAL166  LYS551  ARG553  GLY616  TRP617  ASP618  TYR619  PRO620  LYS621  CYS622 
 ASP623  PHE694  ASN695  SER759  ASP760  ASP761  ALA762  ILE779  LEU786  VAL792 
 PHE793  MET794  SER795  GLU796  ALA797  LYS798  CYS799  TRP800  GLU811  SER814 

> <Gold.Protein.RotatedAtoms>
  152.5128  133.9144  159.7503 H   0  0  0  0  0  0  0  0  0  0  0  0  # atno 6907 bound_to 6896
  150.9530  133.6520  159.2775 H   0  0  0  0  0  0  0  0  0  0  0  0  # atno 6908 bound_to 6896
  151.3792  135.0942  159.9543 H   0  0  0  0  0  0  0  0  0  0  0  0  # atno 6909 bound_to 6896
  146.2341  139.9269  142.8502 H   0  0  0  0  0  0  0  0  0  0  0  0  # atno 7974 bound_to 7965
  155.9060  140.1049  157.1314 H   0  0  0  0  0  0  0  0  0  0  0  0  # atno 8008 bound_to 7997
  154.4033  140.1283  156.4561 H   0  0  0  0  0  0  0  0  0  0  0  0  # atno 8009 bound_to 7997
  155.7366  140.3467  155.5087 H   0  0  0  0  0  0  0  0  0  0  0  0  # atno 8010 bound_to 7997
  140.2294  144.3703  150.6420 H   0  0  0  0  0  0  0  0  0  0  0  0  # atno 10167 bound_to 10162
  156.4125  130.7989  151.2207 H   0  0  0  0  0  0  0  0  0  0  0  0  # atno 10718 bound_to 10713
  154.7787  135.4833  153.9799 H   0  0  0  0  0  0  0  0  0  0  0  0  # atno 10763 bound_to 10752
  153.1464  135.6783  153.8955 H   0  0  0  0  0  0  0  0  0  0  0  0  # atno 10764 bound_to 10752
  153.8613  135.3155  155.3416 H   0  0  0  0  0  0  0  0  0  0  0  0  # atno 10765 bound_to 10752
  140.8908  134.1814  157.4528 H   0  0  0  0  0  0  0  0  0  0  0  0  # atno 11005 bound_to 11000
  145.2082  140.9884  143.4116 LP  0  0  0  0  0  0  0  0  0  0  0  0  # atno 17320 bound_to 7965
  144.9714  139.3876  143.6307 LP  0  0  0  0  0  0  0  0  0  0  0  0  # atno 17321 bound_to 7965
  140.6196  143.2175  151.6721 LP  0  0  0  0  0  0  0  0  0  0  0  0  # atno 17342 bound_to 10162
  139.5115  144.3506  152.0656 LP  0  0  0  0  0  0  0  0  0  0  0  0  # atno 17343 bound_to 10162
  157.7507  131.0253  150.3913 LP  0  0  0  0  0  0  0  0  0  0  0  0  # atno 17370 bound_to 10713
  156.4214  130.3954  149.6822 LP  0  0  0  0  0  0  0  0  0  0  0  0  # atno 17371 bound_to 10713
  139.8729  134.9858  156.5296 LP  0  0  0  0  0  0  0  0  0  0  0  0  # atno 17394 bound_to 11000
  140.8349  133.8250  155.9019 LP  0  0  0  0  0  0  0  0  0  0  0  0  # atno 17395 bound_to 11000

$$$$
