AV-unprocessed.smi:2960|AV-procd|sdf|11312|dock7
  -GOLD-   2272016213D 1   1.00000     0.00000
 Structure written by MMmdl.
 49 51  0  0  0  0  0  0  0  0  2 V2000
  148.8384  133.4397  152.8241 C   0  0  0  0  0  0  0  0  0  0  0  0
  149.7864  133.9384  153.9093 C   0  0  0  0  0  0  0  0  0  0  0  0
  150.3453  133.1377  154.6585 O   0  0  0  0  0  0  0  0  0  0  0  0
  149.9592  135.2667  153.9825 N   0  0  0  0  0  0  0  0  0  0  0  0
  150.8100  135.9464  154.9520 C   0  0  0  0  0  0  0  0  0  0  0  0
  151.4030  137.2443  154.3790 C   0  0  0  0  0  0  0  0  0  0  0  0
  150.3877  138.3407  154.3370 C   0  0  0  0  0  0  0  0  0  0  0  0
  149.2222  138.3116  153.6302 N   0  3  0  0  0  0  0  0  0  0  0  0
  148.5264  139.5070  153.8135 C   0  0  0  0  0  0  0  0  0  0  0  0
  147.3044  139.9383  153.3065 C   0  0  0  0  0  0  0  0  0  0  0  0
  146.8778  141.2260  153.6934 C   0  0  0  0  0  0  0  0  0  0  0  0
  147.6561  142.0309  154.5508 C   0  0  0  0  0  0  0  0  0  0  0  0
  148.8937  141.5825  155.0580 C   0  0  0  0  0  0  0  0  0  0  0  0
  149.3076  140.3083  154.6706 C   0  0  0  0  0  0  0  0  0  0  0  0
  150.4485  139.5526  154.9635 N   0  0  0  0  0  0  0  0  0  0  0  0
  151.4759  140.1303  155.8415 C   0  0  0  0  0  0  0  0  0  0  0  0
  151.5869  139.3784  157.1746 C   0  0  0  0  0  0  0  0  0  0  0  0
  152.6087  139.9857  157.9515 O   0  0  0  0  0  0  0  0  0  0  0  0
  152.3331  141.1907  158.5620 C   0  0  0  0  0  0  0  0  0  0  0  0
  153.1061  141.5278  159.6921 C   0  0  0  0  0  0  0  0  0  0  0  0
  152.8948  142.7407  160.3752 C   0  0  0  0  0  0  0  0  0  0  0  0
  151.9022  143.6370  159.9340 C   0  0  0  0  0  0  0  0  0  0  0  0
  151.6807  144.9419  160.6709 C   0  0  0  0  0  0  0  0  0  0  0  0
  151.1222  143.3104  158.8068 C   0  0  0  0  0  0  0  0  0  0  0  0
  151.3336  142.0964  158.1246 C   0  0  0  0  0  0  0  0  0  0  0  0
  149.1854  133.7556  151.8396 H   0  0  0  0  0  0  0  0  0  0  0  0
  147.8358  133.8385  152.9816 H   0  0  0  0  0  0  0  0  0  0  0  0
  148.7782  132.3505  152.8314 H   0  0  0  0  0  0  0  0  0  0  0  0
  149.4569  135.8481  153.3267 H   0  0  0  0  0  0  0  0  0  0  0  0
  150.2042  136.1674  155.8299 H   0  0  0  0  0  0  0  0  0  0  0  0
  151.6045  135.2754  155.2836 H   0  0  0  0  0  0  0  0  0  0  0  0
  152.2455  137.5761  154.9868 H   0  0  0  0  0  0  0  0  0  0  0  0
  151.7958  137.0745  153.3764 H   0  0  0  0  0  0  0  0  0  0  0  0
  146.7065  139.3240  152.6494 H   0  0  0  0  0  0  0  0  0  0  0  0
  145.9349  141.6039  153.3254 H   0  0  0  0  0  0  0  0  0  0  0  0
  147.2973  143.0124  154.8250 H   0  0  0  0  0  0  0  0  0  0  0  0
  149.4834  142.2067  155.7132 H   0  0  0  0  0  0  0  0  0  0  0  0
  152.4285  140.1302  155.3107 H   0  0  0  0  0  0  0  0  0  0  0  0
  151.2230  141.1750  156.0211 H   0  0  0  0  0  0  0  0  0  0  0  0
  150.6341  139.4231  157.7031 H   0  0  0  0  0  0  0  0  0  0  0  0
  151.8273  138.3293  156.9967 H   0  0  0  0  0  0  0  0  0  0  0  0
  153.8708  140.8484  160.0393 H   0  0  0  0  0  0  0  0  0  0  0  0
  153.4977  142.9815  161.2387 H   0  0  0  0  0  0  0  0  0  0  0  0
  150.8961  145.5363  160.2018 H   0  0  0  0  0  0  0  0  0  0  0  0
  152.5971  145.5326  160.6768 H   0  0  0  0  0  0  0  0  0  0  0  0
  151.3898  144.7481  161.7038 H   0  0  0  0  0  0  0  0  0  0  0  0
  150.3577  143.9898  158.4591 H   0  0  0  0  0  0  0  0  0  0  0  0
  150.7146  141.8850  157.2662 H   0  0  0  0  0  0  0  0  0  0  0  0
  148.9264  137.5266  153.0640 H   0  0  0  0  0  0  0  0  0  0  0  0
  1  2  1  0  0  0  0
  1 26  1  0  0  0  0
  1 27  1  0  0  0  0
  1 28  1  0  0  0  0
  2  3  2  0  0  0  0
  2  4  1  0  0  0  0
  4  5  1  0  0  0  0
  4 29  1  0  0  0  0
  5  6  1  0  0  0  0
  5 30  1  0  0  0  0
  5 31  1  0  0  0  0
  6  7  1  0  0  0  0
  6 32  1  0  0  0  0
  6 33  1  0  0  0  0
  7 15  1  0  0  0  0
  7  8  2  0  0  0  0
  8  9  1  0  0  0  0
  8 49  1  0  0  0  0
  9 14  2  0  0  0  0
  9 10  1  0  0  0  0
 10 11  2  0  0  0  0
 10 34  1  0  0  0  0
 11 12  1  0  0  0  0
 11 35  1  0  0  0  0
 12 13  2  0  0  0  0
 12 36  1  0  0  0  0
 13 14  1  0  0  0  0
 13 37  1  0  0  0  0
 14 15  1  0  0  0  0
 15 16  1  0  0  0  0
 16 17  1  0  0  0  0
 16 38  1  0  0  0  0
 16 39  1  0  0  0  0
 17 18  1  0  0  0  0
 17 40  1  0  0  0  0
 17 41  1  0  0  0  0
 18 19  1  0  0  0  0
 19 25  1  0  0  0  0
 19 20  2  0  0  0  0
 20 21  1  0  0  0  0
 20 42  1  0  0  0  0
 21 22  2  0  0  0  0
 21 43  1  0  0  0  0
 22 23  1  0  0  0  0
 22 24  1  0  0  0  0
 23 44  1  0  0  0  0
 23 45  1  0  0  0  0
 23 46  1  0  0  0  0
 24 25  2  0  0  0  0
 24 47  1  0  0  0  0
 25 48  1  0  0  0  0
M  CHG  1   8   1
M  END
> <s_m_source_file>
AV-unprocessed.smi

> <i_m_source_file_index>
2960

> <i_lp_mmshare_version>
43012

> <i_f3d_flags>
0

> <s_epik_input>
W0NIM11DKD1PKVtOSF1bQ0gyXVtDSDJdYyhuMSluKGMoYzEyKVtjSF1bY0hdW2NIXVtjSF0yKVtDSDJdW0NIMl1PYzNbY0hdW2NIXWMoW0NIM10pW2NIXVtjSF0z

> <s_epik_cmdline>
J2VwaWtfcHl0aG9uJywgJy1waCcsICc3LjAnLCAnLXRuJywgJzgnLCAnLW1hJywgJzIwMCcsICctbWV0YWxfYmluZGluZycsICctaW1hZScsICc8aW5maWxlLm1hZT4nLCAnLW9tYWUnLCAnPG91dGZpbGUubWFlPic=

> <r_lp_tautomer_probability>
1

> <r_epik_Ionization_Penalty>
1.10884

> <r_epik_Ionization_Penalty_Charging>
1.10884

> <r_epik_Ionization_Penalty_Neutral>
3.05925e-07

> <r_epik_State_Penalty>
1.16664

> <r_epik_Charging_Adjusted_Penalty>
2.27548

> <i_epik_Tot_Q>
1

> <i_epik_Tot_abs_Q>
1

> <r_epik_Metal_State_Penalty>
1.2527

> <b_epik_Metal_Only>
0

> <s_lp_Force_Field>
OPLS_2005

> <r_lp_Energy>
19.8643

> <b_lp_Chiralities_Consistent>
1

> <s_lp_Variant>
AV-unprocessed.smi:2960-2

> <Gold.Version>
5.8.1

> <Gold.Id.Protein>
6NUR|6NUR_protein|mol2

> <Gold.PLP.Fitness>
68.6163

> <Gold.PLP.PLP>
-58.5276

> <Gold.PLP.part.hbond>
-3.8469

> <Gold.PLP.part.metal>
0.0000

> <Gold.PLP.part.buried>
-0.1054

> <Gold.PLP.part.nonpolar>
-54.1348

> <Gold.PLP.part.repulsive>
0.1159

> <Gold.PLP.ligand.clash>
0.0000

> <Gold.PLP.ligand.torsion>
0.6835

> <Gold.PLP.Chemscore.Hbond>
3.7952

> <Gold.PLP.Chemscore.CHOScore>
0.0000

> <Gold.PLP.Chemscore.Metal>
0.0000

> <Gold.Chemscore.Hbonds>
donor molecule, donor type, donor heavy atom, donor atom, acceptor molecule, acceptor atom, score
      L1  H     4    29       P1  7948  1.00
      L1  H     8    49       P1  7948  2.00
      P1  H  7997  8008       L1    18  0.68

> <Gold.PLP.Chemscore.Internal.Correction>
0.0700

> <Gold.Rescore>
     Score         DG    S(hbond)    S(metal)    S(lipo)     H(rot)  DE(clash)    DE(int)     intcor
     21.77     -24.23       2.34        0.00     141.28       2.18       0.63       1.83       ----

> <Gold.Chemscore.Fitness>
21.7722

> <Gold.Chemscore.DG>
-24.2328

> <Gold.Chemscore.ZeroCoef>
-5.4800

> <Gold.Chemscore.Hbond>
2.3359

> <Gold.Chemscore.Metal>
0.0000

> <Gold.Chemscore.Lipo>
141.2815

> <Gold.Chemscore.Internal_Hbond>
0.0000

> <Gold.Chemscore.DEClash>
0.6293

> <Gold.Chemscore.DEInternal>
1.8313

> <Gold.Chemscore.Rot>
2.1793

> <Gold.Chemscore.Internal.Correction>
   9.000000E+99

> <Gold.Chemscore.Hbonds>
donor molecule, donor type, donor heavy atom, donor atom, acceptor molecule, acceptor atom, score
      L1  H     4    29       P1  7948  0.23
      L1  H     8    49       P1  7948  0.99
      P1  H  7997  8008       L1    18  0.42

> <Gold.Chemscore.Hbond.Weighted>
-7.8020

> <Gold.Chemscore.Metal.Weighted>
-0.0000

> <Gold.Chemscore.Lipo.Weighted>
-16.5299

> <Gold.Chemscore.Internal_Hbond.Weighted>
0.0000

> <Gold.Chemscore.DEClash.Weighted>
0.6293

> <Gold.Chemscore.DEInternal.Weighted>
1.8313

> <Gold.Chemscore.Rot.Weighted>
5.5791

> <Gold.Chemscore.Internal.Correction.Weighted>
   9.000000E+99

> <Gold.Protein.RotatedTorsions>
[ 6907 6896 6895 6894 ] final -142.35 input  -60.11 | X-H torsion
[ 7974 7965 7964 7962 ] final  -89.05 input  175.53 | X-H torsion
[ 8008 7997 7996 7995 ] final  -72.78 input   59.86 | X-H torsion
[ 10167 10162 10161 10158 ] final -152.69 input  -65.29 | X-H torsion
[ 10718 10713 10712 10709 ] final -110.54 input   66.30 | X-H torsion
[ 10763 10752 10751 10750 ] final -148.22 input  -60.55 | X-H torsion
[ 11005 11000 10999 10996 ] final -121.40 input  -57.11 | X-H torsion

> <Gold.Protein.ActiveResidues>
 VAL166  LYS551  ARG553  GLY616  TRP617  ASP618  TYR619  PRO620  LYS621  CYS622 
 ASP623  PHE694  ASN695  SER759  ASP760  ASP761  ALA762  ILE779  LEU786  VAL792 
 PHE793  MET794  SER795  GLU796  ALA797  LYS798  CYS799  TRP800  GLU811  SER814 

> <Gold.Protein.RotatedAtoms>
  151.0860  133.5353  159.2617 H   0  0  0  0  0  0  0  0  0  0  0  0  # atno 6907 bound_to 6896
  151.2238  135.0528  159.8970 H   0  0  0  0  0  0  0  0  0  0  0  0  # atno 6908 bound_to 6896
  152.5429  134.0658  159.8226 H   0  0  0  0  0  0  0  0  0  0  0  0  # atno 6909 bound_to 6896
  145.4450  140.9560  143.2054 H   0  0  0  0  0  0  0  0  0  0  0  0  # atno 7974 bound_to 7965
  154.5194  140.0791  156.8143 H   0  0  0  0  0  0  0  0  0  0  0  0  # atno 8008 bound_to 7997
  155.3609  140.3418  155.4222 H   0  0  0  0  0  0  0  0  0  0  0  0  # atno 8009 bound_to 7997
  156.1664  140.1605  156.8511 H   0  0  0  0  0  0  0  0  0  0  0  0  # atno 8010 bound_to 7997
  139.7160  143.9032  152.2486 H   0  0  0  0  0  0  0  0  0  0  0  0  # atno 10167 bound_to 10162
  156.0596  130.5821  150.8251 H   0  0  0  0  0  0  0  0  0  0  0  0  # atno 10718 bound_to 10713
  154.8245  135.3340  154.6939 H   0  0  0  0  0  0  0  0  0  0  0  0  # atno 10763 bound_to 10752
  153.7567  135.6935  153.4938 H   0  0  0  0  0  0  0  0  0  0  0  0  # atno 10764 bound_to 10752
  153.2138  135.4473  155.0361 H   0  0  0  0  0  0  0  0  0  0  0  0  # atno 10765 bound_to 10752
  141.0073  134.0316  157.3460 H   0  0  0  0  0  0  0  0  0  0  0  0  # atno 11005 bound_to 11000
  144.8097  139.5985  143.7035 LP  0  0  0  0  0  0  0  0  0  0  0  0  # atno 17320 bound_to 7965
  146.2535  139.6252  142.9411 LP  0  0  0  0  0  0  0  0  0  0  0  0  # atno 17321 bound_to 7965
  139.8915  144.6963  150.8765 LP  0  0  0  0  0  0  0  0  0  0  0  0  # atno 17342 bound_to 10162
  140.7744  143.3583  151.1878 LP  0  0  0  0  0  0  0  0  0  0  0  0  # atno 17343 bound_to 10162
  157.5595  131.0945  150.9580 LP  0  0  0  0  0  0  0  0  0  0  0  0  # atno 17370 bound_to 10713
  156.9821  130.5531  149.5297 LP  0  0  0  0  0  0  0  0  0  0  0  0  # atno 17371 bound_to 10713
  139.9070  135.0182  156.7529 LP  0  0  0  0  0  0  0  0  0  0  0  0  # atno 17394 bound_to 11000
  140.6792  133.9490  155.7900 LP  0  0  0  0  0  0  0  0  0  0  0  0  # atno 17395 bound_to 11000

$$$$
