AV-unprocessed.smi:1816|AV-procd|sdf|7364|dock9
  -GOLD-   22720 9 23D 1   1.00000     0.00000
 Structure written by MMmdl.
 36 37  0  0  0  0  0  0  0  0  2 V2000
  146.9082  142.6832  153.6277 C   0  0  0  0  0  0  0  0  0  0  0  0
  147.0007  141.2529  154.2058 C   0  0  2  0  0  0  0  0  0  0  0  0
  148.4756  140.8725  154.4989 C   0  0  0  0  0  0  0  0  0  0  0  0
  149.1517  141.8340  155.3646 N   0  0  0  0  0  0  0  0  0  0  0  0
  149.9730  141.5105  156.3732 C   0  0  0  0  0  0  0  0  0  0  0  0
  150.2442  140.3488  156.6769 O   0  0  0  0  0  0  0  0  0  0  0  0
  150.4419  142.6066  156.9904 N   0  0  0  0  0  0  0  0  0  0  0  0
  151.3184  142.6687  158.1019 C   0  0  0  0  0  0  0  0  0  0  0  0
  151.7305  141.5299  158.6612 N   0  0  0  0  0  0  0  0  0  0  0  0
  152.5879  141.7563  159.7419 C   0  0  0  0  0  0  0  0  0  0  0  0
  152.8208  143.0857  159.9926 C   0  0  0  0  0  0  0  0  0  0  0  0
  151.9668  144.1169  158.8761 S   0  0  0  0  0  0  0  0  0  0  0  0
  146.3752  140.2536  153.2922 N   0  3  0  0  0  0  0  0  0  0  0  0
  146.8640  140.2884  151.8897 C   0  0  0  0  0  0  0  0  0  0  0  0
  146.9431  138.8367  151.3972 C   0  0  0  0  0  0  0  0  0  0  0  0
  146.2218  138.0234  152.4651 C   0  0  0  0  0  0  0  0  0  0  0  0
  146.4509  138.8423  153.7298 C   0  0  0  0  0  0  0  0  0  0  0  0
  147.3717  143.4151  154.2893 H   0  0  0  0  0  0  0  0  0  0  0  0
  145.8756  143.0059  153.4970 H   0  0  0  0  0  0  0  0  0  0  0  0
  147.4060  142.7520  152.6602 H   0  0  0  0  0  0  0  0  0  0  0  0
  146.4382  141.2353  155.1407 H   0  0  0  0  0  0  0  0  0  0  0  0
  148.5514  139.8865  154.9594 H   0  0  0  0  0  0  0  0  0  0  0  0
  149.0345  140.8139  153.5645 H   0  0  0  0  0  0  0  0  0  0  0  0
  148.9842  142.8126  155.1802 H   0  0  0  0  0  0  0  0  0  0  0  0
  150.1364  143.4981  156.6289 H   0  0  0  0  0  0  0  0  0  0  0  0
  152.9889  140.9095  160.2793 H   0  0  0  0  0  0  0  0  0  0  0  0
  153.4402  143.5189  160.7637 H   0  0  0  0  0  0  0  0  0  0  0  0
  146.1724  140.8754  151.2844 H   0  0  0  0  0  0  0  0  0  0  0  0
  147.8479  140.7546  151.8158 H   0  0  0  0  0  0  0  0  0  0  0  0
  146.5060  138.7044  150.4071 H   0  0  0  0  0  0  0  0  0  0  0  0
  147.9871  138.5248  151.3423 H   0  0  0  0  0  0  0  0  0  0  0  0
  145.1552  137.9774  152.2404 H   0  0  0  0  0  0  0  0  0  0  0  0
  146.5944  137.0019  152.5468 H   0  0  0  0  0  0  0  0  0  0  0  0
  147.4446  138.6315  154.1288 H   0  0  0  0  0  0  0  0  0  0  0  0
  145.7153  138.6135  154.5015 H   0  0  0  0  0  0  0  0  0  0  0  0
  145.3899  140.4712  153.2473 H   0  0  0  0  0  0  0  0  0  0  0  0
  1  2  1  0  0  0  0
  1 18  1  0  0  0  0
  1 19  1  0  0  0  0
  1 20  1  0  0  0  0
  2  3  1  0  0  0  0
  2 13  1  0  0  0  0
  2 21  1  0  0  0  0
  3  4  1  0  0  0  0
  3 22  1  0  0  0  0
  3 23  1  0  0  0  0
  4  5  1  0  0  0  0
  4 24  1  0  0  0  0
  5  6  2  0  0  0  0
  5  7  1  0  0  0  0
  7  8  1  0  0  0  0
  7 25  1  0  0  0  0
  8 12  1  0  0  0  0
  8  9  2  0  0  0  0
  9 10  1  0  0  0  0
 10 11  2  0  0  0  0
 10 26  1  0  0  0  0
 11 12  1  0  0  0  0
 11 27  1  0  0  0  0
 13 17  1  0  0  0  0
 13 14  1  0  0  0  0
 13 36  1  0  0  0  0
 14 15  1  0  0  0  0
 14 28  1  0  0  0  0
 14 29  1  0  0  0  0
 15 16  1  0  0  0  0
 15 30  1  0  0  0  0
 15 31  1  0  0  0  0
 16 17  1  0  0  0  0
 16 32  1  0  0  0  0
 16 33  1  0  0  0  0
 17 34  1  0  0  0  0
 17 35  1  0  0  0  0
M  CHG  1  13   1
M  END
> <s_m_source_file>
AV-unprocessed.smi

> <i_m_source_file_index>
1816

> <i_lp_mmshare_version>
43012

> <i_f3d_flags>
0

> <s_epik_input>
W0NIMl0xW0NIMl1bQ0gyXVtDSDJdTjFbQ0BIXShbQ0gzXSlbQ0gyXVtOSF1DKD1PKVtOSF1jMm5bY0hdW2NIXXMy

> <s_epik_cmdline>
J2VwaWtfcHl0aG9uJywgJy1waCcsICc3LjAnLCAnLXRuJywgJzgnLCAnLW1hJywgJzIwMCcsICctbWV0YWxfYmluZGluZycsICctaW1hZScsICc8aW5maWxlLm1hZT4nLCAnLW9tYWUnLCAnPG91dGZpbGUubWFlPic=

> <r_lp_tautomer_probability>
0.999

> <r_epik_Ionization_Penalty>
0.000988651

> <r_epik_Ionization_Penalty_Charging>
0.000848324

> <r_epik_Ionization_Penalty_Neutral>
0.000140327

> <r_epik_State_Penalty>
0.000546901

> <r_epik_Charging_Adjusted_Penalty>
0.00139523

> <i_epik_Tot_Q>
1

> <i_epik_Tot_abs_Q>
1

> <r_epik_Metal_State_Penalty>
0.0571994

> <b_epik_Metal_Only>
0

> <s_lp_Force_Field>
OPLS_2005

> <r_lp_Energy>
26.1685

> <b_lp_Chiralities_Consistent>
1

> <s_lp_Variant>
AV-unprocessed.smi:1816-1

> <Gold.Version>
5.8.1

> <Gold.Id.Protein>
6NUR|6NUR_protein|mol2

> <Gold.PLP.Fitness>
47.2379

> <Gold.PLP.PLP>
-35.7894

> <Gold.PLP.part.hbond>
-3.0000

> <Gold.PLP.part.metal>
0.0000

> <Gold.PLP.part.buried>
-0.6412

> <Gold.PLP.part.nonpolar>
-32.6634

> <Gold.PLP.part.repulsive>
0.2606

> <Gold.PLP.ligand.clash>
0.0000

> <Gold.PLP.ligand.torsion>
0.1834

> <Gold.PLP.Chemscore.Hbond>
3.9280

> <Gold.PLP.Chemscore.CHOScore>
0.0000

> <Gold.PLP.Chemscore.Metal>
0.0000

> <Gold.Chemscore.Hbonds>
donor molecule, donor type, donor heavy atom, donor atom, acceptor molecule, acceptor atom, score
      L1  H     4    24       P1  8028  1.00
      L1  H     7    25       P1  8028  1.00
      L1  H    13    36       P1 10175  2.00

> <Gold.PLP.Chemscore.Internal.Correction>
0.0312

> <Gold.Rescore>
     Score         DG    S(hbond)    S(metal)    S(lipo)     H(rot)  DE(clash)    DE(int)     intcor
     17.35     -21.19       2.84        0.00      88.21       1.60       2.16       1.68       ----

> <Gold.Chemscore.Fitness>
17.3512

> <Gold.Chemscore.DG>
-21.1861

> <Gold.Chemscore.ZeroCoef>
-5.4800

> <Gold.Chemscore.Hbond>
2.8410

> <Gold.Chemscore.Metal>
0.0000

> <Gold.Chemscore.Lipo>
88.2103

> <Gold.Chemscore.Internal_Hbond>
0.0000

> <Gold.Chemscore.DEClash>
2.1582

> <Gold.Chemscore.DEInternal>
1.6768

> <Gold.Chemscore.Rot>
1.6029

> <Gold.Chemscore.Internal.Correction>
   9.000000E+99

> <Gold.Chemscore.Hbonds>
donor molecule, donor type, donor heavy atom, donor atom, acceptor molecule, acceptor atom, score
      L1  H     4    24       P1  8028  0.97
      L1  H     7    25       P1  8028  0.95
      L1  H    13    36       P1 10175  0.94

> <Gold.Chemscore.Hbond.Weighted>
-9.4891

> <Gold.Chemscore.Metal.Weighted>
-0.0000

> <Gold.Chemscore.Lipo.Weighted>
-10.3206

> <Gold.Chemscore.Internal_Hbond.Weighted>
0.0000

> <Gold.Chemscore.DEClash.Weighted>
2.1582

> <Gold.Chemscore.DEInternal.Weighted>
1.6768

> <Gold.Chemscore.Rot.Weighted>
4.1035

> <Gold.Chemscore.Internal.Correction.Weighted>
   9.000000E+99

> <Gold.Protein.RotatedTorsions>
[ 6907 6896 6895 6894 ] final  -51.22 input  -60.11 | X-H torsion
[ 7974 7965 7964 7962 ] final -123.22 input  175.53 | X-H torsion
[ 8008 7997 7996 7995 ] final  -82.80 input   59.86 | X-H torsion
[ 10167 10162 10161 10158 ] final  -35.65 input  -65.29 | X-H torsion
[ 10718 10713 10712 10709 ] final   53.53 input   66.30 | X-H torsion
[ 10763 10752 10751 10750 ] final  146.83 input  -60.55 | X-H torsion
[ 11005 11000 10999 10996 ] final  -77.26 input  -57.11 | X-H torsion

> <Gold.Protein.ActiveResidues>
 VAL166  LYS551  ARG553  GLY616  TRP617  ASP618  TYR619  PRO620  LYS621  CYS622 
 ASP623  PHE694  ASN695  SER759  ASP760  ASP761  ALA762  ILE779  LEU786  VAL792 
 PHE793  MET794  SER795  GLU796  ALA797  LYS798  CYS799  TRP800  GLU811  SER814 

> <Gold.Protein.RotatedAtoms>
  150.8632  134.7989  159.7098 H   0  0  0  0  0  0  0  0  0  0  0  0  # atno 6907 bound_to 6896
  152.4662  134.5066  159.9751 H   0  0  0  0  0  0  0  0  0  0  0  0  # atno 6908 bound_to 6896
  151.5166  133.3436  159.2929 H   0  0  0  0  0  0  0  0  0  0  0  0  # atno 6909 bound_to 6896
  145.0210  140.7988  143.4381 H   0  0  0  0  0  0  0  0  0  0  0  0  # atno 7974 bound_to 7965
  154.6124  140.0628  156.9510 H   0  0  0  0  0  0  0  0  0  0  0  0  # atno 8008 bound_to 7997
  155.1952  140.3310  155.4333 H   0  0  0  0  0  0  0  0  0  0  0  0  # atno 8009 bound_to 7997
  156.2384  140.1874  156.7039 H   0  0  0  0  0  0  0  0  0  0  0  0  # atno 8010 bound_to 7997
  140.7160  143.3463  151.2250 H   0  0  0  0  0  0  0  0  0  0  0  0  # atno 10167 bound_to 10162
  157.5175  130.8542  149.8514 H   0  0  0  0  0  0  0  0  0  0  0  0  # atno 10718 bound_to 10713
  154.0283  135.2900  155.3372 H   0  0  0  0  0  0  0  0  0  0  0  0  # atno 10763 bound_to 10752
  154.7004  135.5191  153.8522 H   0  0  0  0  0  0  0  0  0  0  0  0  # atno 10764 bound_to 10752
  153.0651  135.6628  154.0498 H   0  0  0  0  0  0  0  0  0  0  0  0  # atno 10765 bound_to 10752
  141.1659  133.7015  156.7793 H   0  0  0  0  0  0  0  0  0  0  0  0  # atno 11005 bound_to 11000
  145.1896  139.2308  143.5250 LP  0  0  0  0  0  0  0  0  0  0  0  0  # atno 17320 bound_to 7965
  146.3485  140.1689  142.8590 LP  0  0  0  0  0  0  0  0  0  0  0  0  # atno 17321 bound_to 7965
  139.6982  143.9576  152.2893 LP  0  0  0  0  0  0  0  0  0  0  0  0  # atno 17342 bound_to 10162
  139.9261  144.6770  150.8411 LP  0  0  0  0  0  0  0  0  0  0  0  0  # atno 17343 bound_to 10162
  156.0330  130.3759  150.1636 LP  0  0  0  0  0  0  0  0  0  0  0  0  # atno 17370 bound_to 10713
  156.9824  130.9868  151.3434 LP  0  0  0  0  0  0  0  0  0  0  0  0  # atno 17371 bound_to 10713
  140.2406  134.8616  157.3570 LP  0  0  0  0  0  0  0  0  0  0  0  0  # atno 17394 bound_to 11000
  140.1799  134.4502  155.7778 LP  0  0  0  0  0  0  0  0  0  0  0  0  # atno 17395 bound_to 11000

$$$$
