#       Name:                AV-unprocessed.smi:2202
#       Creating user name   scv26
#       Creation time:       Fri Mar 27 12:15:03 2020


#       File generated by GOLD software.
#

@<TRIPOS>MOLECULE
AV-unprocessed.smi:2202
    49    51     1
SMALL
NO_CHARGES


@<TRIPOS>ATOM
      1 ****         0.1612   0.8179   0.3019 O.2            1 S1                 0.0000
      2 ****        -0.1859   0.1686   1.2900 C.2            1 S1                 0.0000
      3 ****        -1.6479  -0.2575   1.4865 C.3            1 S1                 0.0000
      4 ****        -2.4766  -0.0719   0.2885 N.am           1 S1                 0.0000
      5 ****        -3.2126   1.0287   0.0373 C.2            1 S1                 0.0000
      6 ****        -3.2542   2.0638   0.7014 O.2            1 S1                 0.0000
      7 ****        -4.0742   0.7764  -1.1908 C.3            1 S1                 0.0000
      8 ****        -4.4131   1.8741  -2.2066 C.3            1 S1                 0.0000
      9 ****        -5.0625   1.2091  -3.4250 C.2            1 S1                 0.0000
     10 ****        -5.0066  -0.1223  -3.6748 C.2            1 S1                 0.0000
     11 ****        -4.2521  -1.1224  -2.7924 C.3            1 S1                 0.0000
     12 ****        -3.3048  -0.3316  -1.8821 C.3            1 S1                 0.0000
     13 ****        -2.5631  -0.9667  -0.7158 C.2            1 S1                 0.0000
     14 ****        -2.0726  -2.0948  -0.7505 O.2            1 S1                 0.0000
     15 ****         0.6673  -0.2061   2.2551 N.am           1 S1                 0.0000
     16 ****         2.0952   0.0890   2.2660 C.3            1 S1                 0.0000
     17 ****         2.8770  -0.8647   1.3467 C.3            1 S1                 0.0000
     18 ****         4.3619  -0.5597   1.3354 C.ar           1 S1                 0.0000
     19 ****         5.2874  -1.2933   2.1089 C.ar           1 S1                 0.0000
     20 ****         6.6547  -0.9502   2.0548 C.ar           1 S1                 0.0000
     21 ****         7.0665   0.1180   1.2309 C.ar           1 S1                 0.0000
     22 ****         6.0992   0.8178   0.4812 C.ar           1 S1                 0.0000
     23 ****         4.7990   0.4589   0.5596 N.pl3          1 S1                 1.0000
     24 ****        -1.6755  -1.3053   1.7915 H              1 S1                 0.0000
     25 ****        -2.0637   0.3068   2.3232 H              1 S1                 0.0000
     26 ****        -5.0166   0.3789  -0.8061 H              1 S1                 0.0000
     27 ****        -5.1103   2.5898  -1.7702 H              1 S1                 0.0000
     28 ****        -3.5249   2.4251  -2.5176 H              1 S1                 0.0000
     29 ****        -5.5924   1.8587  -4.1061 H              1 S1                 0.0000
     30 ****        -5.5096  -0.5252  -4.5415 H              1 S1                 0.0000
     31 ****        -4.9637  -1.7157  -2.2173 H              1 S1                 0.0000
     32 ****        -3.6846  -1.8067  -3.4237 H              1 S1                 0.0000
     33 ****        -2.5277   0.1054  -2.5140 H              1 S1                 0.0000
     34 ****         0.3010  -0.7327   3.0352 H              1 S1                 0.0000
     35 ****         2.2607   1.1278   1.9740 H              1 S1                 0.0000
     36 ****         2.4546  -0.0060   3.2911 H              1 S1                 0.0000
     37 ****         2.7252  -1.8974   1.6644 H              1 S1                 0.0000
     38 ****         2.5022  -0.8002   0.3241 H              1 S1                 0.0000
     39 ****         4.9559  -2.1078   2.7367 H              1 S1                 0.0000
     40 ****         7.3790  -1.4994   2.6386 H              1 S1                 0.0000
     41 ****         8.1088   0.3967   1.1756 H              1 S1                 0.0000
     42 ****         6.3239   1.6472  -0.1734 H              1 S1                 0.0000
     43 ****         4.1155   0.9789   0.0084 H              1 S1                 0.0000
     44 ****        -0.5140   1.0762  -0.3890 LP             1 S1                 0.0000
     45 ****         1.1180   1.0865   0.1910 LP             1 S1                 0.0000
     46 ****        -2.6994   2.1496   1.5290 LP             1 S1                 0.0000
     47 ****        -3.8428   2.8192   0.4136 LP             1 S1                 0.0000
     48 ****        -1.5420  -2.4334   0.0266 LP             1 S1                 0.0000
     49 ****        -2.2047  -2.6729  -1.5557 LP             1 S1                 0.0000
@<TRIPOS>BOND
    1    1    2 2     
    2    2    3 1     
    3    2   15 am    
    4    3    4 1     
    5    3   24 1     
    6    3   25 1     
    7    4   13 am    
    8    4    5 am    
    9    5    6 2     
   10    5    7 1     
   11    7   12 1     
   12    7    8 1     
   13    7   26 1     
   14    8    9 1     
   15    8   27 1     
   16    8   28 1     
   17    9   10 2     
   18    9   29 1     
   19   10   11 1     
   20   10   30 1     
   21   11   12 1     
   22   11   31 1     
   23   11   32 1     
   24   12   13 1     
   25   12   33 1     
   26   13   14 2     
   27   15   16 1     
   28   15   34 1     
   29   16   17 1     
   30   16   35 1     
   31   16   36 1     
   32   17   18 1     
   33   17   37 1     
   34   17   38 1     
   35   18   23 ar    
   36   18   19 ar    
   37   19   20 ar    
   38   19   39 1     
   39   20   21 ar    
   40   20   40 1     
   41   21   22 ar    
   42   21   41 1     
   43   22   23 ar    
   44   22   42 1     
   45   23   43 1     
   46    1   44 1     
   47    1   45 1     
   48    6   46 1     
   49    6   47 1     
   50   14   48 1     
   51   14   49 1     
@<TRIPOS>SUBSTRUCTURE
      1 S1             1
@<TRIPOS>SET
LONE_PAIRS      STATIC     ATOMS    <user>   **** ""
6 44 45 46 47 48 49
DONOR_HYDROGENS      STATIC     ATOMS    <user>   **** ""
2 34 43
ATOM$BLUE        STATIC     ATOMS    COLORGROUP SYSTEM
6 44 45 46 47 48 49
ATOM$RED        STATIC     ATOMS    COLORGROUP SYSTEM
2 34 43
