#       Name:                AV-unprocessed.smi:1621
#       Creating user name   scv26
#       Creation time:       Fri Mar 27 07:15:57 2020


#       File generated by GOLD software.
#

@<TRIPOS>MOLECULE
AV-unprocessed.smi:1621
    42    43     1
SMALL
NO_CHARGES


@<TRIPOS>ATOM
      1 ****        -2.2911  -3.5674  -2.1739 C.3            1 S1                 0.0000
      2 ****        -2.4286  -2.1076  -1.9823 N.4            1 S1                 1.0000
      3 ****        -1.9656  -1.3367  -3.1629 C.3            1 S1                 0.0000
      4 ****        -2.2201   0.1712  -2.9782 C.3            1 S1                 0.0000
      5 ****        -1.5808   0.7183  -1.6868 C.3            1 S1                 0.0000
      6 ****        -0.0436   0.8438  -1.8084 C.3            1 S1                 0.0000
      7 ****         0.5557   1.4953  -0.6466 N.am           1 S1                 0.0000
      8 ****         1.2156   0.8736   0.3417 C.2            1 S1                 0.0000
      9 ****         1.3870  -0.3444   0.3791 O.2            1 S1                 0.0000
     10 ****         1.6550   1.7530   1.2593 N.am           1 S1                 0.0000
     11 ****         2.3759   1.5151   2.4628 C.ar           1 S1                 0.0000
     12 ****         2.9595   2.6347   3.0972 C.ar           1 S1                 0.0000
     13 ****         3.6740   2.4618   4.3000 C.ar           1 S1                 0.0000
     14 ****         3.7911   1.2305   4.8408 N.pl3          1 S1                 1.0000
     15 ****         3.2447   0.1318   4.2780 C.ar           1 S1                 0.0000
     16 ****         2.5176   0.2427   3.0751 C.ar           1 S1                 0.0000
     17 ****        -2.0599  -0.1419  -0.4977 C.3            1 S1                 0.0000
     18 ****        -1.7947  -1.6406  -0.7247 C.3            1 S1                 0.0000
     19 ****        -1.2436  -3.8502  -2.2870 H              1 S1                 0.0000
     20 ****        -2.8317  -3.8916  -3.0637 H              1 S1                 0.0000
     21 ****        -2.7018  -4.1087  -1.3210 H              1 S1                 0.0000
     22 ****        -0.9056  -1.5288  -3.3347 H              1 S1                 0.0000
     23 ****        -2.4936  -1.6848  -4.0515 H              1 S1                 0.0000
     24 ****        -1.8534   0.7212  -3.8455 H              1 S1                 0.0000
     25 ****        -3.2965   0.3458  -2.9455 H              1 S1                 0.0000
     26 ****        -1.9658   1.7282  -1.5370 H              1 S1                 0.0000
     27 ****         0.4193  -0.1265  -1.9910 H              1 S1                 0.0000
     28 ****         0.2008   1.4549  -2.6778 H              1 S1                 0.0000
     29 ****         0.4656   2.5000  -0.5979 H              1 S1                 0.0000
     30 ****         1.4782   2.7252   1.0520 H              1 S1                 0.0000
     31 ****         2.8651   3.6213   2.6665 H              1 S1                 0.0000
     32 ****         4.1498   3.2659   4.8423 H              1 S1                 0.0000
     33 ****         3.3995  -0.7979   4.8059 H              1 S1                 0.0000
     34 ****         2.0792  -0.6505   2.6591 H              1 S1                 0.0000
     35 ****        -1.6014   0.1850   0.4351 H              1 S1                 0.0000
     36 ****        -3.1322   0.0070  -0.3630 H              1 S1                 0.0000
     37 ****        -2.1948  -2.2091   0.1158 H              1 S1                 0.0000
     38 ****        -0.7231  -1.8407  -0.7563 H              1 S1                 0.0000
     39 ****        -3.4176  -1.9236  -1.8895 H              1 S1                 0.0000
     40 ****         4.3106   1.1264   5.7130 H              1 S1                 0.0000
     41 ****         1.0259  -0.9229  -0.3524 LP             1 S1                 0.0000
     42 ****         1.8874  -0.7558   1.1409 LP             1 S1                 0.0000
@<TRIPOS>BOND
    1    1    2 1     
    2    1   19 1     
    3    1   20 1     
    4    1   21 1     
    5    2   18 1     
    6    2    3 1     
    7    2   39 1     
    8    3    4 1     
    9    3   22 1     
   10    3   23 1     
   11    4    5 1     
   12    4   24 1     
   13    4   25 1     
   14    5    6 1     
   15    5   17 1     
   16    5   26 1     
   17    6    7 1     
   18    6   27 1     
   19    6   28 1     
   20    7    8 am    
   21    7   29 1     
   22    8    9 2     
   23    8   10 am    
   24   10   11 1     
   25   10   30 1     
   26   11   16 ar    
   27   11   12 ar    
   28   12   13 ar    
   29   12   31 1     
   30   13   14 ar    
   31   13   32 1     
   32   14   15 ar    
   33   14   40 1     
   34   15   16 ar    
   35   15   33 1     
   36   16   34 1     
   37   17   18 1     
   38   17   35 1     
   39   17   36 1     
   40   18   37 1     
   41   18   38 1     
   42    9   41 1     
   43    9   42 1     
@<TRIPOS>SUBSTRUCTURE
      1 S1             1
@<TRIPOS>SET
LONE_PAIRS      STATIC     ATOMS    <user>   **** ""
2 41 42
DONOR_HYDROGENS      STATIC     ATOMS    <user>   **** ""
4 39 29 30 40
ATOM$BLUE        STATIC     ATOMS    COLORGROUP SYSTEM
2 41 42
ATOM$RED        STATIC     ATOMS    COLORGROUP SYSTEM
4 39 29 30 40
