AV-unprocessed.smi:54|AV-procd|sdf|535|dock2
  -GOLD-   2262016413D 1   1.00000     0.00000
 Structure written by MMmdl.
 44 46  0  0  0  0  0  0  0  0  1 V2000
  146.1149  136.8829  162.4718 C   0  0  0  0  0  0  0  0  0  0  0  0
  146.7372  135.7767  161.6043 C   0  0  0  0  0  0  0  0  0  0  0  0
  147.3819  134.6829  162.4709 C   0  0  0  0  0  0  0  0  0  0  0  0
  147.7625  136.3690  160.6317 C   0  0  0  0  0  0  0  0  0  0  0  0
  148.7968  136.9128  161.0195 O   0  0  0  0  0  0  0  0  0  0  0  0
  147.4446  136.2350  159.2241 N   0  0  0  0  0  0  0  0  0  0  0  0
  148.1902  136.7000  158.1985 C   0  0  0  0  0  0  0  0  0  0  0  0
  147.6561  137.3488  157.1746 N   0  0  0  0  0  0  0  0  0  0  0  0
  148.5466  137.7422  156.2123 C   0  0  0  0  0  0  0  0  0  0  0  0
  149.9094  137.5140  156.2319 C   0  0  0  0  0  0  0  0  0  0  0  0
  150.5078  138.0623  155.1059 N   0  0  0  0  0  0  0  0  0  0  0  0
  149.5149  138.5892  154.4492 C   0  0  0  0  0  0  0  0  0  0  0  0
  148.2812  138.4231  155.0325 N   0  0  0  0  0  0  0  0  0  0  0  0
  146.9749  138.9356  154.4876 C   0  0  2  0  0  0  0  0  0  0  0  0
  146.1171  137.8576  154.2868 O   0  0  0  0  0  0  0  0  0  0  0  0
  146.1463  137.4553  152.9247 C   0  0  1  0  0  0  0  0  0  0  0  0
  144.8302  136.7508  152.5622 C   0  0  0  0  0  0  0  0  0  0  0  0
  144.7961  136.4624  151.1808 O   0  0  0  0  0  0  0  0  0  0  0  0
  146.3514  138.7784  152.1701 C   0  0  2  0  0  0  0  0  0  0  0  0
  147.1028  138.5617  150.9932 O   0  0  0  0  0  0  0  0  0  0  0  0
  147.1197  139.6735  153.1459 C   0  0  1  0  0  0  0  0  0  0  0  0
  146.5222  140.9535  153.2005 O   0  0  0  0  0  0  0  0  0  0  0  0
  150.4987  136.7943  157.3246 C   0  0  0  0  0  0  0  0  0  0  0  0
  151.6797  136.4972  157.4923 O   0  0  0  0  0  0  0  0  0  0  0  0
  149.5501  136.4119  158.2794 N   0  0  0  0  0  0  0  0  0  0  0  0
  146.5912  139.5699  155.2881 H   0  0  0  0  0  0  0  0  0  0  0  0
  146.9885  136.7834  152.7658 H   0  0  0  0  0  0  0  0  0  0  0  0
  145.3863  139.2203  151.9159 H   0  0  0  0  0  0  0  0  0  0  0  0
  148.1705  139.7959  152.8838 H   0  0  0  0  0  0  0  0  0  0  0  0
  145.6718  137.6680  161.8577 H   0  0  0  0  0  0  0  0  0  0  0  0
  146.8569  137.3486  163.1219 H   0  0  0  0  0  0  0  0  0  0  0  0
  145.3257  136.4813  163.1077 H   0  0  0  0  0  0  0  0  0  0  0  0
  145.9385  135.3187  161.0189 H   0  0  0  0  0  0  0  0  0  0  0  0
  147.8281  133.9004  161.8561 H   0  0  0  0  0  0  0  0  0  0  0  0
  146.6400  134.2088  163.1139 H   0  0  0  0  0  0  0  0  0  0  0  0
  148.1644  135.0887  163.1136 H   0  0  0  0  0  0  0  0  0  0  0  0
  146.6301  135.6846  158.9945 H   0  0  0  0  0  0  0  0  0  0  0  0
  149.6562  139.1073  153.5117 H   0  0  0  0  0  0  0  0  0  0  0  0
  144.6923  135.8399  153.1457 H   0  0  0  0  0  0  0  0  0  0  0  0
  143.9854  137.4056  152.7779 H   0  0  0  0  0  0  0  0  0  0  0  0
  144.5825  137.2553  150.7133 H   0  0  0  0  0  0  0  0  0  0  0  0
  148.0138  138.7265  151.1864 H   0  0  0  0  0  0  0  0  0  0  0  0
  145.5995  140.8614  153.0185 H   0  0  0  0  0  0  0  0  0  0  0  0
  149.8935  135.9030  159.0806 H   0  0  0  0  0  0  0  0  0  0  0  0
  1  2  1  0  0  0  0
  1 30  1  0  0  0  0
  1 31  1  0  0  0  0
  1 32  1  0  0  0  0
  2  3  1  0  0  0  0
  2  4  1  0  0  0  0
  2 33  1  0  0  0  0
  3 34  1  0  0  0  0
  3 35  1  0  0  0  0
  3 36  1  0  0  0  0
  4  5  2  0  0  0  0
  4  6  1  0  0  0  0
  6 37  1  0  0  0  0
  6  7  1  0  0  0  0
  7 25  1  0  0  0  0
  7  8  2  0  0  0  0
  8  9  1  0  0  0  0
  9 13  1  0  0  0  0
  9 10  2  0  0  0  0
 10 11  1  0  0  0  0
 10 23  1  0  0  0  0
 11 12  2  0  0  0  0
 12 13  1  0  0  0  0
 12 38  1  0  0  0  0
 13 14  1  0  0  0  0
 14 26  1  0  0  0  0
 14 21  1  0  0  0  0
 14 15  1  0  0  0  0
 15 16  1  0  0  0  0
 16 27  1  0  0  0  0
 16 17  1  0  0  0  0
 16 19  1  0  0  0  0
 17 18  1  0  0  0  0
 17 39  1  0  0  0  0
 17 40  1  0  0  0  0
 18 41  1  0  0  0  0
 19 28  1  0  0  0  0
 19 20  1  0  0  0  0
 19 21  1  0  0  0  0
 20 42  1  0  0  0  0
 21 29  1  0  0  0  0
 21 22  1  0  0  0  0
 22 43  1  0  0  0  0
 23 24  2  0  0  0  0
 23 25  1  0  0  0  0
 25 44  1  0  0  0  0
M  END
> <s_m_source_file>
AV-unprocessed.smi

> <i_m_source_file_index>
54

> <i_lp_mmshare_version>
43012

> <i_f3d_flags>
0

> <s_epik_input>
W0NIM11bQ0hdKFtDSDNdKUMoPU8pW05IXWMobjEpW25IXWMoPU8pYyhjMTIpbltjSF1uMltDQEBIXTNPW0NASF0oW0NIMl1bT0hdKVtDQEBIXShbT0hdKVtDQEhdM1tPSF0=

> <s_epik_cmdline>
J2VwaWtfcHl0aG9uJywgJy1waCcsICc3LjAnLCAnLXRuJywgJzgnLCAnLW1hJywgJzIwMCcsICctbWV0YWxfYmluZGluZycsICctaW1hZScsICc8aW5maWxlLm1hZT4nLCAnLW9tYWUnLCAnPG91dGZpbGUubWFlPic=

> <r_lp_tautomer_probability>
0.85571

> <r_epik_Ionization_Penalty>
0.0316551

> <r_epik_Ionization_Penalty_Charging>
0.0316043

> <r_epik_Ionization_Penalty_Neutral>
5.07097e-05

> <r_epik_State_Penalty>
3.15494e-07

> <r_epik_Charging_Adjusted_Penalty>
0.0316047

> <i_epik_Tot_Q>
0

> <i_epik_Tot_abs_Q>
0

> <r_epik_Metal_State_Penalty>
0.421206

> <b_epik_Metal_Only>
0

> <s_epik_Chemistry_Notes>
This compound contains an acetal/aminal-like group ( X-CH(R)-Y where X, Y are N, S, or O) that may be acid/base labile, releasing an aldehyde.

> <s_lp_Force_Field>
OPLS_2005

> <r_lp_Energy>
37.5812

> <b_lp_Chiralities_Consistent>
1

> <s_lp_Variant>
AV-unprocessed.smi:54-7

> <Gold.Version>
5.8.1

> <Gold.Id.Protein>
6NUR|6NUR_protein|mol2

> <Gold.PLP.Fitness>
44.9498

> <Gold.PLP.PLP>
-30.8644

> <Gold.PLP.part.hbond>
-5.9487

> <Gold.PLP.part.metal>
0.0000

> <Gold.PLP.part.buried>
-4.5847

> <Gold.PLP.part.nonpolar>
-21.0375

> <Gold.PLP.part.repulsive>
0.4009

> <Gold.PLP.ligand.clash>
0.0000

> <Gold.PLP.ligand.torsion>
0.4225

> <Gold.PLP.Chemscore.Hbond>
3.9600

> <Gold.PLP.Chemscore.CHOScore>
1.0000

> <Gold.PLP.Chemscore.Metal>
0.0000

> <Gold.Chemscore.Hbonds>
donor molecule, donor type, donor heavy atom, donor atom, acceptor molecule, acceptor atom, score
      L1  H    18    41       P1 10171  1.00
      L1  H    20    42       P1  7957  0.96
      L1  H    22    43       P1 10175  1.00
      P1  H  6931  6943       L1     5  1.00
      L1  C    12    38       P1  7957  1.00

> <Gold.PLP.Chemscore.Internal.Correction>
0.0503

> <Gold.Rescore>
     Score         DG    S(hbond)    S(metal)    S(lipo)     H(rot)  DE(clash)    DE(int)     intcor
     13.00     -13.47       3.77        0.00      49.15       4.05       0.02       0.45       ----

> <Gold.Chemscore.Fitness>
13.0024

> <Gold.Chemscore.DG>
-13.4719

> <Gold.Chemscore.ZeroCoef>
-5.4800

> <Gold.Chemscore.Hbond>
3.7746

> <Gold.Chemscore.Metal>
0.0000

> <Gold.Chemscore.Lipo>
49.1529

> <Gold.Chemscore.Internal_Hbond>
0.0000

> <Gold.Chemscore.DEClash>
0.0210

> <Gold.Chemscore.DEInternal>
0.4485

> <Gold.Chemscore.Rot>
4.0493

> <Gold.Chemscore.Internal.Correction>
   9.000000E+99

> <Gold.Chemscore.Hbonds>
donor molecule, donor type, donor heavy atom, donor atom, acceptor molecule, acceptor atom, score
      L1  H    18    41       P1 10171  1.00
      L1  H    20    42       P1  7957  0.22
      L1  H    22    43       P1 10175  0.47
      P1  H  6931  6943       L1     5  0.94

> <Gold.Chemscore.Hbond.Weighted>
-12.6073

> <Gold.Chemscore.Metal.Weighted>
-0.0000

> <Gold.Chemscore.Lipo.Weighted>
-5.7509

> <Gold.Chemscore.Internal_Hbond.Weighted>
0.0000

> <Gold.Chemscore.DEClash.Weighted>
0.0210

> <Gold.Chemscore.DEInternal.Weighted>
0.4485

> <Gold.Chemscore.Rot.Weighted>
10.3662

> <Gold.Chemscore.Internal.Correction.Weighted>
   9.000000E+99

> <Gold.Protein.RotatedTorsions>
[ 6907 6896 6895 6894 ] final  -23.60 input  -60.11 | X-H torsion
[ 7974 7965 7964 7962 ] final -132.67 input  175.53 | X-H torsion
[ 8008 7997 7996 7995 ] final -173.05 input   59.86 | X-H torsion
[ 10167 10162 10161 10158 ] final  127.91 input  -65.29 | X-H torsion
[ 10718 10713 10712 10709 ] final  115.39 input   66.30 | X-H torsion
[ 10763 10752 10751 10750 ] final  109.11 input  -60.55 | X-H torsion
[ 11005 11000 10999 10996 ] final -179.94 input  -57.11 | X-H torsion

> <Gold.Protein.ActiveResidues>
 VAL166  LYS551  ARG553  GLY616  TRP617  ASP618  TYR619  PRO620  LYS621  CYS622 
 ASP623  PHE694  ASN695  SER759  ASP760  ASP761  ALA762  ILE779  LEU786  VAL792 
 PHE793  MET794  SER795  GLU796  ALA797  LYS798  CYS799  TRP800  GLU811  SER814 

> <Gold.Protein.RotatedAtoms>
  151.2016  135.0445  159.8874 H   0  0  0  0  0  0  0  0  0  0  0  0  # atno 6907 bound_to 6896
  152.5432  134.0843  159.8259 H   0  0  0  0  0  0  0  0  0  0  0  0  # atno 6908 bound_to 6896
  151.0985  133.5214  159.2643 H   0  0  0  0  0  0  0  0  0  0  0  0  # atno 6909 bound_to 6896
  144.9264  140.7076  143.4933 H   0  0  0  0  0  0  0  0  0  0  0  0  # atno 7974 bound_to 7965
  155.9525  140.1129  157.0965 H   0  0  0  0  0  0  0  0  0  0  0  0  # atno 8008 bound_to 7997
  154.4113  140.1198  156.5138 H   0  0  0  0  0  0  0  0  0  0  0  0  # atno 8009 bound_to 7997
  155.6824  140.3473  155.4863 H   0  0  0  0  0  0  0  0  0  0  0  0  # atno 8010 bound_to 7997
  139.5554  144.6845  151.4198 H   0  0  0  0  0  0  0  0  0  0  0  0  # atno 10167 bound_to 10162
  157.6224  131.1012  150.7323 H   0  0  0  0  0  0  0  0  0  0  0  0  # atno 10718 bound_to 10713
  153.4301  135.3790  155.2165 H   0  0  0  0  0  0  0  0  0  0  0  0  # atno 10763 bound_to 10752
  154.8749  135.3838  154.4279 H   0  0  0  0  0  0  0  0  0  0  0  0  # atno 10764 bound_to 10752
  153.4810  135.7088  153.6001 H   0  0  0  0  0  0  0  0  0  0  0  0  # atno 10765 bound_to 10752
  140.4131  134.6674  157.4624 H   0  0  0  0  0  0  0  0  0  0  0  0  # atno 11005 bound_to 11000
  145.3213  139.1787  143.4586 LP  0  0  0  0  0  0  0  0  0  0  0  0  # atno 17320 bound_to 7965
  146.3228  140.3230  142.8634 LP  0  0  0  0  0  0  0  0  0  0  0  0  # atno 17321 bound_to 7965
  140.6826  143.8048  150.7141 LP  0  0  0  0  0  0  0  0  0  0  0  0  # atno 17342 bound_to 10162
  140.1506  143.4361  152.2134 LP  0  0  0  0  0  0  0  0  0  0  0  0  # atno 17343 bound_to 10162
  156.7678  130.4819  149.5424 LP  0  0  0  0  0  0  0  0  0  0  0  0  # atno 17370 bound_to 10713
  156.1377  130.6223  151.0424 LP  0  0  0  0  0  0  0  0  0  0  0  0  # atno 17371 bound_to 10713
  140.0253  134.6486  155.9181 LP  0  0  0  0  0  0  0  0  0  0  0  0  # atno 17394 bound_to 11000
  141.1813  133.6547  156.5034 LP  0  0  0  0  0  0  0  0  0  0  0  0  # atno 17395 bound_to 11000

$$$$
