AV-unprocessed.smi:72|AV-procd|sdf|726|dock9
  -GOLD-   2262017 53D 1   1.00000     0.00000
 Structure written by MMmdl.
 28 29  0  0  0  0  0  0  0  0  2 V2000
  148.2962  136.6004  161.1044 N   0  0  0  0  0  0  0  0  0  0  0  0
  148.4931  136.7593  159.8695 C   0  0  0  0  0  0  0  0  0  0  0  0
  147.9162  137.8940  159.1819 N   0  0  0  0  0  0  0  0  0  0  0  0
  148.1342  138.0030  157.9074 C   0  0  0  0  0  0  0  0  0  0  0  0
  148.9185  137.0181  157.1750 N   0  0  0  0  0  0  0  0  0  0  0  0
  149.1833  137.1655  155.6919 C   0  0  1  0  0  0  0  0  0  0  0  0
  148.5274  138.3053  155.2135 O   0  0  0  0  0  0  0  0  0  0  0  0
  149.4152  139.0826  154.4158 C   0  0  1  0  0  0  0  0  0  0  0  0
  148.9890  140.5586  154.4498 C   0  0  0  0  0  0  0  0  0  0  0  0
  149.2942  141.1834  153.2212 O   0  0  0  0  0  0  0  0  0  0  0  0
  150.7681  138.8211  155.0780 C   0  0  2  0  0  0  0  0  0  0  0  0
  151.8696  139.1379  154.2476 O   0  0  0  0  0  0  0  0  0  0  0  0
  150.6883  137.3413  155.4346 C   0  0  2  0  0  0  0  0  0  0  0  0
  151.1218  136.4979  154.3834 O   0  0  0  0  0  0  0  0  0  0  0  0
  149.5023  135.9337  157.8819 C   0  0  0  0  0  0  0  0  0  0  0  0
  150.2056  135.1415  157.2541 O   0  0  0  0  0  0  0  0  0  0  0  0
  149.2693  135.8248  159.2201 N   0  5  0  0  0  0  0  0  0  0  0  0
  148.7474  136.2863  155.2140 H   0  0  0  0  0  0  0  0  0  0  0  0
  149.4231  138.6916  153.3962 H   0  0  0  0  0  0  0  0  0  0  0  0
  150.8415  139.4029  155.9982 H   0  0  0  0  0  0  0  0  0  0  0  0
  151.2739  137.1093  156.3256 H   0  0  0  0  0  0  0  0  0  0  0  0
  148.7542  135.7747  161.4622 H   0  0  0  0  0  0  0  0  0  0  0  0
  147.7521  138.8336  157.3130 H   0  0  0  0  0  0  0  0  0  0  0  0
  147.9267  140.6594  154.6742 H   0  0  0  0  0  0  0  0  0  0  0  0
  149.5361  141.0890  155.2295 H   0  0  0  0  0  0  0  0  0  0  0  0
  149.2261  140.5404  152.5322 H   0  0  0  0  0  0  0  0  0  0  0  0
  152.6641  138.9843  154.7354 H   0  0  0  0  0  0  0  0  0  0  0  0
  150.5056  136.5715  153.6704 H   0  0  0  0  0  0  0  0  0  0  0  0
  1  2  2  0  0  0  0
  1 22  1  0  0  0  0
  2 17  1  0  0  0  0
  2  3  1  0  0  0  0
  3  4  2  0  0  0  0
  4  5  1  0  0  0  0
  4 23  1  0  0  0  0
  5  6  1  0  0  0  0
  5 15  1  0  0  0  0
  6 18  1  0  0  0  0
  6 13  1  0  0  0  0
  6  7  1  0  0  0  0
  7  8  1  0  0  0  0
  8 19  1  0  0  0  0
  8  9  1  0  0  0  0
  8 11  1  0  0  0  0
  9 10  1  0  0  0  0
  9 24  1  0  0  0  0
  9 25  1  0  0  0  0
 10 26  1  0  0  0  0
 11 20  1  0  0  0  0
 11 12  1  0  0  0  0
 11 13  1  0  0  0  0
 12 27  1  0  0  0  0
 13 21  1  0  0  0  0
 13 14  1  0  0  0  0
 14 28  1  0  0  0  0
 15 16  2  0  0  0  0
 15 17  1  0  0  0  0
M  CHG  1  17  -1
M  END
> <s_m_source_file>
AV-unprocessed.smi

> <i_m_source_file_index>
72

> <i_lp_mmshare_version>
43012

> <i_f3d_flags>
0

> <s_epik_input>
W05IMl1jMW5bY0hdbihjKD1PKW4xKVtDQEBIXTJPW0NASF0oW0NIMl1bT0hdKVtDQEBIXShbT0hdKVtDQEhdMltPSF0=

> <s_epik_cmdline>
J2VwaWtfcHl0aG9uJywgJy1waCcsICc3LjAnLCAnLXRuJywgJzgnLCAnLW1hJywgJzIwMCcsICctbWV0YWxfYmluZGluZycsICctaW1hZScsICc8aW5maWxlLm1hZT4nLCAnLW9tYWUnLCAnPG91dGZpbGUubWFlPic=

> <r_lp_tautomer_probability>
7.17554e-07

> <r_epik_Ionization_Penalty>
12.8705

> <r_epik_Ionization_Penalty_Charging>
5.64144

> <r_epik_Ionization_Penalty_Neutral>
7.22905

> <r_epik_State_Penalty>
3.30104

> <r_epik_Charging_Adjusted_Penalty>
8.94249

> <i_epik_Tot_Q>
-1

> <i_epik_Tot_abs_Q>
1

> <r_epik_Metal_State_Penalty>
0.529074

> <b_epik_Metal_Only>
1

> <s_epik_Chemistry_Notes>
This compound contains an acetal/aminal-like group ( X-CH(R)-Y where X, Y are N, S, or O) that may be acid/base labile, releasing an aldehyde.

> <s_lp_Force_Field>
OPLS_2005

> <r_lp_Energy>
36.315

> <b_lp_Chiralities_Consistent>
1

> <s_lp_Variant>
AV-unprocessed.smi:72-64

> <Gold.Version>
5.8.1

> <Gold.Id.Protein>
6NUR|6NUR_protein|mol2

> <Gold.PLP.Fitness>
42.0526

> <Gold.PLP.PLP>
-21.8325

> <Gold.PLP.part.hbond>
-9.3507

> <Gold.PLP.part.metal>
0.0000

> <Gold.PLP.part.buried>
-2.0182

> <Gold.PLP.part.nonpolar>
-10.9564

> <Gold.PLP.part.repulsive>
0.0760

> <Gold.PLP.ligand.clash>
0.0000

> <Gold.PLP.ligand.torsion>
0.4846

> <Gold.PLP.Chemscore.Hbond>
7.0558

> <Gold.PLP.Chemscore.CHOScore>
0.0000

> <Gold.PLP.Chemscore.Metal>
0.0000

> <Gold.Chemscore.Hbonds>
donor molecule, donor type, donor heavy atom, donor atom, acceptor molecule, acceptor atom, score
      L1  H    10    26       P1  7957  0.93
      L1  H    14    28       P1  7948  0.08
      P1  H  6896  6907       L1    17  1.70
      P1  H  6931  6943       L1     1  1.00
      P1  H  6934  6947       L1     3  0.25
      P1  H  7989  7998       L1    12  0.88
      P1  H  8011  8017       L1    10  0.90
      P1  H 10752 10763       L1    14  1.00

> <Gold.PLP.Chemscore.Internal.Correction>
0.0219

> <Gold.Rescore>
     Score         DG    S(hbond)    S(metal)    S(lipo)     H(rot)  DE(clash)    DE(int)     intcor
      9.18     -10.96       3.86        0.00      24.91       4.04       0.02       1.76       ----

> <Gold.Chemscore.Fitness>
9.1786

> <Gold.Chemscore.DG>
-10.9599

> <Gold.Chemscore.ZeroCoef>
-5.4800

> <Gold.Chemscore.Hbond>
3.8647

> <Gold.Chemscore.Metal>
0.0000

> <Gold.Chemscore.Lipo>
24.9137

> <Gold.Chemscore.Internal_Hbond>
0.0000

> <Gold.Chemscore.DEClash>
0.0234

> <Gold.Chemscore.DEInternal>
1.7579

> <Gold.Chemscore.Rot>
4.0403

> <Gold.Chemscore.Internal.Correction>
   9.000000E+99

> <Gold.Chemscore.Hbonds>
donor molecule, donor type, donor heavy atom, donor atom, acceptor molecule, acceptor atom, score
      L1  H    10    26       P1  7957  0.85
      P1  H  6896  6907       L1    17  0.15
      P1  H  6931  6943       L1     1  0.30
      P1  H  6934  6947       L1     3  0.07
      P1  H  7989  7998       L1    12  0.64
      P1  H  8011  8017       L1    10  0.17
      P1  H 10752 10763       L1    14  0.96

> <Gold.Chemscore.Hbond.Weighted>
-12.9081

> <Gold.Chemscore.Metal.Weighted>
-0.0000

> <Gold.Chemscore.Lipo.Weighted>
-2.9149

> <Gold.Chemscore.Internal_Hbond.Weighted>
0.0000

> <Gold.Chemscore.DEClash.Weighted>
0.0234

> <Gold.Chemscore.DEInternal.Weighted>
1.7579

> <Gold.Chemscore.Rot.Weighted>
10.3431

> <Gold.Chemscore.Internal.Correction.Weighted>
   9.000000E+99

> <Gold.Protein.RotatedTorsions>
[ 6907 6896 6895 6894 ] final  -59.67 input  -60.11 | X-H torsion
[ 7974 7965 7964 7962 ] final   69.37 input  175.53 | X-H torsion
[ 8008 7997 7996 7995 ] final   69.91 input   59.86 | X-H torsion
[ 10167 10162 10161 10158 ] final  121.86 input  -65.29 | X-H torsion
[ 10718 10713 10712 10709 ] final  -53.44 input   66.30 | X-H torsion
[ 10763 10752 10751 10750 ] final   48.83 input  -60.55 | X-H torsion
[ 11005 11000 10999 10996 ] final  139.17 input  -57.11 | X-H torsion

> <Gold.Protein.ActiveResidues>
 VAL166  LYS551  ARG553  GLY616  TRP617  ASP618  TYR619  PRO620  LYS621  CYS622 
 ASP623  PHE694  ASN695  SER759  ASP760  ASP761  ALA762  ILE779  LEU786  VAL792 
 PHE793  MET794  SER795  GLU796  ALA797  LYS798  CYS799  TRP800  GLU811  SER814 

> <Gold.Protein.RotatedAtoms>
  150.7913  134.6938  159.6511 H   0  0  0  0  0  0  0  0  0  0  0  0  # atno 6907 bound_to 6896
  152.4018  134.6269  160.0075 H   0  0  0  0  0  0  0  0  0  0  0  0  # atno 6908 bound_to 6896
  151.6538  133.3283  159.3194 H   0  0  0  0  0  0  0  0  0  0  0  0  # atno 6909 bound_to 6896
  145.7913  139.2935  143.1208 H   0  0  0  0  0  0  0  0  0  0  0  0  # atno 7974 bound_to 7965
  155.7307  140.3492  155.5058 H   0  0  0  0  0  0  0  0  0  0  0  0  # atno 8008 bound_to 7997
  155.9185  140.1063  157.1247 H   0  0  0  0  0  0  0  0  0  0  0  0  # atno 8009 bound_to 7997
  154.4066  140.1254  156.4635 H   0  0  0  0  0  0  0  0  0  0  0  0  # atno 8010 bound_to 7997
  139.5893  144.7019  151.3329 H   0  0  0  0  0  0  0  0  0  0  0  0  # atno 10167 bound_to 10162
  156.1535  130.4151  149.9906 H   0  0  0  0  0  0  0  0  0  0  0  0  # atno 10718 bound_to 10713
  152.9789  135.5931  154.3991 H   0  0  0  0  0  0  0  0  0  0  0  0  # atno 10763 bound_to 10752
  154.3638  135.2767  155.2307 H   0  0  0  0  0  0  0  0  0  0  0  0  # atno 10764 bound_to 10752
  154.4292  135.6040  153.6113 H   0  0  0  0  0  0  0  0  0  0  0  0  # atno 10765 bound_to 10752
  140.0236  134.9385  157.0523 H   0  0  0  0  0  0  0  0  0  0  0  0  # atno 11005 bound_to 11000
  145.9974  140.8550  143.0036 LP  0  0  0  0  0  0  0  0  0  0  0  0  # atno 17320 bound_to 7965
  144.6781  140.2302  143.7356 LP  0  0  0  0  0  0  0  0  0  0  0  0  # atno 17321 bound_to 7965
  140.7159  143.7266  150.7655 LP  0  0  0  0  0  0  0  0  0  0  0  0  # atno 17342 bound_to 10162
  140.0818  143.4961  152.2526 LP  0  0  0  0  0  0  0  0  0  0  0  0  # atno 17343 bound_to 10162
  156.7757  130.9202  151.3645 LP  0  0  0  0  0  0  0  0  0  0  0  0  # atno 17370 bound_to 10713
  157.6676  130.9022  149.9968 LP  0  0  0  0  0  0  0  0  0  0  0  0  # atno 17371 bound_to 10713
  140.4345  134.1745  155.7170 LP  0  0  0  0  0  0  0  0  0  0  0  0  # atno 17394 bound_to 11000
  141.1789  133.8456  157.1327 LP  0  0  0  0  0  0  0  0  0  0  0  0  # atno 17395 bound_to 11000

$$$$
