AV-unprocessed.smi:2895|AV-procd|sdf|11133|dock6
  -GOLD-   2272016 03D 1   1.00000     0.00000
 Structure written by MMmdl.
 54 57  0  0  0  0  0  0  0  0  3 V2000
  150.0893  134.2514  155.2661 O   0  0  0  0  0  0  0  0  0  0  0  0
  149.1538  134.8827  154.7715 C   0  0  0  0  0  0  0  0  0  0  0  0
  149.2711  136.1851  154.4550 N   0  0  0  0  0  0  0  0  0  0  0  0
  150.4709  136.9924  154.6425 C   0  0  0  0  0  0  0  0  0  0  0  0
  150.3983  137.8205  155.9353 C   0  0  0  0  0  0  0  0  0  0  0  0
  150.1751  139.2945  155.6568 C   0  0  0  0  0  0  0  0  0  0  0  0
  150.9241  140.2751  156.3443 C   0  0  0  0  0  0  0  0  0  0  0  0
  150.6955  141.6376  156.0628 C   0  0  0  0  0  0  0  0  0  0  0  0
  149.7700  141.9889  155.1432 N   0  3  0  0  0  0  0  0  0  0  0  0
  149.0345  141.0828  154.4620 C   0  0  0  0  0  0  0  0  0  0  0  0
  149.2189  139.7058  154.7020 C   0  0  0  0  0  0  0  0  0  0  0  0
  147.9477  134.3240  154.4815 N   0  0  0  0  0  0  0  0  0  0  0  0
  146.7662  135.1209  154.0744 C   0  0  0  0  0  0  0  0  0  0  0  0
  145.4158  134.4166  154.2899 C   0  0  0  0  0  0  0  0  0  0  0  0
  145.4215  133.0219  153.7924 N   0  3  0  0  0  0  0  0  0  0  0  0
  145.5310  132.8640  152.3073 C   0  0  1  0  0  0  0  0  0  0  0  0
  145.1941  131.4222  151.8425 C   0  0  0  0  0  0  0  0  0  0  0  0
  144.1112  131.6304  150.7713 C   0  0  2  0  0  0  0  0  0  0  0  0
  144.7297  132.2955  149.5298 C   0  0  0  0  0  0  0  0  0  0  0  0
  144.9797  133.7349  150.0122 C   0  0  0  0  0  0  0  0  0  0  0  0
  144.5096  133.6937  151.4798 C   0  0  1  0  0  0  0  0  0  0  0  0
  143.3032  132.7668  151.3818 C   0  0  0  0  0  0  0  0  0  0  0  0
  146.4420  132.2622  154.5519 C   0  0  0  0  0  0  0  0  0  0  0  0
  147.8583  132.8501  154.3969 C   0  0  0  0  0  0  0  0  0  0  0  0
  148.4732  136.6456  154.0417 H   0  0  0  0  0  0  0  0  0  0  0  0
  151.3563  136.3542  154.6459 H   0  0  0  0  0  0  0  0  0  0  0  0
  150.5700  137.6540  153.7814 H   0  0  0  0  0  0  0  0  0  0  0  0
  149.5906  137.4539  156.5703 H   0  0  0  0  0  0  0  0  0  0  0  0
  151.3174  137.7047  156.5114 H   0  0  0  0  0  0  0  0  0  0  0  0
  151.6649  139.9888  157.0772 H   0  0  0  0  0  0  0  0  0  0  0  0
  151.2212  142.4508  156.5416 H   0  0  0  0  0  0  0  0  0  0  0  0
  148.3265  141.4835  153.7512 H   0  0  0  0  0  0  0  0  0  0  0  0
  148.6348  138.9767  154.1592 H   0  0  0  0  0  0  0  0  0  0  0  0
  146.7139  136.0656  154.6179 H   0  0  0  0  0  0  0  0  0  0  0  0
  146.8805  135.3792  153.0207 H   0  0  0  0  0  0  0  0  0  0  0  0
  145.2036  134.3892  155.3598 H   0  0  0  0  0  0  0  0  0  0  0  0
  144.6022  135.0016  153.8675 H   0  0  0  0  0  0  0  0  0  0  0  0
  146.5431  133.1291  151.9999 H   0  0  0  0  0  0  0  0  0  0  0  0
  146.0675  130.8958  151.4551 H   0  0  0  0  0  0  0  0  0  0  0  0
  144.7766  130.8192  152.6497 H   0  0  0  0  0  0  0  0  0  0  0  0
  143.5404  130.7290  150.5464 H   0  0  0  0  0  0  0  0  0  0  0  0
  145.6454  131.7981  149.2072 H   0  0  0  0  0  0  0  0  0  0  0  0
  144.0301  132.2873  148.6927 H   0  0  0  0  0  0  0  0  0  0  0  0
  146.0237  134.0340  149.9129 H   0  0  0  0  0  0  0  0  0  0  0  0
  144.3786  134.4389  149.4351 H   0  0  0  0  0  0  0  0  0  0  0  0
  144.2869  134.6914  151.8509 H   0  0  0  0  0  0  0  0  0  0  0  0
  142.5199  133.1437  150.7216 H   0  0  0  0  0  0  0  0  0  0  0  0
  142.8662  132.5190  152.3506 H   0  0  0  0  0  0  0  0  0  0  0  0
  146.1636  132.2831  155.6065 H   0  0  0  0  0  0  0  0  0  0  0  0
  146.4447  131.2080  154.2774 H   0  0  0  0  0  0  0  0  0  0  0  0
  148.2680  132.5516  153.4310 H   0  0  0  0  0  0  0  0  0  0  0  0
  148.4896  132.3727  155.1487 H   0  0  0  0  0  0  0  0  0  0  0  0
  144.5254  132.6290  154.0433 H   0  0  0  0  0  0  0  0  0  0  0  0
  149.6204  142.9805  154.9551 H   0  0  0  0  0  0  0  0  0  0  0  0
  1  2  2  0  0  0  0
  2  3  1  0  0  0  0
  2 12  1  0  0  0  0
  3  4  1  0  0  0  0
  3 25  1  0  0  0  0
  4  5  1  0  0  0  0
  4 26  1  0  0  0  0
  4 27  1  0  0  0  0
  5  6  1  0  0  0  0
  5 28  1  0  0  0  0
  5 29  1  0  0  0  0
  6 11  1  0  0  0  0
  6  7  2  0  0  0  0
  7  8  1  0  0  0  0
  7 30  1  0  0  0  0
  8  9  2  0  0  0  0
  8 31  1  0  0  0  0
  9 10  1  0  0  0  0
  9 54  1  0  0  0  0
 10 11  2  0  0  0  0
 10 32  1  0  0  0  0
 11 33  1  0  0  0  0
 12 24  1  0  0  0  0
 12 13  1  0  0  0  0
 13 14  1  0  0  0  0
 13 34  1  0  0  0  0
 13 35  1  0  0  0  0
 14 15  1  0  0  0  0
 14 36  1  0  0  0  0
 14 37  1  0  0  0  0
 15 16  1  0  0  0  0
 15 23  1  0  0  0  0
 15 53  1  0  0  0  0
 16 21  1  0  0  0  0
 16 17  1  0  0  0  0
 16 38  1  0  0  0  0
 17 18  1  0  0  0  0
 17 39  1  0  0  0  0
 17 40  1  0  0  0  0
 18 22  1  0  0  0  0
 18 19  1  0  0  0  0
 18 41  1  0  0  0  0
 19 20  1  0  0  0  0
 19 42  1  0  0  0  0
 19 43  1  0  0  0  0
 20 21  1  0  0  0  0
 20 44  1  0  0  0  0
 20 45  1  0  0  0  0
 21 22  1  0  0  0  0
 21 46  1  0  0  0  0
 22 47  1  0  0  0  0
 22 48  1  0  0  0  0
 23 24  1  0  0  0  0
 23 49  1  0  0  0  0
 23 50  1  0  0  0  0
 24 51  1  0  0  0  0
 24 52  1  0  0  0  0
M  CHG  1   9   1
M  CHG  1  15   1
M  END
> <s_m_source_file>
AV-unprocessed.smi

> <i_m_source_file_index>
2895

> <i_lp_mmshare_version>
43012

> <i_f3d_flags>
0

> <s_epik_input>
W0NIMl0xW0NIMl1bQ0BASF0oW0NIMl0yKVtDQEBIXShbQ0gyXVtDQEhdMTIpTihbQ0gyXVtDSDJdMylbQ0gyXVtDSDJdTjNDKD1PKVtOSF1bQ0gyXVtDSDJdYzRbY0hdW2NIXW5bY0hdW2NIXTQ=

> <s_epik_cmdline>
J2VwaWtfcHl0aG9uJywgJy1waCcsICc3LjAnLCAnLXRuJywgJzgnLCAnLW1hJywgJzIwMCcsICctbWV0YWxfYmluZGluZycsICctaW1hZScsICc8aW5maWxlLm1hZT4nLCAnLW9tYWUnLCAnPG91dGZpbGUubWFlPic=

> <r_epik_Ionization_Penalty>
1.44916

> <r_epik_Ionization_Penalty_Charging>
1.44913

> <r_epik_Ionization_Penalty_Neutral>
2.64641e-05

> <r_epik_State_Penalty>
1.53218

> <r_epik_Charging_Adjusted_Penalty>
2.98131

> <i_epik_Tot_Q>
2

> <i_epik_Tot_abs_Q>
2

> <r_epik_Metal_State_Penalty>
1.58241

> <b_epik_Metal_Only>
0

> <s_lp_Force_Field>
OPLS_2005

> <r_lp_Energy>
108.8

> <b_lp_Chiralities_Consistent>
1

> <s_lp_Variant>
AV-unprocessed.smi:2895-6

> <Gold.Version>
5.8.1

> <Gold.Id.Protein>
6NUR|6NUR_protein|mol2

> <Gold.PLP.Fitness>
44.8251

> <Gold.PLP.PLP>
-36.0776

> <Gold.PLP.part.hbond>
-2.6080

> <Gold.PLP.part.metal>
0.0000

> <Gold.PLP.part.buried>
-3.7109

> <Gold.PLP.part.nonpolar>
-31.6408

> <Gold.PLP.part.repulsive>
0.2952

> <Gold.PLP.ligand.clash>
0.0710

> <Gold.PLP.ligand.torsion>
0.8582

> <Gold.PLP.Chemscore.Hbond>
3.4625

> <Gold.PLP.Chemscore.CHOScore>
0.0000

> <Gold.PLP.Chemscore.Metal>
0.0000

> <Gold.Chemscore.Hbonds>
donor molecule, donor type, donor heavy atom, donor atom, acceptor molecule, acceptor atom, score
      L1  H     9    54       P1  8028  1.89
      L1  H    15    53       P1 10957  1.30

> <Gold.PLP.Chemscore.Internal.Correction>
0.1473

> <Gold.Rescore>
     Score         DG    S(hbond)    S(metal)    S(lipo)     H(rot)  DE(clash)    DE(int)     intcor
     18.98     -19.73       1.81        0.00     101.95       1.46       0.05       0.70       ----

> <Gold.Chemscore.Fitness>
18.9782

> <Gold.Chemscore.DG>
-19.7331

> <Gold.Chemscore.ZeroCoef>
-5.4800

> <Gold.Chemscore.Hbond>
1.8130

> <Gold.Chemscore.Metal>
0.0000

> <Gold.Chemscore.Lipo>
101.9500

> <Gold.Chemscore.Internal_Hbond>
0.0000

> <Gold.Chemscore.DEClash>
0.0513

> <Gold.Chemscore.DEInternal>
0.7037

> <Gold.Chemscore.Rot>
1.4572

> <Gold.Chemscore.Internal.Correction>
   9.000000E+99

> <Gold.Chemscore.Hbonds>
donor molecule, donor type, donor heavy atom, donor atom, acceptor molecule, acceptor atom, score
      L1  H     3    25       P1  7948  0.02
      L1  H     9    54       P1  8028  0.87
      L1  H    15    53       P1 10957  0.45

> <Gold.Chemscore.Hbond.Weighted>
-6.0555

> <Gold.Chemscore.Metal.Weighted>
-0.0000

> <Gold.Chemscore.Lipo.Weighted>
-11.9281

> <Gold.Chemscore.Internal_Hbond.Weighted>
0.0000

> <Gold.Chemscore.DEClash.Weighted>
0.0513

> <Gold.Chemscore.DEInternal.Weighted>
0.7037

> <Gold.Chemscore.Rot.Weighted>
3.7305

> <Gold.Chemscore.Internal.Correction.Weighted>
   9.000000E+99

> <Gold.Protein.RotatedTorsions>
[ 6907 6896 6895 6894 ] final  -81.42 input  -60.11 | X-H torsion
[ 7974 7965 7964 7962 ] final  143.74 input  175.53 | X-H torsion
[ 8008 7997 7996 7995 ] final  123.53 input   59.86 | X-H torsion
[ 10167 10162 10161 10158 ] final -138.41 input  -65.29 | X-H torsion
[ 10718 10713 10712 10709 ] final -108.82 input   66.30 | X-H torsion
[ 10763 10752 10751 10750 ] final  -65.73 input  -60.55 | X-H torsion
[ 11005 11000 10999 10996 ] final  111.63 input  -57.11 | X-H torsion

> <Gold.Protein.ActiveResidues>
 VAL166  LYS551  ARG553  GLY616  TRP617  ASP618  TYR619  PRO620  LYS621  CYS622 
 ASP623  PHE694  ASN695  SER759  ASP760  ASP761  ALA762  ILE779  LEU786  VAL792 
 PHE793  MET794  SER795  GLU796  ALA797  LYS798  CYS799  TRP800  GLU811  SER814 

> <Gold.Protein.RotatedAtoms>
  150.6912  134.3820  159.5037 H   0  0  0  0  0  0  0  0  0  0  0  0  # atno 6907 bound_to 6896
  152.1621  134.8901  160.0550 H   0  0  0  0  0  0  0  0  0  0  0  0  # atno 6908 bound_to 6896
  151.9959  133.3773  159.4199 H   0  0  0  0  0  0  0  0  0  0  0  0  # atno 6909 bound_to 6896
  144.8895  139.5579  143.5805 H   0  0  0  0  0  0  0  0  0  0  0  0  # atno 7974 bound_to 7965
  156.2769  140.2761  156.1642 H   0  0  0  0  0  0  0  0  0  0  0  0  # atno 8008 bound_to 7997
  155.0722  140.0387  157.2630 H   0  0  0  0  0  0  0  0  0  0  0  0  # atno 8009 bound_to 7997
  154.7031  140.2653  155.6706 H   0  0  0  0  0  0  0  0  0  0  0  0  # atno 8010 bound_to 7997
  139.8481  143.7235  152.2659 H   0  0  0  0  0  0  0  0  0  0  0  0  # atno 10167 bound_to 10162
  156.0505  130.5732  150.8014 H   0  0  0  0  0  0  0  0  0  0  0  0  # atno 10718 bound_to 10713
  154.3494  135.6140  153.5635 H   0  0  0  0  0  0  0  0  0  0  0  0  # atno 10763 bound_to 10752
  152.9799  135.5788  154.4761 H   0  0  0  0  0  0  0  0  0  0  0  0  # atno 10764 bound_to 10752
  154.4479  135.2852  155.1779 H   0  0  0  0  0  0  0  0  0  0  0  0  # atno 10765 bound_to 10752
  139.8908  134.9512  156.6461 H   0  0  0  0  0  0  0  0  0  0  0  0  # atno 11005 bound_to 11000
  146.3045  139.7534  142.9066 LP  0  0  0  0  0  0  0  0  0  0  0  0  # atno 17320 bound_to 7965
  145.3808  141.0358  143.3178 LP  0  0  0  0  0  0  0  0  0  0  0  0  # atno 17321 bound_to 7965
  139.7493  144.7538  151.0531 LP  0  0  0  0  0  0  0  0  0  0  0  0  # atno 17342 bound_to 10162
  140.7791  143.4879  150.9931 LP  0  0  0  0  0  0  0  0  0  0  0  0  # atno 17343 bound_to 10162
  157.5426  131.0941  150.9807 LP  0  0  0  0  0  0  0  0  0  0  0  0  # atno 17370 bound_to 10713
  157.0086  130.5628  149.5318 LP  0  0  0  0  0  0  0  0  0  0  0  0  # atno 17371 bound_to 10713
  140.7556  133.8860  155.8379 LP  0  0  0  0  0  0  0  0  0  0  0  0  # atno 17394 bound_to 11000
  140.9964  134.1209  157.4359 LP  0  0  0  0  0  0  0  0  0  0  0  0  # atno 17395 bound_to 11000

$$$$
