AV-unprocessed.smi:1582|AV-procd|sdf|6361|dock10
  -GOLD-   22720 6583D 1   1.00000     0.00000
 Structure written by MMmdl.
 41 42  0  0  0  0  0  0  0  0  2 V2000
  143.9917  135.5420  152.4860 O   0  0  0  0  0  0  0  0  0  0  0  0
  145.1801  135.4013  152.1972 C   0  0  0  0  0  0  0  0  0  0  0  0
  146.1238  136.3081  152.4866 N   0  0  0  0  0  0  0  0  0  0  0  0
  145.8840  137.5879  153.1457 C   0  0  0  0  0  0  0  0  0  0  0  0
  146.7564  138.7174  152.5589 C   0  0  2  0  0  0  0  0  0  0  0  0
  147.4815  138.1974  151.4616 O   0  0  0  0  0  0  0  0  0  0  0  0
  147.7923  139.2214  153.5856 C   0  0  0  0  0  0  0  0  0  0  0  0
  148.8419  138.2133  153.8861 N   0  3  0  0  0  0  0  0  0  0  0  0
  148.4394  137.2923  154.9811 C   0  0  0  0  0  0  0  0  0  0  0  0
  149.4751  136.1725  155.1776 C   0  0  0  0  0  0  0  0  0  0  0  0
  150.8696  136.7541  155.4411 C   0  0  0  0  0  0  0  0  0  0  0  0
  151.2519  137.7228  154.3149 C   0  0  0  0  0  0  0  0  0  0  0  0
  150.1807  138.8121  154.1376 C   0  0  0  0  0  0  0  0  0  0  0  0
  145.7009  134.3384  151.5626 N   0  0  0  0  0  0  0  0  0  0  0  0
  145.0078  133.1986  151.0820 C   0  0  0  0  0  0  0  0  0  0  0  0
  145.6309  132.0033  150.6307 C   0  0  0  0  0  0  0  0  0  0  0  0
  144.7349  131.1100  150.2360 N   0  0  0  0  0  0  0  0  0  0  0  0
  143.5458  131.7232  150.4321 N   0  0  0  0  0  0  0  0  0  0  0  0
  143.6630  132.9957  150.9459 C   0  0  0  0  0  0  0  0  0  0  0  0
  142.6724  131.2656  150.2121 H   0  0  0  0  0  0  0  0  0  0  0  0
  147.0745  136.1083  152.2115 H   0  0  0  0  0  0  0  0  0  0  0  0
  144.8319  137.8157  152.9727 H   0  0  0  0  0  0  0  0  0  0  0  0
  145.9986  137.5083  154.2285 H   0  0  0  0  0  0  0  0  0  0  0  0
  146.1202  139.5354  152.2213 H   0  0  0  0  0  0  0  0  0  0  0  0
  148.0871  137.5455  151.7837 H   0  0  0  0  0  0  0  0  0  0  0  0
  148.2685  140.1382  153.2345 H   0  0  0  0  0  0  0  0  0  0  0  0
  147.2640  139.4886  154.5025 H   0  0  0  0  0  0  0  0  0  0  0  0
  148.3142  137.8577  155.9059 H   0  0  0  0  0  0  0  0  0  0  0  0
  147.4725  136.8442  154.7493 H   0  0  0  0  0  0  0  0  0  0  0  0
  149.1765  135.5295  156.0060 H   0  0  0  0  0  0  0  0  0  0  0  0
  149.5035  135.5396  154.2894 H   0  0  0  0  0  0  0  0  0  0  0  0
  150.8769  137.2777  156.3980 H   0  0  0  0  0  0  0  0  0  0  0  0
  151.6053  135.9528  155.5167 H   0  0  0  0  0  0  0  0  0  0  0  0
  152.2180  138.1806  154.5299 H   0  0  0  0  0  0  0  0  0  0  0  0
  151.3714  137.1715  153.3811 H   0  0  0  0  0  0  0  0  0  0  0  0
  150.4707  139.4580  153.3100 H   0  0  0  0  0  0  0  0  0  0  0  0
  150.1376  139.4413  155.0281 H   0  0  0  0  0  0  0  0  0  0  0  0
  146.6955  134.3516  151.3907 H   0  0  0  0  0  0  0  0  0  0  0  0
  146.6818  131.7595  150.5763 H   0  0  0  0  0  0  0  0  0  0  0  0
  142.8039  133.6148  151.1579 H   0  0  0  0  0  0  0  0  0  0  0  0
  148.9239  137.6418  153.0569 H   0  0  0  0  0  0  0  0  0  0  0  0
  1  2  2  0  0  0  0
  2  3  1  0  0  0  0
  2 14  1  0  0  0  0
  3  4  1  0  0  0  0
  3 21  1  0  0  0  0
  4  5  1  0  0  0  0
  4 22  1  0  0  0  0
  4 23  1  0  0  0  0
  5  6  1  0  0  0  0
  5  7  1  0  0  0  0
  5 24  1  0  0  0  0
  6 25  1  0  0  0  0
  7  8  1  0  0  0  0
  7 26  1  0  0  0  0
  7 27  1  0  0  0  0
  8 13  1  0  0  0  0
  8  9  1  0  0  0  0
  8 41  1  0  0  0  0
  9 10  1  0  0  0  0
  9 28  1  0  0  0  0
  9 29  1  0  0  0  0
 10 11  1  0  0  0  0
 10 30  1  0  0  0  0
 10 31  1  0  0  0  0
 11 12  1  0  0  0  0
 11 32  1  0  0  0  0
 11 33  1  0  0  0  0
 12 13  1  0  0  0  0
 12 34  1  0  0  0  0
 12 35  1  0  0  0  0
 13 36  1  0  0  0  0
 13 37  1  0  0  0  0
 14 15  1  0  0  0  0
 14 38  1  0  0  0  0
 15 19  2  0  0  0  0
 15 16  1  0  0  0  0
 16 17  2  0  0  0  0
 16 39  1  0  0  0  0
 17 18  1  0  0  0  0
 18 20  1  0  0  0  0
 18 19  1  0  0  0  0
 19 40  1  0  0  0  0
M  CHG  1   8   1
M  END
> <s_m_source_file>
AV-unprocessed.smi

> <i_m_source_file_index>
1582

> <i_lp_mmshare_version>
43012

> <i_f3d_flags>
0

> <s_epik_input>
W2NIXTFbbkhdbltjSF1jMVtOSF1DKD1PKVtOSF1bQ0gyXVtDQEhdKFtPSF0pW0NIMl1OMltDSDJdW0NIMl1bQ0gyXVtDSDJdW0NIMl0y

> <s_epik_cmdline>
J2VwaWtfcHl0aG9uJywgJy1waCcsICc3LjAnLCAnLXRuJywgJzgnLCAnLW1hJywgJzIwMCcsICctbWV0YWxfYmluZGluZycsICctaW1hZScsICc8aW5maWxlLm1hZT4nLCAnLW9tYWUnLCAnPG91dGZpbGUubWFlPic=

> <r_lp_tautomer_probability>
0.5

> <r_epik_Ionization_Penalty>
0.00519658

> <r_epik_Ionization_Penalty_Charging>
0.00515354

> <r_epik_Ionization_Penalty_Neutral>
4.30332e-05

> <r_epik_State_Penalty>
0.00375424

> <r_epik_Charging_Adjusted_Penalty>
0.00890779

> <i_epik_Tot_Q>
1

> <i_epik_Tot_abs_Q>
1

> <r_epik_Metal_State_Penalty>
-0

> <b_epik_Metal_Only>
0

> <s_lp_Force_Field>
OPLS_2005

> <r_lp_Energy>
21.997

> <b_lp_Chiralities_Consistent>
1

> <s_lp_Variant>
AV-unprocessed.smi:1582-1

> <Gold.Version>
5.8.1

> <Gold.Id.Protein>
6NUR|6NUR_protein|mol2

> <Gold.PLP.Fitness>
48.6532

> <Gold.PLP.PLP>
-29.8377

> <Gold.PLP.part.hbond>
-6.3979

> <Gold.PLP.part.metal>
0.0000

> <Gold.PLP.part.buried>
-4.0125

> <Gold.PLP.part.nonpolar>
-21.5197

> <Gold.PLP.part.repulsive>
0.3931

> <Gold.PLP.ligand.clash>
0.0000

> <Gold.PLP.ligand.torsion>
1.3567

> <Gold.PLP.Chemscore.Hbond>
5.1625

> <Gold.PLP.Chemscore.CHOScore>
1.9972

> <Gold.PLP.Chemscore.Metal>
0.0000

> <Gold.Chemscore.Hbonds>
donor molecule, donor type, donor heavy atom, donor atom, acceptor molecule, acceptor atom, score
      L1  H     3    21       P1  7948  1.00
      L1  H     6    25       P1  7948  1.00
      L1  H     8    41       P1  7948  2.00
      L1  H    18    20       P1 10952  0.67
      P1  H  7954  7966       L1     6  0.25
      L1  C    16    39       P1 10747  1.00
      L1  C    19    40       P1 10186  0.97

> <Gold.PLP.Chemscore.Internal.Correction>
0.0497

> <Gold.Rescore>
     Score         DG    S(hbond)    S(metal)    S(lipo)     H(rot)  DE(clash)    DE(int)     intcor
     16.55     -19.67       3.82        0.00      68.98       2.59       0.74       2.38       ----

> <Gold.Chemscore.Fitness>
16.5487

> <Gold.Chemscore.DG>
-19.6699

> <Gold.Chemscore.ZeroCoef>
-5.4800

> <Gold.Chemscore.Hbond>
3.8154

> <Gold.Chemscore.Metal>
0.0000

> <Gold.Chemscore.Lipo>
68.9789

> <Gold.Chemscore.Internal_Hbond>
0.0000

> <Gold.Chemscore.DEClash>
0.7415

> <Gold.Chemscore.DEInternal>
2.3797

> <Gold.Chemscore.Rot>
2.5876

> <Gold.Chemscore.Internal.Correction>
   9.000000E+99

> <Gold.Chemscore.Hbonds>
donor molecule, donor type, donor heavy atom, donor atom, acceptor molecule, acceptor atom, score
      L1  H     3    21       P1  7948  1.00
      L1  H     6    25       P1  7948  0.94
      L1  H     8    41       P1  7948  1.00
      L1  H    18    20       P1 10952  0.52

> <Gold.Chemscore.Hbond.Weighted>
-12.7435

> <Gold.Chemscore.Metal.Weighted>
-0.0000

> <Gold.Chemscore.Lipo.Weighted>
-8.0705

> <Gold.Chemscore.Internal_Hbond.Weighted>
0.0000

> <Gold.Chemscore.DEClash.Weighted>
0.7415

> <Gold.Chemscore.DEInternal.Weighted>
2.3797

> <Gold.Chemscore.Rot.Weighted>
6.6242

> <Gold.Chemscore.Internal.Correction.Weighted>
   9.000000E+99

> <Gold.Protein.RotatedTorsions>
[ 6907 6896 6895 6894 ] final  -19.94 input  -60.11 | X-H torsion
[ 7974 7965 7964 7962 ] final  165.81 input  175.53 | X-H torsion
[ 8008 7997 7996 7995 ] final  120.81 input   59.86 | X-H torsion
[ 10167 10162 10161 10158 ] final -152.63 input  -65.29 | X-H torsion
[ 10718 10713 10712 10709 ] final -140.47 input   66.30 | X-H torsion
[ 10763 10752 10751 10750 ] final  -29.49 input  -60.55 | X-H torsion
[ 11005 11000 10999 10996 ] final -114.61 input  -57.11 | X-H torsion

> <Gold.Protein.ActiveResidues>
 VAL166  LYS551  ARG553  GLY616  TRP617  ASP618  TYR619  PRO620  LYS621  CYS622 
 ASP623  PHE694  ASN695  SER759  ASP760  ASP761  ALA762  ILE779  LEU786  VAL792 
 PHE793  MET794  SER795  GLU796  ALA797  LYS798  CYS799  TRP800  GLU811  SER814 

> <Gold.Protein.RotatedAtoms>
  151.2556  135.0637  159.9078 H   0  0  0  0  0  0  0  0  0  0  0  0  # atno 6907 bound_to 6896
  152.5374  134.0286  159.8024 H   0  0  0  0  0  0  0  0  0  0  0  0  # atno 6908 bound_to 6896
  151.0501  133.5582  159.2674 H   0  0  0  0  0  0  0  0  0  0  0  0  # atno 6909 bound_to 6896
  144.7487  139.8525  143.6373 H   0  0  0  0  0  0  0  0  0  0  0  0  # atno 7974 bound_to 7965
  156.2659  140.2822  156.1209 H   0  0  0  0  0  0  0  0  0  0  0  0  # atno 8008 bound_to 7997
  155.1156  140.0391  157.2753 H   0  0  0  0  0  0  0  0  0  0  0  0  # atno 8009 bound_to 7997
  154.6709  140.2587  155.7014 H   0  0  0  0  0  0  0  0  0  0  0  0  # atno 8010 bound_to 7997
  139.7165  143.9025  152.2488 H   0  0  0  0  0  0  0  0  0  0  0  0  # atno 10167 bound_to 10162
  156.3227  130.7543  151.1644 H   0  0  0  0  0  0  0  0  0  0  0  0  # atno 10718 bound_to 10713
  153.7656  135.6916  153.4917 H   0  0  0  0  0  0  0  0  0  0  0  0  # atno 10763 bound_to 10752
  153.1909  135.4471  155.0147 H   0  0  0  0  0  0  0  0  0  0  0  0  # atno 10764 bound_to 10752
  154.8137  135.3389  154.7168 H   0  0  0  0  0  0  0  0  0  0  0  0  # atno 10765 bound_to 10752
  141.0541  133.9640  157.2785 H   0  0  0  0  0  0  0  0  0  0  0  0  # atno 11005 bound_to 11000
  146.1406  139.4462  143.0111 LP  0  0  0  0  0  0  0  0  0  0  0  0  # atno 17320 bound_to 7965
  145.7024  141.0132  143.1497 LP  0  0  0  0  0  0  0  0  0  0  0  0  # atno 17321 bound_to 7965
  139.8909  144.6966  150.8771 LP  0  0  0  0  0  0  0  0  0  0  0  0  # atno 17342 bound_to 10162
  140.7745  143.3587  151.1871 LP  0  0  0  0  0  0  0  0  0  0  0  0  # atno 17343 bound_to 10162
  157.7415  131.0503  150.5092 LP  0  0  0  0  0  0  0  0  0  0  0  0  # atno 17370 bound_to 10713
  156.5247  130.4170  149.6232 LP  0  0  0  0  0  0  0  0  0  0  0  0  # atno 17371 bound_to 10713
  139.9375  135.0195  156.8603 LP  0  0  0  0  0  0  0  0  0  0  0  0  # atno 17394 bound_to 11000
  140.5998  134.0182  155.7533 LP  0  0  0  0  0  0  0  0  0  0  0  0  # atno 17395 bound_to 11000

$$$$
