AV-unprocessed.smi:46|AV-procd|sdf|419|dock3
  -GOLD-   2262016293D 1   1.00000     0.00000
 Structure written by MMmdl.
 35 36  0  0  0  0  0  0  0  0  2 V2000
  151.7062  145.1321  158.4094 C   0  0  0  0  0  0  0  0  0  0  0  0
  151.3904  143.8731  159.2308 C   0  0  0  0  0  0  0  0  0  0  0  0
  152.4092  143.6502  160.3584 C   0  0  0  0  0  0  0  0  0  0  0  0
  151.3061  142.7017  158.3718 N   0  0  0  0  0  0  0  0  0  0  0  0
  150.5638  142.5252  157.2219 C   0  0  0  0  0  0  0  0  0  0  0  0
  150.8085  141.2622  156.7587 C   0  0  0  0  0  0  0  0  0  0  0  0
  150.2502  140.5649  155.5451 C   0  0  2  0  0  0  0  0  0  0  0  0
  148.7271  140.4305  155.5754 C   0  0  0  0  0  0  0  0  0  0  0  0
  148.4176  139.3816  154.5889 N   0  3  0  0  0  0  0  0  0  0  0  0
  149.6277  138.5510  154.4139 C   0  0  0  0  0  0  0  0  0  0  0  0
  150.6947  139.1098  155.3733 C   0  0  1  0  0  0  0  0  0  0  0  0
  152.1399  138.9496  154.8700 C   0  0  0  0  0  0  0  0  0  0  0  0
  152.3705  137.6153  154.4726 O   0  0  0  0  0  0  0  0  0  0  0  0
  151.7299  140.7388  157.7095 C   0  0  0  0  0  0  0  0  0  0  0  0
  152.0260  141.5992  158.6686 N   0  0  0  0  0  0  0  0  0  0  0  0
  150.5208  141.1151  154.6418 H   0  0  0  0  0  0  0  0  0  0  0  0
  150.5881  138.5990  156.3324 H   0  0  0  0  0  0  0  0  0  0  0  0
  151.7117  146.0201  159.0419 H   0  0  0  0  0  0  0  0  0  0  0  0
  150.9606  145.2887  157.6292 H   0  0  0  0  0  0  0  0  0  0  0  0
  152.6823  145.0625  157.9285 H   0  0  0  0  0  0  0  0  0  0  0  0
  150.4128  144.0197  159.6940 H   0  0  0  0  0  0  0  0  0  0  0  0
  152.4305  144.5014  161.0392 H   0  0  0  0  0  0  0  0  0  0  0  0
  153.4173  143.5146  159.9653 H   0  0  0  0  0  0  0  0  0  0  0  0
  152.1577  142.7659  160.9446 H   0  0  0  0  0  0  0  0  0  0  0  0
  149.9275  143.3064  156.8326 H   0  0  0  0  0  0  0  0  0  0  0  0
  148.3894  140.0805  156.5520 H   0  0  0  0  0  0  0  0  0  0  0  0
  148.2114  141.3658  155.3559 H   0  0  0  0  0  0  0  0  0  0  0  0
  147.6382  138.8223  154.9050 H   0  0  0  0  0  0  0  0  0  0  0  0
  149.4148  137.4997  154.6105 H   0  0  0  0  0  0  0  0  0  0  0  0
  149.9497  138.6369  153.3753 H   0  0  0  0  0  0  0  0  0  0  0  0
  152.3431  139.6178  154.0325 H   0  0  0  0  0  0  0  0  0  0  0  0
  152.8467  139.2000  155.6616 H   0  0  0  0  0  0  0  0  0  0  0  0
  151.7037  137.0665  154.8577 H   0  0  0  0  0  0  0  0  0  0  0  0
  152.1899  139.7619  157.7303 H   0  0  0  0  0  0  0  0  0  0  0  0
  148.1913  139.8119  153.7035 H   0  0  0  0  0  0  0  0  0  0  0  0
  1  2  1  0  0  0  0
  1 18  1  0  0  0  0
  1 19  1  0  0  0  0
  1 20  1  0  0  0  0
  2  3  1  0  0  0  0
  2  4  1  0  0  0  0
  2 21  1  0  0  0  0
  3 22  1  0  0  0  0
  3 23  1  0  0  0  0
  3 24  1  0  0  0  0
  4 15  1  0  0  0  0
  4  5  1  0  0  0  0
  5  6  2  0  0  0  0
  5 25  1  0  0  0  0
  6  7  1  0  0  0  0
  6 14  1  0  0  0  0
  7 16  1  0  0  0  0
  7 11  1  0  0  0  0
  7  8  1  0  0  0  0
  8  9  1  0  0  0  0
  8 26  1  0  0  0  0
  8 27  1  0  0  0  0
  9 10  1  0  0  0  0
  9 28  1  0  0  0  0
  9 35  1  0  0  0  0
 10 11  1  0  0  0  0
 10 29  1  0  0  0  0
 10 30  1  0  0  0  0
 11 17  1  0  0  0  0
 11 12  1  0  0  0  0
 12 13  1  0  0  0  0
 12 31  1  0  0  0  0
 12 32  1  0  0  0  0
 13 33  1  0  0  0  0
 14 15  2  0  0  0  0
 14 34  1  0  0  0  0
M  CHG  1   9   1
M  END
> <s_m_source_file>
AV-unprocessed.smi

> <i_m_source_file_index>
46

> <i_lp_mmshare_version>
43012

> <i_f3d_flags>
0

> <s_epik_input>
W0NIM11bQ0hdKFtDSDNdKW4xW2NIXWMoW2NIXW4xKVtDQEBIXTJbQ0gyXVtOSF1bQ0gyXVtDQEhdMltDSDJdW09IXQ==

> <s_epik_cmdline>
J2VwaWtfcHl0aG9uJywgJy1waCcsICc3LjAnLCAnLXRuJywgJzgnLCAnLW1hJywgJzIwMCcsICctbWV0YWxfYmluZGluZycsICctaW1hZScsICc8aW5maWxlLm1hZT4nLCAnLW9tYWUnLCAnPG91dGZpbGUubWFlPic=

> <r_lp_tautomer_probability>
1

> <r_epik_Ionization_Penalty>
0.000236226

> <r_epik_Ionization_Penalty_Charging>
0.00021985

> <r_epik_Ionization_Penalty_Neutral>
1.63752e-05

> <r_epik_State_Penalty>
-0

> <r_epik_Charging_Adjusted_Penalty>
0.00021985

> <i_epik_Tot_Q>
1

> <i_epik_Tot_abs_Q>
1

> <r_epik_Metal_State_Penalty>
-0

> <b_epik_Metal_Only>
0

> <s_lp_Force_Field>
OPLS_2005

> <r_lp_Energy>
29.3902

> <b_lp_Chiralities_Consistent>
1

> <s_lp_Variant>
AV-unprocessed.smi:46-1

> <Gold.Version>
5.8.1

> <Gold.Id.Protein>
6NUR|6NUR_protein|mol2

> <Gold.PLP.Fitness>
44.1361

> <Gold.PLP.PLP>
-35.4653

> <Gold.PLP.part.hbond>
-2.0000

> <Gold.PLP.part.metal>
0.0000

> <Gold.PLP.part.buried>
-3.3219

> <Gold.PLP.part.nonpolar>
-30.9263

> <Gold.PLP.part.repulsive>
0.1301

> <Gold.PLP.ligand.clash>
0.0000

> <Gold.PLP.ligand.torsion>
0.1488

> <Gold.PLP.Chemscore.Hbond>
1.9760

> <Gold.PLP.Chemscore.CHOScore>
1.0000

> <Gold.PLP.Chemscore.Metal>
0.0000

> <Gold.Chemscore.Hbonds>
donor molecule, donor type, donor heavy atom, donor atom, acceptor molecule, acceptor atom, score
      L1  C     5    25       P1  8028  1.00

> <Gold.PLP.Chemscore.Internal.Correction>
0.0404

> <Gold.Rescore>
     Score         DG    S(hbond)    S(metal)    S(lipo)     H(rot)  DE(clash)    DE(int)     intcor
     17.14     -17.80       1.90        0.00      92.76       1.90       0.04       0.63       ----

> <Gold.Chemscore.Fitness>
17.1387

> <Gold.Chemscore.DG>
-17.8046

> <Gold.Chemscore.ZeroCoef>
-5.4800

> <Gold.Chemscore.Hbond>
1.8952

> <Gold.Chemscore.Metal>
0.0000

> <Gold.Chemscore.Lipo>
92.7579

> <Gold.Chemscore.Internal_Hbond>
0.0000

> <Gold.Chemscore.DEClash>
0.0402

> <Gold.Chemscore.DEInternal>
0.6257

> <Gold.Chemscore.Rot>
1.8976

> <Gold.Chemscore.Internal.Correction>
   9.000000E+99

> <Gold.Chemscore.Hbond.Weighted>
-6.3298

> <Gold.Chemscore.Metal.Weighted>
-0.0000

> <Gold.Chemscore.Lipo.Weighted>
-10.8527

> <Gold.Chemscore.Internal_Hbond.Weighted>
0.0000

> <Gold.Chemscore.DEClash.Weighted>
0.0402

> <Gold.Chemscore.DEInternal.Weighted>
0.6257

> <Gold.Chemscore.Rot.Weighted>
4.8579

> <Gold.Chemscore.Internal.Correction.Weighted>
   9.000000E+99

> <Gold.Protein.RotatedTorsions>
[ 6907 6896 6895 6894 ] final   69.36 input  -60.11 | X-H torsion
[ 7974 7965 7964 7962 ] final   48.42 input  175.53 | X-H torsion
[ 8008 7997 7996 7995 ] final  -95.50 input   59.86 | X-H torsion
[ 10167 10162 10161 10158 ] final -171.02 input  -65.29 | X-H torsion
[ 10718 10713 10712 10709 ] final  120.18 input   66.30 | X-H torsion
[ 10763 10752 10751 10750 ] final  177.20 input  -60.55 | X-H torsion
[ 11005 11000 10999 10996 ] final -165.45 input  -57.11 | X-H torsion

> <Gold.Protein.ActiveResidues>
 VAL166  LYS551  ARG553  GLY616  TRP617  ASP618  TYR619  PRO620  LYS621  CYS622 
 ASP623  PHE694  ASN695  SER759  ASP760  ASP761  ALA762  ILE779  LEU786  VAL792 
 PHE793  MET794  SER795  GLU796  ALA797  LYS798  CYS799  TRP800  GLU811  SER814 

> <Gold.Protein.RotatedAtoms>
  152.4681  134.5026  159.9729 H   0  0  0  0  0  0  0  0  0  0  0  0  # atno 6907 bound_to 6896
  151.5059  133.3489  159.2884 H   0  0  0  0  0  0  0  0  0  0  0  0  # atno 6908 bound_to 6896
  150.8676  134.8071  159.7192 H   0  0  0  0  0  0  0  0  0  0  0  0  # atno 6909 bound_to 6896
  146.0206  139.4646  142.9899 H   0  0  0  0  0  0  0  0  0  0  0  0  # atno 7974 bound_to 7965
  154.7622  140.0479  157.0982 H   0  0  0  0  0  0  0  0  0  0  0  0  # atno 8008 bound_to 7997
  154.9924  140.3115  155.4881 H   0  0  0  0  0  0  0  0  0  0  0  0  # atno 8009 bound_to 7997
  156.2906  140.2216  156.5029 H   0  0  0  0  0  0  0  0  0  0  0  0  # atno 8010 bound_to 7997
  139.5827  144.1387  152.1536 H   0  0  0  0  0  0  0  0  0  0  0  0  # atno 10167 bound_to 10162
  157.5909  131.1064  150.7999 H   0  0  0  0  0  0  0  0  0  0  0  0  # atno 10718 bound_to 10713
  154.4913  135.2779  155.1494 H   0  0  0  0  0  0  0  0  0  0  0  0  # atno 10763 bound_to 10752
  154.3164  135.6218  153.5492 H   0  0  0  0  0  0  0  0  0  0  0  0  # atno 10764 bound_to 10752
  152.9888  135.5732  154.5335 H   0  0  0  0  0  0  0  0  0  0  0  0  # atno 10765 bound_to 10752
  140.5755  134.5194  157.5169 H   0  0  0  0  0  0  0  0  0  0  0  0  # atno 11005 bound_to 11000
  145.7199  141.0078  143.1408 LP  0  0  0  0  0  0  0  0  0  0  0  0  # atno 17320 bound_to 7965
  144.6988  139.8858  143.7450 LP  0  0  0  0  0  0  0  0  0  0  0  0  # atno 17321 bound_to 7965
  140.0944  144.5593  150.7032 LP  0  0  0  0  0  0  0  0  0  0  0  0  # atno 17342 bound_to 10162
  140.7103  143.2500  151.4601 LP  0  0  0  0  0  0  0  0  0  0  0  0  # atno 17343 bound_to 10162
  156.8421  130.5051  149.5320 LP  0  0  0  0  0  0  0  0  0  0  0  0  # atno 17370 bound_to 10713
  156.0964  130.5935  150.9820 LP  0  0  0  0  0  0  0  0  0  0  0  0  # atno 17371 bound_to 10713
  139.9341  134.7908  156.0849 LP  0  0  0  0  0  0  0  0  0  0  0  0  # atno 17394 bound_to 11000
  141.1029  133.6670  156.2796 LP  0  0  0  0  0  0  0  0  0  0  0  0  # atno 17395 bound_to 11000

$$$$
