AV-unprocessed.smi:3137|AV-procd|sdf|11952|dock2
  -GOLD-   2272017343D 1   1.00000     0.00000
 Structure written by MMmdl.
 40 40  0  0  0  0  0  0  0  0  2 V2000
  142.0126  136.1031  153.3989 C   0  0  0  0  0  0  0  0  0  0  0  0
  142.2755  137.6015  153.1978 C   0  0  0  0  0  0  0  0  0  0  0  0
  143.5586  137.8409  152.5471 N   0  0  0  0  0  0  0  0  0  0  0  0
  144.7554  137.5074  153.0542 C   0  0  0  0  0  0  0  0  0  0  0  0
  144.8968  136.9624  154.1490 O   0  0  0  0  0  0  0  0  0  0  0  0
  145.9760  137.8454  152.1921 C   0  0  0  0  0  0  0  0  0  0  0  0
  147.0181  138.6948  152.9399 C   0  0  0  0  0  0  0  0  0  0  0  0
  146.5993  140.1112  153.0001 N   0  3  0  0  0  0  0  0  0  0  0  0
  147.1307  140.8838  154.1458 C   0  0  2  0  0  0  0  0  0  0  0  0
  146.1364  142.0006  154.5076 C   0  0  0  0  0  0  0  0  0  0  0  0
  148.5476  141.4271  153.8437 C   0  0  0  0  0  0  0  0  0  0  0  0
  149.5017  141.1601  154.9050 N   0  0  0  0  0  0  0  0  0  0  0  0
  149.6466  141.8089  156.1130 C   0  0  0  0  0  0  0  0  0  0  0  0
  150.6851  141.2177  156.7748 C   0  0  0  0  0  0  0  0  0  0  0  0
  151.2437  141.5472  158.1290 C   0  0  0  0  0  0  0  0  0  0  0  0
  151.1202  140.2062  155.8719 C   0  0  0  0  0  0  0  0  0  0  0  0
  150.4145  140.1775  154.7530 N   0  0  0  0  0  0  0  0  0  0  0  0
  141.0677  135.9433  153.9183 H   0  0  0  0  0  0  0  0  0  0  0  0
  142.8006  135.6402  153.9935 H   0  0  0  0  0  0  0  0  0  0  0  0
  141.9582  135.5765  152.4458 H   0  0  0  0  0  0  0  0  0  0  0  0
  141.4677  138.0554  152.6214 H   0  0  0  0  0  0  0  0  0  0  0  0
  142.2864  138.1044  154.1649 H   0  0  0  0  0  0  0  0  0  0  0  0
  143.5319  138.2870  151.6416 H   0  0  0  0  0  0  0  0  0  0  0  0
  146.4385  136.9170  151.8527 H   0  0  0  0  0  0  0  0  0  0  0  0
  145.6340  138.3711  151.2999 H   0  0  0  0  0  0  0  0  0  0  0  0
  147.1503  138.3204  153.9562 H   0  0  0  0  0  0  0  0  0  0  0  0
  147.9826  138.6172  152.4378 H   0  0  0  0  0  0  0  0  0  0  0  0
  146.8654  140.5744  152.1429 H   0  0  0  0  0  0  0  0  0  0  0  0
  147.1854  140.2109  155.0030 H   0  0  0  0  0  0  0  0  0  0  0  0
  146.4367  142.5297  155.4123 H   0  0  0  0  0  0  0  0  0  0  0  0
  145.1410  141.5950  154.6908 H   0  0  0  0  0  0  0  0  0  0  0  0
  146.0544  142.7343  153.7049 H   0  0  0  0  0  0  0  0  0  0  0  0
  148.9462  140.9928  152.9269 H   0  0  0  0  0  0  0  0  0  0  0  0
  148.5082  142.5056  153.6849 H   0  0  0  0  0  0  0  0  0  0  0  0
  149.0050  142.6289  156.4005 H   0  0  0  0  0  0  0  0  0  0  0  0
  152.2944  141.2686  158.2120 H   0  0  0  0  0  0  0  0  0  0  0  0
  150.7083  141.0245  158.9217 H   0  0  0  0  0  0  0  0  0  0  0  0
  151.1775  142.6138  158.3449 H   0  0  0  0  0  0  0  0  0  0  0  0
  151.9260  139.4973  155.9954 H   0  0  0  0  0  0  0  0  0  0  0  0
  145.5917  140.1212  153.0686 H   0  0  0  0  0  0  0  0  0  0  0  0
  1  2  1  0  0  0  0
  1 18  1  0  0  0  0
  1 19  1  0  0  0  0
  1 20  1  0  0  0  0
  2  3  1  0  0  0  0
  2 21  1  0  0  0  0
  2 22  1  0  0  0  0
  3  4  1  0  0  0  0
  3 23  1  0  0  0  0
  4  5  2  0  0  0  0
  4  6  1  0  0  0  0
  6  7  1  0  0  0  0
  6 24  1  0  0  0  0
  6 25  1  0  0  0  0
  7  8  1  0  0  0  0
  7 26  1  0  0  0  0
  7 27  1  0  0  0  0
  8  9  1  0  0  0  0
  8 28  1  0  0  0  0
  8 40  1  0  0  0  0
  9 10  1  0  0  0  0
  9 11  1  0  0  0  0
  9 29  1  0  0  0  0
 10 30  1  0  0  0  0
 10 31  1  0  0  0  0
 10 32  1  0  0  0  0
 11 12  1  0  0  0  0
 11 33  1  0  0  0  0
 11 34  1  0  0  0  0
 12 17  1  0  0  0  0
 12 13  1  0  0  0  0
 13 14  2  0  0  0  0
 13 35  1  0  0  0  0
 14 15  1  0  0  0  0
 14 16  1  0  0  0  0
 15 36  1  0  0  0  0
 15 37  1  0  0  0  0
 15 38  1  0  0  0  0
 16 17  2  0  0  0  0
 16 39  1  0  0  0  0
M  CHG  1   8   1
M  END
> <s_m_source_file>
AV-unprocessed.smi

> <i_m_source_file_index>
3137

> <i_lp_mmshare_version>
43012

> <i_f3d_flags>
0

> <s_epik_input>
W0NIM11bQ0gyXVtOSF1DKD1PKVtDSDJdW0NIMl1bTkhdW0NASF0oW0NIM10pW0NIMl1uMVtjSF1jKFtDSDNdKVtjSF1uMQ==

> <s_epik_cmdline>
J2VwaWtfcHl0aG9uJywgJy1waCcsICc3LjAnLCAnLXRuJywgJzgnLCAnLW1hJywgJzIwMCcsICctbWV0YWxfYmluZGluZycsICctaW1hZScsICc8aW5maWxlLm1hZT4nLCAnLW9tYWUnLCAnPG91dGZpbGUubWFlPic=

> <r_lp_tautomer_probability>
1

> <r_epik_Ionization_Penalty>
0.00598586

> <r_epik_Ionization_Penalty_Charging>
0.00597743

> <r_epik_Ionization_Penalty_Neutral>
8.43172e-06

> <r_epik_State_Penalty>
0.00439883

> <r_epik_Charging_Adjusted_Penalty>
0.0103763

> <i_epik_Tot_Q>
1

> <i_epik_Tot_abs_Q>
1

> <r_epik_Metal_State_Penalty>
-0

> <b_epik_Metal_Only>
0

> <s_lp_Force_Field>
OPLS_2005

> <r_lp_Energy>
5.54244

> <b_lp_Chiralities_Consistent>
1

> <s_lp_Variant>
AV-unprocessed.smi:3137-1

> <Gold.Version>
5.8.1

> <Gold.Id.Protein>
6NUR|6NUR_protein|mol2

> <Gold.PLP.Fitness>
45.1322

> <Gold.PLP.PLP>
-33.0335

> <Gold.PLP.part.hbond>
-4.0000

> <Gold.PLP.part.metal>
0.0000

> <Gold.PLP.part.buried>
-0.9033

> <Gold.PLP.part.nonpolar>
-28.7321

> <Gold.PLP.part.repulsive>
0.2101

> <Gold.PLP.ligand.clash>
0.0000

> <Gold.PLP.ligand.torsion>
1.4686

> <Gold.PLP.Chemscore.Hbond>
4.0000

> <Gold.PLP.Chemscore.CHOScore>
0.9489

> <Gold.PLP.Chemscore.Metal>
0.0000

> <Gold.Chemscore.Hbonds>
donor molecule, donor type, donor heavy atom, donor atom, acceptor molecule, acceptor atom, score
      L1  H     3    23       P1 10171  1.00
      L1  H     8    40       P1 10175  2.00
      P1  H  7989  7998       L1    17  1.00
      L1  C    13    35       P1  8028  1.00

> <Gold.PLP.Chemscore.Internal.Correction>
0.1893

> <Gold.Rescore>
     Score         DG    S(hbond)    S(metal)    S(lipo)     H(rot)  DE(clash)    DE(int)     intcor
     14.92     -16.19       2.72        0.00      64.10       2.30       0.06       1.21       ----

> <Gold.Chemscore.Fitness>
14.9236

> <Gold.Chemscore.DG>
-16.1877

> <Gold.Chemscore.ZeroCoef>
-5.4800

> <Gold.Chemscore.Hbond>
2.7205

> <Gold.Chemscore.Metal>
0.0000

> <Gold.Chemscore.Lipo>
64.1007

> <Gold.Chemscore.Internal_Hbond>
0.0000

> <Gold.Chemscore.DEClash>
0.0560

> <Gold.Chemscore.DEInternal>
1.2081

> <Gold.Chemscore.Rot>
2.2963

> <Gold.Chemscore.Internal.Correction>
   9.000000E+99

> <Gold.Chemscore.Hbonds>
donor molecule, donor type, donor heavy atom, donor atom, acceptor molecule, acceptor atom, score
      L1  H     3    23       P1 10171  0.78
      L1  H     8    40       P1 10175  0.91
      P1  H  7989  7998       L1    17  0.18

> <Gold.Chemscore.Hbond.Weighted>
-9.0865

> <Gold.Chemscore.Metal.Weighted>
-0.0000

> <Gold.Chemscore.Lipo.Weighted>
-7.4998

> <Gold.Chemscore.Internal_Hbond.Weighted>
0.0000

> <Gold.Chemscore.DEClash.Weighted>
0.0560

> <Gold.Chemscore.DEInternal.Weighted>
1.2081

> <Gold.Chemscore.Rot.Weighted>
5.8786

> <Gold.Chemscore.Internal.Correction.Weighted>
   9.000000E+99

> <Gold.Protein.RotatedTorsions>
[ 6907 6896 6895 6894 ] final  126.49 input  -60.11 | X-H torsion
[ 7974 7965 7964 7962 ] final  -52.92 input  175.53 | X-H torsion
[ 8008 7997 7996 7995 ] final  147.35 input   59.86 | X-H torsion
[ 10167 10162 10161 10158 ] final   39.14 input  -65.29 | X-H torsion
[ 10718 10713 10712 10709 ] final  -39.34 input   66.30 | X-H torsion
[ 10763 10752 10751 10750 ] final   68.10 input  -60.55 | X-H torsion
[ 11005 11000 10999 10996 ] final   73.77 input  -57.11 | X-H torsion

> <Gold.Protein.ActiveResidues>
 VAL166  LYS551  ARG553  GLY616  TRP617  ASP618  TYR619  PRO620  LYS621  CYS622 
 ASP623  PHE694  ASN695  SER759  ASP760  ASP761  ALA762  ILE779  LEU786  VAL792 
 PHE793  MET794  SER795  GLU796  ALA797  LYS798  CYS799  TRP800  GLU811  SER814 

> <Gold.Protein.RotatedAtoms>
  152.3899  133.6663  159.6228 H   0  0  0  0  0  0  0  0  0  0  0  0  # atno 6907 bound_to 6896
  150.7809  133.8973  159.3339 H   0  0  0  0  0  0  0  0  0  0  0  0  # atno 6908 bound_to 6896
  151.6761  135.0970  160.0258 H   0  0  0  0  0  0  0  0  0  0  0  0  # atno 6909 bound_to 6896
  145.9025  140.7982  142.9736 H   0  0  0  0  0  0  0  0  0  0  0  0  # atno 7974 bound_to 7965
  156.2827  140.2158  156.5524 H   0  0  0  0  0  0  0  0  0  0  0  0  # atno 8008 bound_to 7997
  154.7280  140.0498  157.0723 H   0  0  0  0  0  0  0  0  0  0  0  0  # atno 8009 bound_to 7997
  155.0390  140.3143  155.4734 H   0  0  0  0  0  0  0  0  0  0  0  0  # atno 8010 bound_to 7997
  140.3868  144.1906  150.6130 H   0  0  0  0  0  0  0  0  0  0  0  0  # atno 10167 bound_to 10162
  156.2936  130.4231  149.8214 H   0  0  0  0  0  0  0  0  0  0  0  0  # atno 10718 bound_to 10713
  153.0219  135.5259  154.7083 H   0  0  0  0  0  0  0  0  0  0  0  0  # atno 10763 bound_to 10752
  154.6172  135.2885  155.0368 H   0  0  0  0  0  0  0  0  0  0  0  0  # atno 10764 bound_to 10752
  154.1368  135.6584  153.4986 H   0  0  0  0  0  0  0  0  0  0  0  0  # atno 10765 bound_to 10752
  139.9423  134.7376  156.1067 H   0  0  0  0  0  0  0  0  0  0  0  0  # atno 11005 bound_to 11000
  144.6737  140.1700  143.7415 LP  0  0  0  0  0  0  0  0  0  0  0  0  # atno 17320 bound_to 7965
  145.8772  139.2303  143.1626 LP  0  0  0  0  0  0  0  0  0  0  0  0  # atno 17321 bound_to 7965
  140.4881  143.2356  151.8859 LP  0  0  0  0  0  0  0  0  0  0  0  0  # atno 17342 bound_to 10162
  139.4791  144.5196  151.8819 LP  0  0  0  0  0  0  0  0  0  0  0  0  # atno 17343 bound_to 10162
  156.5618  130.8386  151.3331 LP  0  0  0  0  0  0  0  0  0  0  0  0  # atno 17370 bound_to 10713
  157.7349  130.9754  150.2054 LP  0  0  0  0  0  0  0  0  0  0  0  0  # atno 17371 bound_to 10713
  141.1062  133.6659  156.2870 LP  0  0  0  0  0  0  0  0  0  0  0  0  # atno 17394 bound_to 11000
  140.5920  134.5641  157.5501 LP  0  0  0  0  0  0  0  0  0  0  0  0  # atno 17395 bound_to 11000

$$$$
