AV-unprocessed.smi:1088|AV-procd|sdf|4729|dock2
  -GOLD-   22720 3263D 1   1.00000     0.00000
 Structure written by MMmdl.
 48 49  0  0  0  0  0  0  0  0  2 V2000
  146.0612  143.2795  160.0445 C   0  0  0  0  0  0  0  0  0  0  0  0
  146.0809  141.9588  159.5316 O   0  0  0  0  0  0  0  0  0  0  0  0
  145.3168  141.8254  158.3449 C   0  0  0  0  0  0  0  0  0  0  0  0
  145.7986  142.8648  157.3201 C   0  0  0  0  0  0  0  0  0  0  0  0
  145.6911  142.3778  155.9180 N   0  3  1  0  0  0  0  0  0  0  0  0
  145.5539  143.4554  154.9084 C   0  0  0  0  0  0  0  0  0  0  0  0
  146.1491  142.9031  153.6183 C   0  0  0  0  0  0  0  0  0  0  0  0
  147.2963  142.0508  154.1348 C   0  0  0  0  0  0  0  0  0  0  0  0
  146.7370  141.4287  155.4246 C   0  0  1  0  0  0  0  0  0  0  0  0
  147.8270  141.0087  156.4435 C   0  0  0  0  0  0  0  0  0  0  0  0
  148.9183  141.9777  156.4894 N   0  0  0  0  0  0  0  0  0  0  0  0
  150.2192  141.6918  156.3275 C   0  0  0  0  0  0  0  0  0  0  0  0
  150.6353  140.5642  156.0590 O   0  0  0  0  0  0  0  0  0  0  0  0
  151.1973  142.8618  156.4952 C   0  0  0  0  0  0  0  0  0  0  0  0
  151.4205  143.2118  157.9042 N   0  0  0  0  0  0  0  0  0  0  0  0
  151.0152  144.4468  158.3768 C   0  0  0  0  0  0  0  0  0  0  0  0
  151.2039  144.8552  159.6504 C   0  0  0  0  0  0  0  0  0  0  0  0
  151.8610  143.9917  160.6236 C   0  0  0  0  0  0  0  0  0  0  0  0
  152.0778  144.3310  161.7876 O   0  0  0  0  0  0  0  0  0  0  0  0
  152.2488  142.7274  160.1205 N   0  0  0  0  0  0  0  0  0  0  0  0
  152.9321  141.8256  161.0249 C   0  0  0  0  0  0  0  0  0  0  0  0
  152.0636  142.3116  158.7822 C   0  0  0  0  0  0  0  0  0  0  0  0
  152.4524  141.2134  158.3765 O   0  0  0  0  0  0  0  0  0  0  0  0
  146.6561  143.3277  160.9563 H   0  0  0  0  0  0  0  0  0  0  0  0
  145.0454  143.5928  160.2892 H   0  0  0  0  0  0  0  0  0  0  0  0
  146.4834  143.9870  159.3295 H   0  0  0  0  0  0  0  0  0  0  0  0
  145.3891  140.8114  157.9493 H   0  0  0  0  0  0  0  0  0  0  0  0
  144.2641  142.0037  158.5701 H   0  0  0  0  0  0  0  0  0  0  0  0
  145.2237  143.7849  157.4336 H   0  0  0  0  0  0  0  0  0  0  0  0
  146.8361  143.1018  157.5542 H   0  0  0  0  0  0  0  0  0  0  0  0
  144.5145  143.7611  154.7848 H   0  0  0  0  0  0  0  0  0  0  0  0
  146.1274  144.3299  155.2207 H   0  0  0  0  0  0  0  0  0  0  0  0
  145.4194  142.2776  153.1021 H   0  0  0  0  0  0  0  0  0  0  0  0
  146.4756  143.6845  152.9314 H   0  0  0  0  0  0  0  0  0  0  0  0
  147.6252  141.3042  153.4114 H   0  0  0  0  0  0  0  0  0  0  0  0
  148.1473  142.6945  154.3625 H   0  0  0  0  0  0  0  0  0  0  0  0
  146.1890  140.5293  155.1396 H   0  0  0  0  0  0  0  0  0  0  0  0
  147.3997  140.8668  157.4375 H   0  0  0  0  0  0  0  0  0  0  0  0
  148.2693  140.0558  156.1538 H   0  0  0  0  0  0  0  0  0  0  0  0
  148.6693  142.9343  156.6966 H   0  0  0  0  0  0  0  0  0  0  0  0
  152.1401  142.5882  156.0199 H   0  0  0  0  0  0  0  0  0  0  0  0
  150.8343  143.7364  155.9519 H   0  0  0  0  0  0  0  0  0  0  0  0
  150.5283  145.1264  157.6926 H   0  0  0  0  0  0  0  0  0  0  0  0
  150.8688  145.8366  159.9524 H   0  0  0  0  0  0  0  0  0  0  0  0
  152.7499  140.7927  160.7260 H   0  0  0  0  0  0  0  0  0  0  0  0
  152.5366  141.9568  162.0332 H   0  0  0  0  0  0  0  0  0  0  0  0
  153.9930  142.0736  160.9763 H   0  0  0  0  0  0  0  0  0  0  0  0
  144.8291  141.8523  155.8794 H   0  0  0  0  0  0  0  0  0  0  0  0
  1  2  1  0  0  0  0
  1 24  1  0  0  0  0
  1 25  1  0  0  0  0
  1 26  1  0  0  0  0
  2  3  1  0  0  0  0
  3  4  1  0  0  0  0
  3 27  1  0  0  0  0
  3 28  1  0  0  0  0
  4  5  1  0  0  0  0
  4 29  1  0  0  0  0
  4 30  1  0  0  0  0
  5  9  1  0  0  0  0
  5  6  1  0  0  0  0
  5 48  1  0  0  0  0
  6  7  1  0  0  0  0
  6 31  1  0  0  0  0
  6 32  1  0  0  0  0
  7  8  1  0  0  0  0
  7 33  1  0  0  0  0
  7 34  1  0  0  0  0
  8  9  1  0  0  0  0
  8 35  1  0  0  0  0
  8 36  1  0  0  0  0
  9 10  1  0  0  0  0
  9 37  1  0  0  0  0
 10 11  1  0  0  0  0
 10 38  1  0  0  0  0
 10 39  1  0  0  0  0
 11 12  1  0  0  0  0
 11 40  1  0  0  0  0
 12 13  2  0  0  0  0
 12 14  1  0  0  0  0
 14 15  1  0  0  0  0
 14 41  1  0  0  0  0
 14 42  1  0  0  0  0
 15 22  1  0  0  0  0
 15 16  1  0  0  0  0
 16 17  2  0  0  0  0
 16 43  1  0  0  0  0
 17 18  1  0  0  0  0
 17 44  1  0  0  0  0
 18 19  2  0  0  0  0
 18 20  1  0  0  0  0
 20 21  1  0  0  0  0
 20 22  1  0  0  0  0
 21 45  1  0  0  0  0
 21 46  1  0  0  0  0
 21 47  1  0  0  0  0
 22 23  2  0  0  0  0
M  CHG  1   5   1
M  END
> <s_m_source_file>
AV-unprocessed.smi

> <i_m_source_file_index>
1088

> <i_lp_mmshare_version>
43012

> <i_f3d_flags>
0

> <s_epik_input>
W0NIM11PW0NIMl1bQ0gyXU4xW0NIMl1bQ0gyXVtDSDJdW0NASF0xW0NIMl1bTkhdQyg9TylbQ0gyXW4yW2NIXVtjSF1jKD1PKW4oW0NIM10pYzI9Tw==

> <s_epik_cmdline>
J2VwaWtfcHl0aG9uJywgJy1waCcsICc3LjAnLCAnLXRuJywgJzgnLCAnLW1hJywgJzIwMCcsICctbWV0YWxfYmluZGluZycsICctaW1hZScsICc8aW5maWxlLm1hZT4nLCAnLW9tYWUnLCAnPG91dGZpbGUubWFlPic=

> <r_lp_tautomer_probability>
1

> <r_epik_Ionization_Penalty>
0.0127388

> <r_epik_Ionization_Penalty_Charging>
0.0127387

> <r_epik_Ionization_Penalty_Neutral>
8.26414e-08

> <r_epik_State_Penalty>
0.00987716

> <r_epik_Charging_Adjusted_Penalty>
0.0226159

> <i_epik_Tot_Q>
1

> <i_epik_Tot_abs_Q>
1

> <r_epik_Metal_State_Penalty>
0.00987836

> <b_epik_Metal_Only>
0

> <s_lp_Force_Field>
OPLS_2005

> <r_lp_Energy>
40.5069

> <b_lp_Chiralities_Consistent>
1

> <s_lp_Variant>
AV-unprocessed.smi:1088-2

> <Gold.Version>
5.8.1

> <Gold.Id.Protein>
6NUR|6NUR_protein|mol2

> <Gold.PLP.Fitness>
48.7040

> <Gold.PLP.PLP>
-42.5890

> <Gold.PLP.part.hbond>
-2.0000

> <Gold.PLP.part.metal>
0.0000

> <Gold.PLP.part.buried>
-6.6172

> <Gold.PLP.part.nonpolar>
-34.1829

> <Gold.PLP.part.repulsive>
0.9673

> <Gold.PLP.ligand.clash>
0.0000

> <Gold.PLP.ligand.torsion>
0.9540

> <Gold.PLP.Chemscore.Hbond>
1.7680

> <Gold.PLP.Chemscore.CHOScore>
0.8342

> <Gold.PLP.Chemscore.Metal>
0.0000

> <Gold.Chemscore.Hbonds>
donor molecule, donor type, donor heavy atom, donor atom, acceptor molecule, acceptor atom, score
      L1  H    11    40       P1  8028  0.63
      P1  H  6934  6946       L1     2  1.00
      L1  C    16    43       P1  8028  0.60
      L1  C    16    43       P1  8029  0.14

> <Gold.PLP.Chemscore.Internal.Correction>
0.2166

> <Gold.Rescore>
     Score         DG    S(hbond)    S(metal)    S(lipo)     H(rot)  DE(clash)    DE(int)     intcor
      9.57     -13.28       1.69        0.00      74.69       2.57       2.68       1.03       ----

> <Gold.Chemscore.Fitness>
9.5731

> <Gold.Chemscore.DG>
-13.2809

> <Gold.Chemscore.ZeroCoef>
-5.4800

> <Gold.Chemscore.Hbond>
1.6883

> <Gold.Chemscore.Metal>
0.0000

> <Gold.Chemscore.Lipo>
74.6924

> <Gold.Chemscore.Internal_Hbond>
0.0000

> <Gold.Chemscore.DEClash>
2.6756

> <Gold.Chemscore.DEInternal>
1.0322

> <Gold.Chemscore.Rot>
2.5692

> <Gold.Chemscore.Internal.Correction>
   9.000000E+99

> <Gold.Chemscore.Hbonds>
donor molecule, donor type, donor heavy atom, donor atom, acceptor molecule, acceptor atom, score
      L1  H    11    40       P1  8028  0.51
      P1  H  6934  6946       L1     2  0.74

> <Gold.Chemscore.Hbond.Weighted>
-5.6390

> <Gold.Chemscore.Metal.Weighted>
-0.0000

> <Gold.Chemscore.Lipo.Weighted>
-8.7390

> <Gold.Chemscore.Internal_Hbond.Weighted>
0.0000

> <Gold.Chemscore.DEClash.Weighted>
2.6756

> <Gold.Chemscore.DEInternal.Weighted>
1.0322

> <Gold.Chemscore.Rot.Weighted>
6.5772

> <Gold.Chemscore.Internal.Correction.Weighted>
   9.000000E+99

> <Gold.Protein.RotatedTorsions>
[ 6907 6896 6895 6894 ] final -100.53 input  -60.11 | X-H torsion
[ 7974 7965 7964 7962 ] final -165.14 input  175.53 | X-H torsion
[ 8008 7997 7996 7995 ] final   36.26 input   59.86 | X-H torsion
[ 10167 10162 10161 10158 ] final  -24.09 input  -65.29 | X-H torsion
[ 10718 10713 10712 10709 ] final  109.15 input   66.30 | X-H torsion
[ 10763 10752 10751 10750 ] final   88.55 input  -60.55 | X-H torsion
[ 11005 11000 10999 10996 ] final  101.02 input  -57.11 | X-H torsion

> <Gold.Protein.ActiveResidues>
 VAL166  LYS551  ARG553  GLY616  TRP617  ASP618  TYR619  PRO620  LYS621  CYS622 
 ASP623  PHE694  ASN695  SER759  ASP760  ASP761  ALA762  ILE779  LEU786  VAL792 
 PHE793  MET794  SER795  GLU796  ALA797  LYS798  CYS799  TRP800  GLU811  SER814 

> <Gold.Protein.RotatedAtoms>
  150.7119  134.0873  159.3918 H   0  0  0  0  0  0  0  0  0  0  0  0  # atno 6907 bound_to 6896
  151.8858  135.0433  160.0502 H   0  0  0  0  0  0  0  0  0  0  0  0  # atno 6908 bound_to 6896
  152.2531  133.5197  159.5374 H   0  0  0  0  0  0  0  0  0  0  0  0  # atno 6909 bound_to 6896
  144.7278  140.2858  143.6228 H   0  0  0  0  0  0  0  0  0  0  0  0  # atno 7974 bound_to 7965
  155.1844  140.3302  155.4369 H   0  0  0  0  0  0  0  0  0  0  0  0  # atno 8008 bound_to 7997
  156.2465  140.1921  156.6891 H   0  0  0  0  0  0  0  0  0  0  0  0  # atno 8009 bound_to 7997
  154.6249  140.0590  156.9646 H   0  0  0  0  0  0  0  0  0  0  0  0  # atno 8010 bound_to 7997
  140.7288  143.4384  151.0694 H   0  0  0  0  0  0  0  0  0  0  0  0  # atno 10167 bound_to 10162
  157.6555  131.0908  150.6410 H   0  0  0  0  0  0  0  0  0  0  0  0  # atno 10718 bound_to 10713
  153.1780  135.4503  154.9990 H   0  0  0  0  0  0  0  0  0  0  0  0  # atno 10763 bound_to 10752
  154.8011  135.3256  154.7551 H   0  0  0  0  0  0  0  0  0  0  0  0  # atno 10764 bound_to 10752
  153.8018  135.6962  153.4909 H   0  0  0  0  0  0  0  0  0  0  0  0  # atno 10765 bound_to 10752
  139.8772  134.9165  156.4843 H   0  0  0  0  0  0  0  0  0  0  0  0  # atno 11005 bound_to 11000
  145.7904  139.1925  143.2106 LP  0  0  0  0  0  0  0  0  0  0  0  0  # atno 17320 bound_to 7965
  146.0760  140.7817  142.9665 LP  0  0  0  0  0  0  0  0  0  0  0  0  # atno 17321 bound_to 7965
  139.8049  143.8032  152.3166 LP  0  0  0  0  0  0  0  0  0  0  0  0  # atno 17342 bound_to 10162
  139.8061  144.7354  150.9759 LP  0  0  0  0  0  0  0  0  0  0  0  0  # atno 17343 bound_to 10162
  156.6717  130.4541  149.5655 LP  0  0  0  0  0  0  0  0  0  0  0  0  # atno 17370 bound_to 10713
  156.1992  130.6609  151.1149 LP  0  0  0  0  0  0  0  0  0  0  0  0  # atno 17371 bound_to 10713
  140.8705  133.7992  155.9359 LP  0  0  0  0  0  0  0  0  0  0  0  0  # atno 17394 bound_to 11000
  140.8958  134.2439  157.5069 LP  0  0  0  0  0  0  0  0  0  0  0  0  # atno 17395 bound_to 11000

$$$$
