#       Name:                AV-unprocessed.smi:2276
#       Creating user name   scv26
#       Creation time:       Fri Mar 27 12:39:21 2020


#       File generated by GOLD software.
#

@<TRIPOS>MOLECULE
AV-unprocessed.smi:2276
    57    58     1
SMALL
NO_CHARGES


@<TRIPOS>ATOM
      1 ****        -3.5010   6.9118   1.1321 C.3            1 S1                 0.0000
      2 ****        -3.4745   5.4278   1.4330 C.ar           1 S1                 0.0000
      3 ****        -4.5571   4.8017   2.0798 C.ar           1 S1                 0.0000
      4 ****        -4.4717   3.4179   2.3297 C.ar           1 S1                 0.0000
      5 ****        -5.5962   2.6805   3.0259 C.3            1 S1                 0.0000
      6 ****        -3.4053   2.6696   1.9753 N.ar           1 S1                 0.0000
      7 ****        -2.3573   3.2617   1.3507 C.ar           1 S1                 0.0000
      8 ****        -1.1886   2.5656   0.9427 N.am           1 S1                 0.0000
      9 ****        -0.9504   1.2430   0.9903 C.2            1 S1                 0.0000
     10 ****        -1.7434   0.3889   1.3880 O.2            1 S1                 0.0000
     11 ****         0.2746   0.9546   0.5306 N.am           1 S1                 0.0000
     12 ****         0.8192  -0.3933   0.4137 C.3            1 S1                 0.0000
     13 ****         2.3414  -0.3804   0.1559 C.3            1 S1                 0.0000
     14 ****         3.0911   0.4074   1.2479 C.3            1 S1                 0.0000
     15 ****         2.9666  -1.7900   0.0248 C.3            1 S1                 0.0000
     16 ****         2.5378  -2.5733  -1.1376 N.3            1 S1                 0.0000
     17 ****         1.4352  -3.4886  -0.8168 C.3            1 S1                 0.0000
     18 ****         0.9811  -4.2818  -2.0560 C.3            1 S1                 0.0000
     19 ****         2.0780  -5.0712  -2.6117 N.3            1 S1                 0.0000
     20 ****         1.6563  -5.8221  -3.7843 C.3            1 S1                 0.0000
     21 ****         3.1959  -4.1810  -2.9165 C.3            1 S1                 0.0000
     22 ****         3.6349  -3.3833  -1.6734 C.3            1 S1                 0.0000
     23 ****        -2.3603   4.6460   1.0669 C.ar           1 S1                 0.0000
     24 ****        -4.3979   7.3822   1.5362 H              1 S1                 0.0000
     25 ****        -3.4841   7.0782   0.0547 H              1 S1                 0.0000
     26 ****        -2.6319   7.4028   1.5704 H              1 S1                 0.0000
     27 ****        -5.4289   5.3664   2.3768 H              1 S1                 0.0000
     28 ****        -6.3959   3.3618   3.3178 H              1 S1                 0.0000
     29 ****        -5.2263   2.1859   3.9245 H              1 S1                 0.0000
     30 ****        -6.0180   1.9224   2.3654 H              1 S1                 0.0000
     31 ****        -0.4519   3.1408   0.5623 H              1 S1                 0.0000
     32 ****         0.8651   1.7142   0.2252 H              1 S1                 0.0000
     33 ****         0.5950  -0.9707   1.3124 H              1 S1                 0.0000
     34 ****         0.3003  -0.8641  -0.4199 H              1 S1                 0.0000
     35 ****         2.5129   0.1396  -0.7878 H              1 S1                 0.0000
     36 ****         2.9367  -0.0390   2.2308 H              1 S1                 0.0000
     37 ****         2.7651   1.4462   1.2995 H              1 S1                 0.0000
     38 ****         4.1645   0.4227   1.0567 H              1 S1                 0.0000
     39 ****         4.0452  -1.6386  -0.0408 H              1 S1                 0.0000
     40 ****         2.8195  -2.3603   0.9432 H              1 S1                 0.0000
     41 ****         1.7459  -4.1859  -0.0370 H              1 S1                 0.0000
     42 ****         0.5819  -2.9499  -0.4131 H              1 S1                 0.0000
     43 ****         0.1566  -4.9409  -1.7812 H              1 S1                 0.0000
     44 ****         0.5937  -3.5940  -2.8096 H              1 S1                 0.0000
     45 ****         2.4775  -6.4258  -4.1722 H              1 S1                 0.0000
     46 ****         1.3191  -5.1556  -4.5793 H              1 S1                 0.0000
     47 ****         0.8363  -6.4967  -3.5359 H              1 S1                 0.0000
     48 ****         4.0393  -4.7635  -3.2889 H              1 S1                 0.0000
     49 ****         2.9174  -3.4899  -3.7138 H              1 S1                 0.0000
     50 ****         4.4702  -2.7379  -1.9473 H              1 S1                 0.0000
     51 ****         4.0062  -4.0667  -0.9076 H              1 S1                 0.0000
     52 ****        -1.5182   5.1059   0.5697 H              1 S1                 0.0000
     53 ****        -3.3884   1.6891   2.1713 LP             1 S1                 0.0000
     54 ****        -2.6502   0.6602   1.7107 LP             1 S1                 0.0000
     55 ****        -1.4806  -0.5760   1.3882 LP             1 S1                 0.0000
     56 ****         2.2338  -1.9018  -1.8134 LP             1 S1                 0.0000
     57 ****         2.3717  -5.7466  -1.9353 LP             1 S1                 0.0000
@<TRIPOS>BOND
    1    1    2 1     
    2    1   24 1     
    3    1   25 1     
    4    1   26 1     
    5    2   23 ar    
    6    2    3 ar    
    7    3    4 ar    
    8    3   27 1     
    9    4    5 1     
   10    4    6 ar    
   11    5   28 1     
   12    5   29 1     
   13    5   30 1     
   14    6    7 ar    
   15    7    8 1     
   16    7   23 ar    
   17    8    9 am    
   18    8   31 1     
   19    9   10 2     
   20    9   11 am    
   21   11   12 1     
   22   11   32 1     
   23   12   13 1     
   24   12   33 1     
   25   12   34 1     
   26   13   14 1     
   27   13   15 1     
   28   13   35 1     
   29   14   36 1     
   30   14   37 1     
   31   14   38 1     
   32   15   16 1     
   33   15   39 1     
   34   15   40 1     
   35   16   22 1     
   36   16   17 1     
   37   17   18 1     
   38   17   41 1     
   39   17   42 1     
   40   18   19 1     
   41   18   43 1     
   42   18   44 1     
   43   19   20 1     
   44   19   21 1     
   45   20   45 1     
   46   20   46 1     
   47   20   47 1     
   48   21   22 1     
   49   21   48 1     
   50   21   49 1     
   51   22   50 1     
   52   22   51 1     
   53   23   52 1     
   54    6   53 1     
   55   10   54 1     
   56   10   55 1     
   57   16   56 1     
   58   19   57 1     
@<TRIPOS>SUBSTRUCTURE
      1 S1             1
@<TRIPOS>SET
LONE_PAIRS      STATIC     ATOMS    <user>   **** ""
5 53 54 55 56 57
DONOR_HYDROGENS      STATIC     ATOMS    <user>   **** ""
2 31 32
ATOM$BLUE        STATIC     ATOMS    COLORGROUP SYSTEM
5 53 54 55 56 57
ATOM$RED        STATIC     ATOMS    COLORGROUP SYSTEM
2 31 32
