AV-unprocessed.smi:221|AV-procd|sdf|1697|dock9
  -GOLD-   2262020153D 1   1.00000     0.00000
 Structure written by MMmdl.
 50 53  0  0  0  0  0  0  0  0  1 V2000
  150.5617  145.2365  157.9931 N   0  0  0  0  0  0  0  0  0  0  0  0
  150.9141  144.4606  159.0237 C   0  0  0  0  0  0  0  0  0  0  0  0
  151.3763  144.9371  160.0579 O   0  0  0  0  0  0  0  0  0  0  0  0
  150.7375  142.9341  158.9003 C   0  0  1  0  0  0  0  0  0  0  0  0
  150.0559  142.5667  157.5718 C   0  0  0  0  0  0  0  0  0  0  0  0
  150.5186  141.1385  157.3058 C   0  0  2  0  0  0  0  0  0  0  0  0
  149.7688  140.2889  158.0100 F   0  0  0  0  0  0  0  0  0  0  0  0
  151.9468  141.1268  157.8489 C   0  0  0  0  0  0  0  0  0  0  0  0
  151.9893  142.1640  158.8748 N   0  0  0  0  0  0  0  0  0  0  0  0
  152.7352  141.9480  159.9924 C   0  0  0  0  0  0  0  0  0  0  0  0
  152.5458  142.7318  161.0871 N   0  0  0  0  0  0  0  0  0  0  0  0
  153.2691  142.5405  162.1938 C   0  0  0  0  0  0  0  0  0  0  0  0
  154.2279  141.6409  162.4183 N   0  0  0  0  0  0  0  0  0  0  0  0
  154.4337  140.8574  161.3219 C   0  0  0  0  0  0  0  0  0  0  0  0
  153.7391  140.9398  160.0813 C   0  0  0  0  0  0  0  0  0  0  0  0
  154.2354  139.9825  159.2026 N   0  0  0  0  0  0  0  0  0  0  0  0
  155.1587  139.3648  159.8868 C   0  0  0  0  0  0  0  0  0  0  0  0
  155.3505  139.8334  161.1663 N   0  0  0  0  0  0  0  0  0  0  0  0
  156.3100  139.3439  162.1405 C   0  0  0  0  0  0  0  0  0  0  0  0
  155.6636  139.0285  163.5144 C   0  0  2  0  0  0  0  0  0  0  0  0
  156.4977  139.6127  164.6784 C   0  0  0  0  0  0  0  0  0  0  0  0
  156.7939  140.9769  164.4636 O   0  0  0  0  0  0  0  0  0  0  0  0
  155.3621  137.5183  163.7194 C   0  0  1  0  0  0  0  0  0  0  0  0
  154.4165  137.1799  164.8722 C   0  0  0  0  0  0  0  0  0  0  0  0
  153.4967  136.0990  164.2983 C   0  0  0  0  0  0  0  0  0  0  0  0
  154.1626  135.6376  163.1329 O   0  0  0  0  0  0  0  0  0  0  0  0
  154.7564  136.7721  162.5260 C   0  0  0  0  0  0  0  0  0  0  0  0
  150.1118  142.5811  159.7220 H   0  0  0  0  0  0  0  0  0  0  0  0
  150.4517  140.8463  156.2577 H   0  0  0  0  0  0  0  0  0  0  0  0
  150.6751  146.2376  158.0571 H   0  0  0  0  0  0  0  0  0  0  0  0
  150.1876  144.8178  157.1541 H   0  0  0  0  0  0  0  0  0  0  0  0
  148.9698  142.6546  157.6169 H   0  0  0  0  0  0  0  0  0  0  0  0
  150.4067  143.2122  156.7641 H   0  0  0  0  0  0  0  0  0  0  0  0
  152.2150  140.1379  158.2246 H   0  0  0  0  0  0  0  0  0  0  0  0
  152.6545  141.3927  157.0630 H   0  0  0  0  0  0  0  0  0  0  0  0
  153.0488  143.2050  163.0162 H   0  0  0  0  0  0  0  0  0  0  0  0
  155.7362  138.5523  159.4701 H   0  0  0  0  0  0  0  0  0  0  0  0
  156.7869  138.4624  161.7138 H   0  0  0  0  0  0  0  0  0  0  0  0
  157.0931  140.0944  162.2476 H   0  0  0  0  0  0  0  0  0  0  0  0
  154.6986  139.5375  163.5341 H   0  0  0  0  0  0  0  0  0  0  0  0
  155.9738  139.5005  165.6278 H   0  0  0  0  0  0  0  0  0  0  0  0
  157.4502  139.0933  164.7776 H   0  0  0  0  0  0  0  0  0  0  0  0
  157.3898  141.0449  163.7335 H   0  0  0  0  0  0  0  0  0  0  0  0
  156.2993  137.0124  163.9552 H   0  0  0  0  0  0  0  0  0  0  0  0
  154.9842  136.7957  165.7204 H   0  0  0  0  0  0  0  0  0  0  0  0
  153.8398  138.0307  165.2329 H   0  0  0  0  0  0  0  0  0  0  0  0
  153.3135  135.2861  165.0011 H   0  0  0  0  0  0  0  0  0  0  0  0
  152.5343  136.5270  164.0139 H   0  0  0  0  0  0  0  0  0  0  0  0
  153.9782  137.3456  162.0229 H   0  0  0  0  0  0  0  0  0  0  0  0
  155.5034  136.4843  161.7859 H   0  0  0  0  0  0  0  0  0  0  0  0
  1  2  1  0  0  0  0
  1 30  1  0  0  0  0
  1 31  1  0  0  0  0
  2  3  2  0  0  0  0
  2  4  1  0  0  0  0
  4 28  1  0  0  0  0
  4  9  1  0  0  0  0
  4  5  1  0  0  0  0
  5  6  1  0  0  0  0
  5 32  1  0  0  0  0
  5 33  1  0  0  0  0
  6 29  1  0  0  0  0
  6  7  1  0  0  0  0
  6  8  1  0  0  0  0
  8  9  1  0  0  0  0
  8 34  1  0  0  0  0
  8 35  1  0  0  0  0
  9 10  1  0  0  0  0
 10 15  1  0  0  0  0
 10 11  2  0  0  0  0
 11 12  1  0  0  0  0
 12 13  2  0  0  0  0
 12 36  1  0  0  0  0
 13 14  1  0  0  0  0
 14 18  1  0  0  0  0
 14 15  2  0  0  0  0
 15 16  1  0  0  0  0
 16 17  2  0  0  0  0
 17 18  1  0  0  0  0
 17 37  1  0  0  0  0
 18 19  1  0  0  0  0
 19 20  1  0  0  0  0
 19 38  1  0  0  0  0
 19 39  1  0  0  0  0
 20 21  1  0  0  0  0
 20 23  1  0  0  0  0
 20 40  1  0  0  0  0
 21 22  1  0  0  0  0
 21 41  1  0  0  0  0
 21 42  1  0  0  0  0
 22 43  1  0  0  0  0
 23 27  1  0  0  0  0
 23 24  1  0  0  0  0
 23 44  1  0  0  0  0
 24 25  1  0  0  0  0
 24 45  1  0  0  0  0
 24 46  1  0  0  0  0
 25 26  1  0  0  0  0
 25 47  1  0  0  0  0
 25 48  1  0  0  0  0
 26 27  1  0  0  0  0
 27 49  1  0  0  0  0
 27 50  1  0  0  0  0
M  END
> <s_m_source_file>
AV-unprocessed.smi

> <i_m_source_file_index>
221

> <i_lp_mmshare_version>
43012

> <i_f3d_flags>
0

> <s_epik_input>
W05IMl1DKD1PKVtDQEBIXTFbQ0gyXVtDQEBIXShGKVtDSDJdTjFjKG5bY0hdbjIpYyhjMjMpbltjSF1uM1tDSDJdW0NASF0oW0NIMl1bT0hdKVtDQEBIXTRbQ0gyXVtDSDJdT1tDSDJdNA==

> <s_epik_cmdline>
J2VwaWtfcHl0aG9uJywgJy1waCcsICc3LjAnLCAnLXRuJywgJzgnLCAnLW1hJywgJzIwMCcsICctbWV0YWxfYmluZGluZycsICctaW1hZScsICc8aW5maWxlLm1hZT4nLCAnLW9tYWUnLCAnPG91dGZpbGUubWFlPic=

> <r_lp_tautomer_probability>
1

> <r_epik_Ionization_Penalty>
0.000818822

> <r_epik_Ionization_Penalty_Charging>
0

> <r_epik_Ionization_Penalty_Neutral>
0.000818822

> <r_epik_State_Penalty>
0.000440551

> <r_epik_Charging_Adjusted_Penalty>
0.000440551

> <i_epik_Tot_Q>
0

> <i_epik_Tot_abs_Q>
0

> <r_epik_Metal_State_Penalty>
-0

> <b_epik_Metal_Only>
0

> <s_lp_Force_Field>
OPLS_2005

> <r_lp_Energy>
49.9883

> <b_lp_Chiralities_Consistent>
1

> <s_lp_Variant>
AV-unprocessed.smi:221-12

> <Gold.Version>
5.8.1

> <Gold.Id.Protein>
6NUR|6NUR_protein|mol2

> <Gold.PLP.Fitness>
51.5052

> <Gold.PLP.PLP>
-47.3396

> <Gold.PLP.part.hbond>
-5.0000

> <Gold.PLP.part.metal>
0.0000

> <Gold.PLP.part.buried>
-3.5944

> <Gold.PLP.part.nonpolar>
-38.3250

> <Gold.PLP.part.repulsive>
0.4020

> <Gold.PLP.ligand.clash>
0.0114

> <Gold.PLP.ligand.torsion>
1.0627

> <Gold.PLP.Chemscore.Hbond>
1.9840

> <Gold.PLP.Chemscore.CHOScore>
0.0000

> <Gold.PLP.Chemscore.Metal>
0.0000

> <Gold.Chemscore.Hbonds>
donor molecule, donor type, donor heavy atom, donor atom, acceptor molecule, acceptor atom, score
      L1  H     1    31       P1  8028  1.00
      P1  H  7997  8010       L1    16  0.92

> <Gold.PLP.Chemscore.Internal.Correction>
0.3504

> <Gold.Rescore>
     Score         DG    S(hbond)    S(metal)    S(lipo)     H(rot)  DE(clash)    DE(int)     intcor
      6.24     -10.22       1.24        0.00      77.41       3.31       0.04       3.93       ----

> <Gold.Chemscore.Fitness>
6.2449

> <Gold.Chemscore.DG>
-10.2171

> <Gold.Chemscore.ZeroCoef>
-5.4800

> <Gold.Chemscore.Hbond>
1.2430

> <Gold.Chemscore.Metal>
0.0000

> <Gold.Chemscore.Lipo>
77.4053

> <Gold.Chemscore.Internal_Hbond>
0.0000

> <Gold.Chemscore.DEClash>
0.0376

> <Gold.Chemscore.DEInternal>
3.9345

> <Gold.Chemscore.Rot>
3.3089

> <Gold.Chemscore.Internal.Correction>
   9.000000E+99

> <Gold.Chemscore.Hbonds>
donor molecule, donor type, donor heavy atom, donor atom, acceptor molecule, acceptor atom, score
      L1  H     1    31       P1  8028  0.24
      P1  H  7997  8010       L1    16  0.21

> <Gold.Chemscore.Hbond.Weighted>
-4.1515

> <Gold.Chemscore.Metal.Weighted>
-0.0000

> <Gold.Chemscore.Lipo.Weighted>
-9.0564

> <Gold.Chemscore.Internal_Hbond.Weighted>
0.0000

> <Gold.Chemscore.DEClash.Weighted>
0.0376

> <Gold.Chemscore.DEInternal.Weighted>
3.9345

> <Gold.Chemscore.Rot.Weighted>
8.4709

> <Gold.Chemscore.Internal.Correction.Weighted>
   9.000000E+99

> <Gold.Protein.RotatedTorsions>
[ 6907 6896 6895 6894 ] final  108.49 input  -60.11 | X-H torsion
[ 7974 7965 7964 7962 ] final  -92.27 input  175.53 | X-H torsion
[ 8008 7997 7996 7995 ] final   -1.78 input   59.86 | X-H torsion
[ 10167 10162 10161 10158 ] final  -40.12 input  -65.29 | X-H torsion
[ 10718 10713 10712 10709 ] final  166.32 input   66.30 | X-H torsion
[ 10763 10752 10751 10750 ] final   31.14 input  -60.55 | X-H torsion
[ 11005 11000 10999 10996 ] final -146.81 input  -57.11 | X-H torsion

> <Gold.Protein.ActiveResidues>
 VAL166  LYS551  ARG553  GLY616  TRP617  ASP618  TYR619  PRO620  LYS621  CYS622 
 ASP623  PHE694  ASN695  SER759  ASP760  ASP761  ALA762  ILE779  LEU786  VAL792 
 PHE793  MET794  SER795  GLU796  ALA797  LYS798  CYS799  TRP800  GLU811  SER814 

> <Gold.Protein.RotatedAtoms>
  152.5110  133.9081  159.7474 H   0  0  0  0  0  0  0  0  0  0  0  0  # atno 6907 bound_to 6896
  150.9481  133.6571  159.2784 H   0  0  0  0  0  0  0  0  0  0  0  0  # atno 6908 bound_to 6896
  151.3859  135.0953  159.9564 H   0  0  0  0  0  0  0  0  0  0  0  0  # atno 6909 bound_to 6896
  145.4021  140.9538  143.2281 H   0  0  0  0  0  0  0  0  0  0  0  0  # atno 7974 bound_to 7965
  154.6430  140.2551  155.7300 H   0  0  0  0  0  0  0  0  0  0  0  0  # atno 8008 bound_to 7997
  156.2538  140.2883  156.0752 H   0  0  0  0  0  0  0  0  0  0  0  0  # atno 8009 bound_to 7997
  155.1568  140.0383  157.2824 H   0  0  0  0  0  0  0  0  0  0  0  0  # atno 8010 bound_to 7997
  140.7044  143.3172  151.2880 H   0  0  0  0  0  0  0  0  0  0  0  0  # atno 10167 bound_to 10162
  157.0675  131.0357  151.2624 H   0  0  0  0  0  0  0  0  0  0  0  0  # atno 10718 bound_to 10713
  153.0332  135.6446  154.1153 H   0  0  0  0  0  0  0  0  0  0  0  0  # atno 10763 bound_to 10752
  154.0872  135.2869  155.3280 H   0  0  0  0  0  0  0  0  0  0  0  0  # atno 10764 bound_to 10752
  154.6490  135.5433  153.7942 H   0  0  0  0  0  0  0  0  0  0  0  0  # atno 10765 bound_to 10752
  140.7782  134.3110  157.5054 H   0  0  0  0  0  0  0  0  0  0  0  0  # atno 11005 bound_to 11000
  144.8367  139.5539  143.6919 LP  0  0  0  0  0  0  0  0  0  0  0  0  # atno 17320 bound_to 7965
  146.2747  139.6722  142.9271 LP  0  0  0  0  0  0  0  0  0  0  0  0  # atno 17321 bound_to 7965
  139.6615  144.0181  152.2695 LP  0  0  0  0  0  0  0  0  0  0  0  0  # atno 17342 bound_to 10162
  139.9750  144.6468  150.7953 LP  0  0  0  0  0  0  0  0  0  0  0  0  # atno 17343 bound_to 10162
  157.4905  130.7819  149.7503 LP  0  0  0  0  0  0  0  0  0  0  0  0  # atno 17370 bound_to 10713
  155.9960  130.3908  150.2796 LP  0  0  0  0  0  0  0  0  0  0  0  0  # atno 17371 bound_to 10713
  139.8746  134.9302  156.3496 LP  0  0  0  0  0  0  0  0  0  0  0  0  # atno 17394 bound_to 11000
  140.9508  133.7452  156.0270 LP  0  0  0  0  0  0  0  0  0  0  0  0  # atno 17395 bound_to 11000

$$$$
