AV-unprocessed.smi:2061|AV-procd|sdf|8383|dock4
  -GOLD-   2272011 63D 1   1.00000     0.00000
 Structure written by MMmdl.
 45 46  0  0  0  0  0  0  0  0  3 V2000
  151.8303  140.8392  159.1133 C   0  0  0  0  0  0  0  0  0  0  0  0
  151.6817  140.3388  157.7175 C   0  0  0  0  0  0  0  0  0  0  0  0
  150.6577  140.3928  156.8148 C   0  0  0  0  0  0  0  0  0  0  0  0
  151.1877  139.7171  155.6817 C   0  0  0  0  0  0  0  0  0  0  0  0
  150.5560  139.5187  154.5144 N   0  5  0  0  0  0  0  0  0  0  0  0
  149.2050  139.5294  154.4605 C   0  0  0  0  0  0  0  0  0  0  0  0
  148.4470  140.1726  155.1903 O   0  0  0  0  0  0  0  0  0  0  0  0
  148.6984  138.7497  153.4948 N   0  0  0  0  0  0  0  0  0  0  0  0
  147.2796  138.5839  153.1948 C   0  0  0  0  0  0  0  0  0  0  0  0
  146.6311  137.4100  153.9732 C   0  0  1  0  0  0  0  0  0  0  0  0
  145.3005  137.8672  154.6185 C   0  0  0  0  0  0  0  0  0  0  0  0
  146.4910  136.2211  153.0714 N   0  3  1  0  0  0  0  0  0  0  0  0
  146.2794  134.9603  153.8320 C   0  0  0  0  0  0  0  0  0  0  0  0
  146.2703  133.7304  152.9054 C   0  0  2  0  0  0  0  0  0  0  0  0
  147.6614  133.3566  152.3626 C   0  0  0  0  0  0  0  0  0  0  0  0
  145.3085  133.9085  151.8683 O   0  0  0  0  0  0  0  0  0  0  0  0
  145.4897  135.0858  151.0889 C   0  0  1  0  0  0  0  0  0  0  0  0
  144.3772  135.1255  150.0351 C   0  0  0  0  0  0  0  0  0  0  0  0
  145.4652  136.3278  151.9995 C   0  0  0  0  0  0  0  0  0  0  0  0
  152.4292  139.3039  155.8743 N   0  0  0  0  0  0  0  0  0  0  0  0
  152.7516  139.6940  157.1797 O   0  0  0  0  0  0  0  0  0  0  0  0
  152.3377  141.8039  159.1247 H   0  0  0  0  0  0  0  0  0  0  0  0
  152.4125  140.1423  159.7167 H   0  0  0  0  0  0  0  0  0  0  0  0
  150.8560  140.9629  159.5868 H   0  0  0  0  0  0  0  0  0  0  0  0
  149.6840  140.8409  156.9441 H   0  0  0  0  0  0  0  0  0  0  0  0
  149.3529  138.2370  152.9220 H   0  0  0  0  0  0  0  0  0  0  0  0
  146.7752  139.5163  153.4501 H   0  0  0  0  0  0  0  0  0  0  0  0
  147.1695  138.4715  152.1166 H   0  0  0  0  0  0  0  0  0  0  0  0
  147.2898  137.1222  154.7943 H   0  0  0  0  0  0  0  0  0  0  0  0
  145.4421  138.7421  155.2528 H   0  0  0  0  0  0  0  0  0  0  0  0
  144.8753  137.1005  155.2660 H   0  0  0  0  0  0  0  0  0  0  0  0
  144.5593  138.1302  153.8633 H   0  0  0  0  0  0  0  0  0  0  0  0
  147.0408  134.8235  154.5984 H   0  0  0  0  0  0  0  0  0  0  0  0
  145.3246  135.0222  154.3570 H   0  0  0  0  0  0  0  0  0  0  0  0
  145.9236  132.8784  153.4912 H   0  0  0  0  0  0  0  0  0  0  0  0
  148.3367  133.0976  153.1786 H   0  0  0  0  0  0  0  0  0  0  0  0
  148.1243  134.1727  151.8086 H   0  0  0  0  0  0  0  0  0  0  0  0
  147.6005  132.4931  151.6998 H   0  0  0  0  0  0  0  0  0  0  0  0
  146.4449  135.0360  150.5661 H   0  0  0  0  0  0  0  0  0  0  0  0
  144.4700  136.0048  149.3972 H   0  0  0  0  0  0  0  0  0  0  0  0
  143.3919  135.1523  150.5014 H   0  0  0  0  0  0  0  0  0  0  0  0
  144.4177  134.2449  149.3934 H   0  0  0  0  0  0  0  0  0  0  0  0
  144.4788  136.4545  152.4491 H   0  0  0  0  0  0  0  0  0  0  0  0
  145.6529  137.1958  151.3683 H   0  0  0  0  0  0  0  0  0  0  0  0
  147.3764  136.1321  152.5938 H   0  0  0  0  0  0  0  0  0  0  0  0
  1  2  1  0  0  0  0
  1 22  1  0  0  0  0
  1 23  1  0  0  0  0
  1 24  1  0  0  0  0
  2 21  1  0  0  0  0
  2  3  2  0  0  0  0
  3  4  1  0  0  0  0
  3 25  1  0  0  0  0
  4  5  1  0  0  0  0
  4 20  2  0  0  0  0
  5  6  1  0  0  0  0
  6  7  2  0  0  0  0
  6  8  1  0  0  0  0
  8  9  1  0  0  0  0
  8 26  1  0  0  0  0
  9 10  1  0  0  0  0
  9 27  1  0  0  0  0
  9 28  1  0  0  0  0
 10 11  1  0  0  0  0
 10 12  1  0  0  0  0
 10 29  1  0  0  0  0
 11 30  1  0  0  0  0
 11 31  1  0  0  0  0
 11 32  1  0  0  0  0
 12 19  1  0  0  0  0
 12 13  1  0  0  0  0
 12 45  1  0  0  0  0
 13 14  1  0  0  0  0
 13 33  1  0  0  0  0
 13 34  1  0  0  0  0
 14 15  1  0  0  0  0
 14 16  1  0  0  0  0
 14 35  1  0  0  0  0
 15 36  1  0  0  0  0
 15 37  1  0  0  0  0
 15 38  1  0  0  0  0
 16 17  1  0  0  0  0
 17 18  1  0  0  0  0
 17 19  1  0  0  0  0
 17 39  1  0  0  0  0
 18 40  1  0  0  0  0
 18 41  1  0  0  0  0
 18 42  1  0  0  0  0
 19 43  1  0  0  0  0
 19 44  1  0  0  0  0
 20 21  1  0  0  0  0
M  CHG  1   5  -1
M  CHG  1  12   1
M  END
> <s_m_source_file>
AV-unprocessed.smi

> <i_m_source_file_index>
2061

> <i_lp_mmshare_version>
43012

> <i_f3d_flags>
0

> <s_epik_input>
W0NIM11jMVtjSF1jKG5vMSlbTkhdQyg9TylbTkhdW0NIMl1bQ0BIXShbQ0gzXSlOMltDSDJdW0NAQEhdKFtDSDNdKU9bQ0BASF0oW0NIM10pW0NIMl0y

> <s_epik_cmdline>
J2VwaWtfcHl0aG9uJywgJy1waCcsICc3LjAnLCAnLXRuJywgJzgnLCAnLW1hJywgJzIwMCcsICctbWV0YWxfYmluZGluZycsICctaW1hZScsICc8aW5maWxlLm1hZT4nLCAnLW9tYWUnLCAnPG91dGZpbGUubWFlPic=

> <r_epik_Ionization_Penalty>
6.73511

> <r_epik_Ionization_Penalty_Charging>
6.73502

> <r_epik_Ionization_Penalty_Neutral>
9.50841e-05

> <r_epik_State_Penalty>
6.93549

> <r_epik_Charging_Adjusted_Penalty>
13.6705

> <i_epik_Tot_Q>
0

> <i_epik_Tot_abs_Q>
2

> <r_epik_Metal_State_Penalty>
2.87211

> <b_epik_Metal_Only>
1

> <s_lp_Force_Field>
OPLS_2005

> <r_lp_Energy>
11.2328

> <b_lp_Chiralities_Consistent>
1

> <s_lp_Variant>
AV-unprocessed.smi:2061-24

> <Gold.Version>
5.8.1

> <Gold.Id.Protein>
6NUR|6NUR_protein|mol2

> <Gold.PLP.Fitness>
39.8107

> <Gold.PLP.PLP>
-29.9752

> <Gold.PLP.part.hbond>
-5.7608

> <Gold.PLP.part.metal>
0.0000

> <Gold.PLP.part.buried>
-2.1950

> <Gold.PLP.part.nonpolar>
-23.6663

> <Gold.PLP.part.repulsive>
0.3617

> <Gold.PLP.ligand.clash>
0.0000

> <Gold.PLP.ligand.torsion>
1.2776

> <Gold.PLP.Chemscore.Hbond>
4.1006

> <Gold.PLP.Chemscore.CHOScore>
0.0000

> <Gold.PLP.Chemscore.Metal>
0.0000

> <Gold.Chemscore.Hbonds>
donor molecule, donor type, donor heavy atom, donor atom, acceptor molecule, acceptor atom, score
      L1  H     8    26       P1  7948  0.23
      L1  H    12    45       P1  7948  2.00
      P1  H  7989  7998       L1     5  0.80
      P1  H  7997  8008       L1    21  0.95

> <Gold.PLP.Chemscore.Internal.Correction>
0.0891

> <Gold.Rescore>
     Score         DG    S(hbond)    S(metal)    S(lipo)     H(rot)  DE(clash)    DE(int)     intcor
     13.36     -16.10       2.41        0.00      55.98       1.56       0.05       2.68       ----

> <Gold.Chemscore.Fitness>
13.3643

> <Gold.Chemscore.DG>
-16.0987

> <Gold.Chemscore.ZeroCoef>
-5.4800

> <Gold.Chemscore.Hbond>
2.4103

> <Gold.Chemscore.Metal>
0.0000

> <Gold.Chemscore.Lipo>
55.9757

> <Gold.Chemscore.Internal_Hbond>
0.0000

> <Gold.Chemscore.DEClash>
0.0513

> <Gold.Chemscore.DEInternal>
2.6830

> <Gold.Chemscore.Rot>
1.5550

> <Gold.Chemscore.Internal.Correction>
   9.000000E+99

> <Gold.Chemscore.Hbonds>
donor molecule, donor type, donor heavy atom, donor atom, acceptor molecule, acceptor atom, score
      L1  H     8    26       P1  7948  0.21
      L1  H    12    45       P1  7948  1.00
      P1  H  7989  7998       L1     5  0.11
      P1  H  7997  8008       L1    21  0.20

> <Gold.Chemscore.Hbond.Weighted>
-8.0504

> <Gold.Chemscore.Metal.Weighted>
-0.0000

> <Gold.Chemscore.Lipo.Weighted>
-6.5492

> <Gold.Chemscore.Internal_Hbond.Weighted>
0.0000

> <Gold.Chemscore.DEClash.Weighted>
0.0513

> <Gold.Chemscore.DEInternal.Weighted>
2.6830

> <Gold.Chemscore.Rot.Weighted>
3.9809

> <Gold.Chemscore.Internal.Correction.Weighted>
   9.000000E+99

> <Gold.Protein.RotatedTorsions>
[ 6907 6896 6895 6894 ] final   91.34 input  -60.11 | X-H torsion
[ 7974 7965 7964 7962 ] final -106.31 input  175.53 | X-H torsion
[ 8008 7997 7996 7995 ] final  -81.01 input   59.86 | X-H torsion
[ 10167 10162 10161 10158 ] final   45.74 input  -65.29 | X-H torsion
[ 10718 10713 10712 10709 ] final  -62.05 input   66.30 | X-H torsion
[ 10763 10752 10751 10750 ] final  -53.08 input  -60.55 | X-H torsion
[ 11005 11000 10999 10996 ] final  -97.86 input  -57.11 | X-H torsion

> <Gold.Protein.ActiveResidues>
 VAL166  LYS551  ARG553  GLY616  TRP617  ASP618  TYR619  PRO620  LYS621  CYS622 
 ASP623  PHE694  ASN695  SER759  ASP760  ASP761  ALA762  ILE779  LEU786  VAL792 
 PHE793  MET794  SER795  GLU796  ALA797  LYS798  CYS799  TRP800  GLU811  SER814 

> <Gold.Protein.RotatedAtoms>
  152.5449  134.1671  159.8581 H   0  0  0  0  0  0  0  0  0  0  0  0  # atno 6907 bound_to 6896
  151.1684  133.4793  159.2601 H   0  0  0  0  0  0  0  0  0  0  0  0  # atno 6908 bound_to 6896
  151.1300  135.0136  159.8633 H   0  0  0  0  0  0  0  0  0  0  0  0  # atno 6909 bound_to 6896
  145.2194  140.9128  143.3268 H   0  0  0  0  0  0  0  0  0  0  0  0  # atno 7974 bound_to 7965
  154.5940  140.0654  156.9278 H   0  0  0  0  0  0  0  0  0  0  0  0  # atno 8008 bound_to 7997
  155.2245  140.3333  155.4293 H   0  0  0  0  0  0  0  0  0  0  0  0  # atno 8009 bound_to 7997
  156.2275  140.1826  156.7311 H   0  0  0  0  0  0  0  0  0  0  0  0  # atno 8010 bound_to 7997
  140.3210  144.2705  150.6183 H   0  0  0  0  0  0  0  0  0  0  0  0  # atno 10167 bound_to 10162
  156.0881  130.4205  150.1080 H   0  0  0  0  0  0  0  0  0  0  0  0  # atno 10718 bound_to 10713
  154.1531  135.6487  153.4968 H   0  0  0  0  0  0  0  0  0  0  0  0  # atno 10763 bound_to 10752
  153.0132  135.5343  154.6788 H   0  0  0  0  0  0  0  0  0  0  0  0  # atno 10764 bound_to 10752
  154.6081  135.2951  155.0434 H   0  0  0  0  0  0  0  0  0  0  0  0  # atno 10765 bound_to 10752
  141.1364  133.8202  157.0763 H   0  0  0  0  0  0  0  0  0  0  0  0  # atno 11005 bound_to 11000
  144.9780  139.3812  143.6276 LP  0  0  0  0  0  0  0  0  0  0  0  0  # atno 17320 bound_to 7965
  146.3379  139.8907  142.8809 LP  0  0  0  0  0  0  0  0  0  0  0  0  # atno 17321 bound_to 7965
  140.5483  143.2211  151.7970 LP  0  0  0  0  0  0  0  0  0  0  0  0  # atno 17342 bound_to 10162
  139.4874  144.4510  151.9654 LP  0  0  0  0  0  0  0  0  0  0  0  0  # atno 17343 bound_to 10162
  156.9097  130.9647  151.3565 LP  0  0  0  0  0  0  0  0  0  0  0  0  # atno 17370 bound_to 10713
  157.6021  130.8520  149.8819 LP  0  0  0  0  0  0  0  0  0  0  0  0  # atno 17371 bound_to 10713
  140.0479  134.9820  157.1083 LP  0  0  0  0  0  0  0  0  0  0  0  0  # atno 17394 bound_to 11000
  140.4034  134.2058  155.7163 LP  0  0  0  0  0  0  0  0  0  0  0  0  # atno 17395 bound_to 11000

$$$$
