AV-unprocessed.smi:2259|AV-procd|sdf|9131|dock3
  -GOLD-   2272012333D 1   1.00000     0.00000
 Structure written by MMmdl.
 39 40  0  0  0  0  0  0  0  0  1 V2000
  151.9610  143.5596  160.3753 C   0  0  0  0  0  0  0  0  0  0  0  0
  151.7541  142.6424  159.1831 C   0  0  0  0  0  0  0  0  0  0  0  0
  150.8462  143.0966  158.2226 N   0  0  0  0  0  0  0  0  0  0  0  0
  150.6130  142.3852  157.1687 C   0  0  0  0  0  0  0  0  0  0  0  0
  151.2530  141.1525  156.9517 N   0  0  0  0  0  0  0  0  0  0  0  0
  150.9027  140.4345  155.7122 C   0  0  0  0  0  0  0  0  0  0  0  0
  149.5816  140.9239  155.0728 C   0  0  1  0  0  0  0  0  0  0  0  0
  149.7821  140.9388  153.6740 O   0  0  0  0  0  0  0  0  0  0  0  0
  148.3701  140.0241  155.3779 C   0  0  0  0  0  0  0  0  0  0  0  0
  147.4562  140.7465  156.1921 O   0  0  0  0  0  0  0  0  0  0  0  0
  146.6419  141.6817  155.5899 C   0  0  0  0  0  0  0  0  0  0  0  0
  145.7466  142.3811  156.4248 C   0  0  0  0  0  0  0  0  0  0  0  0
  144.8769  143.3547  155.8966 C   0  0  0  0  0  0  0  0  0  0  0  0
  144.8927  143.6397  154.5171 C   0  0  0  0  0  0  0  0  0  0  0  0
  143.9958  144.6435  153.9687 C   0  0  0  0  0  0  0  0  0  0  0  0
  143.2820  145.4427  153.5320 N   0  0  0  0  0  0  0  0  0  0  0  0
  145.7817  142.9466  153.6718 C   0  0  0  0  0  0  0  0  0  0  0  0
  146.6520  141.9741  154.2024 C   0  0  0  0  0  0  0  0  0  0  0  0
  152.1359  140.6270  157.8498 C   0  0  0  0  0  0  0  0  0  0  0  0
  152.6719  139.5328  157.6652 O   0  0  0  0  0  0  0  0  0  0  0  0
  152.3988  141.4525  159.0397 C   0  0  0  0  0  0  0  0  0  0  0  0
  153.3977  140.9070  160.0528 C   0  0  0  0  0  0  0  0  0  0  0  0
  151.6872  143.0508  161.3000 H   0  0  0  0  0  0  0  0  0  0  0  0
  151.3488  144.4589  160.2958 H   0  0  0  0  0  0  0  0  0  0  0  0
  153.0040  143.8705  160.4421 H   0  0  0  0  0  0  0  0  0  0  0  0
  149.9163  142.6992  156.3897 H   0  0  0  0  0  0  0  0  0  0  0  0
  151.7193  140.5614  154.9985 H   0  0  0  0  0  0  0  0  0  0  0  0
  150.8484  139.3560  155.8751 H   0  0  0  0  0  0  0  0  0  0  0  0
  149.3721  141.9436  155.3973 H   0  0  0  0  0  0  0  0  0  0  0  0
  149.4555  140.1288  153.3134 H   0  0  0  0  0  0  0  0  0  0  0  0
  147.9018  139.6777  154.4548 H   0  0  0  0  0  0  0  0  0  0  0  0
  148.6934  139.1474  155.9389 H   0  0  0  0  0  0  0  0  0  0  0  0
  145.7270  142.1698  157.4841 H   0  0  0  0  0  0  0  0  0  0  0  0
  144.2003  143.8789  156.5563 H   0  0  0  0  0  0  0  0  0  0  0  0
  145.8022  143.1561  152.6118 H   0  0  0  0  0  0  0  0  0  0  0  0
  147.3173  141.4653  153.5217 H   0  0  0  0  0  0  0  0  0  0  0  0
  153.0531  139.9482  160.4412 H   0  0  0  0  0  0  0  0  0  0  0  0
  153.5522  141.5686  160.9038 H   0  0  0  0  0  0  0  0  0  0  0  0
  154.3675  140.7519  159.5784 H   0  0  0  0  0  0  0  0  0  0  0  0
  1  2  1  0  0  0  0
  1 23  1  0  0  0  0
  1 24  1  0  0  0  0
  1 25  1  0  0  0  0
  2 21  2  0  0  0  0
  2  3  1  0  0  0  0
  3  4  2  0  0  0  0
  4  5  1  0  0  0  0
  4 26  1  0  0  0  0
  5  6  1  0  0  0  0
  5 19  1  0  0  0  0
  6  7  1  0  0  0  0
  6 27  1  0  0  0  0
  6 28  1  0  0  0  0
  7  8  1  0  0  0  0
  7  9  1  0  0  0  0
  7 29  1  0  0  0  0
  8 30  1  0  0  0  0
  9 10  1  0  0  0  0
  9 31  1  0  0  0  0
  9 32  1  0  0  0  0
 10 11  1  0  0  0  0
 11 18  1  0  0  0  0
 11 12  2  0  0  0  0
 12 13  1  0  0  0  0
 12 33  1  0  0  0  0
 13 14  2  0  0  0  0
 13 34  1  0  0  0  0
 14 15  1  0  0  0  0
 14 17  1  0  0  0  0
 15 16  3  0  0  0  0
 17 18  2  0  0  0  0
 17 35  1  0  0  0  0
 18 36  1  0  0  0  0
 19 20  2  0  0  0  0
 19 21  1  0  0  0  0
 21 22  1  0  0  0  0
 22 37  1  0  0  0  0
 22 38  1  0  0  0  0
 22 39  1  0  0  0  0
M  END
> <s_m_source_file>
AV-unprocessed.smi

> <i_m_source_file_index>
2259

> <i_lp_mmshare_version>
43012

> <i_f3d_flags>
0

> <s_epik_input>
W0NIM11jMW5bY0hdbihjKD1PKWMxW0NIM10pW0NIMl1bQ0BIXShbT0hdKVtDSDJdT2MyW2NIXVtjSF1jKEMjTilbY0hdW2NIXTI=

> <s_epik_cmdline>
J2VwaWtfcHl0aG9uJywgJy1waCcsICc3LjAnLCAnLXRuJywgJzgnLCAnLW1hJywgJzIwMCcsICctbWV0YWxfYmluZGluZycsICctaW1hZScsICc8aW5maWxlLm1hZT4nLCAnLW9tYWUnLCAnPG91dGZpbGUubWFlPic=

> <r_lp_tautomer_probability>
1

> <r_epik_Ionization_Penalty>
3.47921e-05

> <r_epik_Ionization_Penalty_Charging>
7.82631e-08

> <r_epik_Ionization_Penalty_Neutral>
3.47138e-05

> <r_epik_State_Penalty>
-0

> <r_epik_Charging_Adjusted_Penalty>
7.82631e-08

> <i_epik_Tot_Q>
0

> <i_epik_Tot_abs_Q>
0

> <r_epik_Metal_State_Penalty>
-0

> <b_epik_Metal_Only>
0

> <s_lp_Force_Field>
OPLS_2005

> <r_lp_Energy>
23.7996

> <b_lp_Chiralities_Consistent>
1

> <s_lp_Variant>
AV-unprocessed.smi:2259-2

> <Gold.Version>
5.8.1

> <Gold.Id.Protein>
6NUR|6NUR_protein|mol2

> <Gold.PLP.Fitness>
53.0938

> <Gold.PLP.PLP>
-45.9418

> <Gold.PLP.part.hbond>
-4.7969

> <Gold.PLP.part.metal>
0.0000

> <Gold.PLP.part.buried>
-5.7144

> <Gold.PLP.part.nonpolar>
-35.6800

> <Gold.PLP.part.repulsive>
0.2926

> <Gold.PLP.ligand.clash>
0.0000

> <Gold.PLP.ligand.torsion>
1.6150

> <Gold.PLP.Chemscore.Hbond>
2.4227

> <Gold.PLP.Chemscore.CHOScore>
1.0000

> <Gold.PLP.Chemscore.Metal>
0.0000

> <Gold.Chemscore.Hbonds>
donor molecule, donor type, donor heavy atom, donor atom, acceptor molecule, acceptor atom, score
      L1  H     8    30       P1  7957  0.17
      P1  H  7989  7998       L1     8  0.35
      P1  H  7997  8008       L1    20  0.98
      P1  H  8011  8017       L1     8  0.99
      L1  C     4    26       P1  8028  1.00

> <Gold.PLP.Chemscore.Internal.Correction>
0.1139

> <Gold.Rescore>
     Score         DG    S(hbond)    S(metal)    S(lipo)     H(rot)  DE(clash)    DE(int)     intcor
     12.67     -14.82       1.90        0.00      83.78       2.66       0.65       1.50       ----

> <Gold.Chemscore.Fitness>
12.6661

> <Gold.Chemscore.DG>
-14.8198

> <Gold.Chemscore.ZeroCoef>
-5.4800

> <Gold.Chemscore.Hbond>
1.8975

> <Gold.Chemscore.Metal>
0.0000

> <Gold.Chemscore.Lipo>
83.7819

> <Gold.Chemscore.Internal_Hbond>
0.0000

> <Gold.Chemscore.DEClash>
0.6520

> <Gold.Chemscore.DEInternal>
1.5018

> <Gold.Chemscore.Rot>
2.6563

> <Gold.Chemscore.Internal.Correction>
   9.000000E+99

> <Gold.Chemscore.Hbonds>
donor molecule, donor type, donor heavy atom, donor atom, acceptor molecule, acceptor atom, score
      L1  H     8    30       P1  7957  0.17
      P1  H  7989  7998       L1     8  0.10
      P1  H  7997  8008       L1    20  0.32
      P1  H  8011  8017       L1     8  0.74

> <Gold.Chemscore.Hbond.Weighted>
-6.3376

> <Gold.Chemscore.Metal.Weighted>
-0.0000

> <Gold.Chemscore.Lipo.Weighted>
-9.8025

> <Gold.Chemscore.Internal_Hbond.Weighted>
0.0000

> <Gold.Chemscore.DEClash.Weighted>
0.6520

> <Gold.Chemscore.DEInternal.Weighted>
1.5018

> <Gold.Chemscore.Rot.Weighted>
6.8002

> <Gold.Chemscore.Internal.Correction.Weighted>
   9.000000E+99

> <Gold.Protein.RotatedTorsions>
[ 6907 6896 6895 6894 ] final   31.41 input  -60.11 | X-H torsion
[ 7974 7965 7964 7962 ] final  -46.64 input  175.53 | X-H torsion
[ 8008 7997 7996 7995 ] final  -74.01 input   59.86 | X-H torsion
[ 10167 10162 10161 10158 ] final    3.97 input  -65.29 | X-H torsion
[ 10718 10713 10712 10709 ] final   43.60 input   66.30 | X-H torsion
[ 10763 10752 10751 10750 ] final -141.47 input  -60.55 | X-H torsion
[ 11005 11000 10999 10996 ] final  -16.43 input  -57.11 | X-H torsion

> <Gold.Protein.ActiveResidues>
 VAL166  LYS551  ARG553  GLY616  TRP617  ASP618  TYR619  PRO620  LYS621  CYS622 
 ASP623  PHE694  ASN695  SER759  ASP760  ASP761  ALA762  ILE779  LEU786  VAL792 
 PHE793  MET794  SER795  GLU796  ALA797  LYS798  CYS799  TRP800  GLU811  SER814 

> <Gold.Protein.RotatedAtoms>
  152.0599  134.9601  160.0574 H   0  0  0  0  0  0  0  0  0  0  0  0  # atno 6907 bound_to 6896
  152.0968  133.4224  159.4577 H   0  0  0  0  0  0  0  0  0  0  0  0  # atno 6908 bound_to 6896
  150.6838  134.2726  159.4638 H   0  0  0  0  0  0  0  0  0  0  0  0  # atno 6909 bound_to 6896
  145.9699  140.7394  142.9416 H   0  0  0  0  0  0  0  0  0  0  0  0  # atno 7974 bound_to 7965
  154.5295  140.0769  156.8319 H   0  0  0  0  0  0  0  0  0  0  0  0  # atno 8008 bound_to 7997
  155.3405  140.3407  155.4221 H   0  0  0  0  0  0  0  0  0  0  0  0  # atno 8009 bound_to 7997
  156.1766  140.1638  156.8337 H   0  0  0  0  0  0  0  0  0  0  0  0  # atno 8010 bound_to 7997
  140.6559  143.7429  150.7652 H   0  0  0  0  0  0  0  0  0  0  0  0  # atno 10167 bound_to 10162
  157.4177  130.7951  149.7486 H   0  0  0  0  0  0  0  0  0  0  0  0  # atno 10718 bound_to 10713
  154.8544  135.3523  154.5873 H   0  0  0  0  0  0  0  0  0  0  0  0  # atno 10763 bound_to 10752
  153.6483  135.6995  153.5222 H   0  0  0  0  0  0  0  0  0  0  0  0  # atno 10764 bound_to 10752
  153.2915  135.4233  155.1129 H   0  0  0  0  0  0  0  0  0  0  0  0  # atno 10765 bound_to 10752
  140.8067  133.8172  155.9522 H   0  0  0  0  0  0  0  0  0  0  0  0  # atno 11005 bound_to 11000
  144.6834  140.2731  143.7303 LP  0  0  0  0  0  0  0  0  0  0  0  0  # atno 17320 bound_to 7965
  145.7921  139.1931  143.2097 LP  0  0  0  0  0  0  0  0  0  0  0  0  # atno 17321 bound_to 7965
  140.1089  143.4718  152.2382 LP  0  0  0  0  0  0  0  0  0  0  0  0  # atno 17342 bound_to 10162
  139.5781  144.7497  151.3711 LP  0  0  0  0  0  0  0  0  0  0  0  0  # atno 17343 bound_to 10162
  155.9870  130.3970  150.3184 LP  0  0  0  0  0  0  0  0  0  0  0  0  # atno 17370 bound_to 10713
  157.1329  131.0276  151.2961 LP  0  0  0  0  0  0  0  0  0  0  0  0  # atno 17371 bound_to 10713
  140.9240  134.2106  157.4908 LP  0  0  0  0  0  0  0  0  0  0  0  0  # atno 17394 bound_to 11000
  139.8717  134.9804  156.5076 LP  0  0  0  0  0  0  0  0  0  0  0  0  # atno 17395 bound_to 11000

$$$$
