AV-unprocessed.smi:870|AV-procd|sdf|4009|dock3
  -GOLD-   22720 1493D 1   1.00000     0.00000
 Structure written by MMmdl.
 47 49  0  0  0  0  0  0  0  0  2 V2000
  147.8805  141.4330  153.8893 C   0  0  0  0  0  0  0  0  0  0  0  0
  148.4217  141.6574  155.1794 O   0  0  0  0  0  0  0  0  0  0  0  0
  149.7796  141.2594  155.2747 C   0  0  0  0  0  0  0  0  0  0  0  0
  150.4494  141.8451  156.4744 C   0  0  0  0  0  0  0  0  0  0  0  0
  150.5653  143.1721  156.7637 N   0  3  0  0  0  0  0  0  0  0  0  0
  151.2556  143.3362  157.9649 C   0  0  0  0  0  0  0  0  0  0  0  0
  151.6129  144.4874  158.6602 C   0  0  0  0  0  0  0  0  0  0  0  0
  152.3171  144.3041  159.8682 C   0  0  0  0  0  0  0  0  0  0  0  0
  152.6385  143.0158  160.3424 C   0  0  0  0  0  0  0  0  0  0  0  0
  152.2717  141.8561  159.6283 C   0  0  0  0  0  0  0  0  0  0  0  0
  151.5772  142.0454  158.4334 C   0  0  0  0  0  0  0  0  0  0  0  0
  151.0602  141.1577  157.4814 N   0  0  0  0  0  0  0  0  0  0  0  0
  151.2286  139.7072  157.6648 C   0  0  0  0  0  0  0  0  0  0  0  0
  152.5338  139.1721  157.0420 C   0  0  2  0  0  0  0  0  0  0  0  0
  152.2596  138.5348  155.8108 O   0  0  0  0  0  0  0  0  0  0  0  0
  153.2522  138.1723  157.9589 C   0  0  0  0  0  0  0  0  0  0  0  0
  154.2262  138.8726  158.7207 O   0  0  0  0  0  0  0  0  0  0  0  0
  154.3575  138.5708  160.0604 C   0  0  0  0  0  0  0  0  0  0  0  0
  153.6527  137.5216  160.7039 C   0  0  0  0  0  0  0  0  0  0  0  0
  153.8385  137.2716  162.0768 C   0  0  0  0  0  0  0  0  0  0  0  0
  154.7285  138.0633  162.8241 C   0  0  0  0  0  0  0  0  0  0  0  0
  155.4329  139.1067  162.1966 C   0  0  0  0  0  0  0  0  0  0  0  0
  155.2503  139.3615  160.8212 C   0  0  0  0  0  0  0  0  0  0  0  0
  156.0160  140.4923  160.1599 C   0  0  0  0  0  0  0  0  0  0  0  0
  146.8386  141.7528  153.8683 H   0  0  0  0  0  0  0  0  0  0  0  0
  147.9127  140.3748  153.6270 H   0  0  0  0  0  0  0  0  0  0  0  0
  148.4217  141.9992  153.1303 H   0  0  0  0  0  0  0  0  0  0  0  0
  149.8444  140.1721  155.3323 H   0  0  0  0  0  0  0  0  0  0  0  0
  150.3240  141.5747  154.3833 H   0  0  0  0  0  0  0  0  0  0  0  0
  151.3660  145.4752  158.2999 H   0  0  0  0  0  0  0  0  0  0  0  0
  152.6157  145.1687  160.4434 H   0  0  0  0  0  0  0  0  0  0  0  0
  153.1768  142.9144  161.2736 H   0  0  0  0  0  0  0  0  0  0  0  0
  152.5192  140.8747  160.0050 H   0  0  0  0  0  0  0  0  0  0  0  0
  151.2247  139.5182  158.7390 H   0  0  0  0  0  0  0  0  0  0  0  0
  150.3569  139.1878  157.2668 H   0  0  0  0  0  0  0  0  0  0  0  0
  153.2069  140.0045  156.8337 H   0  0  0  0  0  0  0  0  0  0  0  0
  151.5158  137.9641  155.9288 H   0  0  0  0  0  0  0  0  0  0  0  0
  152.5312  137.6766  158.6116 H   0  0  0  0  0  0  0  0  0  0  0  0
  153.7448  137.4086  157.3544 H   0  0  0  0  0  0  0  0  0  0  0  0
  152.9617  136.8907  160.1660 H   0  0  0  0  0  0  0  0  0  0  0  0
  153.2964  136.4703  162.5570 H   0  0  0  0  0  0  0  0  0  0  0  0
  154.8706  137.8708  163.8774 H   0  0  0  0  0  0  0  0  0  0  0  0
  156.1140  139.7115  162.7771 H   0  0  0  0  0  0  0  0  0  0  0  0
  156.6628  141.0069  160.8711 H   0  0  0  0  0  0  0  0  0  0  0  0
  155.3240  141.2231  159.7408 H   0  0  0  0  0  0  0  0  0  0  0  0
  156.6396  140.1062  159.3530 H   0  0  0  0  0  0  0  0  0  0  0  0
  150.1958  143.9088  156.1763 H   0  0  0  0  0  0  0  0  0  0  0  0
  1  2  1  0  0  0  0
  1 25  1  0  0  0  0
  1 26  1  0  0  0  0
  1 27  1  0  0  0  0
  2  3  1  0  0  0  0
  3  4  1  0  0  0  0
  3 28  1  0  0  0  0
  3 29  1  0  0  0  0
  4 12  1  0  0  0  0
  4  5  2  0  0  0  0
  5  6  1  0  0  0  0
  5 47  1  0  0  0  0
  6 11  2  0  0  0  0
  6  7  1  0  0  0  0
  7  8  2  0  0  0  0
  7 30  1  0  0  0  0
  8  9  1  0  0  0  0
  8 31  1  0  0  0  0
  9 10  2  0  0  0  0
  9 32  1  0  0  0  0
 10 11  1  0  0  0  0
 10 33  1  0  0  0  0
 11 12  1  0  0  0  0
 12 13  1  0  0  0  0
 13 14  1  0  0  0  0
 13 34  1  0  0  0  0
 13 35  1  0  0  0  0
 14 15  1  0  0  0  0
 14 16  1  0  0  0  0
 14 36  1  0  0  0  0
 15 37  1  0  0  0  0
 16 17  1  0  0  0  0
 16 38  1  0  0  0  0
 16 39  1  0  0  0  0
 17 18  1  0  0  0  0
 18 23  1  0  0  0  0
 18 19  2  0  0  0  0
 19 20  1  0  0  0  0
 19 40  1  0  0  0  0
 20 21  2  0  0  0  0
 20 41  1  0  0  0  0
 21 22  1  0  0  0  0
 21 42  1  0  0  0  0
 22 23  2  0  0  0  0
 22 43  1  0  0  0  0
 23 24  1  0  0  0  0
 24 44  1  0  0  0  0
 24 45  1  0  0  0  0
 24 46  1  0  0  0  0
M  CHG  1   5   1
M  END
> <s_m_source_file>
AV-unprocessed.smi

> <i_m_source_file_index>
870

> <i_lp_mmshare_version>
43012

> <i_f3d_flags>
0

> <s_epik_input>
W2NIXTFbY0hdW2NIXVtjSF1jKGMxMiluKGMobjIpW0NIMl1PW0NIM10pW0NIMl1bQ0BIXShbT0hdKVtDSDJdT2MzW2NIXVtjSF1bY0hdW2NIXWMzW0NIM10=

> <s_epik_cmdline>
J2VwaWtfcHl0aG9uJywgJy1waCcsICc3LjAnLCAnLXRuJywgJzgnLCAnLW1hJywgJzIwMCcsICctbWV0YWxfYmluZGluZycsICctaW1hZScsICc8aW5maWxlLm1hZT4nLCAnLW9tYWUnLCAnPG91dGZpbGUubWFlPic=

> <r_lp_tautomer_probability>
1

> <r_epik_Ionization_Penalty>
1.55338

> <r_epik_Ionization_Penalty_Charging>
1.55338

> <r_epik_Ionization_Penalty_Neutral>
2.3993e-06

> <r_epik_State_Penalty>
1.64778

> <r_epik_Charging_Adjusted_Penalty>
3.20115

> <i_epik_Tot_Q>
1

> <i_epik_Tot_abs_Q>
1

> <r_epik_Metal_State_Penalty>
5.70266

> <b_epik_Metal_Only>
0

> <s_lp_Force_Field>
OPLS_2005

> <r_lp_Energy>
18.2102

> <b_lp_Chiralities_Consistent>
1

> <s_lp_Variant>
AV-unprocessed.smi:870-3

> <Gold.Version>
5.8.1

> <Gold.Id.Protein>
6NUR|6NUR_protein|mol2

> <Gold.PLP.Fitness>
53.3096

> <Gold.PLP.PLP>
-47.9648

> <Gold.PLP.part.hbond>
-1.9255

> <Gold.PLP.part.metal>
0.0000

> <Gold.PLP.part.buried>
-6.1770

> <Gold.PLP.part.nonpolar>
-41.4664

> <Gold.PLP.part.repulsive>
0.4307

> <Gold.PLP.ligand.clash>
0.0000

> <Gold.PLP.ligand.torsion>
1.8639

> <Gold.PLP.Chemscore.Hbond>
2.9520

> <Gold.PLP.Chemscore.CHOScore>
0.0000

> <Gold.PLP.Chemscore.Metal>
0.0000

> <Gold.Chemscore.Hbonds>
donor molecule, donor type, donor heavy atom, donor atom, acceptor molecule, acceptor atom, score
      L1  H     5    47       P1  8028  1.95
      P1  H  7997  8010       L1    17  1.00

> <Gold.PLP.Chemscore.Internal.Correction>
0.2165

> <Gold.Rescore>
     Score         DG    S(hbond)    S(metal)    S(lipo)     H(rot)  DE(clash)    DE(int)     intcor
     19.28     -21.23       1.91        0.00     133.60       2.45       0.00       1.95       ----

> <Gold.Chemscore.Fitness>
19.2756

> <Gold.Chemscore.DG>
-21.2259

> <Gold.Chemscore.ZeroCoef>
-5.4800

> <Gold.Chemscore.Hbond>
1.9118

> <Gold.Chemscore.Metal>
0.0000

> <Gold.Chemscore.Lipo>
133.5967

> <Gold.Chemscore.Internal_Hbond>
0.0000

> <Gold.Chemscore.DEClash>
0.0000

> <Gold.Chemscore.DEInternal>
1.9503

> <Gold.Chemscore.Rot>
2.4494

> <Gold.Chemscore.Internal.Correction>
   9.000000E+99

> <Gold.Chemscore.Hbonds>
donor molecule, donor type, donor heavy atom, donor atom, acceptor molecule, acceptor atom, score
      L1  H     5    47       P1  8028  0.91
      P1  H  7997  8010       L1    17  0.29

> <Gold.Chemscore.Hbond.Weighted>
-6.3856

> <Gold.Chemscore.Metal.Weighted>
-0.0000

> <Gold.Chemscore.Lipo.Weighted>
-15.6308

> <Gold.Chemscore.Internal_Hbond.Weighted>
0.0000

> <Gold.Chemscore.DEClash.Weighted>
0.0000

> <Gold.Chemscore.DEInternal.Weighted>
1.9503

> <Gold.Chemscore.Rot.Weighted>
6.2704

> <Gold.Chemscore.Internal.Correction.Weighted>
   9.000000E+99

> <Gold.Protein.RotatedTorsions>
[ 6907 6896 6895 6894 ] final   42.20 input  -60.11 | X-H torsion
[ 7974 7965 7964 7962 ] final   83.80 input  175.53 | X-H torsion
[ 8008 7997 7996 7995 ] final    0.79 input   59.86 | X-H torsion
[ 10167 10162 10161 10158 ] final -128.03 input  -65.29 | X-H torsion
[ 10718 10713 10712 10709 ] final   27.78 input   66.30 | X-H torsion
[ 10763 10752 10751 10750 ] final   50.83 input  -60.55 | X-H torsion
[ 11005 11000 10999 10996 ] final  -90.75 input  -57.11 | X-H torsion

> <Gold.Protein.ActiveResidues>
 VAL166  LYS551  ARG553  GLY616  TRP617  ASP618  TYR619  PRO620  LYS621  CYS622 
 ASP623  PHE694  ASN695  SER759  ASP760  ASP761  ALA762  ILE779  LEU786  VAL792 
 PHE793  MET794  SER795  GLU796  ALA797  LYS798  CYS799  TRP800  GLU811  SER814 

> <Gold.Protein.RotatedAtoms>
  152.2048  134.8555  160.0503 H   0  0  0  0  0  0  0  0  0  0  0  0  # atno 6907 bound_to 6896
  151.9395  133.3629  159.3968 H   0  0  0  0  0  0  0  0  0  0  0  0  # atno 6908 bound_to 6896
  150.6963  134.4378  159.5322 H   0  0  0  0  0  0  0  0  0  0  0  0  # atno 6909 bound_to 6896
  145.6072  139.2362  143.2213 H   0  0  0  0  0  0  0  0  0  0  0  0  # atno 7974 bound_to 7965
  154.6722  140.2614  155.6995 H   0  0  0  0  0  0  0  0  0  0  0  0  # atno 8008 bound_to 7997
  156.2663  140.2827  156.1158 H   0  0  0  0  0  0  0  0  0  0  0  0  # atno 8009 bound_to 7997
  155.1152  140.0376  157.2725 H   0  0  0  0  0  0  0  0  0  0  0  0  # atno 8010 bound_to 7997
  139.9546  143.6018  152.2465 H   0  0  0  0  0  0  0  0  0  0  0  0  # atno 10167 bound_to 10162
  157.2247  130.6995  149.6286 H   0  0  0  0  0  0  0  0  0  0  0  0  # atno 10718 bound_to 10713
  152.9784  135.5866  154.4317 H   0  0  0  0  0  0  0  0  0  0  0  0  # atno 10763 bound_to 10752
  154.3929  135.2768  155.2146 H   0  0  0  0  0  0  0  0  0  0  0  0  # atno 10764 bound_to 10752
  154.4010  135.6103  153.5951 H   0  0  0  0  0  0  0  0  0  0  0  0  # atno 10765 bound_to 10752
  141.1559  133.7712  156.9782 H   0  0  0  0  0  0  0  0  0  0  0  0  # atno 11005 bound_to 11000
  146.1532  140.6896  142.9312 LP  0  0  0  0  0  0  0  0  0  0  0  0  # atno 17320 bound_to 7965
  144.7285  140.4599  143.6955 LP  0  0  0  0  0  0  0  0  0  0  0  0  # atno 17321 bound_to 7965
  139.6602  144.7662  151.1978 LP  0  0  0  0  0  0  0  0  0  0  0  0  # atno 17342 bound_to 10162
  140.7572  143.6023  150.8688 LP  0  0  0  0  0  0  0  0  0  0  0  0  # atno 17343 bound_to 10162
  155.9679  130.4508  150.5712 LP  0  0  0  0  0  0  0  0  0  0  0  0  # atno 17370 bound_to 10713
  157.3540  131.0738  151.1690 LP  0  0  0  0  0  0  0  0  0  0  0  0  # atno 17371 bound_to 10713
  140.1084  134.9492  157.2028 LP  0  0  0  0  0  0  0  0  0  0  0  0  # atno 17394 bound_to 11000
  140.3226  134.2899  155.7243 LP  0  0  0  0  0  0  0  0  0  0  0  0  # atno 17395 bound_to 11000

$$$$
