AV-unprocessed.smi:651|AV-procd|sdf|3190|dock7
  -GOLD-   22720 0113D 1   1.00000     0.00000
 Structure written by MMmdl.
 39 40  0  0  0  0  0  0  0  0  2 V2000
  151.2390  145.5315  159.2782 C   0  0  0  0  0  0  0  0  0  0  0  0
  151.4760  144.1192  158.7869 C   0  0  0  0  0  0  0  0  0  0  0  0
  152.3378  143.2253  159.4576 C   0  0  0  0  0  0  0  0  0  0  0  0
  152.5089  141.9211  158.9485 C   0  0  0  0  0  0  0  0  0  0  0  0
  151.8147  141.5361  157.7800 C   0  0  0  0  0  0  0  0  0  0  0  0
  151.9729  140.1348  157.2116 C   0  0  0  0  0  0  0  0  0  0  0  0
  151.1123  139.9122  155.9618 C   0  0  0  0  0  0  0  0  0  0  0  0
  151.6247  139.7693  154.8506 O   0  0  0  0  0  0  0  0  0  0  0  0
  149.7873  139.8745  156.1673 N   0  0  0  0  0  0  0  0  0  0  0  0
  148.7785  139.6613  155.1274 C   0  0  2  0  0  0  0  0  0  0  0  0
  148.7990  140.8043  154.0935 C   0  0  0  0  0  0  0  0  0  0  0  0
  147.3402  141.1962  153.8308 C   0  0  0  0  0  0  0  0  0  0  0  0
  146.4941  140.0858  154.4571 C   0  0  0  0  0  0  0  0  0  0  0  0
  147.3158  139.5554  155.6417 C   0  0  2  0  0  0  0  0  0  0  0  0
  147.0074  140.3564  156.9255 C   0  0  0  0  0  0  0  0  0  0  0  0
  147.1637  141.6811  156.8629 N   0  0  0  0  0  0  0  0  0  0  0  0
  146.6274  139.7950  157.9518 O   0  0  0  0  0  0  0  0  0  0  0  0
  150.9666  142.4736  157.1518 C   0  0  0  0  0  0  0  0  0  0  0  0
  150.8291  143.7130  157.6713 N   0  3  0  0  0  0  0  0  0  0  0  0
  152.1035  145.8991  159.8318 H   0  0  0  0  0  0  0  0  0  0  0  0
  150.3715  145.5602  159.9379 H   0  0  0  0  0  0  0  0  0  0  0  0
  151.0589  146.2096  158.4432 H   0  0  0  0  0  0  0  0  0  0  0  0
  152.8602  143.5320  160.3521 H   0  0  0  0  0  0  0  0  0  0  0  0
  153.1623  141.2239  159.4527 H   0  0  0  0  0  0  0  0  0  0  0  0
  153.0202  139.9603  156.9608 H   0  0  0  0  0  0  0  0  0  0  0  0
  151.7023  139.4002  157.9713 H   0  0  0  0  0  0  0  0  0  0  0  0
  149.4474  139.9925  157.1111 H   0  0  0  0  0  0  0  0  0  0  0  0
  149.0173  138.7362  154.5989 H   0  0  0  0  0  0  0  0  0  0  0  0
  149.3572  141.6717  154.4492 H   0  0  0  0  0  0  0  0  0  0  0  0
  149.2812  140.4699  153.1743 H   0  0  0  0  0  0  0  0  0  0  0  0
  147.1221  142.1472  154.3181 H   0  0  0  0  0  0  0  0  0  0  0  0
  147.1304  141.3213  152.7682 H   0  0  0  0  0  0  0  0  0  0  0  0
  145.5021  140.4402  154.7420 H   0  0  0  0  0  0  0  0  0  0  0  0
  146.3500  139.2839  153.7318 H   0  0  0  0  0  0  0  0  0  0  0  0
  147.0667  138.5087  155.8253 H   0  0  0  0  0  0  0  0  0  0  0  0
  146.9650  142.2514  157.6722 H   0  0  0  0  0  0  0  0  0  0  0  0
  147.4708  142.1090  156.0013 H   0  0  0  0  0  0  0  0  0  0  0  0
  150.3930  142.2694  156.2592 H   0  0  0  0  0  0  0  0  0  0  0  0
  150.2079  144.3717  157.2013 H   0  0  0  0  0  0  0  0  0  0  0  0
  1  2  1  0  0  0  0
  1 20  1  0  0  0  0
  1 21  1  0  0  0  0
  1 22  1  0  0  0  0
  2 19  1  0  0  0  0
  2  3  2  0  0  0  0
  3  4  1  0  0  0  0
  3 23  1  0  0  0  0
  4  5  2  0  0  0  0
  4 24  1  0  0  0  0
  5  6  1  0  0  0  0
  5 18  1  0  0  0  0
  6  7  1  0  0  0  0
  6 25  1  0  0  0  0
  6 26  1  0  0  0  0
  7  8  2  0  0  0  0
  7  9  1  0  0  0  0
  9 10  1  0  0  0  0
  9 27  1  0  0  0  0
 10 14  1  0  0  0  0
 10 11  1  0  0  0  0
 10 28  1  0  0  0  0
 11 12  1  0  0  0  0
 11 29  1  0  0  0  0
 11 30  1  0  0  0  0
 12 13  1  0  0  0  0
 12 31  1  0  0  0  0
 12 32  1  0  0  0  0
 13 14  1  0  0  0  0
 13 33  1  0  0  0  0
 13 34  1  0  0  0  0
 14 15  1  0  0  0  0
 14 35  1  0  0  0  0
 15 16  1  0  0  0  0
 15 17  2  0  0  0  0
 16 36  1  0  0  0  0
 16 37  1  0  0  0  0
 18 19  2  0  0  0  0
 18 38  1  0  0  0  0
 19 39  1  0  0  0  0
M  CHG  1  19   1
M  END
> <s_m_source_file>
AV-unprocessed.smi

> <i_m_source_file_index>
651

> <i_lp_mmshare_version>
43012

> <i_f3d_flags>
0

> <s_epik_input>
W0NIM11jMVtjSF1bY0hdYyhbY0hdbjEpW0NIMl1DKD1PKVtOSF1bQ0BASF0yW0NIMl1bQ0gyXVtDSDJdW0NASF0yQyg9TylbTkgyXQ==

> <s_epik_cmdline>
J2VwaWtfcHl0aG9uJywgJy1waCcsICc3LjAnLCAnLXRuJywgJzgnLCAnLW1hJywgJzIwMCcsICctbWV0YWxfYmluZGluZycsICctaW1hZScsICc8aW5maWxlLm1hZT4nLCAnLW9tYWUnLCAnPG91dGZpbGUubWFlPic=

> <r_epik_Ionization_Penalty>
2.14971

> <r_epik_Ionization_Penalty_Charging>
2.14971

> <r_epik_Ionization_Penalty_Neutral>
1.65229e-07

> <r_epik_State_Penalty>
2.28946

> <r_epik_Charging_Adjusted_Penalty>
4.43917

> <i_epik_Tot_Q>
1

> <i_epik_Tot_abs_Q>
1

> <r_epik_Metal_State_Penalty>
2.30508

> <b_epik_Metal_Only>
0

> <s_lp_Force_Field>
OPLS_2005

> <r_lp_Energy>
19.6238

> <b_lp_Chiralities_Consistent>
1

> <s_lp_Variant>
AV-unprocessed.smi:651-7

> <Gold.Version>
5.8.1

> <Gold.Id.Protein>
6NUR|6NUR_protein|mol2

> <Gold.PLP.Fitness>
41.7365

> <Gold.PLP.PLP>
-32.9864

> <Gold.PLP.part.hbond>
-2.5574

> <Gold.PLP.part.metal>
0.0000

> <Gold.PLP.part.buried>
-3.6033

> <Gold.PLP.part.nonpolar>
-27.0332

> <Gold.PLP.part.repulsive>
0.1163

> <Gold.PLP.ligand.clash>
0.0000

> <Gold.PLP.ligand.torsion>
0.1109

> <Gold.PLP.Chemscore.Hbond>
2.9840

> <Gold.PLP.Chemscore.CHOScore>
0.0000

> <Gold.PLP.Chemscore.Metal>
0.0000

> <Gold.Chemscore.Hbonds>
donor molecule, donor type, donor heavy atom, donor atom, acceptor molecule, acceptor atom, score
      L1  H    19    39       P1  8028  1.95
      P1  H  7989  7998       L1     8  1.00

> <Gold.PLP.Chemscore.Internal.Correction>
0.0199

> <Gold.Rescore>
     Score         DG    S(hbond)    S(metal)    S(lipo)     H(rot)  DE(clash)    DE(int)     intcor
     15.02     -16.90       1.85        0.00      89.36       2.04       0.02       1.86       ----

> <Gold.Chemscore.Fitness>
15.0232

> <Gold.Chemscore.DG>
-16.9024

> <Gold.Chemscore.ZeroCoef>
-5.4800

> <Gold.Chemscore.Hbond>
1.8523

> <Gold.Chemscore.Metal>
0.0000

> <Gold.Chemscore.Lipo>
89.3557

> <Gold.Chemscore.Internal_Hbond>
0.0000

> <Gold.Chemscore.DEClash>
0.0234

> <Gold.Chemscore.DEInternal>
1.8557

> <Gold.Chemscore.Rot>
2.0386

> <Gold.Chemscore.Internal.Correction>
   9.000000E+99

> <Gold.Chemscore.Hbonds>
donor molecule, donor type, donor heavy atom, donor atom, acceptor molecule, acceptor atom, score
      L1  H    19    39       P1  8028  0.61
      P1  H  7989  7998       L1     8  0.99

> <Gold.Chemscore.Hbond.Weighted>
-6.1866

> <Gold.Chemscore.Metal.Weighted>
-0.0000

> <Gold.Chemscore.Lipo.Weighted>
-10.4546

> <Gold.Chemscore.Internal_Hbond.Weighted>
0.0000

> <Gold.Chemscore.DEClash.Weighted>
0.0234

> <Gold.Chemscore.DEInternal.Weighted>
1.8557

> <Gold.Chemscore.Rot.Weighted>
5.2188

> <Gold.Chemscore.Internal.Correction.Weighted>
   9.000000E+99

> <Gold.Protein.RotatedTorsions>
[ 6907 6896 6895 6894 ] final   29.25 input  -60.11 | X-H torsion
[ 7974 7965 7964 7962 ] final  -26.26 input  175.53 | X-H torsion
[ 8008 7997 7996 7995 ] final  143.49 input   59.86 | X-H torsion
[ 10167 10162 10161 10158 ] final -171.86 input  -65.29 | X-H torsion
[ 10718 10713 10712 10709 ] final  102.91 input   66.30 | X-H torsion
[ 10763 10752 10751 10750 ] final   99.06 input  -60.55 | X-H torsion
[ 11005 11000 10999 10996 ] final -177.33 input  -57.11 | X-H torsion

> <Gold.Protein.ActiveResidues>
 VAL166  LYS551  ARG553  GLY616  TRP617  ASP618  TYR619  PRO620  LYS621  CYS622 
 ASP623  PHE694  ASN695  SER759  ASP760  ASP761  ALA762  ILE779  LEU786  VAL792 
 PHE793  MET794  SER795  GLU796  ALA797  LYS798  CYS799  TRP800  GLU811  SER814 

> <Gold.Protein.RotatedAtoms>
  152.0288  134.9780  160.0571 H   0  0  0  0  0  0  0  0  0  0  0  0  # atno 6907 bound_to 6896
  152.1264  133.4378  159.4708 H   0  0  0  0  0  0  0  0  0  0  0  0  # atno 6908 bound_to 6896
  150.6853  134.2391  159.4508 H   0  0  0  0  0  0  0  0  0  0  0  0  # atno 6909 bound_to 6896
  146.1437  140.4996  142.8641 H   0  0  0  0  0  0  0  0  0  0  0  0  # atno 7974 bound_to 7965
  156.2929  140.2261  156.4899 H   0  0  0  0  0  0  0  0  0  0  0  0  # atno 8008 bound_to 7997
  154.7780  140.0462  157.1126 H   0  0  0  0  0  0  0  0  0  0  0  0  # atno 8009 bound_to 7997
  154.9793  140.3076  155.4957 H   0  0  0  0  0  0  0  0  0  0  0  0  # atno 8010 bound_to 7997
  139.5778  144.1493  152.1474 H   0  0  0  0  0  0  0  0  0  0  0  0  # atno 10167 bound_to 10162
  157.6788  131.0765  150.5476 H   0  0  0  0  0  0  0  0  0  0  0  0  # atno 10718 bound_to 10713
  153.2967  135.4126  155.1216 H   0  0  0  0  0  0  0  0  0  0  0  0  # atno 10763 bound_to 10752
  154.8537  135.3531  154.5907 H   0  0  0  0  0  0  0  0  0  0  0  0  # atno 10764 bound_to 10752
  153.6331  135.7060  153.5326 H   0  0  0  0  0  0  0  0  0  0  0  0  # atno 10765 bound_to 10752
  140.4422  134.6421  157.4762 H   0  0  0  0  0  0  0  0  0  0  0  0  # atno 11005 bound_to 11000
  144.7822  140.5863  143.6598 LP  0  0  0  0  0  0  0  0  0  0  0  0  # atno 17320 bound_to 7965
  145.4987  139.1484  143.3669 LP  0  0  0  0  0  0  0  0  0  0  0  0  # atno 17321 bound_to 7965
  140.1039  144.5515  150.6970 LP  0  0  0  0  0  0  0  0  0  0  0  0  # atno 17342 bound_to 10162
  140.7059  143.2468  151.4728 LP  0  0  0  0  0  0  0  0  0  0  0  0  # atno 17343 bound_to 10162
  156.5781  130.4297  149.5989 LP  0  0  0  0  0  0  0  0  0  0  0  0  # atno 17370 bound_to 10713
  156.2684  130.7003  151.1792 LP  0  0  0  0  0  0  0  0  0  0  0  0  # atno 17371 bound_to 10713
  140.0062  134.6760  155.9451 LP  0  0  0  0  0  0  0  0  0  0  0  0  # atno 17394 bound_to 11000
  141.1701  133.6537  156.4619 LP  0  0  0  0  0  0  0  0  0  0  0  0  # atno 17395 bound_to 11000

$$$$
