AV-unprocessed.smi:69|AV-procd|sdf|653|dock4
  -GOLD-   2262016553D 1   1.00000     0.00000
 Structure written by MMmdl.
 32 34  0  0  0  0  0  0  0  0  1 V2000
  153.0951  140.8551  159.6231 N   0  0  0  0  0  0  0  0  0  0  0  0
  152.0734  141.0788  158.7851 C   0  0  0  0  0  0  0  0  0  0  0  0
  151.0940  141.9262  159.1781 N   0  0  0  0  0  0  0  0  0  0  0  0
  150.0643  142.1652  158.3598 C   0  0  0  0  0  0  0  0  0  0  0  0
  149.8338  141.6701  157.1412 N   0  0  0  0  0  0  0  0  0  0  0  0
  150.8220  140.8155  156.7450 C   0  0  0  0  0  0  0  0  0  0  0  0
  151.9710  140.4689  157.5092 C   0  0  0  0  0  0  0  0  0  0  0  0
  152.7601  139.5746  156.7997 N   0  0  0  0  0  0  0  0  0  0  0  0
  152.1100  139.4037  155.6801 C   0  0  0  0  0  0  0  0  0  0  0  0
  150.9312  140.1080  155.5628 N   0  0  0  0  0  0  0  0  0  0  0  0
  149.9860  140.1014  154.3974 C   0  0  2  0  0  0  0  0  0  0  0  0
  149.2027  141.2574  154.4247 O   0  0  0  0  0  0  0  0  0  0  0  0
  147.8188  140.9270  154.5301 C   0  0  1  0  0  0  0  0  0  0  0  0
  146.9445  141.9905  153.8428 C   0  0  0  0  0  0  0  0  0  0  0  0
  145.5939  141.8258  154.2188 O   0  0  0  0  0  0  0  0  0  0  0  0
  147.7266  139.5113  153.9428 C   0  0  1  0  0  0  0  0  0  0  0  0
  147.6431  139.5428  152.5290 O   0  0  0  0  0  0  0  0  0  0  0  0
  149.0402  138.8831  154.3800 C   0  0  2  0  0  0  0  0  0  0  0  0
  148.8957  138.2455  155.6371 O   0  0  0  0  0  0  0  0  0  0  0  0
  150.6304  140.1433  153.5181 H   0  0  0  0  0  0  0  0  0  0  0  0
  147.5543  140.8612  155.5862 H   0  0  0  0  0  0  0  0  0  0  0  0
  146.8577  138.9696  154.3193 H   0  0  0  0  0  0  0  0  0  0  0  0
  149.4077  138.1425  153.6683 H   0  0  0  0  0  0  0  0  0  0  0  0
  153.8376  140.2262  159.3533 H   0  0  0  0  0  0  0  0  0  0  0  0
  153.1212  141.3181  160.5199 H   0  0  0  0  0  0  0  0  0  0  0  0
  149.3178  142.8498  158.7343 H   0  0  0  0  0  0  0  0  0  0  0  0
  152.4754  138.7502  154.9014 H   0  0  0  0  0  0  0  0  0  0  0  0
  147.2824  142.9994  154.0818 H   0  0  0  0  0  0  0  0  0  0  0  0
  146.9963  141.8761  152.7596 H   0  0  0  0  0  0  0  0  0  0  0  0
  145.1811  141.2350  153.6077 H   0  0  0  0  0  0  0  0  0  0  0  0
  148.4999  139.7388  152.1820 H   0  0  0  0  0  0  0  0  0  0  0  0
  148.6612  138.8988  156.2783 H   0  0  0  0  0  0  0  0  0  0  0  0
  1  2  1  0  0  0  0
  1 24  1  0  0  0  0
  1 25  1  0  0  0  0
  2  7  1  0  0  0  0
  2  3  2  0  0  0  0
  3  4  1  0  0  0  0
  4  5  2  0  0  0  0
  4 26  1  0  0  0  0
  5  6  1  0  0  0  0
  6 10  1  0  0  0  0
  6  7  2  0  0  0  0
  7  8  1  0  0  0  0
  8  9  2  0  0  0  0
  9 10  1  0  0  0  0
  9 27  1  0  0  0  0
 10 11  1  0  0  0  0
 11 20  1  0  0  0  0
 11 18  1  0  0  0  0
 11 12  1  0  0  0  0
 12 13  1  0  0  0  0
 13 21  1  0  0  0  0
 13 14  1  0  0  0  0
 13 16  1  0  0  0  0
 14 15  1  0  0  0  0
 14 28  1  0  0  0  0
 14 29  1  0  0  0  0
 15 30  1  0  0  0  0
 16 22  1  0  0  0  0
 16 17  1  0  0  0  0
 16 18  1  0  0  0  0
 17 31  1  0  0  0  0
 18 23  1  0  0  0  0
 18 19  1  0  0  0  0
 19 32  1  0  0  0  0
M  END
> <s_m_source_file>
AV-unprocessed.smi

> <i_m_source_file_index>
69

> <i_lp_mmshare_version>
43012

> <i_f3d_flags>
0

> <s_epik_input>
bjFbY0hdbmMoW05IMl0pYyhjMTIpbltjSF1uMltDQEBIXTNPW0NASF0oW0NIMl1bT0hdKVtDQEBIXShbT0hdKVtDQEhdM1tPSF0=

> <s_epik_cmdline>
J2VwaWtfcHl0aG9uJywgJy1waCcsICc3LjAnLCAnLXRuJywgJzgnLCAnLW1hJywgJzIwMCcsICctbWV0YWxfYmluZGluZycsICctaW1hZScsICc8aW5maWxlLm1hZT4nLCAnLW9tYWUnLCAnPG91dGZpbGUubWFlPic=

> <r_lp_tautomer_probability>
1

> <r_epik_Ionization_Penalty>
0.000428445

> <r_epik_Ionization_Penalty_Charging>
0

> <r_epik_Ionization_Penalty_Neutral>
0.000428445

> <r_epik_State_Penalty>
-0

> <r_epik_Charging_Adjusted_Penalty>
0

> <i_epik_Tot_Q>
0

> <i_epik_Tot_abs_Q>
0

> <r_epik_Metal_State_Penalty>
-0

> <b_epik_Metal_Only>
0

> <s_epik_Chemistry_Notes>
This compound contains an acetal/aminal-like group ( X-CH(R)-Y where X, Y are N, S, or O) that may be acid/base labile, releasing an aldehyde.

> <s_lp_Force_Field>
OPLS_2005

> <r_lp_Energy>
40.109

> <b_lp_Chiralities_Consistent>
1

> <s_lp_Variant>
AV-unprocessed.smi:69-11

> <Gold.Version>
5.8.1

> <Gold.Id.Protein>
6NUR|6NUR_protein|mol2

> <Gold.PLP.Fitness>
37.0288

> <Gold.PLP.PLP>
-29.4560

> <Gold.PLP.part.hbond>
-3.5588

> <Gold.PLP.part.metal>
0.0000

> <Gold.PLP.part.buried>
-4.5632

> <Gold.PLP.part.nonpolar>
-21.7642

> <Gold.PLP.part.repulsive>
0.3481

> <Gold.PLP.ligand.clash>
0.0000

> <Gold.PLP.ligand.torsion>
0.7014

> <Gold.PLP.Chemscore.Hbond>
2.9913

> <Gold.PLP.Chemscore.CHOScore>
0.0000

> <Gold.PLP.Chemscore.Metal>
0.0000

> <Gold.Chemscore.Hbonds>
donor molecule, donor type, donor heavy atom, donor atom, acceptor molecule, acceptor atom, score
      L1  H    15    30       P1 10175  1.00
      L1  H    17    31       P1  7957  0.99
      P1  H  7997  8009       L1     8  1.00

> <Gold.PLP.Chemscore.Internal.Correction>
0.0019

> <Gold.Rescore>
     Score         DG    S(hbond)    S(metal)    S(lipo)     H(rot)  DE(clash)    DE(int)     intcor
      5.75      -7.89       2.89        0.00      26.13       4.03       0.07       2.07       ----

> <Gold.Chemscore.Fitness>
5.7517

> <Gold.Chemscore.DG>
-7.8941

> <Gold.Chemscore.ZeroCoef>
-5.4800

> <Gold.Chemscore.Hbond>
2.8947

> <Gold.Chemscore.Metal>
0.0000

> <Gold.Chemscore.Lipo>
26.1271

> <Gold.Chemscore.Internal_Hbond>
0.0000

> <Gold.Chemscore.DEClash>
0.0688

> <Gold.Chemscore.DEInternal>
2.0735

> <Gold.Chemscore.Rot>
4.0277

> <Gold.Chemscore.Internal.Correction>
   9.000000E+99

> <Gold.Chemscore.Hbonds>
donor molecule, donor type, donor heavy atom, donor atom, acceptor molecule, acceptor atom, score
      L1  H    15    30       P1 10175  0.37
      L1  H    17    31       P1  7957  0.92
      P1  H  7997  8009       L1     8  0.79
      P1  H  8011  8017       L1    12  0.01

> <Gold.Chemscore.Hbond.Weighted>
-9.6682

> <Gold.Chemscore.Metal.Weighted>
-0.0000

> <Gold.Chemscore.Lipo.Weighted>
-3.0569

> <Gold.Chemscore.Internal_Hbond.Weighted>
0.0000

> <Gold.Chemscore.DEClash.Weighted>
0.0688

> <Gold.Chemscore.DEInternal.Weighted>
2.0735

> <Gold.Chemscore.Rot.Weighted>
10.3110

> <Gold.Chemscore.Internal.Correction.Weighted>
   9.000000E+99

> <Gold.Protein.RotatedTorsions>
[ 6907 6896 6895 6894 ] final  127.34 input  -60.11 | X-H torsion
[ 7974 7965 7964 7962 ] final   11.93 input  175.53 | X-H torsion
[ 8008 7997 7996 7995 ] final  178.94 input   59.86 | X-H torsion
[ 10167 10162 10161 10158 ] final  -69.35 input  -65.29 | X-H torsion
[ 10718 10713 10712 10709 ] final  -84.07 input   66.30 | X-H torsion
[ 10763 10752 10751 10750 ] final -142.16 input  -60.55 | X-H torsion
[ 11005 11000 10999 10996 ] final -173.80 input  -57.11 | X-H torsion

> <Gold.Protein.ActiveResidues>
 VAL166  LYS551  ARG553  GLY616  TRP617  ASP618  TYR619  PRO620  LYS621  CYS622 
 ASP623  PHE694  ASN695  SER759  ASP760  ASP761  ALA762  ILE779  LEU786  VAL792 
 PHE793  MET794  SER795  GLU796  ALA797  LYS798  CYS799  TRP800  GLU811  SER814 

> <Gold.Protein.RotatedAtoms>
  152.3821  133.6561  159.6169 H   0  0  0  0  0  0  0  0  0  0  0  0  # atno 6907 bound_to 6896
  150.7750  133.9096  159.3374 H   0  0  0  0  0  0  0  0  0  0  0  0  # atno 6908 bound_to 6896
  151.6899  135.0949  160.0283 H   0  0  0  0  0  0  0  0  0  0  0  0  # atno 6909 bound_to 6896
  146.2361  139.9412  142.8483 H   0  0  0  0  0  0  0  0  0  0  0  0  # atno 7974 bound_to 7965
  156.0490  140.1321  157.0072 H   0  0  0  0  0  0  0  0  0  0  0  0  # atno 8008 bound_to 7997
  154.4426  140.1015  156.6418 H   0  0  0  0  0  0  0  0  0  0  0  0  # atno 8009 bound_to 7997
  155.5553  140.3463  155.4480 H   0  0  0  0  0  0  0  0  0  0  0  0  # atno 8010 bound_to 7997
  140.5438  143.2314  151.7041 H   0  0  0  0  0  0  0  0  0  0  0  0  # atno 10167 bound_to 10162
  156.0010  130.4686  150.4354 H   0  0  0  0  0  0  0  0  0  0  0  0  # atno 10718 bound_to 10713
  154.8519  135.3504  154.5983 H   0  0  0  0  0  0  0  0  0  0  0  0  # atno 10763 bound_to 10752
  153.6592  135.6990  153.5187 H   0  0  0  0  0  0  0  0  0  0  0  0  # atno 10764 bound_to 10752
  153.2831  135.4257  155.1055 H   0  0  0  0  0  0  0  0  0  0  0  0  # atno 10765 bound_to 10752
  140.4816  134.6070  157.4921 H   0  0  0  0  0  0  0  0  0  0  0  0  # atno 11005 bound_to 11000
  145.1951  140.9829  143.4188 LP  0  0  0  0  0  0  0  0  0  0  0  0  # atno 17320 bound_to 7965
  144.9823  139.3771  143.6256 LP  0  0  0  0  0  0  0  0  0  0  0  0  # atno 17321 bound_to 7965
  139.4999  144.3928  152.0262 LP  0  0  0  0  0  0  0  0  0  0  0  0  # atno 17342 bound_to 10162
  140.3039  144.3615  150.6052 LP  0  0  0  0  0  0  0  0  0  0  0  0  # atno 17343 bound_to 10162
  157.2400  131.0523  151.2442 LP  0  0  0  0  0  0  0  0  0  0  0  0  # atno 17370 bound_to 10713
  157.3630  130.7141  149.6514 LP  0  0  0  0  0  0  0  0  0  0  0  0  # atno 17371 bound_to 10713
  139.9823  134.7118  155.9837 LP  0  0  0  0  0  0  0  0  0  0  0  0  # atno 17394 bound_to 11000
  141.1528  133.6546  156.4067 LP  0  0  0  0  0  0  0  0  0  0  0  0  # atno 17395 bound_to 11000

$$$$
