#       Name:                AV-unprocessed.smi:1803
#       Creating user name   scv26
#       Creation time:       Fri Mar 27 08:55:09 2020


#       File generated by GOLD software.
#

@<TRIPOS>MOLECULE
AV-unprocessed.smi:1803
    40    42     1
SMALL
NO_CHARGES


@<TRIPOS>ATOM
      1 ****        -2.0302  -2.6978   0.8311 O.2            1 S1                 0.0000
      2 ****        -0.8064  -2.7211   0.7085 C.2            1 S1                 0.0000
      3 ****        -0.0751  -3.8659   0.7188 N.pl3          1 S1                -1.0000
      4 ****         1.2604  -3.8753   0.5512 C.2            1 S1                 0.0000
      5 ****         2.1173  -3.8250   1.5838 N.2            1 S1                 0.0000
      6 ****         3.4481  -3.8357   1.1894 N.2            1 S1                 0.0000
      7 ****         3.5616  -3.9103  -0.1364 C.2            1 S1                 0.0000
      8 ****         2.0532  -3.9619  -1.0240 S.3            1 S1                 0.0000
      9 ****        -0.1466  -1.5575   0.5569 N.am           1 S1                 0.0000
     10 ****        -0.7521  -0.2323   0.5096 C.3            1 S1                 0.0000
     11 ****        -1.1757   0.3116   1.8832 C.3            1 S1                 0.0000
     12 ****        -0.8164   1.8102   1.8568 C.3            1 S1                 0.0000
     13 ****        -0.3178   2.1046   0.4936 N.4            1 S1                 1.0000
     14 ****        -1.3776   2.6824  -0.3778 C.3            1 S1                 0.0000
     15 ****        -0.9375   2.7661  -1.8452 C.3            1 S1                 0.0000
     16 ****        -0.5520   1.3775  -2.3615 C.3            1 S1                 0.0000
     17 ****         0.5736   0.8038  -1.4940 C.3            1 S1                 0.0000
     18 ****         0.2445   0.8189   0.0156 C.3            1 S1                 0.0000
     19 ****         4.5392  -3.9333  -0.5943 H              1 S1                 0.0000
     20 ****         0.8579  -1.6042   0.4668 H              1 S1                 0.0000
     21 ****        -1.6187  -0.2513  -0.1535 H              1 S1                 0.0000
     22 ****        -2.2416   0.1537   2.0508 H              1 S1                 0.0000
     23 ****        -0.6401  -0.1847   2.6939 H              1 S1                 0.0000
     24 ****        -1.6553   2.4462   2.1433 H              1 S1                 0.0000
     25 ****        -0.0093   2.0036   2.5643 H              1 S1                 0.0000
     26 ****        -2.2856   2.0812  -0.3072 H              1 S1                 0.0000
     27 ****        -1.6342   3.6768  -0.0110 H              1 S1                 0.0000
     28 ****        -1.7444   3.1774  -2.4524 H              1 S1                 0.0000
     29 ****        -0.0933   3.4499  -1.9439 H              1 S1                 0.0000
     30 ****        -1.4187   0.7159  -2.3422 H              1 S1                 0.0000
     31 ****        -0.2296   1.4376  -3.4014 H              1 S1                 0.0000
     32 ****         0.8182  -0.2089  -1.8164 H              1 S1                 0.0000
     33 ****         1.4739   1.3966  -1.6607 H              1 S1                 0.0000
     34 ****         1.1813   0.6694   0.5568 H              1 S1                 0.0000
     35 ****         0.4282   2.7830   0.5490 H              1 S1                 0.0000
     36 ****        -2.5375  -3.5519   0.9457 LP             1 S1                 0.0000
     37 ****        -2.5177  -1.8248   0.8161 LP             1 S1                 0.0000
     38 ****        -0.5478  -4.7363   0.8563 LP             1 S1                 0.0000
     39 ****         1.8263  -3.7840   2.5396 LP             1 S1                 0.0000
     40 ****         4.2231  -3.7929   1.8198 LP             1 S1                 0.0000
@<TRIPOS>BOND
    1    1    2 2     
    2    2    3 1     
    3    2    9 am    
    4    3    4 1     
    5    4    8 1     
    6    4    5 2     
    7    5    6 1     
    8    6    7 2     
    9    7    8 1     
   10    7   19 1     
   11    9   10 1     
   12    9   20 1     
   13   10   18 1     
   14   10   11 1     
   15   10   21 1     
   16   11   12 1     
   17   11   22 1     
   18   11   23 1     
   19   12   13 1     
   20   12   24 1     
   21   12   25 1     
   22   13   18 1     
   23   13   14 1     
   24   13   35 1     
   25   14   15 1     
   26   14   26 1     
   27   14   27 1     
   28   15   16 1     
   29   15   28 1     
   30   15   29 1     
   31   16   17 1     
   32   16   30 1     
   33   16   31 1     
   34   17   18 1     
   35   17   32 1     
   36   17   33 1     
   37   18   34 1     
   38    1   36 1     
   39    1   37 1     
   40    3   38 1     
   41    5   39 1     
   42    6   40 1     
@<TRIPOS>SUBSTRUCTURE
      1 S1             1
@<TRIPOS>SET
LONE_PAIRS      STATIC     ATOMS    <user>   **** ""
5 36 37 38 39 40
DONOR_HYDROGENS      STATIC     ATOMS    <user>   **** ""
2 20 35
ATOM$BLUE        STATIC     ATOMS    COLORGROUP SYSTEM
5 36 37 38 39 40
ATOM$RED        STATIC     ATOMS    COLORGROUP SYSTEM
2 20 35
