AV-unprocessed.smi:707|AV-procd|sdf|3455|dock4
  -GOLD-   22720 0443D 1   1.00000     0.00000
 Structure written by MMmdl.
 44 45  0  0  0  0  0  0  0  0  1 V2000
  150.1434  134.3659  154.4939 C   0  0  0  0  0  0  0  0  0  0  0  0
  150.4967  135.1905  155.6890 C   0  0  0  0  0  0  0  0  0  0  0  0
  150.5327  134.7124  156.9384 N   0  0  0  0  0  0  0  0  0  0  0  0
  150.8992  135.7804  157.7338 N   0  0  0  0  0  0  0  0  0  0  0  0
  151.0473  136.7961  156.8842 C   0  0  0  0  0  0  0  0  0  0  0  0
  150.8107  136.4987  155.5974 N   0  0  0  0  0  0  0  0  0  0  0  0
  150.8848  137.3703  154.4396 C   0  0  0  0  0  0  0  0  0  0  0  0
  149.8398  138.4919  154.5093 C   0  0  0  0  0  0  0  0  0  0  0  0
  150.2991  139.5647  155.3795 N   0  0  0  0  0  0  0  0  0  0  0  0
  150.1269  140.8709  155.1295 C   0  0  0  0  0  0  0  0  0  0  0  0
  149.5512  141.2978  154.1291 O   0  0  0  0  0  0  0  0  0  0  0  0
  150.6711  141.8449  156.1730 C   0  0  0  0  0  0  0  0  0  0  0  0
  151.0518  141.1156  157.3324 O   0  0  0  0  0  0  0  0  0  0  0  0
  151.9989  141.7794  158.1595 C   0  0  2  0  0  0  0  0  0  0  0  0
  152.2747  140.9703  159.4434 C   0  0  0  0  0  0  0  0  0  0  0  0
  153.1952  141.7432  160.4006 C   0  0  0  0  0  0  0  0  0  0  0  0
  152.6194  143.1282  160.7351 C   0  0  0  0  0  0  0  0  0  0  0  0
  152.3415  143.9469  159.4598 C   0  0  2  0  0  0  0  0  0  0  0  0
  151.7606  145.3281  159.7947 C   0  0  0  0  0  0  0  0  0  0  0  0
  151.4176  143.1610  158.5088 C   0  0  0  0  0  0  0  0  0  0  0  0
  149.9835  133.3264  154.7818 H   0  0  0  0  0  0  0  0  0  0  0  0
  150.9478  134.3998  153.7592 H   0  0  0  0  0  0  0  0  0  0  0  0
  149.2292  134.7423  154.0348 H   0  0  0  0  0  0  0  0  0  0  0  0
  151.3373  137.7845  157.2095 H   0  0  0  0  0  0  0  0  0  0  0  0
  151.8916  137.7847  154.3746 H   0  0  0  0  0  0  0  0  0  0  0  0
  150.7344  136.7664  153.5434 H   0  0  0  0  0  0  0  0  0  0  0  0
  149.6518  138.8948  153.5129 H   0  0  0  0  0  0  0  0  0  0  0  0
  148.8925  138.0992  154.8823 H   0  0  0  0  0  0  0  0  0  0  0  0
  150.7855  139.3011  156.2243 H   0  0  0  0  0  0  0  0  0  0  0  0
  151.5181  142.3877  155.7530 H   0  0  0  0  0  0  0  0  0  0  0  0
  149.8955  142.5725  156.4164 H   0  0  0  0  0  0  0  0  0  0  0  0
  152.9300  141.9299  157.6097 H   0  0  0  0  0  0  0  0  0  0  0  0
  151.3324  140.7465  159.9450 H   0  0  0  0  0  0  0  0  0  0  0  0
  152.7332  140.0109  159.2053 H   0  0  0  0  0  0  0  0  0  0  0  0
  153.3417  141.1712  161.3173 H   0  0  0  0  0  0  0  0  0  0  0  0
  154.1802  141.8570  159.9464 H   0  0  0  0  0  0  0  0  0  0  0  0
  151.6976  143.0095  161.3063 H   0  0  0  0  0  0  0  0  0  0  0  0
  153.3149  143.6662  161.3803 H   0  0  0  0  0  0  0  0  0  0  0  0
  153.2922  144.1066  158.9487 H   0  0  0  0  0  0  0  0  0  0  0  0
  150.8018  145.2418  160.3070 H   0  0  0  0  0  0  0  0  0  0  0  0
  151.6036  145.9172  158.8907 H   0  0  0  0  0  0  0  0  0  0  0  0
  152.4341  145.8913  160.4414 H   0  0  0  0  0  0  0  0  0  0  0  0
  151.2578  143.7305  157.5925 H   0  0  0  0  0  0  0  0  0  0  0  0
  150.4362  143.0381  158.9698 H   0  0  0  0  0  0  0  0  0  0  0  0
  1  2  1  0  0  0  0
  1 21  1  0  0  0  0
  1 22  1  0  0  0  0
  1 23  1  0  0  0  0
  2  6  1  0  0  0  0
  2  3  2  0  0  0  0
  3  4  1  0  0  0  0
  4  5  2  0  0  0  0
  5  6  1  0  0  0  0
  5 24  1  0  0  0  0
  6  7  1  0  0  0  0
  7  8  1  0  0  0  0
  7 25  1  0  0  0  0
  7 26  1  0  0  0  0
  8  9  1  0  0  0  0
  8 27  1  0  0  0  0
  8 28  1  0  0  0  0
  9 10  1  0  0  0  0
  9 29  1  0  0  0  0
 10 11  2  0  0  0  0
 10 12  1  0  0  0  0
 12 13  1  0  0  0  0
 12 30  1  0  0  0  0
 12 31  1  0  0  0  0
 13 14  1  0  0  0  0
 14 20  1  0  0  0  0
 14 15  1  0  0  0  0
 14 32  1  0  0  0  0
 15 16  1  0  0  0  0
 15 33  1  0  0  0  0
 15 34  1  0  0  0  0
 16 17  1  0  0  0  0
 16 35  1  0  0  0  0
 16 36  1  0  0  0  0
 17 18  1  0  0  0  0
 17 37  1  0  0  0  0
 17 38  1  0  0  0  0
 18 19  1  0  0  0  0
 18 20  1  0  0  0  0
 18 39  1  0  0  0  0
 19 40  1  0  0  0  0
 19 41  1  0  0  0  0
 19 42  1  0  0  0  0
 20 43  1  0  0  0  0
 20 44  1  0  0  0  0
M  END
> <s_m_source_file>
AV-unprocessed.smi

> <i_m_source_file_index>
707

> <i_lp_mmshare_version>
43012

> <i_f3d_flags>
0

> <s_epik_input>
W0NIM11jMW5uW2NIXW4xW0NIMl1bQ0gyXVtOSF1DKD1PKVtDSDJdT1tDQEBIXTJbQ0gyXVtDSDJdW0NIMl1bQ0BASF0oW0NIM10pW0NIMl0y

> <s_epik_cmdline>
J2VwaWtfcHl0aG9uJywgJy1waCcsICc3LjAnLCAnLXRuJywgJzgnLCAnLW1hJywgJzIwMCcsICctbWV0YWxfYmluZGluZycsICctaW1hZScsICc8aW5maWxlLm1hZT4nLCAnLW9tYWUnLCAnPG91dGZpbGUubWFlPic=

> <r_lp_tautomer_probability>
1

> <r_epik_Ionization_Penalty>
0.000271783

> <r_epik_Ionization_Penalty_Charging>
0

> <r_epik_Ionization_Penalty_Neutral>
0.000271783

> <r_epik_State_Penalty>
-0

> <r_epik_Charging_Adjusted_Penalty>
0

> <i_epik_Tot_Q>
0

> <i_epik_Tot_abs_Q>
0

> <r_epik_Metal_State_Penalty>
-0

> <b_epik_Metal_Only>
0

> <s_lp_Force_Field>
OPLS_2005

> <r_lp_Energy>
13.3138

> <b_lp_Chiralities_Consistent>
1

> <s_lp_Variant>
AV-unprocessed.smi:707-3

> <Gold.Version>
5.8.1

> <Gold.Id.Protein>
6NUR|6NUR_protein|mol2

> <Gold.PLP.Fitness>
45.3198

> <Gold.PLP.PLP>
-42.7259

> <Gold.PLP.part.hbond>
-3.7231

> <Gold.PLP.part.metal>
0.0000

> <Gold.PLP.part.buried>
-4.5115

> <Gold.PLP.part.nonpolar>
-34.8703

> <Gold.PLP.part.repulsive>
0.2782

> <Gold.PLP.ligand.clash>
0.0000

> <Gold.PLP.ligand.torsion>
0.4854

> <Gold.PLP.Chemscore.Hbond>
1.1570

> <Gold.PLP.Chemscore.CHOScore>
0.0000

> <Gold.PLP.Chemscore.Metal>
0.0000

> <Gold.Chemscore.Hbonds>
donor molecule, donor type, donor heavy atom, donor atom, acceptor molecule, acceptor atom, score
      P1  H  6896  6907       L1     4  0.30
      P1  H  8011  8017       L1    11  0.55

> <Gold.PLP.Chemscore.Internal.Correction>
0.0937

> <Gold.Rescore>
     Score         DG    S(hbond)    S(metal)    S(lipo)     H(rot)  DE(clash)    DE(int)     intcor
     13.58     -14.23       0.84        0.00     103.69       2.42       0.11       0.54       ----

> <Gold.Chemscore.Fitness>
13.5822

> <Gold.Chemscore.DG>
-14.2345

> <Gold.Chemscore.ZeroCoef>
-5.4800

> <Gold.Chemscore.Hbond>
0.8432

> <Gold.Chemscore.Metal>
0.0000

> <Gold.Chemscore.Lipo>
103.6854

> <Gold.Chemscore.Internal_Hbond>
0.0000

> <Gold.Chemscore.DEClash>
0.1099

> <Gold.Chemscore.DEInternal>
0.5424

> <Gold.Chemscore.Rot>
2.4191

> <Gold.Chemscore.Internal.Correction>
   9.000000E+99

> <Gold.Chemscore.Hbonds>
donor molecule, donor type, donor heavy atom, donor atom, acceptor molecule, acceptor atom, score
      P1  H  6896  6907       L1     4  0.10
      P1  H  8011  8017       L1    11  0.54

> <Gold.Chemscore.Hbond.Weighted>
-2.8162

> <Gold.Chemscore.Metal.Weighted>
-0.0000

> <Gold.Chemscore.Lipo.Weighted>
-12.1312

> <Gold.Chemscore.Internal_Hbond.Weighted>
0.0000

> <Gold.Chemscore.DEClash.Weighted>
0.1099

> <Gold.Chemscore.DEInternal.Weighted>
0.5424

> <Gold.Chemscore.Rot.Weighted>
6.1929

> <Gold.Chemscore.Internal.Correction.Weighted>
   9.000000E+99

> <Gold.Protein.RotatedTorsions>
[ 6907 6896 6895 6894 ] final  -44.41 input  -60.11 | X-H torsion
[ 7974 7965 7964 7962 ] final  -88.94 input  175.53 | X-H torsion
[ 8008 7997 7996 7995 ] final  -23.10 input   59.86 | X-H torsion
[ 10167 10162 10161 10158 ] final  175.77 input  -65.29 | X-H torsion
[ 10718 10713 10712 10709 ] final  -29.85 input   66.30 | X-H torsion
[ 10763 10752 10751 10750 ] final   82.99 input  -60.55 | X-H torsion
[ 11005 11000 10999 10996 ] final  -42.94 input  -57.11 | X-H torsion

> <Gold.Protein.ActiveResidues>
 VAL166  LYS551  ARG553  GLY616  TRP617  ASP618  TYR619  PRO620  LYS621  CYS622 
 ASP623  PHE694  ASN695  SER759  ASP760  ASP761  ALA762  ILE779  LEU786  VAL792 
 PHE793  MET794  SER795  GLU796  ALA797  LYS798  CYS799  TRP800  GLU811  SER814 

> <Gold.Protein.RotatedAtoms>
  150.9331  134.8745  159.7563 H   0  0  0  0  0  0  0  0  0  0  0  0  # atno 6907 bound_to 6896
  152.5047  134.4050  159.9439 H   0  0  0  0  0  0  0  0  0  0  0  0  # atno 6908 bound_to 6896
  151.4075  133.3698  159.2775 H   0  0  0  0  0  0  0  0  0  0  0  0  # atno 6909 bound_to 6896
  145.4464  140.9560  143.2046 H   0  0  0  0  0  0  0  0  0  0  0  0  # atno 7974 bound_to 7965
  154.4605  140.1990  156.0258 H   0  0  0  0  0  0  0  0  0  0  0  0  # atno 8008 bound_to 7997
  156.0830  140.3269  155.7690 H   0  0  0  0  0  0  0  0  0  0  0  0  # atno 8009 bound_to 7997
  155.5080  140.0559  157.2919 H   0  0  0  0  0  0  0  0  0  0  0  0  # atno 8010 bound_to 7997
  139.5189  144.2993  152.0393 H   0  0  0  0  0  0  0  0  0  0  0  0  # atno 10167 bound_to 10162
  156.4072  130.4401  149.7279 H   0  0  0  0  0  0  0  0  0  0  0  0  # atno 10718 bound_to 10713
  153.1251  135.4708  154.9259 H   0  0  0  0  0  0  0  0  0  0  0  0  # atno 10763 bound_to 10752
  154.7612  135.3132  154.8376 H   0  0  0  0  0  0  0  0  0  0  0  0  # atno 10764 bound_to 10752
  153.8931  135.6882  153.4813 H   0  0  0  0  0  0  0  0  0  0  0  0  # atno 10765 bound_to 10752
  141.0350  133.6804  156.2664 H   0  0  0  0  0  0  0  0  0  0  0  0  # atno 11005 bound_to 11000
  144.8089  139.5999  143.7038 LP  0  0  0  0  0  0  0  0  0  0  0  0  # atno 17320 bound_to 7965
  146.2528  139.6237  142.9415 LP  0  0  0  0  0  0  0  0  0  0  0  0  # atno 17321 bound_to 7965
  140.2441  144.4238  150.6248 LP  0  0  0  0  0  0  0  0  0  0  0  0  # atno 17342 bound_to 10162
  140.6270  143.2182  151.6576 LP  0  0  0  0  0  0  0  0  0  0  0  0  # atno 17343 bound_to 10162
  156.4271  130.7797  151.2816 LP  0  0  0  0  0  0  0  0  0  0  0  0  # atno 17370 bound_to 10713
  157.7506  131.0165  150.3547 LP  0  0  0  0  0  0  0  0  0  0  0  0  # atno 17371 bound_to 10713
  140.6338  134.5236  157.5562 LP  0  0  0  0  0  0  0  0  0  0  0  0  # atno 17394 bound_to 11000
  139.9234  134.8103  156.1141 LP  0  0  0  0  0  0  0  0  0  0  0  0  # atno 17395 bound_to 11000

$$$$
