AV-unprocessed.smi:3234|AV-procd|sdf|12359|dock4
  -GOLD-   2272018223D 1   1.00000     0.00000
 Structure written by MMmdl.
 37 39  0  0  0  0  0  0  0  0  4 V2000
  152.1246  137.8192  155.9478 O   0  0  0  0  0  0  0  0  0  0  0  0
  151.2716  137.3490  155.1864 C   0  0  0  0  0  0  0  0  0  0  0  0
  150.3098  138.1385  154.6759 N   0  0  0  0  0  0  0  0  0  0  0  0
  150.0785  139.5199  154.9115 C   0  0  0  0  0  0  0  0  0  0  0  0
  148.9526  140.1147  154.3007 C   0  0  0  0  0  0  0  0  0  0  0  0
  148.6791  141.4787  154.5288 C   0  0  0  0  0  0  0  0  0  0  0  0
  149.4846  142.2003  155.3378 N   0  3  0  0  0  0  0  0  0  0  0  0
  150.5605  141.6701  155.9586 C   0  0  0  0  0  0  0  0  0  0  0  0
  150.8843  140.3115  155.7680 C   0  0  0  0  0  0  0  0  0  0  0  0
  151.1696  136.0647  154.7484 N   0  5  0  0  0  0  0  0  0  0  0  0
  150.2979  135.0455  155.3424 C   0  0  1  0  0  0  0  0  0  0  0  0
  148.9106  135.6345  155.6768 C   0  0  0  0  0  0  0  0  0  0  0  0
  147.9014  134.7504  154.9409 C   0  0  0  0  0  0  0  0  0  0  0  0
  148.6555  134.1752  153.8146 N   0  3  2  0  0  0  0  0  0  0  0  0
  148.0144  132.9992  153.1890 C   0  0  0  0  0  0  0  0  0  0  0  0
  147.3471  133.3073  151.8703 C   0  0  0  0  0  0  0  0  0  0  0  0
  146.5099  133.1018  153.1143 C   0  0  0  0  0  0  0  0  0  0  0  0
  150.0173  133.9287  154.3226 C   0  0  0  0  0  0  0  0  0  0  0  0
  149.7210  137.7084  153.9777 H   0  0  0  0  0  0  0  0  0  0  0  0
  148.3084  139.5347  153.6558 H   0  0  0  0  0  0  0  0  0  0  0  0
  147.8449  142.0091  154.0936 H   0  0  0  0  0  0  0  0  0  0  0  0
  151.1228  142.3415  156.5908 H   0  0  0  0  0  0  0  0  0  0  0  0
  151.7345  139.8952  156.2877 H   0  0  0  0  0  0  0  0  0  0  0  0
  150.7388  134.5987  156.2347 H   0  0  0  0  0  0  0  0  0  0  0  0
  148.7221  135.6496  156.7508 H   0  0  0  0  0  0  0  0  0  0  0  0
  148.8148  136.6622  155.3217 H   0  0  0  0  0  0  0  0  0  0  0  0
  147.5484  133.9511  155.5968 H   0  0  0  0  0  0  0  0  0  0  0  0
  147.0303  135.3094  154.5973 H   0  0  0  0  0  0  0  0  0  0  0  0
  148.4980  132.0374  153.3506 H   0  0  0  0  0  0  0  0  0  0  0  0
  147.4263  134.3198  151.4779 H   0  0  0  0  0  0  0  0  0  0  0  0
  147.3289  132.5187  151.1211 H   0  0  0  0  0  0  0  0  0  0  0  0
  145.9397  132.1779  153.1843 H   0  0  0  0  0  0  0  0  0  0  0  0
  146.0314  133.9780  153.5481 H   0  0  0  0  0  0  0  0  0  0  0  0
  150.7432  133.8821  153.5089 H   0  0  0  0  0  0  0  0  0  0  0  0
  150.0381  132.9637  154.8320 H   0  0  0  0  0  0  0  0  0  0  0  0
  148.7387  134.9018  153.1180 H   0  0  0  0  0  0  0  0  0  0  0  0
  149.2686  143.1855  155.4910 H   0  0  0  0  0  0  0  0  0  0  0  0
  1  2  2  0  0  0  0
  2  3  1  0  0  0  0
  2 10  1  0  0  0  0
  3  4  1  0  0  0  0
  3 19  1  0  0  0  0
  4  9  1  0  0  0  0
  4  5  2  0  0  0  0
  5  6  1  0  0  0  0
  5 20  1  0  0  0  0
  6  7  2  0  0  0  0
  6 21  1  0  0  0  0
  7  8  1  0  0  0  0
  7 37  1  0  0  0  0
  8  9  2  0  0  0  0
  8 22  1  0  0  0  0
  9 23  1  0  0  0  0
 10 11  1  0  0  0  0
 11 18  1  0  0  0  0
 11 12  1  0  0  0  0
 11 24  1  0  0  0  0
 12 13  1  0  0  0  0
 12 25  1  0  0  0  0
 12 26  1  0  0  0  0
 13 14  1  0  0  0  0
 13 27  1  0  0  0  0
 13 28  1  0  0  0  0
 14 15  1  0  0  0  0
 14 18  1  0  0  0  0
 14 36  1  0  0  0  0
 15 17  1  0  0  0  0
 15 16  1  0  0  0  0
 15 29  1  0  0  0  0
 16 17  1  0  0  0  0
 16 30  1  0  0  0  0
 16 31  1  0  0  0  0
 17 32  1  0  0  0  0
 17 33  1  0  0  0  0
 18 34  1  0  0  0  0
 18 35  1  0  0  0  0
M  CHG  1   7   1
M  CHG  1  10  -1
M  CHG  1  14   1
M  END
> <s_m_source_file>
AV-unprocessed.smi

> <i_m_source_file_index>
3234

> <i_lp_mmshare_version>
43012

> <i_f3d_flags>
0

> <s_epik_input>
W2NIXTFbY0hdbltjSF1bY0hdYzFbTkhdQyg9TylbTkhdW0NAQEhdMltDSDJdW0NIMl1OKFtDSDJdMilbQ0hdM1tDSDJdW0NIMl0z

> <s_epik_cmdline>
J2VwaWtfcHl0aG9uJywgJy1waCcsICc3LjAnLCAnLXRuJywgJzgnLCAnLW1hJywgJzIwMCcsICctbWV0YWxfYmluZGluZycsICctaW1hZScsICc8aW5maWxlLm1hZT4nLCAnLW9tYWUnLCAnPG91dGZpbGUubWFlPic=

> <r_epik_Ionization_Penalty>
8.3234

> <r_epik_Ionization_Penalty_Charging>
8.3234

> <r_epik_Ionization_Penalty_Neutral>
3.58513e-06

> <r_epik_State_Penalty>
7.99376

> <r_epik_Charging_Adjusted_Penalty>
16.3172

> <i_epik_Tot_Q>
1

> <i_epik_Tot_abs_Q>
3

> <r_epik_Metal_State_Penalty>
3.98956

> <b_epik_Metal_Only>
1

> <s_lp_Force_Field>
OPLS_2005

> <r_lp_Energy>
40.8025

> <b_lp_Chiralities_Consistent>
1

> <s_lp_Variant>
AV-unprocessed.smi:3234-12

> <Gold.Version>
5.8.1

> <Gold.Id.Protein>
6NUR|6NUR_protein|mol2

> <Gold.PLP.Fitness>
46.6945

> <Gold.PLP.PLP>
-31.1324

> <Gold.PLP.part.hbond>
-3.0000

> <Gold.PLP.part.metal>
0.0000

> <Gold.PLP.part.buried>
-4.5721

> <Gold.PLP.part.nonpolar>
-23.8930

> <Gold.PLP.part.repulsive>
0.4356

> <Gold.PLP.ligand.clash>
0.0000

> <Gold.PLP.ligand.torsion>
1.8644

> <Gold.PLP.Chemscore.Hbond>
6.0000

> <Gold.PLP.Chemscore.CHOScore>
0.0000

> <Gold.PLP.Chemscore.Metal>
0.0000

> <Gold.Chemscore.Hbonds>
donor molecule, donor type, donor heavy atom, donor atom, acceptor molecule, acceptor atom, score
      L1  H     7    37       P1  8028  2.00
      L1  H    14    36       P1  7948  2.00
      P1  H 10752 10765       L1    10  2.00

> <Gold.PLP.Chemscore.Internal.Correction>
1.2909

> <Gold.Rescore>
     Score         DG    S(hbond)    S(metal)    S(lipo)     H(rot)  DE(clash)    DE(int)     intcor
     14.31     -17.70       2.26        0.00      66.42       1.21       0.07       3.33       ----

> <Gold.Chemscore.Fitness>
14.3063

> <Gold.Chemscore.DG>
-17.7030

> <Gold.Chemscore.ZeroCoef>
-5.4800

> <Gold.Chemscore.Hbond>
2.2608

> <Gold.Chemscore.Metal>
0.0000

> <Gold.Chemscore.Lipo>
66.4235

> <Gold.Chemscore.Internal_Hbond>
0.0000

> <Gold.Chemscore.DEClash>
0.0668

> <Gold.Chemscore.DEInternal>
3.3299

> <Gold.Chemscore.Rot>
1.2108

> <Gold.Chemscore.Internal.Correction>
   9.000000E+99

> <Gold.Chemscore.Hbonds>
donor molecule, donor type, donor heavy atom, donor atom, acceptor molecule, acceptor atom, score
      L1  H     7    37       P1  8028  0.98
      L1  H    14    36       P1  7948  0.35
      P1  H 10752 10765       L1    10  0.25

> <Gold.Chemscore.Hbond.Weighted>
-7.5510

> <Gold.Chemscore.Metal.Weighted>
-0.0000

> <Gold.Chemscore.Lipo.Weighted>
-7.7715

> <Gold.Chemscore.Internal_Hbond.Weighted>
0.0000

> <Gold.Chemscore.DEClash.Weighted>
0.0668

> <Gold.Chemscore.DEInternal.Weighted>
3.3299

> <Gold.Chemscore.Rot.Weighted>
3.0996

> <Gold.Chemscore.Internal.Correction.Weighted>
   9.000000E+99

> <Gold.Protein.RotatedTorsions>
[ 6907 6896 6895 6894 ] final  116.33 input  -60.11 | X-H torsion
[ 7974 7965 7964 7962 ] final  -92.11 input  175.53 | X-H torsion
[ 8008 7997 7996 7995 ] final -123.38 input   59.86 | X-H torsion
[ 10167 10162 10161 10158 ] final -166.63 input  -65.29 | X-H torsion
[ 10718 10713 10712 10709 ] final -140.55 input   66.30 | X-H torsion
[ 10763 10752 10751 10750 ] final -170.51 input  -60.55 | X-H torsion
[ 11005 11000 10999 10996 ] final -125.66 input  -57.11 | X-H torsion

> <Gold.Protein.ActiveResidues>
 VAL166  LYS551  ARG553  GLY616  TRP617  ASP618  TYR619  PRO620  LYS621  CYS622 
 ASP623  PHE694  ASN695  SER759  ASP760  ASP761  ALA762  ILE779  LEU786  VAL792 
 PHE793  MET794  SER795  GLU796  ALA797  LYS798  CYS799  TRP800  GLU811  SER814 

> <Gold.Protein.RotatedAtoms>
  152.4685  133.7975  159.6935 H   0  0  0  0  0  0  0  0  0  0  0  0  # atno 6907 bound_to 6896
  150.8661  133.7563  159.2983 H   0  0  0  0  0  0  0  0  0  0  0  0  # atno 6908 bound_to 6896
  151.5113  135.1068  159.9906 H   0  0  0  0  0  0  0  0  0  0  0  0  # atno 6909 bound_to 6896
  145.4041  140.9540  143.2270 H   0  0  0  0  0  0  0  0  0  0  0  0  # atno 7974 bound_to 7965
  155.1796  140.0410  157.2879 H   0  0  0  0  0  0  0  0  0  0  0  0  # atno 8008 bound_to 7997
  154.6213  140.2501  155.7518 H   0  0  0  0  0  0  0  0  0  0  0  0  # atno 8009 bound_to 7997
  156.2435  140.2894  156.0522 H   0  0  0  0  0  0  0  0  0  0  0  0  # atno 8010 bound_to 7997
  139.6102  144.0829  152.1834 H   0  0  0  0  0  0  0  0  0  0  0  0  # atno 10167 bound_to 10162
  156.3236  130.7548  151.1651 H   0  0  0  0  0  0  0  0  0  0  0  0  # atno 10718 bound_to 10713
  154.6407  135.2898  155.0106 H   0  0  0  0  0  0  0  0  0  0  0  0  # atno 10763 bound_to 10752
  154.1234  135.6544  153.4911 H   0  0  0  0  0  0  0  0  0  0  0  0  # atno 10764 bound_to 10752
  153.0325  135.5293  154.7273 H   0  0  0  0  0  0  0  0  0  0  0  0  # atno 10765 bound_to 10752
  140.9744  134.0760  157.3834 H   0  0  0  0  0  0  0  0  0  0  0  0  # atno 11005 bound_to 11000
  144.8353  139.5560  143.6925 LP  0  0  0  0  0  0  0  0  0  0  0  0  # atno 17320 bound_to 7965
  146.2737  139.6699  142.9278 LP  0  0  0  0  0  0  0  0  0  0  0  0  # atno 17321 bound_to 7965
  140.0446  144.5980  150.7384 LP  0  0  0  0  0  0  0  0  0  0  0  0  # atno 17342 bound_to 10162
  140.7314  143.2694  151.3939 LP  0  0  0  0  0  0  0  0  0  0  0  0  # atno 17343 bound_to 10162
  157.7417  131.0500  150.5080 LP  0  0  0  0  0  0  0  0  0  0  0  0  # atno 17370 bound_to 10713
  156.5236  130.4168  149.6238 LP  0  0  0  0  0  0  0  0  0  0  0  0  # atno 17371 bound_to 10713
  139.8925  135.0125  156.6848 LP  0  0  0  0  0  0  0  0  0  0  0  0  # atno 17394 bound_to 11000
  140.7281  133.9083  155.8192 LP  0  0  0  0  0  0  0  0  0  0  0  0  # atno 17395 bound_to 11000

$$$$
