#       Name:                AV-unprocessed.smi:36
#       Creating user name   scv26
#       Creation time:       Thu Mar 26 16:06:02 2020


#       File generated by GOLD software.
#

@<TRIPOS>MOLECULE
AV-unprocessed.smi:36
    73    76     1
SMALL
NO_CHARGES


@<TRIPOS>ATOM
      1 ****        -7.0012   3.7384   0.0381 C.3            1 S1                 0.0000
      2 ****        -5.8419   2.7887   0.3825 C.3            1 S1                 0.0000
      3 ****        -5.8434   2.4872   1.8904 C.3            1 S1                 0.0000
      4 ****        -5.9868   1.4776  -0.4081 C.3            1 S1                 0.0000
      5 ****        -4.1843   3.6140  -0.0867 Si             1 S1                 0.0000
      6 ****        -4.1237   4.0072  -1.9451 C.3            1 S1                 0.0000
      7 ****        -3.8932   5.2011   0.9157 C.3            1 S1                 0.0000
      8 ****        -2.9413   2.5235   0.2735 O.3            1 S1                 0.0000
      9 ****        -1.5706   2.7958   0.0652 C.3            1 S1                 0.0000
     10 ****        -0.8827   1.5341  -0.4781 C.3            1 S1                 0.0000
     11 ****         0.5250   1.7098  -0.5844 O.3            1 S1                 0.0000
     12 ****         1.0449   0.8267  -1.5353 C.3            1 S1                 0.0000
     13 ****         1.8401  -0.2196  -0.8258 N.pl3          1 S1                 0.0000
     14 ****         1.7407  -0.6557   0.4784 C.2            1 S1                 0.0000
     15 ****         2.5820  -1.5958   0.8175 N.2            1 S1                 0.0000
     16 ****         3.3138  -1.8270  -0.3405 C.ar           1 S1                 0.0000
     17 ****         4.3784  -2.7042  -0.6739 C.ar           1 S1                 0.0000
     18 ****         4.8827  -3.5456   0.2589 N.am           1 S1                 0.0000
     19 ****         5.9881  -4.4779   0.1233 C.2            1 S1                 0.0000
     20 ****         6.5561  -4.6691  -0.9525 O.2            1 S1                 0.0000
     21 ****         6.3459  -5.2595   1.3542 C.ar           1 S1                 0.0000
     22 ****         6.9213  -6.5446   1.2334 C.ar           1 S1                 0.0000
     23 ****         7.2791  -7.2768   2.3825 C.ar           1 S1                 0.0000
     24 ****         7.0712  -6.7276   3.6616 C.ar           1 S1                 0.0000
     25 ****         6.5086  -5.4439   3.7912 C.ar           1 S1                 0.0000
     26 ****         6.1508  -4.7104   2.6431 C.ar           1 S1                 0.0000
     27 ****         4.8556  -2.6529  -1.9458 N.ar           1 S1                 0.0000
     28 ****         4.3276  -1.8005  -2.8294 C.ar           1 S1                 0.0000
     29 ****         3.3358  -0.9244  -2.6537 N.ar           1 S1                 0.0000
     30 ****         2.8534  -0.9709  -1.3785 C.ar           1 S1                 0.0000
     31 ****        -0.1381   0.1772  -2.2673 C.3            1 S1                 0.0000
     32 ****        -1.3021   1.0671  -1.8764 C.3            1 S1                 0.0000
     33 ****        -1.4342   2.1442  -2.7843 O.3            1 S1                 0.0000
     34 ****        -7.9645   3.2975   0.2966 H              1 S1                 0.0000
     35 ****        -7.0223   3.9700  -1.0270 H              1 S1                 0.0000
     36 ****        -6.9161   4.6815   0.5784 H              1 S1                 0.0000
     37 ****        -5.7525   3.4004   2.4790 H              1 S1                 0.0000
     38 ****        -5.0135   1.8352   2.1647 H              1 S1                 0.0000
     39 ****        -6.7661   1.9920   2.1951 H              1 S1                 0.0000
     40 ****        -6.9138   0.9622  -0.1550 H              1 S1                 0.0000
     41 ****        -5.1626   0.7951  -0.1973 H              1 S1                 0.0000
     42 ****        -5.9954   1.6595  -1.4831 H              1 S1                 0.0000
     43 ****        -4.9231   4.6883  -2.2356 H              1 S1                 0.0000
     44 ****        -4.2293   3.1067  -2.5495 H              1 S1                 0.0000
     45 ****        -3.1825   4.4789  -2.2254 H              1 S1                 0.0000
     46 ****        -4.6742   5.9389   0.7340 H              1 S1                 0.0000
     47 ****        -2.9419   5.6659   0.6582 H              1 S1                 0.0000
     48 ****        -3.8761   5.0022   1.9869 H              1 S1                 0.0000
     49 ****        -1.4341   3.6459  -0.6038 H              1 S1                 0.0000
     50 ****        -1.1302   3.0753   1.0224 H              1 S1                 0.0000
     51 ****        -1.0501   0.7151   0.2234 H              1 S1                 0.0000
     52 ****         1.7517   1.3378  -2.1899 H              1 S1                 0.0000
     53 ****         1.0240  -0.2531   1.1791 H              1 S1                 0.0000
     54 ****         4.4565  -3.4974   1.1728 H              1 S1                 0.0000
     55 ****         7.0894  -6.9797   0.2586 H              1 S1                 0.0000
     56 ****         7.7149  -8.2599   2.2813 H              1 S1                 0.0000
     57 ****         7.3468  -7.2887   4.5424 H              1 S1                 0.0000
     58 ****         6.3545  -5.0190   4.7722 H              1 S1                 0.0000
     59 ****         5.7306  -3.7227   2.7664 H              1 S1                 0.0000
     60 ****         4.7628  -1.8230  -3.8176 H              1 S1                 0.0000
     61 ****         0.0428   0.1218  -3.3413 H              1 S1                 0.0000
     62 ****        -0.2987  -0.8338  -1.8888 H              1 S1                 0.0000
     63 ****        -2.2442   0.5185  -1.8531 H              1 S1                 0.0000
     64 ****        -2.1397   2.6998  -2.4894 H              1 S1                 0.0000
     65 ****         0.9495   1.5292   0.3028 LP             1 S1                 0.0000
     66 ****         0.7216   2.6500  -0.8627 LP             1 S1                 0.0000
     67 ****         2.6772  -2.0453   1.7057 LP             1 S1                 0.0000
     68 ****         6.2593  -4.1746  -1.7694 LP             1 S1                 0.0000
     69 ****         7.3141  -5.3188  -1.0091 LP             1 S1                 0.0000
     70 ****         5.6047  -3.2553  -2.2213 LP             1 S1                 0.0000
     71 ****         2.9908  -0.3125  -3.3655 LP             1 S1                 0.0000
     72 ****        -1.6408   1.7925  -3.6973 LP             1 S1                 0.0000
     73 ****        -0.5824   2.6673  -2.8135 LP             1 S1                 0.0000
@<TRIPOS>BOND
    1    1    2 1     
    2    1   34 1     
    3    1   35 1     
    4    1   36 1     
    5    2    3 1     
    6    2    4 1     
    7    2    5 1     
    8    3   37 1     
    9    3   38 1     
   10    3   39 1     
   11    4   40 1     
   12    4   41 1     
   13    4   42 1     
   14    5    6 1     
   15    5    7 1     
   16    5    8 1     
   17    6   43 1     
   18    6   44 1     
   19    6   45 1     
   20    7   46 1     
   21    7   47 1     
   22    7   48 1     
   23    8    9 1     
   24    9   10 1     
   25    9   49 1     
   26    9   50 1     
   27   10   32 1     
   28   10   11 1     
   29   10   51 1     
   30   11   12 1     
   31   12   13 1     
   32   12   31 1     
   33   12   52 1     
   34   13   30 1     
   35   13   14 1     
   36   14   15 2     
   37   14   53 1     
   38   15   16 1     
   39   16   30 ar    
   40   16   17 ar    
   41   17   18 1     
   42   17   27 ar    
   43   18   19 am    
   44   18   54 1     
   45   19   20 2     
   46   19   21 1     
   47   21   26 ar    
   48   21   22 ar    
   49   22   23 ar    
   50   22   55 1     
   51   23   24 ar    
   52   23   56 1     
   53   24   25 ar    
   54   24   57 1     
   55   25   26 ar    
   56   25   58 1     
   57   26   59 1     
   58   27   28 ar    
   59   28   29 ar    
   60   28   60 1     
   61   29   30 ar    
   62   31   32 1     
   63   31   61 1     
   64   31   62 1     
   65   32   33 1     
   66   32   63 1     
   67   33   64 1     
   68   11   65 1     
   69   11   66 1     
   70   15   67 1     
   71   20   68 1     
   72   20   69 1     
   73   27   70 1     
   74   29   71 1     
   75   33   72 1     
   76   33   73 1     
@<TRIPOS>SUBSTRUCTURE
      1 S1             1
@<TRIPOS>SET
LONE_PAIRS      STATIC     ATOMS    <user>   **** ""
9 65 66 67 68 69 70 71 72 73
DONOR_HYDROGENS      STATIC     ATOMS    <user>   **** ""
2 54 64
ATOM$BLUE        STATIC     ATOMS    COLORGROUP SYSTEM
9 65 66 67 68 69 70 71 72 73
ATOM$RED        STATIC     ATOMS    COLORGROUP SYSTEM
2 54 64
