AV-unprocessed.smi:1225|AV-procd|sdf|5140|dock9
  -GOLD-   22720 4203D 1   1.00000     0.00000
 Structure written by MMmdl.
 49 51  0  0  0  0  0  0  0  0  2 V2000
  145.2261  131.7005  151.1162 C   0  0  0  0  0  0  0  0  0  0  0  0
  146.3129  131.9364  152.1082 C   0  0  0  0  0  0  0  0  0  0  0  0
  146.5689  131.1153  153.1289 N   0  0  0  0  0  0  0  0  0  0  0  0
  147.6387  131.5537  153.9117 C   0  0  0  0  0  0  0  0  0  0  0  0
  148.1961  132.7322  153.4802 C   0  0  0  0  0  0  0  0  0  0  0  0
  149.3474  133.4709  154.0844 C   0  0  0  0  0  0  0  0  0  0  0  0
  149.0139  134.8776  154.4228 N   0  3  1  0  0  0  0  0  0  0  0  0
  147.6347  134.9951  154.9526 C   0  0  0  0  0  0  0  0  0  0  0  0
  150.0291  135.5276  155.2958 C   0  0  0  0  0  0  0  0  0  0  0  0
  150.4996  136.8907  154.7521 C   0  0  2  0  0  0  0  0  0  0  0  0
  151.5880  136.6811  153.8728 O   0  0  0  0  0  0  0  0  0  0  0  0
  150.9431  137.8323  155.8876 C   0  0  0  0  0  0  0  0  0  0  0  0
  150.6079  139.2184  155.6171 N   0  0  0  0  0  0  0  0  0  0  0  0
  149.9306  139.7049  154.5590 C   0  0  0  0  0  0  0  0  0  0  0  0
  149.7349  141.0197  154.5152 N   0  0  0  0  0  0  0  0  0  0  0  0
  150.3648  141.4356  155.6759 C   0  0  0  0  0  0  0  0  0  0  0  0
  150.5239  142.7279  156.2220 C   0  0  0  0  0  0  0  0  0  0  0  0
  151.2169  142.9202  157.4386 C   0  0  0  0  0  0  0  0  0  0  0  0
  151.3681  144.3275  157.9883 C   0  0  0  0  0  0  0  0  0  0  0  0
  151.7612  141.8081  158.1303 C   0  0  0  0  0  0  0  0  0  0  0  0
  152.5106  141.9907  159.4382 C   0  0  0  0  0  0  0  0  0  0  0  0
  151.6098  140.5101  157.5995 C   0  0  0  0  0  0  0  0  0  0  0  0
  150.9207  140.3325  156.3872 C   0  0  0  0  0  0  0  0  0  0  0  0
  147.3931  133.3234  152.0473 S   0  0  0  0  0  0  0  0  0  0  0  0
  144.3490  131.2787  151.6077 H   0  0  0  0  0  0  0  0  0  0  0  0
  145.5667  131.0061  150.3480 H   0  0  0  0  0  0  0  0  0  0  0  0
  144.9403  132.6382  150.6392 H   0  0  0  0  0  0  0  0  0  0  0  0
  147.9360  130.9642  154.7665 H   0  0  0  0  0  0  0  0  0  0  0  0
  149.6514  132.9426  154.9892 H   0  0  0  0  0  0  0  0  0  0  0  0
  150.2091  133.4519  153.4154 H   0  0  0  0  0  0  0  0  0  0  0  0
  147.5391  134.4812  155.9098 H   0  0  0  0  0  0  0  0  0  0  0  0
  146.9170  134.5554  154.2592 H   0  0  0  0  0  0  0  0  0  0  0  0
  147.3431  136.0351  155.0922 H   0  0  0  0  0  0  0  0  0  0  0  0
  149.6187  135.6384  156.3007 H   0  0  0  0  0  0  0  0  0  0  0  0
  150.9059  134.8887  155.4008 H   0  0  0  0  0  0  0  0  0  0  0  0
  149.6982  137.3743  154.1945 H   0  0  0  0  0  0  0  0  0  0  0  0
  151.2465  136.4495  153.0218 H   0  0  0  0  0  0  0  0  0  0  0  0
  150.4617  137.5465  156.8237 H   0  0  0  0  0  0  0  0  0  0  0  0
  152.0188  137.7556  156.0547 H   0  0  0  0  0  0  0  0  0  0  0  0
  149.5567  139.0576  153.7792 H   0  0  0  0  0  0  0  0  0  0  0  0
  150.1090  143.5748  155.6954 H   0  0  0  0  0  0  0  0  0  0  0  0
  150.8804  144.4119  158.9596 H   0  0  0  0  0  0  0  0  0  0  0  0
  150.9200  145.0661  157.3229 H   0  0  0  0  0  0  0  0  0  0  0  0
  152.4218  144.5806  158.1064 H   0  0  0  0  0  0  0  0  0  0  0  0
  152.8457  141.0349  159.8419 H   0  0  0  0  0  0  0  0  0  0  0  0
  151.8699  142.4623  160.1836 H   0  0  0  0  0  0  0  0  0  0  0  0
  153.3899  142.6179  159.2899 H   0  0  0  0  0  0  0  0  0  0  0  0
  152.0200  139.6546  158.1152 H   0  0  0  0  0  0  0  0  0  0  0  0
  149.0300  135.3828  153.5479 H   0  0  0  0  0  0  0  0  0  0  0  0
  1  2  1  0  0  0  0
  1 25  1  0  0  0  0
  1 26  1  0  0  0  0
  1 27  1  0  0  0  0
  2 24  1  0  0  0  0
  2  3  2  0  0  0  0
  3  4  1  0  0  0  0
  4  5  2  0  0  0  0
  4 28  1  0  0  0  0
  5  6  1  0  0  0  0
  5 24  1  0  0  0  0
  6  7  1  0  0  0  0
  6 29  1  0  0  0  0
  6 30  1  0  0  0  0
  7  8  1  0  0  0  0
  7  9  1  0  0  0  0
  7 49  1  0  0  0  0
  8 31  1  0  0  0  0
  8 32  1  0  0  0  0
  8 33  1  0  0  0  0
  9 10  1  0  0  0  0
  9 34  1  0  0  0  0
  9 35  1  0  0  0  0
 10 11  1  0  0  0  0
 10 12  1  0  0  0  0
 10 36  1  0  0  0  0
 11 37  1  0  0  0  0
 12 13  1  0  0  0  0
 12 38  1  0  0  0  0
 12 39  1  0  0  0  0
 13 23  1  0  0  0  0
 13 14  1  0  0  0  0
 14 15  2  0  0  0  0
 14 40  1  0  0  0  0
 15 16  1  0  0  0  0
 16 23  2  0  0  0  0
 16 17  1  0  0  0  0
 17 18  2  0  0  0  0
 17 41  1  0  0  0  0
 18 19  1  0  0  0  0
 18 20  1  0  0  0  0
 19 42  1  0  0  0  0
 19 43  1  0  0  0  0
 19 44  1  0  0  0  0
 20 21  1  0  0  0  0
 20 22  2  0  0  0  0
 21 45  1  0  0  0  0
 21 46  1  0  0  0  0
 21 47  1  0  0  0  0
 22 23  1  0  0  0  0
 22 48  1  0  0  0  0
M  CHG  1   7   1
M  END
> <s_m_source_file>
AV-unprocessed.smi

> <i_m_source_file_index>
1225

> <i_lp_mmshare_version>
43012

> <i_f3d_flags>
0

> <s_epik_input>
W0NIM11jMW5bY0hdYyhzMSlbQ0gyXU4oW0NIM10pW0NIMl1bQ0BIXShbT0hdKVtDSDJdbihbY0hdbjIpYyhjMjMpW2NIXWMoW0NIM10pYyhbY0hdMylbQ0gzXQ==

> <s_epik_cmdline>
J2VwaWtfcHl0aG9uJywgJy1waCcsICc3LjAnLCAnLXRuJywgJzgnLCAnLW1hJywgJzIwMCcsICctbWV0YWxfYmluZGluZycsICctaW1hZScsICc8aW5maWxlLm1hZT4nLCAnLW9tYWUnLCAnPG91dGZpbGUubWFlPic=

> <r_epik_Ionization_Penalty>
1.62543

> <r_epik_Ionization_Penalty_Charging>
1.53932

> <r_epik_Ionization_Penalty_Neutral>
0.0861152

> <r_epik_State_Penalty>
1.73127

> <r_epik_Charging_Adjusted_Penalty>
3.27059

> <i_epik_Tot_Q>
1

> <i_epik_Tot_abs_Q>
1

> <r_epik_Metal_State_Penalty>
1.71387

> <b_epik_Metal_Only>
0

> <s_lp_Force_Field>
OPLS_2005

> <r_lp_Energy>
11.3728

> <b_lp_Chiralities_Consistent>
1

> <s_lp_Variant>
AV-unprocessed.smi:1225-5

> <Gold.Version>
5.8.1

> <Gold.Id.Protein>
6NUR|6NUR_protein|mol2

> <Gold.PLP.Fitness>
55.5949

> <Gold.PLP.PLP>
-45.8339

> <Gold.PLP.part.hbond>
-3.8484

> <Gold.PLP.part.metal>
0.0000

> <Gold.PLP.part.buried>
-0.4763

> <Gold.PLP.part.nonpolar>
-40.0282

> <Gold.PLP.part.repulsive>
0.2993

> <Gold.PLP.ligand.clash>
0.0000

> <Gold.PLP.ligand.torsion>
1.6573

> <Gold.PLP.Chemscore.Hbond>
4.0000

> <Gold.PLP.Chemscore.CHOScore>
0.3248

> <Gold.PLP.Chemscore.Metal>
0.0000

> <Gold.Chemscore.Hbonds>
donor molecule, donor type, donor heavy atom, donor atom, acceptor molecule, acceptor atom, score
      L1  H     7    49       P1  7948  2.00
      L1  H    11    37       P1  7949  1.00
      P1  H  7989  7998       L1    15  0.01
      P1  H 10752 10763       L1    11  1.00
      L1  C    14    40       P1  7957  0.26

> <Gold.PLP.Chemscore.Internal.Correction>
0.1012

> <Gold.Rescore>
     Score         DG    S(hbond)    S(metal)    S(lipo)     H(rot)  DE(clash)    DE(int)     intcor
     19.45     -21.25       2.49        0.00     115.60       2.37       0.11       1.69       ----

> <Gold.Chemscore.Fitness>
19.4508

> <Gold.Chemscore.DG>
-21.2531

> <Gold.Chemscore.ZeroCoef>
-5.4800

> <Gold.Chemscore.Hbond>
2.4934

> <Gold.Chemscore.Metal>
0.0000

> <Gold.Chemscore.Lipo>
115.5985

> <Gold.Chemscore.Internal_Hbond>
0.0000

> <Gold.Chemscore.DEClash>
0.1135

> <Gold.Chemscore.DEInternal>
1.6888

> <Gold.Chemscore.Rot>
2.3750

> <Gold.Chemscore.Internal.Correction>
   9.000000E+99

> <Gold.Chemscore.Hbonds>
donor molecule, donor type, donor heavy atom, donor atom, acceptor molecule, acceptor atom, score
      L1  H     7    49       P1  7948  0.60
      L1  H    11    37       P1  7949  0.59
      P1  H 10752 10763       L1    11  0.29

> <Gold.Chemscore.Hbond.Weighted>
-8.3281

> <Gold.Chemscore.Metal.Weighted>
-0.0000

> <Gold.Chemscore.Lipo.Weighted>
-13.5250

> <Gold.Chemscore.Internal_Hbond.Weighted>
0.0000

> <Gold.Chemscore.DEClash.Weighted>
0.1135

> <Gold.Chemscore.DEInternal.Weighted>
1.6888

> <Gold.Chemscore.Rot.Weighted>
6.0800

> <Gold.Chemscore.Internal.Correction.Weighted>
   9.000000E+99

> <Gold.Protein.RotatedTorsions>
[ 6907 6896 6895 6894 ] final  -72.50 input  -60.11 | X-H torsion
[ 7974 7965 7964 7962 ] final   70.25 input  175.53 | X-H torsion
[ 8008 7997 7996 7995 ] final  -84.77 input   59.86 | X-H torsion
[ 10167 10162 10161 10158 ] final  -43.21 input  -65.29 | X-H torsion
[ 10718 10713 10712 10709 ] final -174.65 input   66.30 | X-H torsion
[ 10763 10752 10751 10750 ] final   17.03 input  -60.55 | X-H torsion
[ 11005 11000 10999 10996 ] final  -25.41 input  -57.11 | X-H torsion

> <Gold.Protein.ActiveResidues>
 VAL166  LYS551  ARG553  GLY616  TRP617  ASP618  TYR619  PRO620  LYS621  CYS622 
 ASP623  PHE694  ASN695  SER759  ASP760  ASP761  ALA762  ILE779  LEU786  VAL792 
 PHE793  MET794  SER795  GLU796  ALA797  LYS798  CYS799  TRP800  GLU811  SER814 

> <Gold.Protein.RotatedAtoms>
  150.7167  134.5153  159.5627 H   0  0  0  0  0  0  0  0  0  0  0  0  # atno 6907 bound_to 6896
  152.2721  134.7919  160.0421 H   0  0  0  0  0  0  0  0  0  0  0  0  # atno 6908 bound_to 6896
  151.8595  133.3419  159.3736 H   0  0  0  0  0  0  0  0  0  0  0  0  # atno 6909 bound_to 6896
  145.7805  139.2885  143.1268 H   0  0  0  0  0  0  0  0  0  0  0  0  # atno 7974 bound_to 7965
  154.6334  140.0600  156.9760 H   0  0  0  0  0  0  0  0  0  0  0  0  # atno 8008 bound_to 7997
  155.1629  140.3284  155.4389 H   0  0  0  0  0  0  0  0  0  0  0  0  # atno 8009 bound_to 7997
  156.2495  140.1927  156.6735 H   0  0  0  0  0  0  0  0  0  0  0  0  # atno 8010 bound_to 7997
  140.6942  143.2995  151.3320 H   0  0  0  0  0  0  0  0  0  0  0  0  # atno 10167 bound_to 10162
  156.7882  130.9508  151.3120 H   0  0  0  0  0  0  0  0  0  0  0  0  # atno 10718 bound_to 10713
  153.1376  135.6753  153.9078 H   0  0  0  0  0  0  0  0  0  0  0  0  # atno 10763 bound_to 10752
  153.8545  135.3089  155.3435 H   0  0  0  0  0  0  0  0  0  0  0  0  # atno 10764 bound_to 10752
  154.7760  135.4914  153.9829 H   0  0  0  0  0  0  0  0  0  0  0  0  # atno 10765 bound_to 10752
  140.8935  133.7572  156.0451 H   0  0  0  0  0  0  0  0  0  0  0  0  # atno 11005 bound_to 11000
  146.0079  140.8462  142.9985 LP  0  0  0  0  0  0  0  0  0  0  0  0  # atno 17320 bound_to 7965
  144.6797  140.2447  143.7339 LP  0  0  0  0  0  0  0  0  0  0  0  0  # atno 17321 bound_to 7965
  139.6377  144.0598  152.2529 LP  0  0  0  0  0  0  0  0  0  0  0  0  # atno 17342 bound_to 10162
  140.0094  144.6235  150.7661 LP  0  0  0  0  0  0  0  0  0  0  0  0  # atno 17343 bound_to 10162
  157.6613  130.8969  149.9837 LP  0  0  0  0  0  0  0  0  0  0  0  0  # atno 17370 bound_to 10713
  156.1176  130.3647  149.9942 LP  0  0  0  0  0  0  0  0  0  0  0  0  # atno 17371 bound_to 10713
  140.8318  134.3170  157.5346 LP  0  0  0  0  0  0  0  0  0  0  0  0  # atno 17394 bound_to 11000
  139.8732  134.9367  156.3668 LP  0  0  0  0  0  0  0  0  0  0  0  0  # atno 17395 bound_to 11000

$$$$
