AV-unprocessed.smi:2119|AV-procd|sdf|8636|dock8
  -GOLD-   2272011383D 1   1.00000     0.00000
 Structure written by MMmdl.
 48 50  0  0  0  0  0  0  0  0  2 V2000
  144.5153  136.2370  152.4793 O   0  0  0  0  0  0  0  0  0  0  0  0
  145.7438  136.1691  152.4924 C   0  0  0  0  0  0  0  0  0  0  0  0
  146.5264  137.0110  153.1828 N   0  0  0  0  0  0  0  0  0  0  0  0
  146.0595  138.1264  154.0011 C   0  0  0  0  0  0  0  0  0  0  0  0
  146.9049  139.4134  153.8013 C   0  0  2  0  0  0  0  0  0  0  0  0
  148.2184  139.4468  154.6342 C   0  0  1  0  0  0  0  0  0  0  0  0
  149.0006  138.1449  154.7149 C   0  0  0  0  0  0  0  0  0  0  0  0
  150.4053  138.6076  155.0952 C   0  0  0  0  0  0  0  0  0  0  0  0
  150.5209  139.9488  154.6349 O   0  0  0  0  0  0  0  0  0  0  0  0
  149.2974  140.3595  154.0417 C   0  0  0  0  0  0  0  0  0  0  0  0
  146.1094  140.6475  154.0812 N   0  3  0  0  0  0  0  0  0  0  0  0
  145.5228  140.6952  155.4428 C   0  0  0  0  0  0  0  0  0  0  0  0
  144.5703  141.8971  155.5670 C   0  0  0  0  0  0  0  0  0  0  0  0
  145.2651  143.0973  155.2487 O   0  0  0  0  0  0  0  0  0  0  0  0
  145.7606  143.0924  153.9150 C   0  0  0  0  0  0  0  0  0  0  0  0
  146.7625  141.9389  153.7453 C   0  0  0  0  0  0  0  0  0  0  0  0
  146.4788  135.2691  151.8171 N   0  0  0  0  0  0  0  0  0  0  0  0
  146.0264  134.2010  150.9966 C   0  0  0  0  0  0  0  0  0  0  0  0
  144.7410  134.3020  150.4256 C   0  0  0  0  0  0  0  0  0  0  0  0
  144.2767  133.2663  149.5928 C   0  0  0  0  0  0  0  0  0  0  0  0
  145.1251  132.1681  149.3538 C   0  0  0  0  0  0  0  0  0  0  0  0
  146.3641  132.0626  149.8784 N   0  0  0  0  0  0  0  0  0  0  0  0
  146.8023  133.0584  150.6787 C   0  0  0  0  0  0  0  0  0  0  0  0
  147.5256  136.8790  153.1244 H   0  0  0  0  0  0  0  0  0  0  0  0
  145.0205  138.3041  153.7240 H   0  0  0  0  0  0  0  0  0  0  0  0
  146.0541  137.8499  155.0564 H   0  0  0  0  0  0  0  0  0  0  0  0
  147.1978  139.4595  152.7511 H   0  0  0  0  0  0  0  0  0  0  0  0
  148.0061  139.7756  155.6524 H   0  0  0  0  0  0  0  0  0  0  0  0
  148.6002  137.4432  155.4459 H   0  0  0  0  0  0  0  0  0  0  0  0
  149.0225  137.6516  153.7421 H   0  0  0  0  0  0  0  0  0  0  0  0
  150.5319  138.6023  156.1782 H   0  0  0  0  0  0  0  0  0  0  0  0
  151.1776  137.9721  154.6612 H   0  0  0  0  0  0  0  0  0  0  0  0
  149.3719  140.2193  152.9622 H   0  0  0  0  0  0  0  0  0  0  0  0
  149.1085  141.4164  154.2324 H   0  0  0  0  0  0  0  0  0  0  0  0
  144.9736  139.7753  155.6470 H   0  0  0  0  0  0  0  0  0  0  0  0
  146.3127  140.7710  156.1906 H   0  0  0  0  0  0  0  0  0  0  0  0
  143.7065  141.7793  154.9107 H   0  0  0  0  0  0  0  0  0  0  0  0
  144.1882  141.9698  156.5855 H   0  0  0  0  0  0  0  0  0  0  0  0
  144.9360  143.0019  153.2059 H   0  0  0  0  0  0  0  0  0  0  0  0
  146.2489  144.0465  153.7162 H   0  0  0  0  0  0  0  0  0  0  0  0
  147.6189  142.1126  154.3978 H   0  0  0  0  0  0  0  0  0  0  0  0
  147.1332  141.9266  152.7208 H   0  0  0  0  0  0  0  0  0  0  0  0
  147.4798  135.3952  151.8493 H   0  0  0  0  0  0  0  0  0  0  0  0
  144.1140  135.1587  150.6254 H   0  0  0  0  0  0  0  0  0  0  0  0
  143.2941  133.3125  149.1470 H   0  0  0  0  0  0  0  0  0  0  0  0
  144.8024  131.3560  148.7193 H   0  0  0  0  0  0  0  0  0  0  0  0
  147.8085  132.9312  151.0468 H   0  0  0  0  0  0  0  0  0  0  0  0
  145.3128  140.5812  153.4639 H   0  0  0  0  0  0  0  0  0  0  0  0
  1  2  2  0  0  0  0
  2  3  1  0  0  0  0
  2 17  1  0  0  0  0
  3  4  1  0  0  0  0
  3 24  1  0  0  0  0
  4  5  1  0  0  0  0
  4 25  1  0  0  0  0
  4 26  1  0  0  0  0
  5  6  1  0  0  0  0
  5 11  1  0  0  0  0
  5 27  1  0  0  0  0
  6 10  1  0  0  0  0
  6  7  1  0  0  0  0
  6 28  1  0  0  0  0
  7  8  1  0  0  0  0
  7 29  1  0  0  0  0
  7 30  1  0  0  0  0
  8  9  1  0  0  0  0
  8 31  1  0  0  0  0
  8 32  1  0  0  0  0
  9 10  1  0  0  0  0
 10 33  1  0  0  0  0
 10 34  1  0  0  0  0
 11 16  1  0  0  0  0
 11 12  1  0  0  0  0
 11 48  1  0  0  0  0
 12 13  1  0  0  0  0
 12 35  1  0  0  0  0
 12 36  1  0  0  0  0
 13 14  1  0  0  0  0
 13 37  1  0  0  0  0
 13 38  1  0  0  0  0
 14 15  1  0  0  0  0
 15 16  1  0  0  0  0
 15 39  1  0  0  0  0
 15 40  1  0  0  0  0
 16 41  1  0  0  0  0
 16 42  1  0  0  0  0
 17 18  1  0  0  0  0
 17 43  1  0  0  0  0
 18 23  1  0  0  0  0
 18 19  2  0  0  0  0
 19 20  1  0  0  0  0
 19 44  1  0  0  0  0
 20 21  2  0  0  0  0
 20 45  1  0  0  0  0
 21 22  1  0  0  0  0
 21 46  1  0  0  0  0
 22 23  2  0  0  0  0
 23 47  1  0  0  0  0
M  CHG  1  11   1
M  END
> <s_m_source_file>
AV-unprocessed.smi

> <i_m_source_file_index>
2119

> <i_lp_mmshare_version>
43012

> <i_f3d_flags>
0

> <s_epik_input>
W2NIXTFuW2NIXVtjSF1bY0hdYzFbTkhdQyg9TylbTkhdW0NIMl1bQ0BIXShbQ0BASF0yW0NIMl1bQ0gyXU9bQ0gyXTIpTjNbQ0gyXVtDSDJdT1tDSDJdW0NIMl0z

> <s_epik_cmdline>
J2VwaWtfcHl0aG9uJywgJy1waCcsICc3LjAnLCAnLXRuJywgJzgnLCAnLW1hJywgJzIwMCcsICctbWV0YWxfYmluZGluZycsICctaW1hZScsICc8aW5maWxlLm1hZT4nLCAnLW9tYWUnLCAnPG91dGZpbGUubWFlPic=

> <r_epik_Ionization_Penalty>
0.987463

> <r_epik_Ionization_Penalty_Charging>
0.98326

> <r_epik_Ionization_Penalty_Neutral>
0.00420251

> <r_epik_State_Penalty>
1.01721

> <r_epik_Charging_Adjusted_Penalty>
2.00047

> <i_epik_Tot_Q>
1

> <i_epik_Tot_abs_Q>
1

> <r_epik_Metal_State_Penalty>
1.01439

> <b_epik_Metal_Only>
0

> <s_lp_Force_Field>
OPLS_2005

> <r_lp_Energy>
42.3323

> <b_lp_Chiralities_Consistent>
1

> <s_lp_Variant>
AV-unprocessed.smi:2119-7

> <Gold.Version>
5.8.1

> <Gold.Id.Protein>
6NUR|6NUR_protein|mol2

> <Gold.PLP.Fitness>
50.5128

> <Gold.PLP.PLP>
-35.0362

> <Gold.PLP.part.hbond>
-4.0000

> <Gold.PLP.part.metal>
0.0000

> <Gold.PLP.part.buried>
-4.1848

> <Gold.PLP.part.nonpolar>
-29.2935

> <Gold.PLP.part.repulsive>
0.9985

> <Gold.PLP.ligand.clash>
0.0000

> <Gold.PLP.ligand.torsion>
0.8767

> <Gold.PLP.Chemscore.Hbond>
4.9280

> <Gold.PLP.Chemscore.CHOScore>
0.7189

> <Gold.PLP.Chemscore.Metal>
0.0000

> <Gold.Chemscore.Hbonds>
donor molecule, donor type, donor heavy atom, donor atom, acceptor molecule, acceptor atom, score
      L1  H     3    24       P1  7948  0.82
      L1  H    11    48       P1 10175  2.00
      L1  H    17    43       P1  7948  1.00
      P1  H  7989  7998       L1     9  0.80
      L1  C    23    47       P1 10747  0.72

> <Gold.PLP.Chemscore.Internal.Correction>
0.2892

> <Gold.Rescore>
     Score         DG    S(hbond)    S(metal)    S(lipo)     H(rot)  DE(clash)    DE(int)     intcor
     20.40     -24.19       3.64        0.00      93.29       1.70       1.57       2.22       ----

> <Gold.Chemscore.Fitness>
20.3997

> <Gold.Chemscore.DG>
-24.1896

> <Gold.Chemscore.ZeroCoef>
-5.4800

> <Gold.Chemscore.Hbond>
3.6382

> <Gold.Chemscore.Metal>
0.0000

> <Gold.Chemscore.Lipo>
93.2944

> <Gold.Chemscore.Internal_Hbond>
0.0000

> <Gold.Chemscore.DEClash>
1.5716

> <Gold.Chemscore.DEInternal>
2.2183

> <Gold.Chemscore.Rot>
1.7021

> <Gold.Chemscore.Internal.Correction>
   9.000000E+99

> <Gold.Chemscore.Hbonds>
donor molecule, donor type, donor heavy atom, donor atom, acceptor molecule, acceptor atom, score
      L1  H     3    24       P1  7948  0.78
      L1  H    11    48       P1 10175  0.96
      L1  H    17    43       P1  7948  0.98
      P1  H  7989  7998       L1     9  0.12

> <Gold.Chemscore.Hbond.Weighted>
-12.1516

> <Gold.Chemscore.Metal.Weighted>
-0.0000

> <Gold.Chemscore.Lipo.Weighted>
-10.9154

> <Gold.Chemscore.Internal_Hbond.Weighted>
0.0000

> <Gold.Chemscore.DEClash.Weighted>
1.5716

> <Gold.Chemscore.DEInternal.Weighted>
2.2183

> <Gold.Chemscore.Rot.Weighted>
4.3575

> <Gold.Chemscore.Internal.Correction.Weighted>
   9.000000E+99

> <Gold.Protein.RotatedTorsions>
[ 6907 6896 6895 6894 ] final  -15.35 input  -60.11 | X-H torsion
[ 7974 7965 7964 7962 ] final  151.60 input  175.53 | X-H torsion
[ 8008 7997 7996 7995 ] final  -67.25 input   59.86 | X-H torsion
[ 10167 10162 10161 10158 ] final -159.65 input  -65.29 | X-H torsion
[ 10718 10713 10712 10709 ] final   50.84 input   66.30 | X-H torsion
[ 10763 10752 10751 10750 ] final  -95.88 input  -60.55 | X-H torsion
[ 11005 11000 10999 10996 ] final -163.91 input  -57.11 | X-H torsion

> <Gold.Protein.ActiveResidues>
 VAL166  LYS551  ARG553  GLY616  TRP617  ASP618  TYR619  PRO620  LYS621  CYS622 
 ASP623  PHE694  ASN695  SER759  ASP760  ASP761  ALA762  ILE779  LEU786  VAL792 
 PHE793  MET794  SER795  GLU796  ALA797  LYS798  CYS799  TRP800  GLU811  SER814 

> <Gold.Protein.RotatedAtoms>
  151.3253  135.0828  159.9319 H   0  0  0  0  0  0  0  0  0  0  0  0  # atno 6907 bound_to 6896
  152.5247  133.9597  159.7721 H   0  0  0  0  0  0  0  0  0  0  0  0  # atno 6908 bound_to 6896
  150.9926  133.6082  159.2736 H   0  0  0  0  0  0  0  0  0  0  0  0  # atno 6909 bound_to 6896
  144.8281  139.6559  143.6071 H   0  0  0  0  0  0  0  0  0  0  0  0  # atno 7974 bound_to 7965
  154.4787  140.0896  156.7325 H   0  0  0  0  0  0  0  0  0  0  0  0  # atno 8008 bound_to 7997
  155.4527  140.3458  155.4284 H   0  0  0  0  0  0  0  0  0  0  0  0  # atno 8009 bound_to 7997
  156.1157  140.1460  156.9264 H   0  0  0  0  0  0  0  0  0  0  0  0  # atno 8010 bound_to 7997
  139.6599  143.9932  152.2218 H   0  0  0  0  0  0  0  0  0  0  0  0  # atno 10167 bound_to 10162
  157.4923  130.8384  149.8217 H   0  0  0  0  0  0  0  0  0  0  0  0  # atno 10718 bound_to 10713
  154.7189  135.5104  153.8781 H   0  0  0  0  0  0  0  0  0  0  0  0  # atno 10763 bound_to 10752
  153.0845  135.6641  153.9987 H   0  0  0  0  0  0  0  0  0  0  0  0  # atno 10764 bound_to 10752
  153.9814  135.3028  155.3399 H   0  0  0  0  0  0  0  0  0  0  0  0  # atno 10765 bound_to 10752
  140.5928  134.5027  157.5195 H   0  0  0  0  0  0  0  0  0  0  0  0  # atno 11005 bound_to 11000
  146.2585  139.6357  142.9378 LP  0  0  0  0  0  0  0  0  0  0  0  0  # atno 17320 bound_to 7965
  145.4956  141.0438  143.2569 LP  0  0  0  0  0  0  0  0  0  0  0  0  # atno 17321 bound_to 7965
  139.9668  144.6521  150.8027 LP  0  0  0  0  0  0  0  0  0  0  0  0  # atno 17342 bound_to 10162
  140.7575  143.3088  151.2895 LP  0  0  0  0  0  0  0  0  0  0  0  0  # atno 17343 bound_to 10162
  156.0180  130.3806  150.2049 LP  0  0  0  0  0  0  0  0  0  0  0  0  # atno 17370 bound_to 10713
  157.0238  130.9987  151.3332 LP  0  0  0  0  0  0  0  0  0  0  0  0  # atno 17371 bound_to 10713
  139.9266  134.8044  156.1050 LP  0  0  0  0  0  0  0  0  0  0  0  0  # atno 17394 bound_to 11000
  141.0923  133.6709  156.2568 LP  0  0  0  0  0  0  0  0  0  0  0  0  # atno 17395 bound_to 11000

$$$$
