#       Name:                AV-unprocessed.smi:2504
#       Creating user name   scv26
#       Creation time:       Fri Mar 27 13:48:24 2020


#       File generated by GOLD software.
#

@<TRIPOS>MOLECULE
AV-unprocessed.smi:2504
    49    51     1
SMALL
NO_CHARGES


@<TRIPOS>ATOM
      1 ****        -0.3801   2.5591  -1.6792 O.2            1 S1                 0.0000
      2 ****        -0.5807   1.7752  -0.7509 C.2            1 S1                 0.0000
      3 ****        -0.3676   2.2156   0.7126 C.3            1 S1                 0.0000
      4 ****        -1.4963   3.1321   1.2067 C.3            1 S1                 0.0000
      5 ****        -1.0656   4.5481   0.8196 C.3            1 S1                 0.0000
      6 ****         0.4661   4.5422   0.8788 C.3            1 S1                 0.0000
      7 ****         0.9024   3.0680   0.8957 C.3            1 S1                 0.0000
      8 ****        -1.0843   0.4922  -0.9793 N.am           1 S1                 0.0000
      9 ****        -1.8341   0.1628  -2.1845 C.3            1 S1                 0.0000
     10 ****        -2.6019  -0.8398  -1.3101 C.3            1 S1                 0.0000
     11 ****        -2.1297  -2.6271  -1.5200 S.o2           1 S1                 0.0000
     12 ****        -2.5839  -3.2949  -0.2887 O.2            1 S1                 0.0000
     13 ****        -2.7394  -3.0623  -2.7863 O.2            1 S1                 0.0000
     14 ****        -0.5131  -2.5513  -1.6230 N.pl3          1 S1                -1.0000
     15 ****         0.2840  -3.7626  -1.5647 C.3            1 S1                 0.0000
     16 ****         1.7671  -3.3931  -1.3422 C.3            1 S1                 0.0000
     17 ****         2.0346  -2.6128  -0.0576 C.ar           1 S1                 0.0000
     18 ****         2.1002  -1.1994  -0.0757 C.ar           1 S1                 0.0000
     19 ****         2.3349  -0.4992   1.1251 C.ar           1 S1                 0.0000
     20 ****         2.5010  -1.2255   2.3212 C.ar           1 S1                 0.0000
     21 ****         2.4399  -2.5749   2.3023 N.pl3          1 S1                 1.0000
     22 ****         2.2205  -3.2831   1.1729 C.ar           1 S1                 0.0000
     23 ****        -2.0014  -0.1742  -0.0647 C.3            1 S1                 0.0000
     24 ****        -0.2965   1.3265   1.3403 H              1 S1                 0.0000
     25 ****        -2.4732   2.8798   0.7917 H              1 S1                 0.0000
     26 ****        -1.5767   3.0553   2.2917 H              1 S1                 0.0000
     27 ****        -1.3907   4.7632  -0.1991 H              1 S1                 0.0000
     28 ****        -1.5050   5.3066   1.4680 H              1 S1                 0.0000
     29 ****         0.8879   5.0733   0.0251 H              1 S1                 0.0000
     30 ****         0.8173   5.0461   1.7799 H              1 S1                 0.0000
     31 ****         1.3597   2.8357   1.8582 H              1 S1                 0.0000
     32 ****         1.6596   2.8673   0.1360 H              1 S1                 0.0000
     33 ****        -2.4625   0.9807  -2.5414 H              1 S1                 0.0000
     34 ****        -1.2293  -0.2723  -2.9804 H              1 S1                 0.0000
     35 ****        -3.6847  -0.7293  -1.3706 H              1 S1                 0.0000
     36 ****        -0.0337  -4.4194  -0.7543 H              1 S1                 0.0000
     37 ****         0.1943  -4.3482  -2.4796 H              1 S1                 0.0000
     38 ****         2.3652  -4.3046  -1.3230 H              1 S1                 0.0000
     39 ****         2.1341  -2.8151  -2.1918 H              1 S1                 0.0000
     40 ****         1.9575  -0.6564  -0.9990 H              1 S1                 0.0000
     41 ****         2.3828   0.5794   1.1273 H              1 S1                 0.0000
     42 ****         2.6796  -0.7711   3.2848 H              1 S1                 0.0000
     43 ****         2.1872  -4.3567   1.2875 H              1 S1                 0.0000
     44 ****        -1.5078  -0.8533   0.6315 H              1 S1                 0.0000
     45 ****        -2.7001   0.5008   0.4311 H              1 S1                 0.0000
     46 ****         2.5618  -3.0818   3.1791 H              1 S1                 0.0000
     47 ****        -0.0757   3.4924  -1.4886 LP             1 S1                 0.0000
     48 ****        -0.5216   2.2623  -2.6236 LP             1 S1                 0.0000
     49 ****        -0.0628  -1.6646  -1.7273 LP             1 S1                 0.0000
@<TRIPOS>BOND
    1    1    2 2     
    2    2    3 1     
    3    2    8 am    
    4    3    7 1     
    5    3    4 1     
    6    3   24 1     
    7    4    5 1     
    8    4   25 1     
    9    4   26 1     
   10    5    6 1     
   11    5   27 1     
   12    5   28 1     
   13    6    7 1     
   14    6   29 1     
   15    6   30 1     
   16    7   31 1     
   17    7   32 1     
   18    8   23 1     
   19    8    9 1     
   20    9   10 1     
   21    9   33 1     
   22    9   34 1     
   23   10   11 1     
   24   10   23 1     
   25   10   35 1     
   26   11   12 2     
   27   11   13 2     
   28   11   14 1     
   29   14   15 1     
   30   15   16 1     
   31   15   36 1     
   32   15   37 1     
   33   16   17 1     
   34   16   38 1     
   35   16   39 1     
   36   17   22 ar    
   37   17   18 ar    
   38   18   19 ar    
   39   18   40 1     
   40   19   20 ar    
   41   19   41 1     
   42   20   21 ar    
   43   20   42 1     
   44   21   22 ar    
   45   21   46 1     
   46   22   43 1     
   47   23   44 1     
   48   23   45 1     
   49    1   47 1     
   50    1   48 1     
   51   14   49 1     
@<TRIPOS>SUBSTRUCTURE
      1 S1             1
@<TRIPOS>SET
LONE_PAIRS      STATIC     ATOMS    <user>   **** ""
5 47 48 12 13 49
DONOR_HYDROGENS      STATIC     ATOMS    <user>   **** ""
1 46
ATOM$BLUE        STATIC     ATOMS    COLORGROUP SYSTEM
5 47 48 12 13 49
ATOM$RED        STATIC     ATOMS    COLORGROUP SYSTEM
1 46
