AV-unprocessed.smi:1196|AV-procd|sdf|5003|dock8
  -GOLD-   22720 4 13D 1   1.00000     0.00000
 Structure written by MMmdl.
 36 37  0  0  0  0  0  0  0  0  2 V2000
  152.6550  144.9429  157.3119 C   0  0  0  0  0  0  0  0  0  0  0  0
  151.7411  143.9294  158.0190 C   0  0  1  0  0  0  0  0  0  0  0  0
  151.3255  144.4247  159.4176 C   0  0  0  0  0  0  0  0  0  0  0  0
  151.8196  143.5632  160.4776 N   0  0  0  0  0  0  0  0  0  0  0  0
  152.6497  142.4674  160.3713 C   0  0  0  0  0  0  0  0  0  0  0  0
  152.8346  141.9742  161.6311 C   0  0  0  0  0  0  0  0  0  0  0  0
  152.0647  142.8455  162.4516 C   0  0  0  0  0  0  0  0  0  0  0  0
  151.4607  143.7973  161.7589 N   0  0  0  0  0  0  0  0  0  0  0  0
  150.5556  143.6723  157.2041 N   0  0  0  0  0  0  0  0  0  0  0  0
  149.9862  142.4732  157.0103 C   0  0  0  0  0  0  0  0  0  0  0  0
  150.4286  141.4304  157.4939 O   0  0  0  0  0  0  0  0  0  0  0  0
  148.7303  142.4662  156.1337 C   0  0  0  0  0  0  0  0  0  0  0  0
  148.9835  141.9647  154.6984 C   0  0  0  0  0  0  0  0  0  0  0  0
  149.1668  140.4344  154.6218 C   0  0  1  0  0  0  0  0  0  0  0  0
  150.5607  140.0548  154.7768 N   0  5  0  0  0  0  0  0  0  0  0  0
  150.6639  139.2267  155.8428 C   0  0  0  0  0  0  0  0  0  0  0  0
  151.6779  138.6884  156.2815 O   0  0  0  0  0  0  0  0  0  0  0  0
  149.4698  139.0401  156.4148 N   0  0  0  0  0  0  0  0  0  0  0  0
  148.5132  139.7162  155.7869 C   0  0  0  0  0  0  0  0  0  0  0  0
  147.3180  139.7630  156.0750 O   0  0  0  0  0  0  0  0  0  0  0  0
  153.5514  145.1392  157.9006 H   0  0  0  0  0  0  0  0  0  0  0  0
  152.1460  145.8943  157.1544 H   0  0  0  0  0  0  0  0  0  0  0  0
  152.9780  144.5723  156.3383 H   0  0  0  0  0  0  0  0  0  0  0  0
  152.2998  142.9998  158.1443 H   0  0  0  0  0  0  0  0  0  0  0  0
  151.7227  145.4253  159.5923 H   0  0  0  0  0  0  0  0  0  0  0  0
  150.2397  144.5045  159.4938 H   0  0  0  0  0  0  0  0  0  0  0  0
  153.0331  142.1332  159.4185 H   0  0  0  0  0  0  0  0  0  0  0  0
  153.4277  141.1200  161.9220 H   0  0  0  0  0  0  0  0  0  0  0  0
  151.9291  142.8154  163.5227 H   0  0  0  0  0  0  0  0  0  0  0  0
  150.1193  144.4741  156.7720 H   0  0  0  0  0  0  0  0  0  0  0  0
  147.9761  141.8369  156.6084 H   0  0  0  0  0  0  0  0  0  0  0  0
  148.3241  143.4778  156.1102 H   0  0  0  0  0  0  0  0  0  0  0  0
  148.1654  142.2748  154.0451 H   0  0  0  0  0  0  0  0  0  0  0  0
  149.8808  142.4506  154.3109 H   0  0  0  0  0  0  0  0  0  0  0  0
  148.7316  140.0518  153.6976 H   0  0  0  0  0  0  0  0  0  0  0  0
  149.3170  138.4639  157.2288 H   0  0  0  0  0  0  0  0  0  0  0  0
  1  2  1  0  0  0  0
  1 21  1  0  0  0  0
  1 22  1  0  0  0  0
  1 23  1  0  0  0  0
  2  3  1  0  0  0  0
  2  9  1  0  0  0  0
  2 24  1  0  0  0  0
  3  4  1  0  0  0  0
  3 25  1  0  0  0  0
  3 26  1  0  0  0  0
  4  8  1  0  0  0  0
  4  5  1  0  0  0  0
  5  6  2  0  0  0  0
  5 27  1  0  0  0  0
  6  7  1  0  0  0  0
  6 28  1  0  0  0  0
  7  8  2  0  0  0  0
  7 29  1  0  0  0  0
  9 10  1  0  0  0  0
  9 30  1  0  0  0  0
 10 11  2  0  0  0  0
 10 12  1  0  0  0  0
 12 13  1  0  0  0  0
 12 31  1  0  0  0  0
 12 32  1  0  0  0  0
 13 14  1  0  0  0  0
 13 33  1  0  0  0  0
 13 34  1  0  0  0  0
 14 19  1  0  0  0  0
 14 15  1  0  0  0  0
 14 35  1  0  0  0  0
 15 16  1  0  0  0  0
 16 17  2  0  0  0  0
 16 18  1  0  0  0  0
 18 19  1  0  0  0  0
 18 36  1  0  0  0  0
 19 20  2  0  0  0  0
M  CHG  1  15  -1
M  END
> <s_m_source_file>
AV-unprocessed.smi

> <i_m_source_file_index>
1196

> <i_lp_mmshare_version>
43012

> <i_f3d_flags>
0

> <s_epik_input>
bjFbY0hdW2NIXVtjSF1uMVtDSDJdW0NAQEhdKFtDSDNdKVtOSF1DKD1PKVtDSDJdW0NIMl1bQ0BASF0yW05IXUMoPU8pW05IXUMyPU8=

> <s_epik_cmdline>
J2VwaWtfcHl0aG9uJywgJy1waCcsICc3LjAnLCAnLXRuJywgJzgnLCAnLW1hJywgJzIwMCcsICctbWV0YWxfYmluZGluZycsICctaW1hZScsICc8aW5maWxlLm1hZT4nLCAnLW9tYWUnLCAnPG91dGZpbGUubWFlPic=

> <r_lp_tautomer_probability>
1

> <r_epik_Ionization_Penalty>
5.79547

> <r_epik_Ionization_Penalty_Charging>
5.79516

> <r_epik_Ionization_Penalty_Neutral>
0.000313087

> <r_epik_State_Penalty>
5.80096

> <r_epik_Charging_Adjusted_Penalty>
11.5961

> <i_epik_Tot_Q>
-1

> <i_epik_Tot_abs_Q>
1

> <r_epik_Metal_State_Penalty>
2.14443

> <b_epik_Metal_Only>
1

> <s_lp_Force_Field>
OPLS_2005

> <r_lp_Energy>
12.8227

> <b_lp_Chiralities_Consistent>
1

> <s_lp_Variant>
AV-unprocessed.smi:1196-8

> <Gold.Version>
5.8.1

> <Gold.Id.Protein>
6NUR|6NUR_protein|mol2

> <Gold.PLP.Fitness>
47.9799

> <Gold.PLP.PLP>
-42.5075

> <Gold.PLP.part.hbond>
-3.3332

> <Gold.PLP.part.metal>
0.0000

> <Gold.PLP.part.buried>
-6.1535

> <Gold.PLP.part.nonpolar>
-33.3224

> <Gold.PLP.part.repulsive>
0.3026

> <Gold.PLP.ligand.clash>
0.0000

> <Gold.PLP.ligand.torsion>
1.7808

> <Gold.PLP.Chemscore.Hbond>
3.0000

> <Gold.PLP.Chemscore.CHOScore>
0.0000

> <Gold.PLP.Chemscore.Metal>
0.0000

> <Gold.Chemscore.Hbonds>
donor molecule, donor type, donor heavy atom, donor atom, acceptor molecule, acceptor atom, score
      L1  H     9    30       P1  8028  0.75
      P1  H  7989  7998       L1    15  1.00

> <Gold.PLP.Chemscore.Internal.Correction>
0.0340

> <Gold.Rescore>
     Score         DG    S(hbond)    S(metal)    S(lipo)     H(rot)  DE(clash)    DE(int)     intcor
     12.85     -17.36       2.69        0.00      88.01       2.89       1.51       3.01       ----

> <Gold.Chemscore.Fitness>
12.8475

> <Gold.Chemscore.DG>
-17.3617

> <Gold.Chemscore.ZeroCoef>
-5.4800

> <Gold.Chemscore.Hbond>
2.6930

> <Gold.Chemscore.Metal>
0.0000

> <Gold.Chemscore.Lipo>
88.0087

> <Gold.Chemscore.Internal_Hbond>
0.0000

> <Gold.Chemscore.DEClash>
1.5075

> <Gold.Chemscore.DEInternal>
3.0067

> <Gold.Chemscore.Rot>
2.8946

> <Gold.Chemscore.Internal.Correction>
   9.000000E+99

> <Gold.Chemscore.Hbonds>
donor molecule, donor type, donor heavy atom, donor atom, acceptor molecule, acceptor atom, score
      L1  H     9    30       P1  8028  0.64
      P1  H  7989  7998       L1    15  0.78

> <Gold.Chemscore.Hbond.Weighted>
-8.9948

> <Gold.Chemscore.Metal.Weighted>
-0.0000

> <Gold.Chemscore.Lipo.Weighted>
-10.2970

> <Gold.Chemscore.Internal_Hbond.Weighted>
0.0000

> <Gold.Chemscore.DEClash.Weighted>
1.5075

> <Gold.Chemscore.DEInternal.Weighted>
3.0067

> <Gold.Chemscore.Rot.Weighted>
7.4101

> <Gold.Chemscore.Internal.Correction.Weighted>
   9.000000E+99

> <Gold.Protein.RotatedTorsions>
[ 6907 6896 6895 6894 ] final  -57.75 input  -60.11 | X-H torsion
[ 7974 7965 7964 7962 ] final -137.43 input  175.53 | X-H torsion
[ 8008 7997 7996 7995 ] final   76.71 input   59.86 | X-H torsion
[ 10167 10162 10161 10158 ] final  -24.23 input  -65.29 | X-H torsion
[ 10718 10713 10712 10709 ] final  -37.64 input   66.30 | X-H torsion
[ 10763 10752 10751 10750 ] final   97.95 input  -60.55 | X-H torsion
[ 11005 11000 10999 10996 ] final   66.32 input  -57.11 | X-H torsion

> <Gold.Protein.ActiveResidues>
 VAL166  LYS551  ARG553  GLY616  TRP617  ASP618  TYR619  PRO620  LYS621  CYS622 
 ASP623  PHE694  ASN695  SER759  ASP760  ASP761  ALA762  ILE779  LEU786  VAL792 
 PHE793  MET794  SER795  GLU796  ALA797  LYS798  CYS799  TRP800  GLU811  SER814 

> <Gold.Protein.RotatedAtoms>
  150.8061  134.7187  159.6645 H   0  0  0  0  0  0  0  0  0  0  0  0  # atno 6907 bound_to 6896
  152.4181  134.6002  160.0008 H   0  0  0  0  0  0  0  0  0  0  0  0  # atno 6908 bound_to 6896
  151.6225  133.3301  159.3127 H   0  0  0  0  0  0  0  0  0  0  0  0  # atno 6909 bound_to 6896
  144.8842  140.6551  143.5186 H   0  0  0  0  0  0  0  0  0  0  0  0  # atno 7974 bound_to 7965
  155.8313  140.3466  155.5574 H   0  0  0  0  0  0  0  0  0  0  0  0  # atno 8008 bound_to 7997
  155.8239  140.0917  157.1852 H   0  0  0  0  0  0  0  0  0  0  0  0  # atno 8009 bound_to 7997
  154.4004  140.1425  156.3520 H   0  0  0  0  0  0  0  0  0  0  0  0  # atno 8010 bound_to 7997
  140.7288  143.4371  151.0712 H   0  0  0  0  0  0  0  0  0  0  0  0  # atno 10167 bound_to 10162
  156.3129  130.4255  149.8033 H   0  0  0  0  0  0  0  0  0  0  0  0  # atno 10718 bound_to 10713
  153.2831  135.4165  155.1097 H   0  0  0  0  0  0  0  0  0  0  0  0  # atno 10763 bound_to 10752
  154.8496  135.3500  154.6084 H   0  0  0  0  0  0  0  0  0  0  0  0  # atno 10764 bound_to 10752
  153.6505  135.7053  153.5268 H   0  0  0  0  0  0  0  0  0  0  0  0  # atno 10765 bound_to 10752
  139.9839  134.6699  156.0211 H   0  0  0  0  0  0  0  0  0  0  0  0  # atno 11005 bound_to 11000
  145.3899  139.1619  143.4235 LP  0  0  0  0  0  0  0  0  0  0  0  0  # atno 17320 bound_to 7965
  146.3014  140.3987  142.8703 LP  0  0  0  0  0  0  0  0  0  0  0  0  # atno 17321 bound_to 7965
  139.8035  143.8051  152.3165 LP  0  0  0  0  0  0  0  0  0  0  0  0  # atno 17342 bound_to 10162
  139.8076  144.7349  150.9741 LP  0  0  0  0  0  0  0  0  0  0  0  0  # atno 17343 bound_to 10162
  156.5370  130.8283  151.3256 LP  0  0  0  0  0  0  0  0  0  0  0  0  # atno 17370 bound_to 10713
  157.7395  130.9833  150.2317 LP  0  0  0  0  0  0  0  0  0  0  0  0  # atno 17371 bound_to 10713
  141.1507  133.6549  156.4005 LP  0  0  0  0  0  0  0  0  0  0  0  0  # atno 17394 bound_to 11000
  140.5041  134.6458  157.5259 LP  0  0  0  0  0  0  0  0  0  0  0  0  # atno 17395 bound_to 11000

$$$$
