#       Name:                AV-unprocessed.smi:2603
#       Creating user name   scv26
#       Creation time:       Fri Mar 27 14:20:00 2020


#       File generated by GOLD software.
#

@<TRIPOS>MOLECULE
AV-unprocessed.smi:2603
    42    43     1
SMALL
NO_CHARGES


@<TRIPOS>ATOM
      1 ****        -5.2713  -2.1504  -2.1559 C.3            1 S1                 0.0000
      2 ****        -4.0458  -2.3490  -1.2608 C.3            1 S1                 0.0000
      3 ****        -3.1491  -1.2708  -1.4616 O.3            1 S1                 0.0000
      4 ****        -1.9998  -1.3752  -0.6416 C.3            1 S1                 0.0000
      5 ****        -2.0994  -0.6177   0.6526 C.3            1 S1                 0.0000
      6 ****        -1.2783  -0.0560  -0.4947 C.3            1 S1                 0.0000
      7 ****         0.1421  -0.0951  -0.3730 N.am           1 S1                 0.0000
      8 ****         0.9920   0.8315  -0.8398 C.2            1 S1                 0.0000
      9 ****         0.6365   1.8431  -1.4444 O.2            1 S1                 0.0000
     10 ****         2.4768   0.5819  -0.5770 C.3            1 S1                 0.0000
     11 ****         2.8692   1.2029   0.7388 C.2            1 S1                 0.0000
     12 ****         2.7416   0.6542   2.0479 C.2            1 S1                 0.0000
     13 ****         2.1794  -0.6771   2.4568 C.3            1 S1                 0.0000
     14 ****         3.1855   1.4842   2.9767 N.2            1 S1                 0.0000
     15 ****         3.6270   2.6222   2.2949 O.3            1 S1                 0.0000
     16 ****         3.4269   2.4308   0.9660 C.2            1 S1                 0.0000
     17 ****         3.8285   3.5439   0.0586 C.3            1 S1                 0.0000
     18 ****        -5.9817  -2.9676  -2.0307 H              1 S1                 0.0000
     19 ****        -4.9862  -2.1128  -3.2076 H              1 S1                 0.0000
     20 ****        -5.7854  -1.2200  -1.9135 H              1 S1                 0.0000
     21 ****        -4.3514  -2.3944  -0.2143 H              1 S1                 0.0000
     22 ****        -3.5560  -3.2932  -1.5036 H              1 S1                 0.0000
     23 ****        -1.4300  -2.3005  -0.7150 H              1 S1                 0.0000
     24 ****        -3.0444  -0.1284   0.8809 H              1 S1                 0.0000
     25 ****        -1.5648  -1.0194   1.5112 H              1 S1                 0.0000
     26 ****        -1.7115   0.7931  -1.0218 H              1 S1                 0.0000
     27 ****         0.5333  -0.8901   0.1109 H              1 S1                 0.0000
     28 ****         2.6748  -0.4907  -0.5881 H              1 S1                 0.0000
     29 ****         3.0543   1.0009  -1.4018 H              1 S1                 0.0000
     30 ****         1.1002  -0.6157   2.5982 H              1 S1                 0.0000
     31 ****         2.6187  -1.0278   3.3913 H              1 S1                 0.0000
     32 ****         2.3723  -1.4363   1.6990 H              1 S1                 0.0000
     33 ****         2.9522   3.9940  -0.4078 H              1 S1                 0.0000
     34 ****         4.4830   3.1795  -0.7333 H              1 S1                 0.0000
     35 ****         4.3602   4.3246   0.6034 H              1 S1                 0.0000
     36 ****        -3.6207  -0.4150  -1.2486 LP             1 S1                 0.0000
     37 ****        -2.8623  -1.2638  -2.4196 LP             1 S1                 0.0000
     38 ****        -0.3351   2.0101  -1.6118 LP             1 S1                 0.0000
     39 ****         1.3194   2.4980  -1.7682 LP             1 S1                 0.0000
     40 ****         3.2020   1.3296   3.9645 LP             1 S1                 0.0000
     41 ****         4.6006   2.7657   2.4725 LP             1 S1                 0.0000
     42 ****         3.1107   3.4216   2.6024 LP             1 S1                 0.0000
@<TRIPOS>BOND
    1    1    2 1     
    2    1   18 1     
    3    1   19 1     
    4    1   20 1     
    5    2    3 1     
    6    2   21 1     
    7    2   22 1     
    8    3    4 1     
    9    4    6 1     
   10    4    5 1     
   11    4   23 1     
   12    5    6 1     
   13    5   24 1     
   14    5   25 1     
   15    6    7 1     
   16    6   26 1     
   17    7    8 am    
   18    7   27 1     
   19    8    9 2     
   20    8   10 1     
   21   10   11 1     
   22   10   28 1     
   23   10   29 1     
   24   11   16 2     
   25   11   12 1     
   26   12   13 1     
   27   12   14 2     
   28   13   30 1     
   29   13   31 1     
   30   13   32 1     
   31   14   15 1     
   32   15   16 1     
   33   16   17 1     
   34   17   33 1     
   35   17   34 1     
   36   17   35 1     
   37    3   36 1     
   38    3   37 1     
   39    9   38 1     
   40    9   39 1     
   41   14   40 1     
   42   15   41 1     
   43   15   42 1     
@<TRIPOS>SUBSTRUCTURE
      1 S1             1
@<TRIPOS>SET
LONE_PAIRS      STATIC     ATOMS    <user>   **** ""
7 36 37 38 39 40 41 42
DONOR_HYDROGENS      STATIC     ATOMS    <user>   **** ""
1 27
ATOM$BLUE        STATIC     ATOMS    COLORGROUP SYSTEM
7 36 37 38 39 40 41 42
ATOM$RED        STATIC     ATOMS    COLORGROUP SYSTEM
1 27
