AV-unprocessed.smi:1952|AV-procd|sdf|7892|dock4
  -GOLD-   2272010 43D 1   1.00000     0.00000
 Structure written by MMmdl.
 39 40  0  0  0  0  0  0  0  0  3 V2000
  153.0358  141.8440  160.6923 C   0  0  0  0  0  0  0  0  0  0  0  0
  153.2972  140.6736  159.8078 C   0  0  0  0  0  0  0  0  0  0  0  0
  152.4866  139.9011  159.0247 C   0  0  0  0  0  0  0  0  0  0  0  0
  153.3874  138.9579  158.4625 C   0  0  0  0  0  0  0  0  0  0  0  0
  152.9234  137.9577  157.5684 N   0  0  0  0  0  0  0  0  0  0  0  0
  152.7911  138.0203  156.2314 C   0  0  0  0  0  0  0  0  0  0  0  0
  153.1117  139.0450  155.6175 O   0  0  0  0  0  0  0  0  0  0  0  0
  152.2765  136.8727  155.7083 N   0  5  0  0  0  0  0  0  0  0  0  0
  150.8468  136.5767  155.5498 C   0  0  1  0  0  0  0  0  0  0  0  0
  150.2573  137.5408  154.5110 C   0  0  0  0  0  0  0  0  0  0  0  0
  150.6489  135.1013  155.1234 C   0  0  0  0  0  0  0  0  0  0  0  0
  149.3674  134.8897  154.3982 N   0  3  0  0  0  0  0  0  0  0  0  0
  149.1343  133.4926  153.9533 C   0  0  0  0  0  0  0  0  0  0  0  0
  147.8521  133.4189  153.1087 C   0  0  0  0  0  0  0  0  0  0  0  0
  146.7530  133.9097  153.8678 O   0  0  0  0  0  0  0  0  0  0  0  0
  146.9293  135.2710  154.2427 C   0  0  0  0  0  0  0  0  0  0  0  0
  148.1834  135.4081  155.1218 C   0  0  0  0  0  0  0  0  0  0  0  0
  154.6373  139.1442  158.8608 N   0  0  0  0  0  0  0  0  0  0  0  0
  154.5853  140.2430  159.7267 O   0  0  0  0  0  0  0  0  0  0  0  0
  152.0434  142.2562  160.5088 H   0  0  0  0  0  0  0  0  0  0  0  0
  153.7670  142.6334  160.5179 H   0  0  0  0  0  0  0  0  0  0  0  0
  153.0929  141.5541  161.7416 H   0  0  0  0  0  0  0  0  0  0  0  0
  151.4202  139.9946  158.8815 H   0  0  0  0  0  0  0  0  0  0  0  0
  152.6596  137.0813  157.9939 H   0  0  0  0  0  0  0  0  0  0  0  0
  150.2988  136.7358  156.4796 H   0  0  0  0  0  0  0  0  0  0  0  0
  149.1910  137.3609  154.3718 H   0  0  0  0  0  0  0  0  0  0  0  0
  150.7417  137.4292  153.5402 H   0  0  0  0  0  0  0  0  0  0  0  0
  150.3746  138.5785  154.8254 H   0  0  0  0  0  0  0  0  0  0  0  0
  151.4800  134.7655  154.5015 H   0  0  0  0  0  0  0  0  0  0  0  0
  150.6787  134.4766  156.0180 H   0  0  0  0  0  0  0  0  0  0  0  0
  149.9797  133.1365  153.3637 H   0  0  0  0  0  0  0  0  0  0  0  0
  149.0507  132.8382  154.8223 H   0  0  0  0  0  0  0  0  0  0  0  0
  147.9599  133.9927  152.1867 H   0  0  0  0  0  0  0  0  0  0  0  0
  147.6506  132.3870  152.8206 H   0  0  0  0  0  0  0  0  0  0  0  0
  147.0087  135.8981  153.3528 H   0  0  0  0  0  0  0  0  0  0  0  0
  146.0478  135.6045  154.7904 H   0  0  0  0  0  0  0  0  0  0  0  0
  148.0549  134.8621  156.0577 H   0  0  0  0  0  0  0  0  0  0  0  0
  148.3362  136.4577  155.3759 H   0  0  0  0  0  0  0  0  0  0  0  0
  149.4474  135.4523  153.5616 H   0  0  0  0  0  0  0  0  0  0  0  0
  1  2  1  0  0  0  0
  1 20  1  0  0  0  0
  1 21  1  0  0  0  0
  1 22  1  0  0  0  0
  2 19  1  0  0  0  0
  2  3  2  0  0  0  0
  3  4  1  0  0  0  0
  3 23  1  0  0  0  0
  4  5  1  0  0  0  0
  4 18  2  0  0  0  0
  5  6  1  0  0  0  0
  5 24  1  0  0  0  0
  6  7  2  0  0  0  0
  6  8  1  0  0  0  0
  8  9  1  0  0  0  0
  9 10  1  0  0  0  0
  9 11  1  0  0  0  0
  9 25  1  0  0  0  0
 10 26  1  0  0  0  0
 10 27  1  0  0  0  0
 10 28  1  0  0  0  0
 11 12  1  0  0  0  0
 11 29  1  0  0  0  0
 11 30  1  0  0  0  0
 12 17  1  0  0  0  0
 12 13  1  0  0  0  0
 12 39  1  0  0  0  0
 13 14  1  0  0  0  0
 13 31  1  0  0  0  0
 13 32  1  0  0  0  0
 14 15  1  0  0  0  0
 14 33  1  0  0  0  0
 14 34  1  0  0  0  0
 15 16  1  0  0  0  0
 16 17  1  0  0  0  0
 16 35  1  0  0  0  0
 16 36  1  0  0  0  0
 17 37  1  0  0  0  0
 17 38  1  0  0  0  0
 18 19  1  0  0  0  0
M  CHG  1   8  -1
M  CHG  1  12   1
M  END
> <s_m_source_file>
AV-unprocessed.smi

> <i_m_source_file_index>
1952

> <i_lp_mmshare_version>
43012

> <i_f3d_flags>
0

> <s_epik_input>
W0NIM11jMVtjSF1jKG5vMSlbTkhdQyg9TylbTkhdW0NASF0oW0NIM10pW0NIMl1OMltDSDJdW0NIMl1PW0NIMl1bQ0gyXTI=

> <s_epik_cmdline>
J2VwaWtfcHl0aG9uJywgJy1waCcsICc3LjAnLCAnLXRuJywgJzgnLCAnLW1hJywgJzIwMCcsICctbWV0YWxfYmluZGluZycsICctaW1hZScsICc8aW5maWxlLm1hZT4nLCAnLW9tYWUnLCAnPG91dGZpbGUubWFlPic=

> <r_epik_Ionization_Penalty>
6.76648

> <r_epik_Ionization_Penalty_Charging>
6.76648

> <r_epik_Ionization_Penalty_Neutral>
5.6208e-06

> <r_epik_State_Penalty>
7.45901

> <r_epik_Charging_Adjusted_Penalty>
14.2255

> <i_epik_Tot_Q>
0

> <i_epik_Tot_abs_Q>
2

> <r_epik_Metal_State_Penalty>
3.38802

> <b_epik_Metal_Only>
1

> <s_lp_Force_Field>
OPLS_2005

> <r_lp_Energy>
9.12096

> <b_lp_Chiralities_Consistent>
1

> <s_lp_Variant>
AV-unprocessed.smi:1952-10

> <Gold.Version>
5.8.1

> <Gold.Id.Protein>
6NUR|6NUR_protein|mol2

> <Gold.PLP.Fitness>
41.4044

> <Gold.PLP.PLP>
-27.2584

> <Gold.PLP.part.hbond>
-4.0000

> <Gold.PLP.part.metal>
0.0000

> <Gold.PLP.part.buried>
-1.7852

> <Gold.PLP.part.nonpolar>
-21.2453

> <Gold.PLP.part.repulsive>
0.2325

> <Gold.PLP.ligand.clash>
0.0000

> <Gold.PLP.ligand.torsion>
1.8477

> <Gold.PLP.Chemscore.Hbond>
5.8880

> <Gold.PLP.Chemscore.CHOScore>
0.0000

> <Gold.PLP.Chemscore.Metal>
0.0000

> <Gold.Chemscore.Hbonds>
donor molecule, donor type, donor heavy atom, donor atom, acceptor molecule, acceptor atom, score
      L1  H    12    39       P1  7948  1.80
      P1  H  7997  8008       L1     7  1.00
      P1  H  7997  8010       L1    18  0.90
      P1  H 10752 10763       L1     8  1.79

> <Gold.PLP.Chemscore.Internal.Correction>
0.1773

> <Gold.Rescore>
     Score         DG    S(hbond)    S(metal)    S(lipo)     H(rot)  DE(clash)    DE(int)     intcor
     14.78     -16.52       2.78        0.00      49.52       1.58       0.01       1.74       ----

> <Gold.Chemscore.Fitness>
14.7780

> <Gold.Chemscore.DG>
-16.5222

> <Gold.Chemscore.ZeroCoef>
-5.4800

> <Gold.Chemscore.Hbond>
2.7821

> <Gold.Chemscore.Metal>
0.0000

> <Gold.Chemscore.Lipo>
49.5217

> <Gold.Chemscore.Internal_Hbond>
0.0000

> <Gold.Chemscore.DEClash>
0.0073

> <Gold.Chemscore.DEInternal>
1.7369

> <Gold.Chemscore.Rot>
1.5798

> <Gold.Chemscore.Internal.Correction>
   9.000000E+99

> <Gold.Chemscore.Hbonds>
donor molecule, donor type, donor heavy atom, donor atom, acceptor molecule, acceptor atom, score
      L1  H    12    39       P1  7948  0.18
      P1  H  7997  8008       L1     7  0.94
      P1  H  7997  8010       L1    18  0.05
      P1  H 10752 10763       L1     8  0.26

> <Gold.Chemscore.Hbond.Weighted>
-9.2924

> <Gold.Chemscore.Metal.Weighted>
-0.0000

> <Gold.Chemscore.Lipo.Weighted>
-5.7940

> <Gold.Chemscore.Internal_Hbond.Weighted>
0.0000

> <Gold.Chemscore.DEClash.Weighted>
0.0073

> <Gold.Chemscore.DEInternal.Weighted>
1.7369

> <Gold.Chemscore.Rot.Weighted>
4.0442

> <Gold.Chemscore.Internal.Correction.Weighted>
   9.000000E+99

> <Gold.Protein.RotatedTorsions>
[ 6907 6896 6895 6894 ] final -101.42 input  -60.11 | X-H torsion
[ 7974 7965 7964 7962 ] final   48.14 input  175.53 | X-H torsion
[ 8008 7997 7996 7995 ] final  -13.31 input   59.86 | X-H torsion
[ 10167 10162 10161 10158 ] final  -37.61 input  -65.29 | X-H torsion
[ 10718 10713 10712 10709 ] final  -12.33 input   66.30 | X-H torsion
[ 10763 10752 10751 10750 ] final   69.28 input  -60.55 | X-H torsion
[ 11005 11000 10999 10996 ] final  177.11 input  -57.11 | X-H torsion

> <Gold.Protein.ActiveResidues>
 VAL166  LYS551  ARG553  GLY616  TRP617  ASP618  TYR619  PRO620  LYS621  CYS622 
 ASP623  PHE694  ASN695  SER759  ASP760  ASP761  ALA762  ILE779  LEU786  VAL792 
 PHE793  MET794  SER795  GLU796  ALA797  LYS798  CYS799  TRP800  GLU811  SER814 

> <Gold.Protein.RotatedAtoms>
  150.7154  134.0736  159.3872 H   0  0  0  0  0  0  0  0  0  0  0  0  # atno 6907 bound_to 6896
  151.8719  135.0484  160.0489 H   0  0  0  0  0  0  0  0  0  0  0  0  # atno 6908 bound_to 6896
  152.2636  133.5284  159.5433 H   0  0  0  0  0  0  0  0  0  0  0  0  # atno 6909 bound_to 6896
  146.0232  139.4675  142.9884 H   0  0  0  0  0  0  0  0  0  0  0  0  # atno 7974 bound_to 7965
  154.5303  140.2253  155.8816 H   0  0  0  0  0  0  0  0  0  0  0  0  # atno 8008 bound_to 7997
  156.1757  140.3112  155.9018 H   0  0  0  0  0  0  0  0  0  0  0  0  # atno 8009 bound_to 7997
  155.3465  140.0453  157.3036 H   0  0  0  0  0  0  0  0  0  0  0  0  # atno 8010 bound_to 7997
  140.7114  143.3331  151.2524 H   0  0  0  0  0  0  0  0  0  0  0  0  # atno 10167 bound_to 10162
  156.6461  130.4941  149.6078 H   0  0  0  0  0  0  0  0  0  0  0  0  # atno 10718 bound_to 10713
  153.0279  135.5216  154.7264 H   0  0  0  0  0  0  0  0  0  0  0  0  # atno 10763 bound_to 10752
  154.6304  135.2899  155.0225 H   0  0  0  0  0  0  0  0  0  0  0  0  # atno 10764 bound_to 10752
  154.1179  135.6612  153.4950 H   0  0  0  0  0  0  0  0  0  0  0  0  # atno 10765 bound_to 10752
  140.3805  134.6951  157.4448 H   0  0  0  0  0  0  0  0  0  0  0  0  # atno 11005 bound_to 11000
  145.7160  141.0090  143.1428 LP  0  0  0  0  0  0  0  0  0  0  0  0  # atno 17320 bound_to 7965
  144.6998  139.8814  143.7447 LP  0  0  0  0  0  0  0  0  0  0  0  0  # atno 17321 bound_to 7965
  139.6818  143.9841  152.2812 LP  0  0  0  0  0  0  0  0  0  0  0  0  # atno 17342 bound_to 10162
  139.9474  144.6643  150.8206 LP  0  0  0  0  0  0  0  0  0  0  0  0  # atno 17343 bound_to 10162
  156.2121  130.6685  151.1280 LP  0  0  0  0  0  0  0  0  0  0  0  0  # atno 17370 bound_to 10713
  157.7156  131.0711  150.6340 LP  0  0  0  0  0  0  0  0  0  0  0  0  # atno 17371 bound_to 10713
  140.0482  134.6168  155.8894 LP  0  0  0  0  0  0  0  0  0  0  0  0  # atno 17394 bound_to 11000
  141.1925  133.6575  156.5504 LP  0  0  0  0  0  0  0  0  0  0  0  0  # atno 17395 bound_to 11000

$$$$
