#       Name:                AV-unprocessed.smi:461
#       Creating user name   scv26
#       Creation time:       Thu Mar 26 23:03:46 2020


#       File generated by GOLD software.
#

@<TRIPOS>MOLECULE
AV-unprocessed.smi:461
    40    41     1
SMALL
NO_CHARGES


@<TRIPOS>ATOM
      1 ****        -3.1526   1.1749   0.7439 C.3            1 S1                 0.0000
      2 ****        -2.3628  -0.0553   0.8141 N.am           1 S1                 0.0000
      3 ****        -0.9963   0.1649   0.8714 N.2            1 S1                 0.0000
      4 ****        -0.2294  -0.8847   0.9214 C.2            1 S1                 0.0000
      5 ****         1.1583  -0.8776   0.9768 N.pl3          1 S1                 0.0000
      6 ****         1.9916   0.3161   0.9882 C.3            1 S1                 0.0000
      7 ****         2.1911   0.9086  -0.4176 C.3            1 S1                 0.0000
      8 ****         3.2448   2.0107  -0.4708 C.3            1 S1                 0.0000
      9 ****         2.8857   2.7589  -1.7418 C.3            1 S1                 0.0000
     10 ****         1.3973   2.4532  -1.9362 C.3            1 S1                 0.0000
     11 ****         1.0324   1.5996  -0.8582 O.3            1 S1                 0.0000
     12 ****        -0.8209  -2.2855   0.9270 C.2            1 S1                 0.0000
     13 ****        -0.0842  -3.2753   0.9708 O.2            1 S1                 0.0000
     14 ****        -2.1800  -2.3597   0.8801 N.am           1 S1                 0.0000
     15 ****        -2.7725  -3.7097   0.8885 C.3            1 S1                 0.0000
     16 ****        -2.9947  -1.2658   0.8158 C.2            1 S1                 0.0000
     17 ****        -4.2241  -1.3499   0.7606 O.2            1 S1                 0.0000
     18 ****        -3.8364   1.2430   1.5910 H              1 S1                 0.0000
     19 ****        -3.7408   1.2028  -0.1744 H              1 S1                 0.0000
     20 ****        -2.5262   2.0687   0.7581 H              1 S1                 0.0000
     21 ****         2.9593   0.0241   1.3969 H              1 S1                 0.0000
     22 ****         1.5826   1.0628   1.6705 H              1 S1                 0.0000
     23 ****         2.4425   0.1251  -1.1353 H              1 S1                 0.0000
     24 ****         3.1391   2.6742   0.3887 H              1 S1                 0.0000
     25 ****         4.2644   1.6246  -0.4774 H              1 S1                 0.0000
     26 ****         3.0843   3.8274  -1.6552 H              1 S1                 0.0000
     27 ****         3.4599   2.3771  -2.5868 H              1 S1                 0.0000
     28 ****         0.7853   3.3553  -1.9249 H              1 S1                 0.0000
     29 ****         1.2294   1.9404  -2.8840 H              1 S1                 0.0000
     30 ****        -3.8614  -3.7300   0.9450 H              1 S1                 0.0000
     31 ****        -2.4124  -4.2829   1.7448 H              1 S1                 0.0000
     32 ****        -2.4923  -4.2498  -0.0172 H              1 S1                 0.0000
     33 ****         1.6761  -1.7441   0.9405 H              1 S1                 0.0000
     34 ****        -0.6162   1.0898   0.8742 LP             1 S1                 0.0000
     35 ****         0.6593   2.1450  -0.1077 LP             1 S1                 0.0000
     36 ****         0.3447   0.9423  -1.1665 LP             1 S1                 0.0000
     37 ****         0.9085  -3.1587   1.0029 LP             1 S1                 0.0000
     38 ****        -0.4802  -4.1936   0.9742 LP             1 S1                 0.0000
     39 ****        -4.7804  -0.5203   0.7133 LP             1 S1                 0.0000
     40 ****        -4.6645  -2.2477   0.7632 LP             1 S1                 0.0000
@<TRIPOS>BOND
    1    1   18 1     
    2    1   19 1     
    3    1   20 1     
    4    1    2 1     
    5    2   16 am    
    6    2    3 1     
    7    3    4 2     
    8    4   12 1     
    9    4    5 1     
   10    5    6 1     
   11    5   33 1     
   12    6    7 1     
   13    6   21 1     
   14    6   22 1     
   15    7   11 1     
   16    7    8 1     
   17    7   23 1     
   18    8    9 1     
   19    8   24 1     
   20    8   25 1     
   21    9   10 1     
   22    9   26 1     
   23    9   27 1     
   24   10   11 1     
   25   10   28 1     
   26   10   29 1     
   27   12   13 2     
   28   12   14 am    
   29   14   15 1     
   30   14   16 am    
   31   15   30 1     
   32   15   31 1     
   33   15   32 1     
   34   16   17 2     
   35    3   34 1     
   36   11   35 1     
   37   11   36 1     
   38   13   37 1     
   39   13   38 1     
   40   17   39 1     
   41   17   40 1     
@<TRIPOS>SUBSTRUCTURE
      1 S1             1
@<TRIPOS>SET
LONE_PAIRS      STATIC     ATOMS    <user>   **** ""
7 34 35 36 37 38 39 40
DONOR_HYDROGENS      STATIC     ATOMS    <user>   **** ""
1 33
ATOM$BLUE        STATIC     ATOMS    COLORGROUP SYSTEM
7 34 35 36 37 38 39 40
ATOM$RED        STATIC     ATOMS    COLORGROUP SYSTEM
1 33
