AV-unprocessed.smi:281|AV-procd|sdf|2112|dock4
  -GOLD-   2262021403D 1   1.00000     0.00000
 Structure written by MMmdl.
 55 59  0  0  0  0  0  0  0  0  1 V2000
  146.4045  128.8147  152.6034 C   0  0  0  0  0  0  0  0  0  0  0  0
  146.3528  130.3358  152.7775 C   0  0  1  0  0  0  0  0  0  0  0  0
  147.6230  130.8810  153.4451 C   0  0  0  0  0  0  0  0  0  0  0  0
  147.5671  132.3377  153.5128 N   0  0  0  0  0  0  0  0  0  0  0  0
  148.4924  132.9670  154.2839 C   0  0  0  0  0  0  0  0  0  0  0  0
  149.5955  132.2918  154.7069 N   0  0  0  0  0  0  0  0  0  0  0  0
  150.5180  132.9011  155.4568 C   0  0  0  0  0  0  0  0  0  0  0  0
  150.5373  134.1606  155.8947 N   0  0  0  0  0  0  0  0  0  0  0  0
  149.4336  134.8449  155.4793 C   0  0  0  0  0  0  0  0  0  0  0  0
  148.3711  134.3293  154.6833 C   0  0  0  0  0  0  0  0  0  0  0  0
  147.4136  135.3166  154.4835 N   0  0  0  0  0  0  0  0  0  0  0  0
  147.8860  136.3558  155.1151 C   0  0  0  0  0  0  0  0  0  0  0  0
  149.1016  136.1649  155.7312 N   0  0  0  0  0  0  0  0  0  0  0  0
  149.8544  137.1440  156.5001 C   0  0  0  0  0  0  0  0  0  0  0  0
  151.2609  137.4497  155.9236 C   0  0  2  0  0  0  0  0  0  0  0  0
  152.0620  136.2839  155.9677 O   0  0  0  0  0  0  0  0  0  0  0  0
  151.9585  138.5683  156.6803 C   0  0  0  0  0  0  0  0  0  0  0  0
  151.4179  139.8235  156.0008 C   0  0  0  0  0  0  0  0  0  0  0  0
  151.1351  139.4472  154.6566 O   0  0  0  0  0  0  0  0  0  0  0  0
  151.2477  138.0350  154.5046 C   0  0  0  0  0  0  0  0  0  0  0  0
  147.3420  132.9574  152.2101 C   0  0  0  0  0  0  0  0  0  0  0  0
  146.1106  132.3534  151.4846 C   0  0  2  0  0  0  0  0  0  0  0  0
  146.0981  132.7782  150.0188 C   0  0  0  0  0  0  0  0  0  0  0  0
  144.6204  132.8024  149.6677 C   0  0  0  0  0  0  0  0  0  0  0  0
  144.0554  133.3719  150.8324 O   0  0  0  0  0  0  0  0  0  0  0  0
  144.6917  132.7882  151.9641 C   0  0  2  0  0  0  0  0  0  0  0  0
  144.6163  133.7865  153.1281 C   0  0  0  0  0  0  0  0  0  0  0  0
  146.2136  130.9253  151.4852 O   0  0  0  0  0  0  0  0  0  0  0  0
  146.5024  128.3131  153.5667 H   0  0  0  0  0  0  0  0  0  0  0  0
  147.2502  128.5165  151.9830 H   0  0  0  0  0  0  0  0  0  0  0  0
  145.4956  128.4460  152.1278 H   0  0  0  0  0  0  0  0  0  0  0  0
  145.4887  130.5796  153.3963 H   0  0  0  0  0  0  0  0  0  0  0  0
  147.7167  130.4626  154.4481 H   0  0  0  0  0  0  0  0  0  0  0  0
  148.5046  130.5759  152.8791 H   0  0  0  0  0  0  0  0  0  0  0  0
  151.3620  132.2925  155.7461 H   0  0  0  0  0  0  0  0  0  0  0  0
  147.3580  137.2978  155.1457 H   0  0  0  0  0  0  0  0  0  0  0  0
  149.2587  138.0557  156.5589 H   0  0  0  0  0  0  0  0  0  0  0  0
  149.9425  136.7743  157.5227 H   0  0  0  0  0  0  0  0  0  0  0  0
  152.6491  136.3502  156.7052 H   0  0  0  0  0  0  0  0  0  0  0  0
  151.7753  138.5508  157.7553 H   0  0  0  0  0  0  0  0  0  0  0  0
  153.0378  138.5183  156.5267 H   0  0  0  0  0  0  0  0  0  0  0  0
  150.4904  140.1480  156.4737 H   0  0  0  0  0  0  0  0  0  0  0  0
  152.1242  140.6530  156.0416 H   0  0  0  0  0  0  0  0  0  0  0  0
  152.1982  137.8422  154.0045 H   0  0  0  0  0  0  0  0  0  0  0  0
  150.4627  137.6352  153.8646 H   0  0  0  0  0  0  0  0  0  0  0  0
  147.2415  134.0392  152.2853 H   0  0  0  0  0  0  0  0  0  0  0  0
  148.2342  132.7809  151.6075 H   0  0  0  0  0  0  0  0  0  0  0  0
  146.5009  133.7868  149.9127 H   0  0  0  0  0  0  0  0  0  0  0  0
  146.6794  132.1200  149.3719 H   0  0  0  0  0  0  0  0  0  0  0  0
  144.4050  133.3983  148.7806 H   0  0  0  0  0  0  0  0  0  0  0  0
  144.2315  131.7941  149.5162 H   0  0  0  0  0  0  0  0  0  0  0  0
  144.1029  131.9075  152.2231 H   0  0  0  0  0  0  0  0  0  0  0  0
  145.0672  133.3800  154.0330 H   0  0  0  0  0  0  0  0  0  0  0  0
  143.5787  134.0248  153.3621 H   0  0  0  0  0  0  0  0  0  0  0  0
  145.1172  134.7230  152.8837 H   0  0  0  0  0  0  0  0  0  0  0  0
  1  2  1  0  0  0  0
  1 29  1  0  0  0  0
  1 30  1  0  0  0  0
  1 31  1  0  0  0  0
  2 28  1  0  0  0  0
  2  3  1  0  0  0  0
  2 32  1  0  0  0  0
  3  4  1  0  0  0  0
  3 33  1  0  0  0  0
  3 34  1  0  0  0  0
  4  5  1  0  0  0  0
  4 21  1  0  0  0  0
  5 10  1  0  0  0  0
  5  6  2  0  0  0  0
  6  7  1  0  0  0  0
  7  8  2  0  0  0  0
  7 35  1  0  0  0  0
  8  9  1  0  0  0  0
  9 13  1  0  0  0  0
  9 10  2  0  0  0  0
 10 11  1  0  0  0  0
 11 12  2  0  0  0  0
 12 13  1  0  0  0  0
 12 36  1  0  0  0  0
 13 14  1  0  0  0  0
 14 15  1  0  0  0  0
 14 37  1  0  0  0  0
 14 38  1  0  0  0  0
 15 20  1  0  0  0  0
 15 16  1  0  0  0  0
 15 17  1  0  0  0  0
 16 39  1  0  0  0  0
 17 18  1  0  0  0  0
 17 40  1  0  0  0  0
 17 41  1  0  0  0  0
 18 19  1  0  0  0  0
 18 42  1  0  0  0  0
 18 43  1  0  0  0  0
 19 20  1  0  0  0  0
 20 44  1  0  0  0  0
 20 45  1  0  0  0  0
 21 22  1  0  0  0  0
 21 46  1  0  0  0  0
 21 47  1  0  0  0  0
 22 26  1  0  0  0  0
 22 23  1  0  0  0  0
 22 28  1  0  0  0  0
 23 24  1  0  0  0  0
 23 48  1  0  0  0  0
 23 49  1  0  0  0  0
 24 25  1  0  0  0  0
 24 50  1  0  0  0  0
 24 51  1  0  0  0  0
 25 26  1  0  0  0  0
 26 27  1  0  0  0  0
 26 52  1  0  0  0  0
 27 53  1  0  0  0  0
 27 54  1  0  0  0  0
 27 55  1  0  0  0  0
M  END
> <s_m_source_file>
AV-unprocessed.smi

> <i_m_source_file_index>
281

> <i_lp_mmshare_version>
43012

> <i_f3d_flags>
0

> <s_epik_input>
W0NIM11bQ0BASF0xT1tDSDJdW0NIMl1bQ0BAXTEyW0NIMl1OKFtDSDJdW0NASF0oTzIpW0NIM10pYyhuW2NIXW4zKWMoYzM0KW5bY0hdbjRbQ0gyXVtDQEBdNShbT0hdKVtDSDJdW0NIMl1PW0NIMl01

> <s_epik_cmdline>
J2VwaWtfcHl0aG9uJywgJy1waCcsICc3LjAnLCAnLXRuJywgJzgnLCAnLW1hJywgJzIwMCcsICctbWV0YWxfYmluZGluZycsICctaW1hZScsICc8aW5maWxlLm1hZT4nLCAnLW9tYWUnLCAnPG91dGZpbGUubWFlPic=

> <r_lp_tautomer_probability>
1

> <r_epik_Ionization_Penalty>
0.00571331

> <r_epik_Ionization_Penalty_Charging>
0

> <r_epik_Ionization_Penalty_Neutral>
0.00571331

> <r_epik_State_Penalty>
0.00399586

> <r_epik_Charging_Adjusted_Penalty>
0.00399586

> <i_epik_Tot_Q>
0

> <i_epik_Tot_abs_Q>
0

> <r_epik_Metal_State_Penalty>
-0

> <b_epik_Metal_Only>
0

> <s_lp_Force_Field>
OPLS_2005

> <r_lp_Energy>
53.9998

> <b_lp_Chiralities_Consistent>
1

> <s_lp_Variant>
AV-unprocessed.smi:281-12

> <Gold.Version>
5.8.1

> <Gold.Id.Protein>
6NUR|6NUR_protein|mol2

> <Gold.PLP.Fitness>
44.0890

> <Gold.PLP.PLP>
-38.2222

> <Gold.PLP.part.hbond>
-2.0000

> <Gold.PLP.part.metal>
0.0000

> <Gold.PLP.part.buried>
-5.7388

> <Gold.PLP.part.nonpolar>
-31.6051

> <Gold.PLP.part.repulsive>
1.9168

> <Gold.PLP.ligand.clash>
0.0000

> <Gold.PLP.ligand.torsion>
0.1995

> <Gold.PLP.Chemscore.Hbond>
2.0000

> <Gold.PLP.Chemscore.CHOScore>
0.0000

> <Gold.PLP.Chemscore.Metal>
0.0000

> <Gold.Chemscore.Hbonds>
donor molecule, donor type, donor heavy atom, donor atom, acceptor molecule, acceptor atom, score
      P1  H  7989  7998       L1    19  1.00
      P1  H 10752 10765       L1    16  1.00

> <Gold.PLP.Chemscore.Internal.Correction>
0.2658

> <Gold.Rescore>
     Score         DG    S(hbond)    S(metal)    S(lipo)     H(rot)  DE(clash)    DE(int)     intcor
     15.28     -16.63       1.76        0.00      90.87       2.09       0.28       1.07       ----

> <Gold.Chemscore.Fitness>
15.2849

> <Gold.Chemscore.DG>
-16.6322

> <Gold.Chemscore.ZeroCoef>
-5.4800

> <Gold.Chemscore.Hbond>
1.7596

> <Gold.Chemscore.Metal>
0.0000

> <Gold.Chemscore.Lipo>
90.8750

> <Gold.Chemscore.Internal_Hbond>
0.0000

> <Gold.Chemscore.DEClash>
0.2754

> <Gold.Chemscore.DEInternal>
1.0718

> <Gold.Chemscore.Rot>
2.0927

> <Gold.Chemscore.Internal.Correction>
   9.000000E+99

> <Gold.Chemscore.Hbonds>
donor molecule, donor type, donor heavy atom, donor atom, acceptor molecule, acceptor atom, score
      P1  H  7989  7998       L1    19  0.70
      P1  H 10752 10765       L1    16  0.25

> <Gold.Chemscore.Hbond.Weighted>
-5.8771

> <Gold.Chemscore.Metal.Weighted>
-0.0000

> <Gold.Chemscore.Lipo.Weighted>
-10.6324

> <Gold.Chemscore.Internal_Hbond.Weighted>
0.0000

> <Gold.Chemscore.DEClash.Weighted>
0.2754

> <Gold.Chemscore.DEInternal.Weighted>
1.0718

> <Gold.Chemscore.Rot.Weighted>
5.3573

> <Gold.Chemscore.Internal.Correction.Weighted>
   9.000000E+99

> <Gold.Protein.RotatedTorsions>
[ 6907 6896 6895 6894 ] final  144.69 input  -60.11 | X-H torsion
[ 7974 7965 7964 7962 ] final   -9.86 input  175.53 | X-H torsion
[ 8008 7997 7996 7995 ] final  166.24 input   59.86 | X-H torsion
[ 10167 10162 10161 10158 ] final -166.00 input  -65.29 | X-H torsion
[ 10718 10713 10712 10709 ] final  161.99 input   66.30 | X-H torsion
[ 10763 10752 10751 10750 ] final -163.51 input  -60.55 | X-H torsion
[ 11005 11000 10999 10996 ] final  118.94 input  -57.11 | X-H torsion

> <Gold.Protein.ActiveResidues>
 VAL166  LYS551  ARG553  GLY616  TRP617  ASP618  TYR619  PRO620  LYS621  CYS622 
 ASP623  PHE694  ASN695  SER759  ASP760  ASP761  ALA762  ILE779  LEU786  VAL792 
 PHE793  MET794  SER795  GLU796  ALA797  LYS798  CYS799  TRP800  GLU811  SER814 

> <Gold.Protein.RotatedAtoms>
  152.1904  133.4769  159.5004 H   0  0  0  0  0  0  0  0  0  0  0  0  # atno 6907 bound_to 6896
  150.6950  134.1719  159.4224 H   0  0  0  0  0  0  0  0  0  0  0  0  # atno 6908 bound_to 6896
  151.9634  135.0112  160.0599 H   0  0  0  0  0  0  0  0  0  0  0  0  # atno 6909 bound_to 6896
  146.2239  140.2679  142.8355 H   0  0  0  0  0  0  0  0  0  0  0  0  # atno 7974 bound_to 7965
  156.1734  140.1648  156.8406 H   0  0  0  0  0  0  0  0  0  0  0  0  # atno 8008 bound_to 7997
  154.5281  140.0763  156.8330 H   0  0  0  0  0  0  0  0  0  0  0  0  # atno 8009 bound_to 7997
  155.3464  140.3387  155.4241 H   0  0  0  0  0  0  0  0  0  0  0  0  # atno 8010 bound_to 7997
  139.6144  144.0749  152.1874 H   0  0  0  0  0  0  0  0  0  0  0  0  # atno 10167 bound_to 10162
  157.1288  131.0511  151.2381 H   0  0  0  0  0  0  0  0  0  0  0  0  # atno 10718 bound_to 10713
  154.7115  135.3007  154.9189 H   0  0  0  0  0  0  0  0  0  0  0  0  # atno 10763 bound_to 10752
  154.0089  135.6697  153.4768 H   0  0  0  0  0  0  0  0  0  0  0  0  # atno 10764 bound_to 10752
  153.0759  135.5035  154.8317 H   0  0  0  0  0  0  0  0  0  0  0  0  # atno 10765 bound_to 10752
  139.9128  134.9624  156.7580 H   0  0  0  0  0  0  0  0  0  0  0  0  # atno 11005 bound_to 11000
  144.9290  140.7954  143.5701 LP  0  0  0  0  0  0  0  0  0  0  0  0  # atno 17320 bound_to 7965
  145.2621  139.1988  143.4886 LP  0  0  0  0  0  0  0  0  0  0  0  0  # atno 17321 bound_to 7965
  140.0375  144.6033  150.7437 LP  0  0  0  0  0  0  0  0  0  0  0  0  # atno 17342 bound_to 10162
  140.7341  143.2725  151.3844 LP  0  0  0  0  0  0  0  0  0  0  0  0  # atno 17343 bound_to 10162
  157.4411  130.7544  149.7070 LP  0  0  0  0  0  0  0  0  0  0  0  0  # atno 17370 bound_to 10713
  155.9812  130.4021  150.3484 LP  0  0  0  0  0  0  0  0  0  0  0  0  # atno 17371 bound_to 10713
  140.6720  133.9551  155.7862 LP  0  0  0  0  0  0  0  0  0  0  0  0  # atno 17394 bound_to 11000
  141.0570  134.0401  157.3709 LP  0  0  0  0  0  0  0  0  0  0  0  0  # atno 17395 bound_to 11000

$$$$
