#       Name:                AV-unprocessed.smi:2772
#       Creating user name   scv26
#       Creation time:       Fri Mar 27 15:11:32 2020


#       File generated by GOLD software.
#

@<TRIPOS>MOLECULE
AV-unprocessed.smi:2772
    58    60     1
SMALL
NO_CHARGES


@<TRIPOS>ATOM
      1 ****        -8.1730   4.7807  -0.9300 C.3            1 S1                 0.0000
      2 ****        -6.9101   3.9495  -1.0137 C.ar           1 S1                 0.0000
      3 ****        -5.7129   4.4989  -1.5164 C.ar           1 S1                 0.0000
      4 ****        -4.5664   3.6826  -1.5657 C.ar           1 S1                 0.0000
      5 ****        -4.6560   2.3477  -1.1022 C.ar           1 S1                 0.0000
      6 ****        -3.5757   1.4240  -1.1093 N.am           1 S1                 0.0000
      7 ****        -2.2566   1.6829  -1.1153 C.2            1 S1                 0.0000
      8 ****        -1.7501   2.8046  -1.1185 O.2            1 S1                 0.0000
      9 ****        -1.5374   0.5510  -1.0945 N.am           1 S1                 0.0000
     10 ****        -0.0783   0.4868  -1.0816 C.3            1 S1                 0.0000
     11 ****         0.3932  -0.8836  -1.6010 C.3            1 S1                 0.0000
     12 ****         1.9232  -1.0275  -1.4777 C.3            1 S1                 0.0000
     13 ****         2.3926  -0.8260  -0.0761 N.4            1 S1                 1.0000
     14 ****         2.0659  -1.9440   0.8776 C.3            1 S1                 0.0000
     15 ****         2.6026  -1.7144   2.3118 C.3            1 S1                 0.0000
     16 ****         4.1411  -1.7618   2.3640 C.3            1 S1                 0.0000
     17 ****         4.6500  -3.0601   1.8551 N.4            1 S1                 1.0000
     18 ****         6.1203  -3.1734   1.9668 C.3            1 S1                 0.0000
     19 ****         4.1611  -3.3602   0.4859 C.3            1 S1                 0.0000
     20 ****         2.6227  -3.3163   0.4261 C.3            1 S1                 0.0000
     21 ****         2.0008   0.5397   0.3771 C.3            1 S1                 0.0000
     22 ****         0.4742   0.7420   0.3359 C.3            1 S1                 0.0000
     23 ****        -5.9094   1.8967  -0.6371 C.ar           1 S1                 0.0000
     24 ****        -7.0129   2.6729  -0.5855 N.ar           1 S1                 0.0000
     25 ****        -7.9925   5.8080  -1.2475 H              1 S1                 0.0000
     26 ****        -8.5452   4.8031   0.0946 H              1 S1                 0.0000
     27 ****        -8.9483   4.3577  -1.5691 H              1 S1                 0.0000
     28 ****        -5.6705   5.5220  -1.8604 H              1 S1                 0.0000
     29 ****        -3.6523   4.0917  -1.9666 H              1 S1                 0.0000
     30 ****        -3.8392   0.4529  -1.0285 H              1 S1                 0.0000
     31 ****        -2.0355  -0.3272  -1.0911 H              1 S1                 0.0000
     32 ****         0.3144   1.2528  -1.7534 H              1 S1                 0.0000
     33 ****        -0.1032  -1.6868  -1.0556 H              1 S1                 0.0000
     34 ****         0.0998  -1.0019  -2.6448 H              1 S1                 0.0000
     35 ****         2.2591  -1.9741  -1.8943 H              1 S1                 0.0000
     36 ****         2.3979  -0.2699  -2.1033 H              1 S1                 0.0000
     37 ****         0.9814  -2.0278   0.9417 H              1 S1                 0.0000
     38 ****         2.2259  -0.7949   2.7564 H              1 S1                 0.0000
     39 ****         2.2143  -2.5023   2.9592 H              1 S1                 0.0000
     40 ****         4.5676  -0.9432   1.7824 H              1 S1                 0.0000
     41 ****         4.4737  -1.6235   3.3936 H              1 S1                 0.0000
     42 ****         6.6196  -2.4343   1.3390 H              1 S1                 0.0000
     43 ****         6.4548  -4.1651   1.6601 H              1 S1                 0.0000
     44 ****         6.4415  -3.0198   2.9976 H              1 S1                 0.0000
     45 ****         4.5898  -2.6512  -0.2241 H              1 S1                 0.0000
     46 ****         4.5073  -4.3511   0.1892 H              1 S1                 0.0000
     47 ****         2.2320  -4.0871   1.0920 H              1 S1                 0.0000
     48 ****         2.2660  -3.6080  -0.5595 H              1 S1                 0.0000
     49 ****         2.4020   0.7818   1.3585 H              1 S1                 0.0000
     50 ****         2.4679   1.2637  -0.2920 H              1 S1                 0.0000
     51 ****         0.2374   1.7590   0.6506 H              1 S1                 0.0000
     52 ****        -0.0111   0.0825   1.0562 H              1 S1                 0.0000
     53 ****        -6.0316   0.8822  -0.2869 H              1 S1                 0.0000
     54 ****         3.4011  -0.8109  -0.1285 H              1 S1                 0.0000
     55 ****         4.2651  -3.7737   2.4582 H              1 S1                 0.0000
     56 ****        -2.3336   3.6168  -1.1166 LP             1 S1                 0.0000
     57 ****        -0.7550   2.9039  -1.1229 LP             1 S1                 0.0000
     58 ****        -7.8800   2.3134  -0.2407 LP             1 S1                 0.0000
@<TRIPOS>BOND
    1    1    2 1     
    2    1   25 1     
    3    1   26 1     
    4    1   27 1     
    5    2   24 ar    
    6    2    3 ar    
    7    3    4 ar    
    8    3   28 1     
    9    4    5 ar    
   10    4   29 1     
   11    5    6 1     
   12    5   23 ar    
   13    6    7 am    
   14    6   30 1     
   15    7    8 2     
   16    7    9 am    
   17    9   10 1     
   18    9   31 1     
   19   10   22 1     
   20   10   11 1     
   21   10   32 1     
   22   11   12 1     
   23   11   33 1     
   24   11   34 1     
   25   12   13 1     
   26   12   35 1     
   27   12   36 1     
   28   13   14 1     
   29   13   21 1     
   30   13   54 1     
   31   14   20 1     
   32   14   15 1     
   33   14   37 1     
   34   15   16 1     
   35   15   38 1     
   36   15   39 1     
   37   16   17 1     
   38   16   40 1     
   39   16   41 1     
   40   17   18 1     
   41   17   19 1     
   42   17   55 1     
   43   18   42 1     
   44   18   43 1     
   45   18   44 1     
   46   19   20 1     
   47   19   45 1     
   48   19   46 1     
   49   20   47 1     
   50   20   48 1     
   51   21   22 1     
   52   21   49 1     
   53   21   50 1     
   54   22   51 1     
   55   22   52 1     
   56   23   24 ar    
   57   23   53 1     
   58    8   56 1     
   59    8   57 1     
   60   24   58 1     
@<TRIPOS>SUBSTRUCTURE
      1 S1             1
@<TRIPOS>SET
LONE_PAIRS      STATIC     ATOMS    <user>   **** ""
3 56 57 58
DONOR_HYDROGENS      STATIC     ATOMS    <user>   **** ""
4 30 31 54 55
ATOM$BLUE        STATIC     ATOMS    COLORGROUP SYSTEM
3 56 57 58
ATOM$RED        STATIC     ATOMS    COLORGROUP SYSTEM
4 30 31 54 55
