AV-unprocessed.smi:2146|AV-procd|sdf|8741|dock5
  -GOLD-   2272011513D 1   1.00000     0.00000
 Structure written by MMmdl.
 45 46  0  0  0  0  0  0  0  0  2 V2000
  149.0889  132.5981  153.8844 C   0  0  0  0  0  0  0  0  0  0  0  0
  148.1776  133.6890  154.4938 C   0  0  1  0  0  0  0  0  0  0  0  0
  149.0215  134.6825  155.3445 C   0  0  0  0  0  0  0  0  0  0  0  0
  148.2766  135.2644  156.4581 N   0  0  0  0  0  0  0  0  0  0  0  0
  148.7272  135.3630  157.7180 C   0  0  0  0  0  0  0  0  0  0  0  0
  149.8312  134.9448  158.0696 O   0  0  0  0  0  0  0  0  0  0  0  0
  147.7774  136.0331  158.7210 C   0  0  0  0  0  0  0  0  0  0  0  0
  147.5866  135.2490  159.9525 N   0  0  0  0  0  0  0  0  0  0  0  0
  147.5136  133.8500  159.8068 C   0  0  0  0  0  0  0  0  0  0  0  0
  147.3486  133.0113  160.8472 C   0  0  0  0  0  0  0  0  0  0  0  0
  147.2127  131.5105  160.6437 C   0  0  0  0  0  0  0  0  0  0  0  0
  147.0196  130.8802  161.8025 F   0  0  0  0  0  0  0  0  0  0  0  0
  146.1876  131.2299  159.8382 F   0  0  0  0  0  0  0  0  0  0  0  0
  148.3213  131.0266  160.0854 F   0  0  0  0  0  0  0  0  0  0  0  0
  147.2199  133.6240  162.1551 C   0  0  0  0  0  0  0  0  0  0  0  0
  147.2708  134.9616  162.3101 C   0  0  0  0  0  0  0  0  0  0  0  0
  147.4599  135.8599  161.1685 C   0  0  0  0  0  0  0  0  0  0  0  0
  147.4996  137.0836  161.2972 O   0  0  0  0  0  0  0  0  0  0  0  0
  147.3686  134.3527  153.4183 N   0  3  0  0  0  0  0  0  0  0  0  0
  146.6720  133.3727  152.5392 C   0  0  0  0  0  0  0  0  0  0  0  0
  145.9145  134.0806  151.4043 C   0  0  0  0  0  0  0  0  0  0  0  0
  144.9810  134.9950  151.9576 O   0  0  0  0  0  0  0  0  0  0  0  0
  145.6317  136.0066  152.7110 C   0  0  0  0  0  0  0  0  0  0  0  0
  146.3946  135.3762  153.8895 C   0  0  0  0  0  0  0  0  0  0  0  0
  149.6775  132.0872  154.6461 H   0  0  0  0  0  0  0  0  0  0  0  0
  149.7864  133.0269  153.1648 H   0  0  0  0  0  0  0  0  0  0  0  0
  148.5268  131.8166  153.3767 H   0  0  0  0  0  0  0  0  0  0  0  0
  147.4727  133.2035  155.1707 H   0  0  0  0  0  0  0  0  0  0  0  0
  149.8957  134.1755  155.7549 H   0  0  0  0  0  0  0  0  0  0  0  0
  149.3918  135.5124  154.7416 H   0  0  0  0  0  0  0  0  0  0  0  0
  147.3552  135.6247  156.2541 H   0  0  0  0  0  0  0  0  0  0  0  0
  148.1664  137.0209  158.9749 H   0  0  0  0  0  0  0  0  0  0  0  0
  146.8252  136.2235  158.2237 H   0  0  0  0  0  0  0  0  0  0  0  0
  147.5896  133.5010  158.7869 H   0  0  0  0  0  0  0  0  0  0  0  0
  147.0832  133.0015  163.0270 H   0  0  0  0  0  0  0  0  0  0  0  0
  147.1717  135.3837  163.2994 H   0  0  0  0  0  0  0  0  0  0  0  0
  147.3759  132.6734  152.0924 H   0  0  0  0  0  0  0  0  0  0  0  0
  145.9735  132.7817  153.1338 H   0  0  0  0  0  0  0  0  0  0  0  0
  146.6044  134.5981  150.7355 H   0  0  0  0  0  0  0  0  0  0  0  0
  145.3747  133.3501  150.8016 H   0  0  0  0  0  0  0  0  0  0  0  0
  146.3068  136.5767  152.0705 H   0  0  0  0  0  0  0  0  0  0  0  0
  144.8819  136.7058  153.0819 H   0  0  0  0  0  0  0  0  0  0  0  0
  145.6933  134.9199  154.5902 H   0  0  0  0  0  0  0  0  0  0  0  0
  146.9034  136.1855  154.4119 H   0  0  0  0  0  0  0  0  0  0  0  0
  148.0275  134.8503  152.8366 H   0  0  0  0  0  0  0  0  0  0  0  0
  1  2  1  0  0  0  0
  1 25  1  0  0  0  0
  1 26  1  0  0  0  0
  1 27  1  0  0  0  0
  2  3  1  0  0  0  0
  2 19  1  0  0  0  0
  2 28  1  0  0  0  0
  3  4  1  0  0  0  0
  3 29  1  0  0  0  0
  3 30  1  0  0  0  0
  4  5  1  0  0  0  0
  4 31  1  0  0  0  0
  5  6  2  0  0  0  0
  5  7  1  0  0  0  0
  7  8  1  0  0  0  0
  7 32  1  0  0  0  0
  7 33  1  0  0  0  0
  8 17  1  0  0  0  0
  8  9  1  0  0  0  0
  9 10  2  0  0  0  0
  9 34  1  0  0  0  0
 10 11  1  0  0  0  0
 10 15  1  0  0  0  0
 11 12  1  0  0  0  0
 11 13  1  0  0  0  0
 11 14  1  0  0  0  0
 15 16  2  0  0  0  0
 15 35  1  0  0  0  0
 16 17  1  0  0  0  0
 16 36  1  0  0  0  0
 17 18  2  0  0  0  0
 19 24  1  0  0  0  0
 19 20  1  0  0  0  0
 19 45  1  0  0  0  0
 20 21  1  0  0  0  0
 20 37  1  0  0  0  0
 20 38  1  0  0  0  0
 21 22  1  0  0  0  0
 21 39  1  0  0  0  0
 21 40  1  0  0  0  0
 22 23  1  0  0  0  0
 23 24  1  0  0  0  0
 23 41  1  0  0  0  0
 23 42  1  0  0  0  0
 24 43  1  0  0  0  0
 24 44  1  0  0  0  0
M  CHG  1  19   1
M  END
> <s_m_source_file>
AV-unprocessed.smi

> <i_m_source_file_index>
2146

> <i_lp_mmshare_version>
43012

> <i_f3d_flags>
0

> <s_epik_input>
W0NIMl0xW0NIMl1PW0NIMl1bQ0gyXU4xW0NASF0oW0NIM10pW0NIMl1bTkhdQyg9TylbQ0gyXW4yW2NIXWMoQyhGKShGKUYpW2NIXVtjSF1jMj1P

> <s_epik_cmdline>
J2VwaWtfcHl0aG9uJywgJy1waCcsICc3LjAnLCAnLXRuJywgJzgnLCAnLW1hJywgJzIwMCcsICctbWV0YWxfYmluZGluZycsICctaW1hZScsICc8aW5maWxlLm1hZT4nLCAnLW9tYWUnLCAnPG91dGZpbGUubWFlPic=

> <r_lp_tautomer_probability>
1

> <r_epik_Ionization_Penalty>
0.656654

> <r_epik_Ionization_Penalty_Charging>
0.656653

> <r_epik_Ionization_Penalty_Neutral>
9.12373e-08

> <r_epik_State_Penalty>
0.675641

> <r_epik_Charging_Adjusted_Penalty>
1.33229

> <i_epik_Tot_Q>
1

> <i_epik_Tot_abs_Q>
1

> <r_epik_Metal_State_Penalty>
0.675692

> <b_epik_Metal_Only>
0

> <s_lp_Force_Field>
OPLS_2005

> <r_lp_Energy>
32.7302

> <b_lp_Chiralities_Consistent>
1

> <s_lp_Variant>
AV-unprocessed.smi:2146-4

> <Gold.Version>
5.8.1

> <Gold.Id.Protein>
6NUR|6NUR_protein|mol2

> <Gold.PLP.Fitness>
48.5103

> <Gold.PLP.PLP>
-35.6936

> <Gold.PLP.part.hbond>
-4.0000

> <Gold.PLP.part.metal>
0.0000

> <Gold.PLP.part.buried>
-4.5963

> <Gold.PLP.part.nonpolar>
-27.4045

> <Gold.PLP.part.repulsive>
0.1202

> <Gold.PLP.ligand.clash>
0.0000

> <Gold.PLP.ligand.torsion>
0.8736

> <Gold.PLP.Chemscore.Hbond>
4.8000

> <Gold.PLP.Chemscore.CHOScore>
0.0000

> <Gold.PLP.Chemscore.Metal>
0.0000

> <Gold.Chemscore.Hbonds>
donor molecule, donor type, donor heavy atom, donor atom, acceptor molecule, acceptor atom, score
      L1  H    19    45       P1  7948  2.00
      P1  H  6896  6908       L1     6  0.99
      P1  H  6931  6943       L1    18  0.96
      P1  H  6934  6947       L1    18  0.94

> <Gold.PLP.Chemscore.Internal.Correction>
0.1638

> <Gold.Rescore>
     Score         DG    S(hbond)    S(metal)    S(lipo)     H(rot)  DE(clash)    DE(int)     intcor
     18.66     -19.48       3.67        0.00      62.72       2.18       0.00       0.82       ----

> <Gold.Chemscore.Fitness>
18.6560

> <Gold.Chemscore.DG>
-19.4789

> <Gold.Chemscore.ZeroCoef>
-5.4800

> <Gold.Chemscore.Hbond>
3.6657

> <Gold.Chemscore.Metal>
0.0000

> <Gold.Chemscore.Lipo>
62.7152

> <Gold.Chemscore.Internal_Hbond>
0.0000

> <Gold.Chemscore.DEClash>
0.0048

> <Gold.Chemscore.DEInternal>
0.8181

> <Gold.Chemscore.Rot>
2.1805

> <Gold.Chemscore.Internal.Correction>
   9.000000E+99

> <Gold.Chemscore.Hbonds>
donor molecule, donor type, donor heavy atom, donor atom, acceptor molecule, acceptor atom, score
      L1  H    19    45       P1  7948  0.88
      P1  H  6896  6908       L1     6  0.93
      P1  H  6931  6943       L1    18  0.87
      P1  H  6934  6947       L1    18  0.88

> <Gold.Chemscore.Hbond.Weighted>
-12.2435

> <Gold.Chemscore.Metal.Weighted>
-0.0000

> <Gold.Chemscore.Lipo.Weighted>
-7.3377

> <Gold.Chemscore.Internal_Hbond.Weighted>
0.0000

> <Gold.Chemscore.DEClash.Weighted>
0.0048

> <Gold.Chemscore.DEInternal.Weighted>
0.8181

> <Gold.Chemscore.Rot.Weighted>
5.5822

> <Gold.Chemscore.Internal.Correction.Weighted>
   9.000000E+99

> <Gold.Protein.RotatedTorsions>
[ 6907 6896 6895 6894 ] final  162.39 input  -60.11 | X-H torsion
[ 7974 7965 7964 7962 ] final   58.09 input  175.53 | X-H torsion
[ 8008 7997 7996 7995 ] final  163.75 input   59.86 | X-H torsion
[ 10167 10162 10161 10158 ] final    7.65 input  -65.29 | X-H torsion
[ 10718 10713 10712 10709 ] final   -7.97 input   66.30 | X-H torsion
[ 10763 10752 10751 10750 ] final -151.04 input  -60.55 | X-H torsion
[ 11005 11000 10999 10996 ] final  157.57 input  -57.11 | X-H torsion

> <Gold.Protein.ActiveResidues>
 VAL166  LYS551  ARG553  GLY616  TRP617  ASP618  TYR619  PRO620  LYS621  CYS622 
 ASP623  PHE694  ASN695  SER759  ASP760  ASP761  ALA762  ILE779  LEU786  VAL792 
 PHE793  MET794  SER795  GLU796  ALA797  LYS798  CYS799  TRP800  GLU811  SER814 

> <Gold.Protein.RotatedAtoms>
  151.9411  133.3638  159.3965 H   0  0  0  0  0  0  0  0  0  0  0  0  # atno 6907 bound_to 6896
  150.6998  134.4438  159.5313 H   0  0  0  0  0  0  0  0  0  0  0  0  # atno 6908 bound_to 6896
  152.2095  134.8515  160.0550 H   0  0  0  0  0  0  0  0  0  0  0  0  # atno 6909 bound_to 6896
  145.9220  139.3737  143.0473 H   0  0  0  0  0  0  0  0  0  0  0  0  # atno 7974 bound_to 7965
  156.1933  140.1715  156.8048 H   0  0  0  0  0  0  0  0  0  0  0  0  # atno 8008 bound_to 7997
  154.5498  140.0720  156.8681 H   0  0  0  0  0  0  0  0  0  0  0  0  # atno 8009 bound_to 7997
  155.3050  140.3364  155.4248 H   0  0  0  0  0  0  0  0  0  0  0  0  # atno 8010 bound_to 7997
  140.6359  143.7886  150.7359 H   0  0  0  0  0  0  0  0  0  0  0  0  # atno 10167 bound_to 10162
  156.7094  130.5117  149.5896 H   0  0  0  0  0  0  0  0  0  0  0  0  # atno 10718 bound_to 10713
  154.8082  135.3269  154.7375 H   0  0  0  0  0  0  0  0  0  0  0  0  # atno 10763 bound_to 10752
  153.8029  135.6902  153.4857 H   0  0  0  0  0  0  0  0  0  0  0  0  # atno 10764 bound_to 10752
  153.1842  135.4575  155.0012 H   0  0  0  0  0  0  0  0  0  0  0  0  # atno 10765 bound_to 10752
  140.1782  134.8495  157.2771 H   0  0  0  0  0  0  0  0  0  0  0  0  # atno 11005 bound_to 11000
  145.8538  140.9514  143.0736 LP  0  0  0  0  0  0  0  0  0  0  0  0  # atno 17320 bound_to 7965
  144.6754  140.0441  143.7480 LP  0  0  0  0  0  0  0  0  0  0  0  0  # atno 17321 bound_to 7965
  140.1507  143.4360  152.2133 LP  0  0  0  0  0  0  0  0  0  0  0  0  # atno 17342 bound_to 10162
  139.5570  144.7379  151.4265 LP  0  0  0  0  0  0  0  0  0  0  0  0  # atno 17343 bound_to 10162
  156.1672  130.6413  151.0792 LP  0  0  0  0  0  0  0  0  0  0  0  0  # atno 17370 bound_to 10713
  157.6942  131.0800  150.7018 LP  0  0  0  0  0  0  0  0  0  0  0  0  # atno 17371 bound_to 10713
  140.2298  134.3922  155.7527 LP  0  0  0  0  0  0  0  0  0  0  0  0  # atno 17394 bound_to 11000
  141.2221  133.7209  156.8623 LP  0  0  0  0  0  0  0  0  0  0  0  0  # atno 17395 bound_to 11000

$$$$
