AV-unprocessed.smi:1876|AV-procd|sdf|7620|dock7
  -GOLD-   22720 9343D 1   1.00000     0.00000
 Structure written by MMmdl.
 31 32  0  0  0  0  0  0  0  0  1 V2000
  147.0499  142.3975  154.0310 C   0  0  0  0  0  0  0  0  0  0  0  0
  147.0490  140.9071  154.0250 C   0  0  0  0  0  0  0  0  0  0  0  0
  147.0820  139.9796  153.0217 C   0  0  0  0  0  0  0  0  0  0  0  0
  147.0544  138.7458  153.7251 C   0  0  0  0  0  0  0  0  0  0  0  0
  147.0763  137.5096  153.0295 N   0  0  0  0  0  0  0  0  0  0  0  0
  146.0882  136.6027  152.9405 C   0  0  0  0  0  0  0  0  0  0  0  0
  144.9756  136.7146  153.4563 O   0  0  0  0  0  0  0  0  0  0  0  0
  146.4627  135.5424  152.2079 N   0  0  0  0  0  0  0  0  0  0  0  0
  145.6178  134.3909  151.8871 C   0  0  2  0  0  0  0  0  0  0  0  0
  146.4459  133.4223  151.0203 C   0  0  0  0  0  0  0  0  0  0  0  0
  145.5745  132.2606  150.5355 C   0  0  0  0  0  0  0  0  0  0  0  0
  144.4168  132.7857  149.6740 C   0  0  0  0  0  0  0  0  0  0  0  0
  143.8219  134.0178  150.1927 N   0  0  0  0  0  0  0  0  0  0  0  0
  144.3483  134.8370  151.1216 C   0  0  0  0  0  0  0  0  0  0  0  0
  143.8028  135.9051  151.3956 O   0  0  0  0  0  0  0  0  0  0  0  0
  147.0111  138.9061  155.0391 N   0  0  0  0  0  0  0  0  0  0  0  0
  147.0074  140.2919  155.2378 O   0  0  0  0  0  0  0  0  0  0  0  0
  147.0654  142.7918  153.0148 H   0  0  0  0  0  0  0  0  0  0  0  0
  147.9246  142.7816  154.5559 H   0  0  0  0  0  0  0  0  0  0  0  0
  146.1596  142.7819  154.5291 H   0  0  0  0  0  0  0  0  0  0  0  0
  147.1186  140.1584  151.9573 H   0  0  0  0  0  0  0  0  0  0  0  0
  147.9361  137.2933  152.5478 H   0  0  0  0  0  0  0  0  0  0  0  0
  147.3947  135.5395  151.8207 H   0  0  0  0  0  0  0  0  0  0  0  0
  145.3041  133.8789  152.7985 H   0  0  0  0  0  0  0  0  0  0  0  0
  146.8752  133.9428  150.1621 H   0  0  0  0  0  0  0  0  0  0  0  0
  147.2851  133.0335  151.5984 H   0  0  0  0  0  0  0  0  0  0  0  0
  146.1690  131.5429  149.9698 H   0  0  0  0  0  0  0  0  0  0  0  0
  145.1769  131.7235  151.3977 H   0  0  0  0  0  0  0  0  0  0  0  0
  144.7805  132.9981  148.6682 H   0  0  0  0  0  0  0  0  0  0  0  0
  143.6431  132.0243  149.5718 H   0  0  0  0  0  0  0  0  0  0  0  0
  142.9663  134.3196  149.7493 H   0  0  0  0  0  0  0  0  0  0  0  0
  1  2  1  0  0  0  0
  1 18  1  0  0  0  0
  1 19  1  0  0  0  0
  1 20  1  0  0  0  0
  2 17  1  0  0  0  0
  2  3  2  0  0  0  0
  3  4  1  0  0  0  0
  3 21  1  0  0  0  0
  4  5  1  0  0  0  0
  4 16  2  0  0  0  0
  5  6  1  0  0  0  0
  5 22  1  0  0  0  0
  6  7  2  0  0  0  0
  6  8  1  0  0  0  0
  8  9  1  0  0  0  0
  8 23  1  0  0  0  0
  9 14  1  0  0  0  0
  9 10  1  0  0  0  0
  9 24  1  0  0  0  0
 10 11  1  0  0  0  0
 10 25  1  0  0  0  0
 10 26  1  0  0  0  0
 11 12  1  0  0  0  0
 11 27  1  0  0  0  0
 11 28  1  0  0  0  0
 12 13  1  0  0  0  0
 12 29  1  0  0  0  0
 12 30  1  0  0  0  0
 13 14  1  0  0  0  0
 13 31  1  0  0  0  0
 14 15  2  0  0  0  0
 16 17  1  0  0  0  0
M  END
> <s_m_source_file>
AV-unprocessed.smi

> <i_m_source_file_index>
1876

> <i_lp_mmshare_version>
43012

> <i_f3d_flags>
0

> <s_epik_input>
W0NIM11jMVtjSF1jKG5vMSlbTkhdQyg9TylbTkhdW0NAQEhdMltDSDJdW0NIMl1bQ0gyXVtOSF1DMj1P

> <s_epik_cmdline>
J2VwaWtfcHl0aG9uJywgJy1waCcsICc3LjAnLCAnLXRuJywgJzgnLCAnLW1hJywgJzIwMCcsICctbWV0YWxfYmluZGluZycsICctaW1hZScsICc8aW5maWxlLm1hZT4nLCAnLW9tYWUnLCAnPG91dGZpbGUubWFlPic=

> <r_lp_tautomer_probability>
1

> <r_epik_Ionization_Penalty>
2.33177e-05

> <r_epik_Ionization_Penalty_Charging>
0

> <r_epik_Ionization_Penalty_Neutral>
2.33177e-05

> <r_epik_State_Penalty>
-0

> <r_epik_Charging_Adjusted_Penalty>
0

> <i_epik_Tot_Q>
0

> <i_epik_Tot_abs_Q>
0

> <r_epik_Metal_State_Penalty>
-0

> <b_epik_Metal_Only>
0

> <s_lp_Force_Field>
OPLS_2005

> <r_lp_Energy>
8.43972

> <b_lp_Chiralities_Consistent>
1

> <s_lp_Variant>
AV-unprocessed.smi:1876-1

> <Gold.Version>
5.8.1

> <Gold.Id.Protein>
6NUR|6NUR_protein|mol2

> <Gold.PLP.Fitness>
32.9276

> <Gold.PLP.PLP>
-25.2935

> <Gold.PLP.part.hbond>
-3.0000

> <Gold.PLP.part.metal>
0.0000

> <Gold.PLP.part.buried>
-3.6186

> <Gold.PLP.part.nonpolar>
-19.3674

> <Gold.PLP.part.repulsive>
0.5509

> <Gold.PLP.ligand.clash>
0.0000

> <Gold.PLP.ligand.torsion>
0.6471

> <Gold.PLP.Chemscore.Hbond>
2.9760

> <Gold.PLP.Chemscore.CHOScore>
0.0000

> <Gold.PLP.Chemscore.Metal>
0.0000

> <Gold.Chemscore.Hbonds>
donor molecule, donor type, donor heavy atom, donor atom, acceptor molecule, acceptor atom, score
      L1  H     5    22       P1  7948  1.00
      L1  H     8    23       P1  7948  0.98
      L1  H    13    31       P1 10186  1.00

> <Gold.PLP.Chemscore.Internal.Correction>
0.0003

> <Gold.Rescore>
     Score         DG    S(hbond)    S(metal)    S(lipo)     H(rot)  DE(clash)    DE(int)     intcor
     14.60     -18.24       2.91        0.00      47.94       1.00       0.07       3.57       ----

> <Gold.Chemscore.Fitness>
14.6039

> <Gold.Chemscore.DG>
-18.2369

> <Gold.Chemscore.ZeroCoef>
-5.4800

> <Gold.Chemscore.Hbond>
2.9066

> <Gold.Chemscore.Metal>
0.0000

> <Gold.Chemscore.Lipo>
47.9391

> <Gold.Chemscore.Internal_Hbond>
0.0000

> <Gold.Chemscore.DEClash>
0.0677

> <Gold.Chemscore.DEInternal>
3.5652

> <Gold.Chemscore.Rot>
1.0000

> <Gold.Chemscore.Internal.Correction>
   9.000000E+99

> <Gold.Chemscore.Hbonds>
donor molecule, donor type, donor heavy atom, donor atom, acceptor molecule, acceptor atom, score
      L1  H     5    22       P1  7948  0.95
      L1  H     8    23       P1  7948  0.92
      L1  H    13    31       P1 10186  0.95

> <Gold.Chemscore.Hbond.Weighted>
-9.7080

> <Gold.Chemscore.Metal.Weighted>
-0.0000

> <Gold.Chemscore.Lipo.Weighted>
-5.6089

> <Gold.Chemscore.Internal_Hbond.Weighted>
0.0000

> <Gold.Chemscore.DEClash.Weighted>
0.0677

> <Gold.Chemscore.DEInternal.Weighted>
3.5652

> <Gold.Chemscore.Rot.Weighted>
2.5600

> <Gold.Chemscore.Internal.Correction.Weighted>
   9.000000E+99

> <Gold.Protein.RotatedTorsions>
[ 6907 6896 6895 6894 ] final  -56.35 input  -60.11 | X-H torsion
[ 7974 7965 7964 7962 ] final  148.18 input  175.53 | X-H torsion
[ 8008 7997 7996 7995 ] final  115.60 input   59.86 | X-H torsion
[ 10167 10162 10161 10158 ] final -157.87 input  -65.29 | X-H torsion
[ 10718 10713 10712 10709 ] final   51.36 input   66.30 | X-H torsion
[ 10763 10752 10751 10750 ] final -133.08 input  -60.55 | X-H torsion
[ 11005 11000 10999 10996 ] final -171.36 input  -57.11 | X-H torsion

> <Gold.Protein.ActiveResidues>
 VAL166  LYS551  ARG553  GLY616  TRP617  ASP618  TYR619  PRO620  LYS621  CYS622 
 ASP623  PHE694  ASN695  SER759  ASP760  ASP761  ALA762  ILE779  LEU786  VAL792 
 PHE793  MET794  SER795  GLU796  ALA797  LYS798  CYS799  TRP800  GLU811  SER814 

> <Gold.Protein.RotatedAtoms>
  150.8175  134.7365  159.6742 H   0  0  0  0  0  0  0  0  0  0  0  0  # atno 6907 bound_to 6896
  152.4293  134.5805  159.9956 H   0  0  0  0  0  0  0  0  0  0  0  0  # atno 6908 bound_to 6896
  151.5998  133.3320  159.3081 H   0  0  0  0  0  0  0  0  0  0  0  0  # atno 6909 bound_to 6896
  144.8534  139.6122  143.5963 H   0  0  0  0  0  0  0  0  0  0  0  0  # atno 7974 bound_to 7965
  156.2391  140.2935  156.0393 H   0  0  0  0  0  0  0  0  0  0  0  0  # atno 8008 bound_to 7997
  155.2005  140.0409  157.2934 H   0  0  0  0  0  0  0  0  0  0  0  0  # atno 8009 bound_to 7997
  154.6134  140.2457  155.7648 H   0  0  0  0  0  0  0  0  0  0  0  0  # atno 8010 bound_to 7997
  139.6736  143.9702  152.2298 H   0  0  0  0  0  0  0  0  0  0  0  0  # atno 10167 bound_to 10162
  157.4973  130.8415  149.8274 H   0  0  0  0  0  0  0  0  0  0  0  0  # atno 10718 bound_to 10713
  154.8736  135.3777  154.4514 H   0  0  0  0  0  0  0  0  0  0  0  0  # atno 10763 bound_to 10752
  153.5190  135.7029  153.5746 H   0  0  0  0  0  0  0  0  0  0  0  0  # atno 10764 bound_to 10752
  153.4002  135.3950  155.1948 H   0  0  0  0  0  0  0  0  0  0  0  0  # atno 10765 bound_to 10752
  140.5091  134.5819  157.5013 H   0  0  0  0  0  0  0  0  0  0  0  0  # atno 11005 bound_to 11000
  146.2803  139.6860  142.9234 LP  0  0  0  0  0  0  0  0  0  0  0  0  # atno 17320 bound_to 7965
  145.4455  141.0425  143.2833 LP  0  0  0  0  0  0  0  0  0  0  0  0  # atno 17321 bound_to 7965
  139.9473  144.6643  150.8207 LP  0  0  0  0  0  0  0  0  0  0  0  0  # atno 17342 bound_to 10162
  140.7627  143.3205  151.2633 LP  0  0  0  0  0  0  0  0  0  0  0  0  # atno 17343 bound_to 10162
  156.0208  130.3796  150.1968 LP  0  0  0  0  0  0  0  0  0  0  0  0  # atno 17370 bound_to 10713
  157.0158  130.9964  151.3353 LP  0  0  0  0  0  0  0  0  0  0  0  0  # atno 17371 bound_to 10713
  139.9669  134.7358  156.0120 LP  0  0  0  0  0  0  0  0  0  0  0  0  # atno 17394 bound_to 11000
  141.1395  133.6568  156.3689 LP  0  0  0  0  0  0  0  0  0  0  0  0  # atno 17395 bound_to 11000

$$$$
