#       Name:                AV-unprocessed.smi:3303
#       Creating user name   scv26
#       Creation time:       Fri Mar 27 19:03:01 2020


#       File generated by GOLD software.
#

@<TRIPOS>MOLECULE
AV-unprocessed.smi:3303
    46    47     1
SMALL
NO_CHARGES


@<TRIPOS>ATOM
      1 ****        -0.5564  -0.5368   2.5055 C.3            1 S1                 0.0000
      2 ****        -0.9868  -1.2797   1.2284 C.3            1 S1                 0.0000
      3 ****        -2.5161  -1.4754   1.2229 C.3            1 S1                 0.0000
      4 ****        -2.9888  -2.1961   0.0126 N.4            1 S1                 1.0000
      5 ****        -4.4344  -2.5121   0.1138 C.3            1 S1                 0.0000
      6 ****        -2.6077  -1.4819  -1.2417 C.3            1 S1                 0.0000
      7 ****        -3.0783  -2.2155  -2.5133 C.3            1 S1                 0.0000
      8 ****        -1.0798  -1.2888  -1.2933 C.3            1 S1                 0.0000
      9 ****        -0.5433  -0.5483  -0.0576 C.3            1 S1                 0.0000
     10 ****         0.9118  -0.5386  -0.1563 N.3            1 S1                 0.0000
     11 ****         1.4382   0.8143  -0.0601 C.3            1 S1                 0.0000
     12 ****         2.9692   0.7803  -0.1614 C.3            1 S1                 0.0000
     13 ****         3.5795   2.1663  -0.0788 C.ar           1 S1                 0.0000
     14 ****         4.1633   2.6271   1.1208 C.ar           1 S1                 0.0000
     15 ****         4.7148   3.9228   1.1436 C.ar           1 S1                 0.0000
     16 ****         4.6605   4.7041  -0.0268 C.ar           1 S1                 0.0000
     17 ****         4.0537   4.1529  -1.1730 C.ar           1 S1                 0.0000
     18 ****         3.5222   2.9116  -1.2057 N.ar           1 S1                 0.0000
     19 ****        -0.9584   0.4767   2.5306 H              1 S1                 0.0000
     20 ****         0.5289  -0.4663   2.5814 H              1 S1                 0.0000
     21 ****        -0.9067  -1.0556   3.3983 H              1 S1                 0.0000
     22 ****        -0.5244  -2.2684   1.2449 H              1 S1                 0.0000
     23 ****        -2.8058  -2.0391   2.1109 H              1 S1                 0.0000
     24 ****        -3.0206  -0.5096   1.2868 H              1 S1                 0.0000
     25 ****        -5.0399  -1.6097   0.0198 H              1 S1                 0.0000
     26 ****        -4.6641  -2.9753   1.0740 H              1 S1                 0.0000
     27 ****        -4.7445  -3.2203  -0.6539 H              1 S1                 0.0000
     28 ****        -3.0793  -0.4977  -1.2272 H              1 S1                 0.0000
     29 ****        -2.6995  -1.7219  -3.4087 H              1 S1                 0.0000
     30 ****        -4.1643  -2.2257  -2.6030 H              1 S1                 0.0000
     31 ****        -2.7255  -3.2472  -2.5331 H              1 S1                 0.0000
     32 ****        -0.5980  -2.2647  -1.3784 H              1 S1                 0.0000
     33 ****        -0.8101  -0.7339  -2.1932 H              1 S1                 0.0000
     34 ****        -0.9444   0.4672  -0.0568 H              1 S1                 0.0000
     35 ****         1.1961  -0.9396  -1.0388 H              1 S1                 0.0000
     36 ****         1.0234   1.4236  -0.8644 H              1 S1                 0.0000
     37 ****         1.1345   1.2650   0.8854 H              1 S1                 0.0000
     38 ****         3.3825   0.1590   0.6345 H              1 S1                 0.0000
     39 ****         3.2742   0.3186  -1.1020 H              1 S1                 0.0000
     40 ****         4.1894   2.0043   2.0030 H              1 S1                 0.0000
     41 ****         5.1709   4.3106   2.0425 H              1 S1                 0.0000
     42 ****         5.0729   5.7021  -0.0458 H              1 S1                 0.0000
     43 ****         3.9929   4.7242  -2.0875 H              1 S1                 0.0000
     44 ****        -2.5037  -3.0821   0.0011 H              1 S1                 0.0000
     45 ****         1.2755  -1.0786   0.6028 LP             1 S1                 0.0000
     46 ****         3.0990   2.5544  -2.0383 LP             1 S1                 0.0000
@<TRIPOS>BOND
    1    1    2 1     
    2    1   19 1     
    3    1   20 1     
    4    1   21 1     
    5    2    9 1     
    6    2    3 1     
    7    2   22 1     
    8    3    4 1     
    9    3   23 1     
   10    3   24 1     
   11    4    5 1     
   12    4    6 1     
   13    4   44 1     
   14    5   25 1     
   15    5   26 1     
   16    5   27 1     
   17    6    7 1     
   18    6    8 1     
   19    6   28 1     
   20    7   29 1     
   21    7   30 1     
   22    7   31 1     
   23    8    9 1     
   24    8   32 1     
   25    8   33 1     
   26    9   10 1     
   27    9   34 1     
   28   10   11 1     
   29   10   35 1     
   30   11   12 1     
   31   11   36 1     
   32   11   37 1     
   33   12   13 1     
   34   12   38 1     
   35   12   39 1     
   36   13   18 ar    
   37   13   14 ar    
   38   14   15 ar    
   39   14   40 1     
   40   15   16 ar    
   41   15   41 1     
   42   16   17 ar    
   43   16   42 1     
   44   17   18 ar    
   45   17   43 1     
   46   10   45 1     
   47   18   46 1     
@<TRIPOS>SUBSTRUCTURE
      1 S1             1
@<TRIPOS>SET
LONE_PAIRS      STATIC     ATOMS    <user>   **** ""
2 45 46
DONOR_HYDROGENS      STATIC     ATOMS    <user>   **** ""
2 44 35
ATOM$BLUE        STATIC     ATOMS    COLORGROUP SYSTEM
2 45 46
ATOM$RED        STATIC     ATOMS    COLORGROUP SYSTEM
2 44 35
