AV-unprocessed.smi:37|AV-procd|sdf|307|dock8
  -GOLD-   2262016123D 1   1.00000     0.00000
 Structure written by MMmdl.
 44 45  0  0  0  0  0  0  0  0  1 V2000
  153.2976  141.4596  160.1699 C   0  0  0  0  0  0  0  0  0  0  0  0
  153.4040  139.9450  160.4036 C   0  0  0  0  0  0  0  0  0  0  0  0
  152.9590  139.1075  159.2026 C   0  0  0  0  0  0  0  0  0  0  0  0
  153.5197  139.1729  158.1071 O   0  0  0  0  0  0  0  0  0  0  0  0
  151.9117  138.3220  159.4984 O   0  0  0  0  0  0  0  0  0  0  0  0
  151.3188  137.5333  158.4800 C   0  0  0  0  0  0  0  0  0  0  0  0
  149.8413  137.2935  158.8119 C   0  0  2  0  0  0  0  0  0  0  0  0
  149.6688  135.9791  159.3441 O   0  0  0  0  0  0  0  0  0  0  0  0
  148.5205  135.3852  158.8158 C   0  0  1  0  0  0  0  0  0  0  0  0
  147.6966  134.8162  159.9503 N   0  0  0  0  0  0  0  0  0  0  0  0
  147.5297  133.4428  160.0630 C   0  0  0  0  0  0  0  0  0  0  0  0
  146.8295  132.8626  161.0665 C   0  0  0  0  0  0  0  0  0  0  0  0
  146.7060  131.5249  161.1026 F   0  0  0  0  0  0  0  0  0  0  0  0
  146.2112  133.6755  162.1094 C   0  0  0  0  0  0  0  0  0  0  0  0
  145.5524  133.2437  163.0532 O   0  0  0  0  0  0  0  0  0  0  0  0
  146.4252  135.0500  161.9710 N   0  0  0  0  0  0  0  0  0  0  0  0
  147.1488  135.6603  160.9447 C   0  0  0  0  0  0  0  0  0  0  0  0
  147.2875  136.8824  160.9399 O   0  0  0  0  0  0  0  0  0  0  0  0
  147.7812  136.4532  158.0063 C   0  0  2  0  0  0  0  0  0  0  0  0
  146.8460  135.6684  156.4342 Br  0  0  0  0  0  0  0  0  0  0  0  0
  148.9247  137.3486  157.5841 C   0  0  1  0  0  0  0  0  0  0  0  0
  148.4291  138.6567  157.3311 O   0  0  0  0  0  0  0  0  0  0  0  0
  147.8316  138.9467  156.1615 C   0  0  0  0  0  0  0  0  0  0  0  0
  147.4924  138.1346  155.3007 O   0  0  0  0  0  0  0  0  0  0  0  0
  147.6044  140.4449  155.9743 C   0  0  0  0  0  0  0  0  0  0  0  0
  148.3746  141.0010  154.7690 C   0  0  0  0  0  0  0  0  0  0  0  0
  146.0269  135.6518  162.6773 H   0  0  0  0  0  0  0  0  0  0  0  0
  153.6160  142.0079  161.0564 H   0  0  0  0  0  0  0  0  0  0  0  0
  152.2716  141.7572  159.9499 H   0  0  0  0  0  0  0  0  0  0  0  0
  153.9287  141.7797  159.3400 H   0  0  0  0  0  0  0  0  0  0  0  0
  154.4341  139.6827  160.6458 H   0  0  0  0  0  0  0  0  0  0  0  0
  152.7968  139.6641  161.2645 H   0  0  0  0  0  0  0  0  0  0  0  0
  151.4025  138.0680  157.5333 H   0  0  0  0  0  0  0  0  0  0  0  0
  151.8470  136.5852  158.3693 H   0  0  0  0  0  0  0  0  0  0  0  0
  149.4935  138.0124  159.5555 H   0  0  0  0  0  0  0  0  0  0  0  0
  148.8389  134.5440  158.1986 H   0  0  0  0  0  0  0  0  0  0  0  0
  147.9678  132.7940  159.3178 H   0  0  0  0  0  0  0  0  0  0  0  0
  147.0541  136.9916  158.6133 H   0  0  0  0  0  0  0  0  0  0  0  0
  149.4241  136.9072  156.7199 H   0  0  0  0  0  0  0  0  0  0  0  0
  146.5365  140.6274  155.8526 H   0  0  0  0  0  0  0  0  0  0  0  0
  147.9130  140.9643  156.8819 H   0  0  0  0  0  0  0  0  0  0  0  0
  148.2271  142.0775  154.6832 H   0  0  0  0  0  0  0  0  0  0  0  0
  148.0396  140.5476  153.8355 H   0  0  0  0  0  0  0  0  0  0  0  0
  149.4460  140.8208  154.8655 H   0  0  0  0  0  0  0  0  0  0  0  0
  1  2  1  0  0  0  0
  1 28  1  0  0  0  0
  1 29  1  0  0  0  0
  1 30  1  0  0  0  0
  2  3  1  0  0  0  0
  2 31  1  0  0  0  0
  2 32  1  0  0  0  0
  3  4  2  0  0  0  0
  3  5  1  0  0  0  0
  5  6  1  0  0  0  0
  6  7  1  0  0  0  0
  6 33  1  0  0  0  0
  6 34  1  0  0  0  0
  7 21  1  0  0  0  0
  7  8  1  0  0  0  0
  7 35  1  0  0  0  0
  8  9  1  0  0  0  0
  9 10  1  0  0  0  0
  9 19  1  0  0  0  0
  9 36  1  0  0  0  0
 10 17  1  0  0  0  0
 10 11  1  0  0  0  0
 11 12  2  0  0  0  0
 11 37  1  0  0  0  0
 12 13  1  0  0  0  0
 12 14  1  0  0  0  0
 14 15  2  0  0  0  0
 14 16  1  0  0  0  0
 16 27  1  0  0  0  0
 16 17  1  0  0  0  0
 17 18  2  0  0  0  0
 19 20  1  0  0  0  0
 19 21  1  0  0  0  0
 19 38  1  0  0  0  0
 21 22  1  0  0  0  0
 21 39  1  0  0  0  0
 22 23  1  0  0  0  0
 23 24  2  0  0  0  0
 23 25  1  0  0  0  0
 25 26  1  0  0  0  0
 25 40  1  0  0  0  0
 25 41  1  0  0  0  0
 26 42  1  0  0  0  0
 26 43  1  0  0  0  0
 26 44  1  0  0  0  0
M  END
> <s_m_source_file>
AV-unprocessed.smi

> <i_m_source_file_index>
37

> <i_lp_mmshare_version>
43012

> <i_f3d_flags>
0

> <s_epik_input>
W0NIM11bQ0gyXUMoPU8pT1tDSDJdW0NAQEhdMU9bQ0BASF0objJbY0hdYyhGKWMoPU8pW25IXWMyPU8pW0NAQEhdKEJyKVtDQEhdMU9DKD1PKVtDSDJdW0NIM10=

> <s_epik_cmdline>
J2VwaWtfcHl0aG9uJywgJy1waCcsICc3LjAnLCAnLXRuJywgJzgnLCAnLW1hJywgJzIwMCcsICctbWV0YWxfYmluZGluZycsICctaW1hZScsICc8aW5maWxlLm1hZT4nLCAnLW9tYWUnLCAnPG91dGZpbGUubWFlPic=

> <r_lp_tautomer_probability>
0.999537

> <r_epik_Ionization_Penalty>
0.104106

> <r_epik_Ionization_Penalty_Charging>
0.104106

> <r_epik_Ionization_Penalty_Neutral>
3.94675e-16

> <r_epik_State_Penalty>
0.0940182

> <r_epik_Charging_Adjusted_Penalty>
0.198124

> <i_epik_Tot_Q>
0

> <i_epik_Tot_abs_Q>
0

> <r_epik_Metal_State_Penalty>
3.05314

> <b_epik_Metal_Only>
0

> <s_epik_Chemistry_Notes>
This compound has an ester and may undergo hydrolysis at high or low pH. This compound contains an acetal/aminal-like group ( X-CH(R)-Y where X, Y are N, S, or O) that may be acid/base labile, releasing an aldehyde.

> <s_lp_Force_Field>
OPLS_2005

> <r_lp_Energy>
20.0289

> <b_lp_Chiralities_Consistent>
1

> <s_lp_Variant>
AV-unprocessed.smi:37-5

> <Gold.Version>
5.8.1

> <Gold.Id.Protein>
6NUR|6NUR_protein|mol2

> <Gold.PLP.Fitness>
43.0724

> <Gold.PLP.PLP>
-33.6628

> <Gold.PLP.part.hbond>
-4.9942

> <Gold.PLP.part.metal>
0.0000

> <Gold.PLP.part.buried>
-5.3384

> <Gold.PLP.part.nonpolar>
-24.9502

> <Gold.PLP.part.repulsive>
0.1892

> <Gold.PLP.ligand.clash>
0.0000

> <Gold.PLP.ligand.torsion>
1.0495

> <Gold.PLP.Chemscore.Hbond>
3.7760

> <Gold.PLP.Chemscore.CHOScore>
0.0000

> <Gold.PLP.Chemscore.Metal>
0.0000

> <Gold.Chemscore.Hbonds>
donor molecule, donor type, donor heavy atom, donor atom, acceptor molecule, acceptor atom, score
      P1  H  6896  6907       L1     8  1.00
      P1  H  6931  6943       L1    18  0.03
      P1  H  6934  6947       L1    18  0.71
      P1  H  7997  8008       L1     4  1.00

> <Gold.PLP.Chemscore.Internal.Correction>
0.1807

> <Gold.Rescore>
     Score         DG    S(hbond)    S(metal)    S(lipo)     H(rot)  DE(clash)    DE(int)     intcor
     11.53     -14.89       3.64        0.00      49.46       3.33       0.22       3.14       ----

> <Gold.Chemscore.Fitness>
11.5287

> <Gold.Chemscore.DG>
-14.8875

> <Gold.Chemscore.ZeroCoef>
-5.4800

> <Gold.Chemscore.Hbond>
3.6365

> <Gold.Chemscore.Metal>
0.0000

> <Gold.Chemscore.Lipo>
49.4625

> <Gold.Chemscore.Internal_Hbond>
0.0000

> <Gold.Chemscore.DEClash>
0.2186

> <Gold.Chemscore.DEInternal>
3.1402

> <Gold.Chemscore.Rot>
3.3303

> <Gold.Chemscore.Internal.Correction>
   9.000000E+99

> <Gold.Chemscore.Hbonds>
donor molecule, donor type, donor heavy atom, donor atom, acceptor molecule, acceptor atom, score
      P1  H  6896  6907       L1     8  0.82
      P1  H  6931  6943       L1    18  0.08
      P1  H  6934  6947       L1    18  0.72
      P1  H  7997  8008       L1     4  0.96

> <Gold.Chemscore.Hbond.Weighted>
-12.1460

> <Gold.Chemscore.Metal.Weighted>
-0.0000

> <Gold.Chemscore.Lipo.Weighted>
-5.7871

> <Gold.Chemscore.Internal_Hbond.Weighted>
0.0000

> <Gold.Chemscore.DEClash.Weighted>
0.2186

> <Gold.Chemscore.DEInternal.Weighted>
3.1402

> <Gold.Chemscore.Rot.Weighted>
8.5256

> <Gold.Chemscore.Internal.Correction.Weighted>
   9.000000E+99

> <Gold.Protein.RotatedTorsions>
[ 6907 6896 6895 6894 ] final  -49.14 input  -60.11 | X-H torsion
[ 7974 7965 7964 7962 ] final -138.05 input  175.53 | X-H torsion
[ 8008 7997 7996 7995 ] final -108.22 input   59.86 | X-H torsion
[ 10167 10162 10161 10158 ] final  172.66 input  -65.29 | X-H torsion
[ 10718 10713 10712 10709 ] final  110.80 input   66.30 | X-H torsion
[ 10763 10752 10751 10750 ] final   93.03 input  -60.55 | X-H torsion
[ 11005 11000 10999 10996 ] final   17.84 input  -57.11 | X-H torsion

> <Gold.Protein.ActiveResidues>
 VAL166  LYS551  ARG553  GLY616  TRP617  ASP618  TYR619  PRO620  LYS621  CYS622 
 ASP623  PHE694  ASN695  SER759  ASP760  ASP761  ALA762  ILE779  LEU786  VAL792 
 PHE793  MET794  SER795  GLU796  ALA797  LYS798  CYS799  TRP800  GLU811  SER814 

> <Gold.Protein.RotatedAtoms>
  150.8835  134.8229  159.7241 H   0  0  0  0  0  0  0  0  0  0  0  0  # atno 6907 bound_to 6896
  152.4793  134.4759  159.9660 H   0  0  0  0  0  0  0  0  0  0  0  0  # atno 6908 bound_to 6896
  151.4831  133.3503  159.2877 H   0  0  0  0  0  0  0  0  0  0  0  0  # atno 6909 bound_to 6896
  144.8791  140.6480  143.5218 H   0  0  0  0  0  0  0  0  0  0  0  0  # atno 7974 bound_to 7965
  154.9410  140.0403  157.2096 H   0  0  0  0  0  0  0  0  0  0  0  0  # atno 8008 bound_to 7997
  154.8069  140.2861  155.5859 H   0  0  0  0  0  0  0  0  0  0  0  0  # atno 8009 bound_to 7997
  156.2967  140.2544  156.2949 H   0  0  0  0  0  0  0  0  0  0  0  0  # atno 8010 bound_to 7997
  139.5083  144.3348  152.0076 H   0  0  0  0  0  0  0  0  0  0  0  0  # atno 10167 bound_to 10162
  157.6476  131.0939  150.6655 H   0  0  0  0  0  0  0  0  0  0  0  0  # atno 10718 bound_to 10713
  153.2258  135.4340  155.0540 H   0  0  0  0  0  0  0  0  0  0  0  0  # atno 10763 bound_to 10752
  154.8272  135.3367  154.6860 H   0  0  0  0  0  0  0  0  0  0  0  0  # atno 10764 bound_to 10752
  153.7289  135.7012  153.5050 H   0  0  0  0  0  0  0  0  0  0  0  0  # atno 10765 bound_to 10752
  140.4315  134.1415  155.7681 H   0  0  0  0  0  0  0  0  0  0  0  0  # atno 11005 bound_to 11000
  145.3988  139.1602  143.4189 LP  0  0  0  0  0  0  0  0  0  0  0  0  # atno 17320 bound_to 7965
  146.2982  140.4083  142.8714 LP  0  0  0  0  0  0  0  0  0  0  0  0  # atno 17321 bound_to 7965
  140.2787  144.3883  150.6126 LP  0  0  0  0  0  0  0  0  0  0  0  0  # atno 17342 bound_to 10162
  140.6034  143.2167  151.7028 LP  0  0  0  0  0  0  0  0  0  0  0  0  # atno 17343 bound_to 10162
  156.6970  130.4612  149.5583 LP  0  0  0  0  0  0  0  0  0  0  0  0  # atno 17370 bound_to 10713
  156.1822  130.6506  151.0964 LP  0  0  0  0  0  0  0  0  0  0  0  0  # atno 17371 bound_to 10713
  141.1743  133.8545  157.1470 LP  0  0  0  0  0  0  0  0  0  0  0  0  # atno 17394 bound_to 11000
  140.0131  134.9979  157.0437 LP  0  0  0  0  0  0  0  0  0  0  0  0  # atno 17395 bound_to 11000

$$$$
