AV-unprocessed.smi:958|AV-procd|sdf|4268|dock4
  -GOLD-   22720 2173D 1   1.00000     0.00000
 Structure written by MMmdl.
 31 33  0  0  0  0  0  0  0  0  2 V2000
  153.0800  140.5388  158.9558 C   0  0  0  0  0  0  0  0  0  0  0  0
  153.2453  139.5225  158.1114 N   0  0  0  0  0  0  0  0  0  0  0  0
  152.3294  139.7544  157.1064 N   0  0  0  0  0  0  0  0  0  0  0  0
  151.6935  140.8832  157.4469 C   0  0  0  0  0  0  0  0  0  0  0  0
  150.5926  141.4918  156.6239 C   0  0  1  0  0  0  0  0  0  0  0  0
  150.3258  140.6889  155.3362 C   0  0  0  0  0  0  0  0  0  0  0  0
  149.1943  141.3366  154.5234 C   0  0  0  0  0  0  0  0  0  0  0  0
  147.9311  141.5119  155.3828 C   0  0  0  0  0  0  0  0  0  0  0  0
  148.2330  142.2867  156.6062 N   0  3  0  0  0  0  0  0  0  0  0  0
  149.2932  141.6716  157.4354 C   0  0  0  0  0  0  0  0  0  0  0  0
  152.1491  141.4355  158.5923 N   0  0  0  0  0  0  0  0  0  0  0  0
  151.7121  142.6248  159.3047 C   0  0  0  0  0  0  0  0  0  0  0  0
  152.7394  143.7326  159.3585 C   0  0  0  0  0  0  0  0  0  0  0  0
  152.4541  142.9057  160.5923 C   0  0  0  0  0  0  0  0  0  0  0  0
  153.6571  140.6334  159.8641 H   0  0  0  0  0  0  0  0  0  0  0  0
  150.9090  142.4897  156.3204 H   0  0  0  0  0  0  0  0  0  0  0  0
  151.2315  140.6311  154.7317 H   0  0  0  0  0  0  0  0  0  0  0  0
  150.0523  139.6627  155.5857 H   0  0  0  0  0  0  0  0  0  0  0  0
  149.5220  142.3075  154.1493 H   0  0  0  0  0  0  0  0  0  0  0  0
  148.9688  140.7275  153.6473 H   0  0  0  0  0  0  0  0  0  0  0  0
  147.1569  142.0295  154.8159 H   0  0  0  0  0  0  0  0  0  0  0  0
  147.5249  140.5391  155.6635 H   0  0  0  0  0  0  0  0  0  0  0  0
  148.5353  143.2111  156.3337 H   0  0  0  0  0  0  0  0  0  0  0  0
  148.9358  140.7116  157.8107 H   0  0  0  0  0  0  0  0  0  0  0  0
  149.4727  142.3066  158.3035 H   0  0  0  0  0  0  0  0  0  0  0  0
  150.6505  142.8407  159.2023 H   0  0  0  0  0  0  0  0  0  0  0  0
  153.6944  143.5749  158.8605 H   0  0  0  0  0  0  0  0  0  0  0  0
  152.3727  144.7568  159.3461 H   0  0  0  0  0  0  0  0  0  0  0  0
  151.8979  143.3834  161.3963 H   0  0  0  0  0  0  0  0  0  0  0  0
  153.2279  142.2106  160.9133 H   0  0  0  0  0  0  0  0  0  0  0  0
  147.3913  142.3690  157.1586 H   0  0  0  0  0  0  0  0  0  0  0  0
  1 11  1  0  0  0  0
  1  2  2  0  0  0  0
  1 15  1  0  0  0  0
  2  3  1  0  0  0  0
  3  4  2  0  0  0  0
  4  5  1  0  0  0  0
  4 11  1  0  0  0  0
  5 10  1  0  0  0  0
  5  6  1  0  0  0  0
  5 16  1  0  0  0  0
  6  7  1  0  0  0  0
  6 17  1  0  0  0  0
  6 18  1  0  0  0  0
  7  8  1  0  0  0  0
  7 19  1  0  0  0  0
  7 20  1  0  0  0  0
  8  9  1  0  0  0  0
  8 21  1  0  0  0  0
  8 22  1  0  0  0  0
  9 10  1  0  0  0  0
  9 23  1  0  0  0  0
  9 31  1  0  0  0  0
 10 24  1  0  0  0  0
 10 25  1  0  0  0  0
 11 12  1  0  0  0  0
 12 14  1  0  0  0  0
 12 13  1  0  0  0  0
 12 26  1  0  0  0  0
 13 14  1  0  0  0  0
 13 27  1  0  0  0  0
 13 28  1  0  0  0  0
 14 29  1  0  0  0  0
 14 30  1  0  0  0  0
M  CHG  1   9   1
M  END
> <s_m_source_file>
AV-unprocessed.smi

> <i_m_source_file_index>
958

> <i_lp_mmshare_version>
43012

> <i_f3d_flags>
0

> <s_epik_input>
W0NIMl0xW0NIMl1bQ0hdMW4yW2NIXW5uYzJbQ0BASF0zW0NIMl1bQ0gyXVtDSDJdW05IXVtDSDJdMw==

> <s_epik_cmdline>
J2VwaWtfcHl0aG9uJywgJy1waCcsICc3LjAnLCAnLXRuJywgJzgnLCAnLW1hJywgJzIwMCcsICctbWV0YWxfYmluZGluZycsICctaW1hZScsICc8aW5maWxlLm1hZT4nLCAnLW9tYWUnLCAnPG91dGZpbGUubWFlPic=

> <r_lp_tautomer_probability>
1

> <r_epik_Ionization_Penalty>
0.000442722

> <r_epik_Ionization_Penalty_Charging>
0.000426856

> <r_epik_Ionization_Penalty_Neutral>
1.58656e-05

> <r_epik_State_Penalty>
-0

> <r_epik_Charging_Adjusted_Penalty>
0.000426856

> <i_epik_Tot_Q>
1

> <i_epik_Tot_abs_Q>
1

> <r_epik_Metal_State_Penalty>
-0

> <b_epik_Metal_Only>
0

> <s_lp_Force_Field>
OPLS_2005

> <r_lp_Energy>
27.2192

> <b_lp_Chiralities_Consistent>
1

> <s_lp_Variant>
AV-unprocessed.smi:958-2

> <Gold.Version>
5.8.1

> <Gold.Id.Protein>
6NUR|6NUR_protein|mol2

> <Gold.PLP.Fitness>
38.5445

> <Gold.PLP.PLP>
-29.6034

> <Gold.PLP.part.hbond>
-3.0000

> <Gold.PLP.part.metal>
0.0000

> <Gold.PLP.part.buried>
-1.4129

> <Gold.PLP.part.nonpolar>
-24.7608

> <Gold.PLP.part.repulsive>
0.0032

> <Gold.PLP.ligand.clash>
0.0000

> <Gold.PLP.ligand.torsion>
0.0767

> <Gold.PLP.Chemscore.Hbond>
3.0000

> <Gold.PLP.Chemscore.CHOScore>
0.0000

> <Gold.PLP.Chemscore.Metal>
0.0000

> <Gold.Chemscore.Hbonds>
donor molecule, donor type, donor heavy atom, donor atom, acceptor molecule, acceptor atom, score
      L1  H     9    23       P1  8028  2.00
      P1  H  7997  8009       L1     2  0.94

> <Gold.PLP.Chemscore.Internal.Correction>
0.0943

> <Gold.Rescore>
     Score         DG    S(hbond)    S(metal)    S(lipo)     H(rot)  DE(clash)    DE(int)     intcor
     13.85     -14.01       1.07        0.00      69.71       1.25       0.06       0.10       ----

> <Gold.Chemscore.Fitness>
13.8505

> <Gold.Chemscore.DG>
-14.0132

> <Gold.Chemscore.ZeroCoef>
-5.4800

> <Gold.Chemscore.Hbond>
1.0704

> <Gold.Chemscore.Metal>
0.0000

> <Gold.Chemscore.Lipo>
69.7065

> <Gold.Chemscore.Internal_Hbond>
0.0000

> <Gold.Chemscore.DEClash>
0.0618

> <Gold.Chemscore.DEInternal>
0.1009

> <Gold.Chemscore.Rot>
1.2491

> <Gold.Chemscore.Internal.Correction>
   9.000000E+99

> <Gold.Chemscore.Hbonds>
donor molecule, donor type, donor heavy atom, donor atom, acceptor molecule, acceptor atom, score
      L1  H     9    23       P1  8028  0.85
      P1  H  7997  8009       L1     2  0.07

> <Gold.Chemscore.Hbond.Weighted>
-3.5752

> <Gold.Chemscore.Metal.Weighted>
-0.0000

> <Gold.Chemscore.Lipo.Weighted>
-8.1557

> <Gold.Chemscore.Internal_Hbond.Weighted>
0.0000

> <Gold.Chemscore.DEClash.Weighted>
0.0618

> <Gold.Chemscore.DEInternal.Weighted>
0.1009

> <Gold.Chemscore.Rot.Weighted>
3.1977

> <Gold.Chemscore.Internal.Correction.Weighted>
   9.000000E+99

> <Gold.Protein.RotatedTorsions>
[ 6907 6896 6895 6894 ] final   62.55 input  -60.11 | X-H torsion
[ 7974 7965 7964 7962 ] final   51.22 input  175.53 | X-H torsion
[ 8008 7997 7996 7995 ] final  136.44 input   59.86 | X-H torsion
[ 10167 10162 10161 10158 ] final   27.76 input  -65.29 | X-H torsion
[ 10718 10713 10712 10709 ] final   13.44 input   66.30 | X-H torsion
[ 10763 10752 10751 10750 ] final -151.86 input  -60.55 | X-H torsion
[ 11005 11000 10999 10996 ] final  -42.06 input  -57.11 | X-H torsion

> <Gold.Protein.ActiveResidues>
 VAL166  LYS551  ARG553  GLY616  TRP617  ASP618  TYR619  PRO620  LYS621  CYS622 
 ASP623  PHE694  ASN695  SER759  ASP760  ASP761  ALA762  ILE779  LEU786  VAL792 
 PHE793  MET794  SER795  GLU796  ALA797  LYS798  CYS799  TRP800  GLU811  SER814 

> <Gold.Protein.RotatedAtoms>
  152.4182  134.6004  159.9998 H   0  0  0  0  0  0  0  0  0  0  0  0  # atno 6907 bound_to 6896
  151.6161  133.3337  159.3086 H   0  0  0  0  0  0  0  0  0  0  0  0  # atno 6908 bound_to 6896
  150.8070  134.7240  159.6719 H   0  0  0  0  0  0  0  0  0  0  0  0  # atno 6909 bound_to 6896
  145.9935  139.4364  143.0059 H   0  0  0  0  0  0  0  0  0  0  0  0  # atno 7974 bound_to 7965
  156.3004  140.2445  156.3746 H   0  0  0  0  0  0  0  0  0  0  0  0  # atno 8008 bound_to 7997
  154.8757  140.0414  157.1771 H   0  0  0  0  0  0  0  0  0  0  0  0  # atno 8009 bound_to 7997
  154.8748  140.2940  155.5463 H   0  0  0  0  0  0  0  0  0  0  0  0  # atno 8010 bound_to 7997
  140.4910  144.0466  150.6297 H   0  0  0  0  0  0  0  0  0  0  0  0  # atno 10167 bound_to 10162
  157.0246  130.6168  149.5726 H   0  0  0  0  0  0  0  0  0  0  0  0  # atno 10718 bound_to 10713
  154.8031  135.3250  154.7499 H   0  0  0  0  0  0  0  0  0  0  0  0  # atno 10763 bound_to 10752
  153.8163  135.6891  153.4838 H   0  0  0  0  0  0  0  0  0  0  0  0  # atno 10764 bound_to 10752
  153.1760  135.4605  154.9909 H   0  0  0  0  0  0  0  0  0  0  0  0  # atno 10765 bound_to 10752
  141.0289  133.6829  156.2543 H   0  0  0  0  0  0  0  0  0  0  0  0  # atno 11005 bound_to 11000
  145.7594  140.9941  143.1208 LP  0  0  0  0  0  0  0  0  0  0  0  0  # atno 17320 bound_to 7965
  144.6896  139.9312  143.7472 LP  0  0  0  0  0  0  0  0  0  0  0  0  # atno 17321 bound_to 7965
  140.3735  143.2841  152.0251 LP  0  0  0  0  0  0  0  0  0  0  0  0  # atno 17342 bound_to 10162
  139.4851  144.6211  151.7254 LP  0  0  0  0  0  0  0  0  0  0  0  0  # atno 17343 bound_to 10162
  156.0090  130.5180  150.7927 LP  0  0  0  0  0  0  0  0  0  0  0  0  # atno 17370 bound_to 10713
  157.5223  131.0932  151.0062 LP  0  0  0  0  0  0  0  0  0  0  0  0  # atno 17371 bound_to 10713
  140.6441  134.5135  157.5572 LP  0  0  0  0  0  0  0  0  0  0  0  0  # atno 17394 bound_to 11000
  139.9195  134.8178  156.1258 LP  0  0  0  0  0  0  0  0  0  0  0  0  # atno 17395 bound_to 11000

$$$$
