AV-unprocessed.smi:3249|AV-procd|sdf|12417|dock8
  -GOLD-   2272018303D 1   1.00000     0.00000
 Structure written by MMmdl.
 44 45  0  0  0  0  0  0  0  0  2 V2000
  151.8696  142.3955  158.6348 C   0  0  0  0  0  0  0  0  0  0  0  0
  151.5886  141.5924  157.3974 C   0  0  0  0  0  0  0  0  0  0  0  0
  152.2619  140.4239  156.9413 C   0  0  0  0  0  0  0  0  0  0  0  0
  151.7639  139.9524  155.8101 N   0  0  0  0  0  0  0  0  0  0  0  0
  150.7591  140.7997  155.5006 N   0  0  0  0  0  0  0  0  0  0  0  0
  149.9646  140.5701  154.3001 C   0  0  2  0  0  0  0  0  0  0  0  0
  148.7817  141.5557  154.2598 C   0  0  0  0  0  0  0  0  0  0  0  0
  149.5132  139.0913  154.1743 C   0  0  2  0  0  0  0  0  0  0  0  0
  150.6938  138.1148  153.9872 C   0  0  0  0  0  0  0  0  0  0  0  0
  148.5609  138.9558  153.0484 N   0  3  0  0  0  0  0  0  0  0  0  0
  147.1427  139.1992  153.3868 C   0  0  0  0  0  0  0  0  0  0  0  0
  146.2225  138.2403  152.6186 C   0  0  2  0  0  0  0  0  0  0  0  0
  146.2265  136.8263  153.2319 C   0  0  0  0  0  0  0  0  0  0  0  0
  145.3812  135.8679  152.3853 C   0  0  0  0  0  0  0  0  0  0  0  0
  145.8488  135.9192  150.9272 C   0  0  0  0  0  0  0  0  0  0  0  0
  145.8724  137.3715  150.4256 C   0  0  0  0  0  0  0  0  0  0  0  0
  146.6959  138.1648  151.2752 O   0  0  0  0  0  0  0  0  0  0  0  0
  150.6313  141.7988  156.4451 C   0  0  0  0  0  0  0  0  0  0  0  0
  152.8631  142.1904  159.0340 H   0  0  0  0  0  0  0  0  0  0  0  0
  151.1535  142.1758  159.4267 H   0  0  0  0  0  0  0  0  0  0  0  0
  151.8173  143.4672  158.4412 H   0  0  0  0  0  0  0  0  0  0  0  0
  153.0925  139.9058  157.3979 H   0  0  0  0  0  0  0  0  0  0  0  0
  150.6036  140.7962  153.4436 H   0  0  0  0  0  0  0  0  0  0  0  0
  148.2311  141.4841  153.3218 H   0  0  0  0  0  0  0  0  0  0  0  0
  149.1294  142.5852  154.3520 H   0  0  0  0  0  0  0  0  0  0  0  0
  148.0778  141.3701  155.0717 H   0  0  0  0  0  0  0  0  0  0  0  0
  148.9936  138.8230  155.0957 H   0  0  0  0  0  0  0  0  0  0  0  0
  151.3684  138.1258  154.8434 H   0  0  0  0  0  0  0  0  0  0  0  0
  151.2780  138.3695  153.1025 H   0  0  0  0  0  0  0  0  0  0  0  0
  150.3564  137.0852  153.8739 H   0  0  0  0  0  0  0  0  0  0  0  0
  148.8202  139.6306  152.3430 H   0  0  0  0  0  0  0  0  0  0  0  0
  146.9798  139.0881  154.4587 H   0  0  0  0  0  0  0  0  0  0  0  0
  146.8980  140.2308  153.1304 H   0  0  0  0  0  0  0  0  0  0  0  0
  145.2049  138.6358  152.6257 H   0  0  0  0  0  0  0  0  0  0  0  0
  147.2498  136.4526  153.2899 H   0  0  0  0  0  0  0  0  0  0  0  0
  145.8459  136.8542  154.2533 H   0  0  0  0  0  0  0  0  0  0  0  0
  145.4541  134.8515  152.7726 H   0  0  0  0  0  0  0  0  0  0  0  0
  144.3299  136.1527  152.4449 H   0  0  0  0  0  0  0  0  0  0  0  0
  146.8487  135.4907  150.8476 H   0  0  0  0  0  0  0  0  0  0  0  0
  145.1971  135.3117  150.2986 H   0  0  0  0  0  0  0  0  0  0  0  0
  146.2718  137.4107  149.4122 H   0  0  0  0  0  0  0  0  0  0  0  0
  144.8643  137.7871  150.3865 H   0  0  0  0  0  0  0  0  0  0  0  0
  149.8747  142.5655  156.3646 H   0  0  0  0  0  0  0  0  0  0  0  0
  148.6543  138.0307  152.6532 H   0  0  0  0  0  0  0  0  0  0  0  0
  1  2  1  0  0  0  0
  1 19  1  0  0  0  0
  1 20  1  0  0  0  0
  1 21  1  0  0  0  0
  2 18  2  0  0  0  0
  2  3  1  0  0  0  0
  3  4  2  0  0  0  0
  3 22  1  0  0  0  0
  4  5  1  0  0  0  0
  5  6  1  0  0  0  0
  5 18  1  0  0  0  0
  6  7  1  0  0  0  0
  6  8  1  0  0  0  0
  6 23  1  0  0  0  0
  7 24  1  0  0  0  0
  7 25  1  0  0  0  0
  7 26  1  0  0  0  0
  8  9  1  0  0  0  0
  8 10  1  0  0  0  0
  8 27  1  0  0  0  0
  9 28  1  0  0  0  0
  9 29  1  0  0  0  0
  9 30  1  0  0  0  0
 10 11  1  0  0  0  0
 10 31  1  0  0  0  0
 10 44  1  0  0  0  0
 11 12  1  0  0  0  0
 11 32  1  0  0  0  0
 11 33  1  0  0  0  0
 12 17  1  0  0  0  0
 12 13  1  0  0  0  0
 12 34  1  0  0  0  0
 13 14  1  0  0  0  0
 13 35  1  0  0  0  0
 13 36  1  0  0  0  0
 14 15  1  0  0  0  0
 14 37  1  0  0  0  0
 14 38  1  0  0  0  0
 15 16  1  0  0  0  0
 15 39  1  0  0  0  0
 15 40  1  0  0  0  0
 16 17  1  0  0  0  0
 16 41  1  0  0  0  0
 16 42  1  0  0  0  0
 18 43  1  0  0  0  0
M  CHG  1  10   1
M  END
> <s_m_source_file>
AV-unprocessed.smi

> <i_m_source_file_index>
3249

> <i_lp_mmshare_version>
43012

> <i_f3d_flags>
0

> <s_epik_input>
W0NIM11jMVtjSF1ubihbY0hdMSlbQ0BIXShbQ0gzXSlbQ0BIXShbQ0gzXSlbTkhdW0NIMl1bQ0BASF0yW0NIMl1bQ0gyXVtDSDJdW0NIMl1PMg==

> <s_epik_cmdline>
J2VwaWtfcHl0aG9uJywgJy1waCcsICc3LjAnLCAnLXRuJywgJzgnLCAnLW1hJywgJzIwMCcsICctbWV0YWxfYmluZGluZycsICctaW1hZScsICc8aW5maWxlLm1hZT4nLCAnLW9tYWUnLCAnPG91dGZpbGUubWFlPic=

> <r_lp_tautomer_probability>
1

> <r_epik_Ionization_Penalty>
0.00659207

> <r_epik_Ionization_Penalty_Charging>
0.00656881

> <r_epik_Ionization_Penalty_Neutral>
2.32662e-05

> <r_epik_State_Penalty>
0.0048654

> <r_epik_Charging_Adjusted_Penalty>
0.0114342

> <i_epik_Tot_Q>
1

> <i_epik_Tot_abs_Q>
1

> <r_epik_Metal_State_Penalty>
-0

> <b_epik_Metal_Only>
0

> <s_lp_Force_Field>
OPLS_2005

> <r_lp_Energy>
18.0263

> <b_lp_Chiralities_Consistent>
1

> <s_lp_Variant>
AV-unprocessed.smi:3249-1

> <Gold.Version>
5.8.1

> <Gold.Id.Protein>
6NUR|6NUR_protein|mol2

> <Gold.PLP.Fitness>
42.8386

> <Gold.PLP.PLP>
-32.0721

> <Gold.PLP.part.hbond>
-2.8675

> <Gold.PLP.part.metal>
0.0000

> <Gold.PLP.part.buried>
4.9773

> <Gold.PLP.part.nonpolar>
-34.6531

> <Gold.PLP.part.repulsive>
1.2591

> <Gold.PLP.ligand.clash>
0.0000

> <Gold.PLP.ligand.torsion>
1.0241

> <Gold.PLP.Chemscore.Hbond>
3.2500

> <Gold.PLP.Chemscore.CHOScore>
1.0000

> <Gold.PLP.Chemscore.Metal>
0.0000

> <Gold.Chemscore.Hbonds>
donor molecule, donor type, donor heavy atom, donor atom, acceptor molecule, acceptor atom, score
      L1  H    10    31       P1  7957  0.86
      L1  H    10    44       P1  7948  2.00
      P1  H  7954  7966       L1    17  0.30
      L1  C    18    43       P1  8028  1.00

> <Gold.PLP.Chemscore.Internal.Correction>
0.0647

> <Gold.Rescore>
     Score         DG    S(hbond)    S(metal)    S(lipo)     H(rot)  DE(clash)    DE(int)     intcor
     13.04     -19.66       1.96        0.00      98.69       1.53       2.59       4.02       ----

> <Gold.Chemscore.Fitness>
13.0434

> <Gold.Chemscore.DG>
-19.6588

> <Gold.Chemscore.ZeroCoef>
-5.4800

> <Gold.Chemscore.Hbond>
1.9634

> <Gold.Chemscore.Metal>
0.0000

> <Gold.Chemscore.Lipo>
98.6868

> <Gold.Chemscore.Internal_Hbond>
0.0000

> <Gold.Chemscore.DEClash>
2.5927

> <Gold.Chemscore.DEInternal>
4.0226

> <Gold.Chemscore.Rot>
1.5333

> <Gold.Chemscore.Internal.Correction>
   9.000000E+99

> <Gold.Chemscore.Hbonds>
donor molecule, donor type, donor heavy atom, donor atom, acceptor molecule, acceptor atom, score
      L1  H    10    31       P1  7957  0.80
      L1  H    10    44       P1  7948  0.99

> <Gold.Chemscore.Hbond.Weighted>
-6.5576

> <Gold.Chemscore.Metal.Weighted>
-0.0000

> <Gold.Chemscore.Lipo.Weighted>
-11.5464

> <Gold.Chemscore.Internal_Hbond.Weighted>
0.0000

> <Gold.Chemscore.DEClash.Weighted>
2.5927

> <Gold.Chemscore.DEInternal.Weighted>
4.0226

> <Gold.Chemscore.Rot.Weighted>
3.9252

> <Gold.Chemscore.Internal.Correction.Weighted>
   9.000000E+99

> <Gold.Protein.RotatedTorsions>
[ 6907 6896 6895 6894 ] final   90.81 input  -60.11 | X-H torsion
[ 7974 7965 7964 7962 ] final   26.10 input  175.53 | X-H torsion
[ 8008 7997 7996 7995 ] final   13.05 input   59.86 | X-H torsion
[ 10167 10162 10161 10158 ] final   47.14 input  -65.29 | X-H torsion
[ 10718 10713 10712 10709 ] final  -91.26 input   66.30 | X-H torsion
[ 10763 10752 10751 10750 ] final  -85.89 input  -60.55 | X-H torsion
[ 11005 11000 10999 10996 ] final  135.25 input  -57.11 | X-H torsion

> <Gold.Protein.ActiveResidues>
 VAL166  LYS551  ARG553  GLY616  TRP617  ASP618  TYR619  PRO620  LYS621  CYS622 
 ASP623  PHE694  ASN695  SER759  ASP760  ASP761  ALA762  ILE779  LEU786  VAL792 
 PHE793  MET794  SER795  GLU796  ALA797  LYS798  CYS799  TRP800  GLU811  SER814 

> <Gold.Protein.RotatedAtoms>
  152.5447  134.1754  159.8613 H   0  0  0  0  0  0  0  0  0  0  0  0  # atno 6907 bound_to 6896
  151.1761  133.4747  159.2601 H   0  0  0  0  0  0  0  0  0  0  0  0  # atno 6908 bound_to 6896
  151.1226  135.0099  159.8600 H   0  0  0  0  0  0  0  0  0  0  0  0  # atno 6909 bound_to 6896
  146.1855  139.7374  142.8870 H   0  0  0  0  0  0  0  0  0  0  0  0  # atno 7974 bound_to 7965
  154.8291  140.2896  155.5734 H   0  0  0  0  0  0  0  0  0  0  0  0  # atno 8008 bound_to 7997
  156.3004  140.2535  156.3143 H   0  0  0  0  0  0  0  0  0  0  0  0  # atno 8009 bound_to 7997
  154.9252  140.0385  157.2008 H   0  0  0  0  0  0  0  0  0  0  0  0  # atno 8010 bound_to 7997
  140.3067  144.2869  150.6208 H   0  0  0  0  0  0  0  0  0  0  0  0  # atno 10167 bound_to 10162
  155.9992  130.4941  150.5448 H   0  0  0  0  0  0  0  0  0  0  0  0  # atno 10718 bound_to 10713
  154.6162  135.5469  153.7526 H   0  0  0  0  0  0  0  0  0  0  0  0  # atno 10763 bound_to 10752
  153.0217  135.6401  154.1506 H   0  0  0  0  0  0  0  0  0  0  0  0  # atno 10764 bound_to 10752
  154.1443  135.2906  155.3132 H   0  0  0  0  0  0  0  0  0  0  0  0  # atno 10765 bound_to 10752
  139.9967  134.9494  156.9981 H   0  0  0  0  0  0  0  0  0  0  0  0  # atno 11005 bound_to 11000
  145.3952  141.0378  143.3101 LP  0  0  0  0  0  0  0  0  0  0  0  0  # atno 17320 bound_to 7965
  144.8389  139.5504  143.6909 LP  0  0  0  0  0  0  0  0  0  0  0  0  # atno 17321 bound_to 7965
  140.5604  143.2193  151.7776 LP  0  0  0  0  0  0  0  0  0  0  0  0  # atno 17342 bound_to 10162
  139.4902  144.4357  151.9822 LP  0  0  0  0  0  0  0  0  0  0  0  0  # atno 17343 bound_to 10162
  157.3379  131.0711  151.1810 LP  0  0  0  0  0  0  0  0  0  0  0  0  # atno 17370 bound_to 10713
  157.2669  130.6685  149.6001 LP  0  0  0  0  0  0  0  0  0  0  0  0  # atno 17371 bound_to 10713
  140.4804  134.1295  155.7216 LP  0  0  0  0  0  0  0  0  0  0  0  0  # atno 17394 bound_to 11000
  141.1610  133.8792  157.1847 LP  0  0  0  0  0  0  0  0  0  0  0  0  # atno 17395 bound_to 11000

$$$$
