AV-unprocessed.smi:906|AV-procd|sdf|4100|dock1
  -GOLD-   22720 1593D 1   1.00000     0.00000
 Structure written by MMmdl.
 47 48  0  0  0  0  0  0  0  0  1 V2000
  149.3840  130.2000  153.8845 C   0  0  0  0  0  0  0  0  0  0  0  0
  149.3989  131.6525  154.3120 C   0  0  0  0  0  0  0  0  0  0  0  0
  150.3378  132.1203  155.2555 C   0  0  0  0  0  0  0  0  0  0  0  0
  150.3034  133.4805  155.6177 C   0  0  0  0  0  0  0  0  0  0  0  0
  149.3347  134.3177  155.0266 C   0  0  0  0  0  0  0  0  0  0  0  0
  149.2408  135.7883  155.3960 C   0  0  0  0  0  0  0  0  0  0  0  0
  149.6029  136.0653  156.8649 C   0  0  0  0  0  0  0  0  0  0  0  0
  150.2890  137.3467  157.0027 N   0  0  0  0  0  0  0  0  0  0  0  0
  151.2123  137.6528  157.9293 C   0  0  0  0  0  0  0  0  0  0  0  0
  151.5379  136.8667  158.8198 O   0  0  0  0  0  0  0  0  0  0  0  0
  151.7769  138.8767  157.7778 N   0  0  0  0  0  0  0  0  0  0  0  0
  151.3490  139.9389  156.8560 C   0  0  0  0  0  0  0  0  0  0  0  0
  150.7299  141.0861  157.6772 C   0  0  0  0  0  0  0  0  0  0  0  0
  151.7123  141.6056  158.6389 N   0  0  0  0  0  0  0  0  0  0  0  0
  151.2740  142.7857  159.4040 C   0  0  2  0  0  0  0  0  0  0  0  0
  149.7488  143.0274  159.3593 C   0  0  0  0  0  0  0  0  0  0  0  0
  152.0808  144.0513  159.0270 C   0  0  0  0  0  0  0  0  0  0  0  0
  151.7900  144.4302  157.7819 F   0  0  0  0  0  0  0  0  0  0  0  0
  151.8429  145.0677  159.8562 F   0  0  0  0  0  0  0  0  0  0  0  0
  153.3826  143.7695  159.0786 F   0  0  0  0  0  0  0  0  0  0  0  0
  152.1992  140.5373  159.5213 C   0  0  0  0  0  0  0  0  0  0  0  0
  152.8037  139.3913  158.6876 C   0  0  0  0  0  0  0  0  0  0  0  0
  148.4420  133.7499  154.0934 C   0  0  0  0  0  0  0  0  0  0  0  0
  148.4680  132.4471  153.7393 N   0  0  0  0  0  0  0  0  0  0  0  0
  150.2092  129.6468  154.3345 H   0  0  0  0  0  0  0  0  0  0  0  0
  149.4735  130.1207  152.8008 H   0  0  0  0  0  0  0  0  0  0  0  0
  148.4504  129.7258  154.1883 H   0  0  0  0  0  0  0  0  0  0  0  0
  151.0660  131.4546  155.6949 H   0  0  0  0  0  0  0  0  0  0  0  0
  151.0042  133.8694  156.3418 H   0  0  0  0  0  0  0  0  0  0  0  0
  149.8981  136.3628  154.7420 H   0  0  0  0  0  0  0  0  0  0  0  0
  148.2285  136.1392  155.1928 H   0  0  0  0  0  0  0  0  0  0  0  0
  148.7017  136.0777  157.4784 H   0  0  0  0  0  0  0  0  0  0  0  0
  150.2228  135.2487  157.2383 H   0  0  0  0  0  0  0  0  0  0  0  0
  150.0827  138.0451  156.3036 H   0  0  0  0  0  0  0  0  0  0  0  0
  152.2139  140.3011  156.2979 H   0  0  0  0  0  0  0  0  0  0  0  0
  150.6360  139.6093  156.1006 H   0  0  0  0  0  0  0  0  0  0  0  0
  150.4108  141.8711  156.9947 H   0  0  0  0  0  0  0  0  0  0  0  0
  149.8410  140.7249  158.1955 H   0  0  0  0  0  0  0  0  0  0  0  0
  151.5332  142.5800  160.4436 H   0  0  0  0  0  0  0  0  0  0  0  0
  149.4700  143.8333  160.0382 H   0  0  0  0  0  0  0  0  0  0  0  0
  149.1831  142.1473  159.6633 H   0  0  0  0  0  0  0  0  0  0  0  0
  149.4107  143.3177  158.3646 H   0  0  0  0  0  0  0  0  0  0  0  0
  152.9615  140.9324  160.1936 H   0  0  0  0  0  0  0  0  0  0  0  0
  151.3894  140.1539  160.1423 H   0  0  0  0  0  0  0  0  0  0  0  0
  153.2006  138.6228  159.3521 H   0  0  0  0  0  0  0  0  0  0  0  0
  153.6564  139.7510  158.1094 H   0  0  0  0  0  0  0  0  0  0  0  0
  147.6819  134.3559  153.6223 H   0  0  0  0  0  0  0  0  0  0  0  0
  1  2  1  0  0  0  0
  1 25  1  0  0  0  0
  1 26  1  0  0  0  0
  1 27  1  0  0  0  0
  2 24  1  0  0  0  0
  2  3  2  0  0  0  0
  3  4  1  0  0  0  0
  3 28  1  0  0  0  0
  4  5  2  0  0  0  0
  4 29  1  0  0  0  0
  5  6  1  0  0  0  0
  5 23  1  0  0  0  0
  6  7  1  0  0  0  0
  6 30  1  0  0  0  0
  6 31  1  0  0  0  0
  7  8  1  0  0  0  0
  7 32  1  0  0  0  0
  7 33  1  0  0  0  0
  8  9  1  0  0  0  0
  8 34  1  0  0  0  0
  9 10  2  0  0  0  0
  9 11  1  0  0  0  0
 11 22  1  0  0  0  0
 11 12  1  0  0  0  0
 12 13  1  0  0  0  0
 12 35  1  0  0  0  0
 12 36  1  0  0  0  0
 13 14  1  0  0  0  0
 13 37  1  0  0  0  0
 13 38  1  0  0  0  0
 14 15  1  0  0  0  0
 14 21  1  0  0  0  0
 15 16  1  0  0  0  0
 15 17  1  0  0  0  0
 15 39  1  0  0  0  0
 16 40  1  0  0  0  0
 16 41  1  0  0  0  0
 16 42  1  0  0  0  0
 17 18  1  0  0  0  0
 17 19  1  0  0  0  0
 17 20  1  0  0  0  0
 21 22  1  0  0  0  0
 21 43  1  0  0  0  0
 21 44  1  0  0  0  0
 22 45  1  0  0  0  0
 22 46  1  0  0  0  0
 23 24  2  0  0  0  0
 23 47  1  0  0  0  0
M  END
> <s_m_source_file>
AV-unprocessed.smi

> <i_m_source_file_index>
906

> <i_lp_mmshare_version>
43012

> <i_f3d_flags>
0

> <s_epik_input>
W0NIM11jMVtjSF1bY0hdYyhbY0hdbjEpW0NIMl1bQ0gyXVtOSF1DKD1PKU4yW0NIMl1bQ0gyXU4oW0NASF0oW0NIM10pQyhGKShGKUYpW0NIMl1bQ0gyXTI=

> <s_epik_cmdline>
J2VwaWtfcHl0aG9uJywgJy1waCcsICc3LjAnLCAnLXRuJywgJzgnLCAnLW1hJywgJzIwMCcsICctbWV0YWxfYmluZGluZycsICctaW1hZScsICc8aW5maWxlLm1hZT4nLCAnLW9tYWUnLCAnPG91dGZpbGUubWFlPic=

> <r_epik_Ionization_Penalty>
0.0782886

> <r_epik_Ionization_Penalty_Charging>
0

> <r_epik_Ionization_Penalty_Neutral>
0.0782886

> <r_epik_State_Penalty>
0.0661423

> <r_epik_Charging_Adjusted_Penalty>
0.0661423

> <i_epik_Tot_Q>
0

> <i_epik_Tot_abs_Q>
0

> <r_epik_Metal_State_Penalty>
0.060629

> <b_epik_Metal_Only>
0

> <s_lp_Force_Field>
OPLS_2005

> <r_lp_Energy>
48.1538

> <b_lp_Chiralities_Consistent>
1

> <s_lp_Variant>
AV-unprocessed.smi:906-1

> <Gold.Version>
5.8.1

> <Gold.Id.Protein>
6NUR|6NUR_protein|mol2

> <Gold.PLP.Fitness>
46.8516

> <Gold.PLP.PLP>
-44.9531

> <Gold.PLP.part.hbond>
-1.0000

> <Gold.PLP.part.metal>
0.0000

> <Gold.PLP.part.buried>
-7.2731

> <Gold.PLP.part.nonpolar>
-37.4668

> <Gold.PLP.part.repulsive>
0.1470

> <Gold.PLP.ligand.clash>
0.0114

> <Gold.PLP.ligand.torsion>
2.2693

> <Gold.PLP.Chemscore.Hbond>
0.9263

> <Gold.PLP.Chemscore.CHOScore>
0.9669

> <Gold.PLP.Chemscore.Metal>
0.0000

> <Gold.Chemscore.Hbonds>
donor molecule, donor type, donor heavy atom, donor atom, acceptor molecule, acceptor atom, score
      P1  H  6896  6909       L1    10  0.77
      L1  C    23    47       P1  7948  0.13

> <Gold.PLP.Chemscore.Internal.Correction>
0.7690

> <Gold.Rescore>
     Score         DG    S(hbond)    S(metal)    S(lipo)     H(rot)  DE(clash)    DE(int)     intcor
     11.79     -14.14       0.71        0.00      88.37       1.58       0.23       2.12       ----

> <Gold.Chemscore.Fitness>
11.7856

> <Gold.Chemscore.DG>
-14.1360

> <Gold.Chemscore.ZeroCoef>
-5.4800

> <Gold.Chemscore.Hbond>
0.7102

> <Gold.Chemscore.Metal>
0.0000

> <Gold.Chemscore.Lipo>
88.3697

> <Gold.Chemscore.Internal_Hbond>
0.0000

> <Gold.Chemscore.DEClash>
0.2338

> <Gold.Chemscore.DEInternal>
2.1165

> <Gold.Chemscore.Rot>
1.5841

> <Gold.Chemscore.Internal.Correction>
   9.000000E+99

> <Gold.Chemscore.Hbonds>
donor molecule, donor type, donor heavy atom, donor atom, acceptor molecule, acceptor atom, score
      P1  H  6896  6909       L1    10  0.74

> <Gold.Chemscore.Hbond.Weighted>
-2.3721

> <Gold.Chemscore.Metal.Weighted>
-0.0000

> <Gold.Chemscore.Lipo.Weighted>
-10.3392

> <Gold.Chemscore.Internal_Hbond.Weighted>
0.0000

> <Gold.Chemscore.DEClash.Weighted>
0.2338

> <Gold.Chemscore.DEInternal.Weighted>
2.1165

> <Gold.Chemscore.Rot.Weighted>
4.0554

> <Gold.Chemscore.Internal.Correction.Weighted>
   9.000000E+99

> <Gold.Protein.RotatedTorsions>
[ 6907 6896 6895 6894 ] final   97.94 input  -60.11 | X-H torsion
[ 7974 7965 7964 7962 ] final  153.74 input  175.53 | X-H torsion
[ 8008 7997 7996 7995 ] final  -25.00 input   59.86 | X-H torsion
[ 10167 10162 10161 10158 ] final  154.08 input  -65.29 | X-H torsion
[ 10718 10713 10712 10709 ] final   83.36 input   66.30 | X-H torsion
[ 10763 10752 10751 10750 ] final  -55.15 input  -60.55 | X-H torsion
[ 11005 11000 10999 10996 ] final  168.39 input  -57.11 | X-H torsion

> <Gold.Protein.ActiveResidues>
 VAL166  LYS551  ARG553  GLY616  TRP617  ASP618  TYR619  PRO620  LYS621  CYS622 
 ASP623  PHE694  ASN695  SER759  ASP760  ASP761  ALA762  ILE779  LEU786  VAL792 
 PHE793  MET794  SER795  GLU796  ALA797  LYS798  CYS799  TRP800  GLU811  SER814 

> <Gold.Protein.RotatedAtoms>
  152.5416  134.0657  159.8171 H   0  0  0  0  0  0  0  0  0  0  0  0  # atno 6907 bound_to 6896
  151.0778  133.5406  159.2630 H   0  0  0  0  0  0  0  0  0  0  0  0  # atno 6908 bound_to 6896
  151.2245  135.0539  159.9017 H   0  0  0  0  0  0  0  0  0  0  0  0  # atno 6909 bound_to 6896
  144.8134  139.6841  143.6131 H   0  0  0  0  0  0  0  0  0  0  0  0  # atno 7974 bound_to 7965
  154.4499  140.1938  156.0552 H   0  0  0  0  0  0  0  0  0  0  0  0  # atno 8008 bound_to 7997
  156.0624  140.3295  155.7450 H   0  0  0  0  0  0  0  0  0  0  0  0  # atno 8009 bound_to 7997
  155.5390  140.0585  157.2864 H   0  0  0  0  0  0  0  0  0  0  0  0  # atno 8010 bound_to 7997
  139.4824  144.5218  151.7864 H   0  0  0  0  0  0  0  0  0  0  0  0  # atno 10167 bound_to 10162
  157.6877  131.0087  150.2512 H   0  0  0  0  0  0  0  0  0  0  0  0  # atno 10718 bound_to 10713
  154.1862  135.6435  153.5047 H   0  0  0  0  0  0  0  0  0  0  0  0  # atno 10763 bound_to 10752
  153.0046  135.5418  154.6462 H   0  0  0  0  0  0  0  0  0  0  0  0  # atno 10764 bound_to 10752
  154.5839  135.2928  155.0677 H   0  0  0  0  0  0  0  0  0  0  0  0  # atno 10765 bound_to 10752
  140.2868  134.7706  157.3805 H   0  0  0  0  0  0  0  0  0  0  0  0  # atno 11005 bound_to 11000
  146.2435  139.6050  142.9475 LP  0  0  0  0  0  0  0  0  0  0  0  0  # atno 17320 bound_to 7965
  145.5270  141.0429  143.2404 LP  0  0  0  0  0  0  0  0  0  0  0  0  # atno 17321 bound_to 7965
  140.4733  144.1556  150.5921 LP  0  0  0  0  0  0  0  0  0  0  0  0  # atno 17342 bound_to 10162
  140.4359  143.2548  151.9536 LP  0  0  0  0  0  0  0  0  0  0  0  0  # atno 17343 bound_to 10162
  156.3108  130.3771  149.7663 LP  0  0  0  0  0  0  0  0  0  0  0  0  # atno 17370 bound_to 10713
  156.5264  130.8238  151.3222 LP  0  0  0  0  0  0  0  0  0  0  0  0  # atno 17371 bound_to 10713
  140.1232  134.5192  155.8166 LP  0  0  0  0  0  0  0  0  0  0  0  0  # atno 17394 bound_to 11000
  141.2153  133.6763  156.6904 LP  0  0  0  0  0  0  0  0  0  0  0  0  # atno 17395 bound_to 11000

$$$$
