AV-unprocessed.smi:1424|AV-procd|sdf|5802|dock5
  -GOLD-   22720 5453D 1   1.00000     0.00000
 Structure written by MMmdl.
 46 48  0  0  0  0  0  0  0  0  2 V2000
  148.7324  134.7259  156.0800 O   0  0  0  0  0  0  0  0  0  0  0  0
  148.6764  135.1774  154.9363 C   0  0  0  0  0  0  0  0  0  0  0  0
  148.7083  136.4872  154.6538 N   0  0  0  0  0  0  0  0  0  0  0  0
  148.8014  137.5533  155.6458 C   0  0  0  0  0  0  0  0  0  0  0  0
  149.9326  138.5489  155.3220 C   0  0  1  0  0  0  0  0  0  0  0  0
  149.8110  139.8584  156.1247 C   0  0  0  0  0  0  0  0  0  0  0  0
  151.1036  140.6602  155.9473 C   0  0  0  0  0  0  0  0  0  0  0  0
  152.4421  139.4157  155.8362 S   0  0  0  0  0  0  0  0  0  0  0  0
  153.2321  139.6666  154.6215 O   0  0  0  0  0  0  0  0  0  0  0  0
  153.0922  139.2765  157.1481 O   0  0  0  0  0  0  0  0  0  0  0  0
  151.3400  137.9757  155.5646 C   0  0  0  0  0  0  0  0  0  0  0  0
  148.5520  134.4403  153.8200 N   0  0  0  0  0  0  0  0  0  0  0  0
  148.4543  133.0238  153.7108 C   0  0  0  0  0  0  0  0  0  0  0  0
  149.1976  132.1689  154.5651 C   0  0  0  0  0  0  0  0  0  0  0  0
  149.0678  130.7722  154.4495 C   0  0  0  0  0  0  0  0  0  0  0  0
  148.1993  130.2487  153.4771 C   0  0  0  0  0  0  0  0  0  0  0  0
  147.5218  131.0866  152.6656 N   0  3  0  0  0  0  0  0  0  0  0  0
  147.6148  132.4392  152.7174 C   0  0  0  0  0  0  0  0  0  0  0  0
  146.8508  133.1865  151.7917 N   0  0  0  0  0  0  0  0  0  0  0  0
  145.9846  134.2668  152.2497 C   0  0  0  0  0  0  0  0  0  0  0  0
  145.0908  134.5905  151.0555 C   0  0  0  0  0  0  0  0  0  0  0  0
  144.8907  133.2207  150.4146 C   0  0  0  0  0  0  0  0  0  0  0  0
  146.2212  132.5033  150.6662 C   0  0  0  0  0  0  0  0  0  0  0  0
  148.6553  136.7709  153.6865 H   0  0  0  0  0  0  0  0  0  0  0  0
  147.8458  138.0755  155.7205 H   0  0  0  0  0  0  0  0  0  0  0  0
  148.9757  137.0937  156.6191 H   0  0  0  0  0  0  0  0  0  0  0  0
  149.8682  138.8196  154.2669 H   0  0  0  0  0  0  0  0  0  0  0  0
  148.9388  140.4386  155.8223 H   0  0  0  0  0  0  0  0  0  0  0  0
  149.6854  139.6221  157.1823 H   0  0  0  0  0  0  0  0  0  0  0  0
  151.0856  141.2207  155.0122 H   0  0  0  0  0  0  0  0  0  0  0  0
  151.2959  141.3519  156.7674 H   0  0  0  0  0  0  0  0  0  0  0  0
  151.3665  137.3637  156.4666 H   0  0  0  0  0  0  0  0  0  0  0  0
  151.7049  137.3787  154.7289 H   0  0  0  0  0  0  0  0  0  0  0  0
  148.4125  134.9545  152.9626 H   0  0  0  0  0  0  0  0  0  0  0  0
  149.8737  132.5643  155.3081 H   0  0  0  0  0  0  0  0  0  0  0  0
  149.6261  130.1140  155.0992 H   0  0  0  0  0  0  0  0  0  0  0  0
  148.0330  129.1930  153.3180 H   0  0  0  0  0  0  0  0  0  0  0  0
  145.3697  133.9331  153.0869 H   0  0  0  0  0  0  0  0  0  0  0  0
  146.5626  135.1344  152.5697 H   0  0  0  0  0  0  0  0  0  0  0  0
  144.1545  135.0698  151.3426 H   0  0  0  0  0  0  0  0  0  0  0  0
  145.6147  135.2526  150.3643 H   0  0  0  0  0  0  0  0  0  0  0  0
  144.0856  132.6919  150.9267 H   0  0  0  0  0  0  0  0  0  0  0  0
  144.6339  133.2786  149.3565 H   0  0  0  0  0  0  0  0  0  0  0  0
  146.8660  132.5999  149.7922 H   0  0  0  0  0  0  0  0  0  0  0  0
  146.0681  131.4412  150.8619 H   0  0  0  0  0  0  0  0  0  0  0  0
  146.9068  130.6754  151.9633 H   0  0  0  0  0  0  0  0  0  0  0  0
  1  2  2  0  0  0  0
  2  3  1  0  0  0  0
  2 12  1  0  0  0  0
  3  4  1  0  0  0  0
  3 24  1  0  0  0  0
  4  5  1  0  0  0  0
  4 25  1  0  0  0  0
  4 26  1  0  0  0  0
  5 11  1  0  0  0  0
  5  6  1  0  0  0  0
  5 27  1  0  0  0  0
  6  7  1  0  0  0  0
  6 28  1  0  0  0  0
  6 29  1  0  0  0  0
  7  8  1  0  0  0  0
  7 30  1  0  0  0  0
  7 31  1  0  0  0  0
  8  9  2  0  0  0  0
  8 10  2  0  0  0  0
  8 11  1  0  0  0  0
 11 32  1  0  0  0  0
 11 33  1  0  0  0  0
 12 13  1  0  0  0  0
 12 34  1  0  0  0  0
 13 18  1  0  0  0  0
 13 14  2  0  0  0  0
 14 15  1  0  0  0  0
 14 35  1  0  0  0  0
 15 16  2  0  0  0  0
 15 36  1  0  0  0  0
 16 17  1  0  0  0  0
 16 37  1  0  0  0  0
 17 18  2  0  0  0  0
 17 46  1  0  0  0  0
 18 19  1  0  0  0  0
 19 23  1  0  0  0  0
 19 20  1  0  0  0  0
 20 21  1  0  0  0  0
 20 38  1  0  0  0  0
 20 39  1  0  0  0  0
 21 22  1  0  0  0  0
 21 40  1  0  0  0  0
 21 41  1  0  0  0  0
 22 23  1  0  0  0  0
 22 42  1  0  0  0  0
 22 43  1  0  0  0  0
 23 44  1  0  0  0  0
 23 45  1  0  0  0  0
M  CHG  1  17   1
M  END
> <s_m_source_file>
AV-unprocessed.smi

> <i_m_source_file_index>
1424

> <i_lp_mmshare_version>
43012

> <i_f3d_flags>
0

> <s_epik_input>
Tz1TMSg9TylbQ0gyXVtDSDJdW0NASF0oW0NIMl0xKVtDSDJdW05IXUMoPU8pW05IXWMyW2NIXVtjSF1bY0hdbmMyTjNbQ0gyXVtDSDJdW0NIMl1bQ0gyXTM=

> <s_epik_cmdline>
J2VwaWtfcHl0aG9uJywgJy1waCcsICc3LjAnLCAnLXRuJywgJzgnLCAnLW1hJywgJzIwMCcsICctbWV0YWxfYmluZGluZycsICctaW1hZScsICc8aW5maWxlLm1hZT4nLCAnLW9tYWUnLCAnPG91dGZpbGUubWFlPic=

> <r_lp_tautomer_probability>
0.999994

> <r_epik_Ionization_Penalty>
1.12573

> <r_epik_Ionization_Penalty_Charging>
1.12571

> <r_epik_Ionization_Penalty_Neutral>
1.92863e-05

> <r_epik_State_Penalty>
1.18495

> <r_epik_Charging_Adjusted_Penalty>
2.31065

> <i_epik_Tot_Q>
1

> <i_epik_Tot_abs_Q>
1

> <r_epik_Metal_State_Penalty>
1.26881

> <b_epik_Metal_Only>
0

> <s_lp_Force_Field>
OPLS_2005

> <r_lp_Energy>
39.7192

> <b_lp_Chiralities_Consistent>
1

> <s_lp_Variant>
AV-unprocessed.smi:1424-4

> <Gold.Version>
5.8.1

> <Gold.Id.Protein>
6NUR|6NUR_protein|mol2

> <Gold.PLP.Fitness>
45.0141

> <Gold.PLP.PLP>
-35.3815

> <Gold.PLP.part.hbond>
-6.0000

> <Gold.PLP.part.metal>
0.0000

> <Gold.PLP.part.buried>
-1.4335

> <Gold.PLP.part.nonpolar>
-27.8467

> <Gold.PLP.part.repulsive>
0.2313

> <Gold.PLP.ligand.clash>
0.0000

> <Gold.PLP.ligand.torsion>
0.6055

> <Gold.PLP.Chemscore.Hbond>
3.4797

> <Gold.PLP.Chemscore.CHOScore>
0.0000

> <Gold.PLP.Chemscore.Metal>
0.0000

> <Gold.Chemscore.Hbonds>
donor molecule, donor type, donor heavy atom, donor atom, acceptor molecule, acceptor atom, score
      L1  H     3    24       P1  7948  0.90
      L1  H    12    34       P1  7948  0.98
      P1  H  7989  7998       L1     9  0.11
      P1  H  7997  8008       L1     9  0.59
      P1  H  7997  8010       L1    10  0.85

> <Gold.PLP.Chemscore.Internal.Correction>
0.4046

> <Gold.Rescore>
     Score         DG    S(hbond)    S(metal)    S(lipo)     H(rot)  DE(clash)    DE(int)     intcor
     14.28     -17.21       2.32        0.00      66.73       1.50       0.10       2.83       ----

> <Gold.Chemscore.Fitness>
14.2791

> <Gold.Chemscore.DG>
-17.2102

> <Gold.Chemscore.ZeroCoef>
-5.4800

> <Gold.Chemscore.Hbond>
2.3214

> <Gold.Chemscore.Metal>
0.0000

> <Gold.Chemscore.Lipo>
66.7267

> <Gold.Chemscore.Internal_Hbond>
0.0000

> <Gold.Chemscore.DEClash>
0.0992

> <Gold.Chemscore.DEInternal>
2.8319

> <Gold.Chemscore.Rot>
1.4962

> <Gold.Chemscore.Internal.Correction>
   9.000000E+99

> <Gold.Chemscore.Hbonds>
donor molecule, donor type, donor heavy atom, donor atom, acceptor molecule, acceptor atom, score
      L1  H     3    24       P1  7948  0.88
      L1  H    12    34       P1  7948  0.65
      P1  H  7989  7998       L1     9  0.02
      P1  H  7997  8008       L1     9  0.17
      P1  H  7997  8010       L1    10  0.55

> <Gold.Chemscore.Hbond.Weighted>
-7.7535

> <Gold.Chemscore.Metal.Weighted>
-0.0000

> <Gold.Chemscore.Lipo.Weighted>
-7.8070

> <Gold.Chemscore.Internal_Hbond.Weighted>
0.0000

> <Gold.Chemscore.DEClash.Weighted>
0.0992

> <Gold.Chemscore.DEInternal.Weighted>
2.8319

> <Gold.Chemscore.Rot.Weighted>
3.8303

> <Gold.Chemscore.Internal.Correction.Weighted>
   9.000000E+99

> <Gold.Protein.RotatedTorsions>
[ 6907 6896 6895 6894 ] final   41.72 input  -60.11 | X-H torsion
[ 7974 7965 7964 7962 ] final -174.68 input  175.53 | X-H torsion
[ 8008 7997 7996 7995 ] final   29.12 input   59.86 | X-H torsion
[ 10167 10162 10161 10158 ] final   61.04 input  -65.29 | X-H torsion
[ 10718 10713 10712 10709 ] final  -77.55 input   66.30 | X-H torsion
[ 10763 10752 10751 10750 ] final   77.14 input  -60.55 | X-H torsion
[ 11005 11000 10999 10996 ] final  127.79 input  -57.11 | X-H torsion

> <Gold.Protein.ActiveResidues>
 VAL166  LYS551  ARG553  GLY616  TRP617  ASP618  TYR619  PRO620  LYS621  CYS622 
 ASP623  PHE694  ASN695  SER759  ASP760  ASP761  ALA762  ILE779  LEU786  VAL792 
 PHE793  MET794  SER795  GLU796  ALA797  LYS798  CYS799  TRP800  GLU811  SER814 

> <Gold.Protein.RotatedAtoms>
  152.1989  134.8606  160.0509 H   0  0  0  0  0  0  0  0  0  0  0  0  # atno 6907 bound_to 6896
  151.9467  133.3649  159.3993 H   0  0  0  0  0  0  0  0  0  0  0  0  # atno 6908 bound_to 6896
  150.6950  134.4307  159.5291 H   0  0  0  0  0  0  0  0  0  0  0  0  # atno 6909 bound_to 6896
  144.7131  140.1435  143.6390 H   0  0  0  0  0  0  0  0  0  0  0  0  # atno 7974 bound_to 7965
  155.0694  140.3198  155.4635 H   0  0  0  0  0  0  0  0  0  0  0  0  # atno 8008 bound_to 7997
  156.2794  140.2114  156.5767 H   0  0  0  0  0  0  0  0  0  0  0  0  # atno 8009 bound_to 7997
  154.7067  140.0502  157.0498 H   0  0  0  0  0  0  0  0  0  0  0  0  # atno 8010 bound_to 7997
  140.1591  144.4388  150.6719 H   0  0  0  0  0  0  0  0  0  0  0  0  # atno 10167 bound_to 10162
  156.0142  130.4494  150.3362 H   0  0  0  0  0  0  0  0  0  0  0  0  # atno 10718 bound_to 10713
  153.0776  135.4925  154.8437 H   0  0  0  0  0  0  0  0  0  0  0  0  # atno 10763 bound_to 10752
  154.7108  135.3019  154.9202 H   0  0  0  0  0  0  0  0  0  0  0  0  # atno 10764 bound_to 10752
  153.9896  135.6780  153.4806 H   0  0  0  0  0  0  0  0  0  0  0  0  # atno 10765 bound_to 10752
  139.9526  134.9619  156.8907 H   0  0  0  0  0  0  0  0  0  0  0  0  # atno 11005 bound_to 11000
  145.9181  139.2528  143.1398 LP  0  0  0  0  0  0  0  0  0  0  0  0  # atno 17320 bound_to 7965
  145.9648  140.8807  143.0192 LP  0  0  0  0  0  0  0  0  0  0  0  0  # atno 17321 bound_to 7965
  140.6654  143.2266  151.5755 LP  0  0  0  0  0  0  0  0  0  0  0  0  # atno 17342 bound_to 10162
  139.5389  144.2702  152.1311 LP  0  0  0  0  0  0  0  0  0  0  0  0  # atno 17343 bound_to 10162
  157.1459  131.0308  151.2907 LP  0  0  0  0  0  0  0  0  0  0  0  0  # atno 17370 bound_to 10713
  157.4433  130.7556  149.7088 LP  0  0  0  0  0  0  0  0  0  0  0  0  # atno 17371 bound_to 10713
  140.5683  134.0468  155.7422 LP  0  0  0  0  0  0  0  0  0  0  0  0  # atno 17394 bound_to 11000
  141.1192  133.9490  157.2763 LP  0  0  0  0  0  0  0  0  0  0  0  0  # atno 17395 bound_to 11000

$$$$
