AV-unprocessed.smi:153|AV-procd|sdf|1263|dock7
  -GOLD-   2262018513D 1   1.00000     0.00000
 Structure written by MMmdl.
 59 62  0  0  0  0  0  0  0  0  1 V2000
  151.1724  139.7634  155.4621 C   0  0  0  0  0  0  0  0  0  0  0  0
  150.5552  140.1246  156.8232 C   0  0  1  0  0  0  0  0  0  0  0  0
  151.6084  140.2889  157.7691 O   0  0  0  0  0  0  0  0  0  0  0  0
  151.2078  141.2470  158.7324 C   0  0  0  0  0  0  0  0  0  0  0  0
  150.5055  142.2876  157.8760 C   0  0  0  0  0  0  0  0  0  0  0  0
  149.7168  141.4324  156.8834 C   0  0  1  0  0  0  0  0  0  0  0  0
  149.6769  142.1164  155.6421 O   0  0  0  0  0  0  0  0  0  0  0  0
  148.2602  141.1375  157.3289 C   0  0  0  0  0  0  0  0  0  0  0  0
  147.5749  140.1412  156.5186 N   0  0  0  0  0  0  0  0  0  0  0  0
  146.9179  139.0208  156.9699 C   0  0  0  0  0  0  0  0  0  0  0  0
  146.3757  138.2849  156.0399 N   0  0  0  0  0  0  0  0  0  0  0  0
  146.6722  138.9455  154.8518 C   0  0  0  0  0  0  0  0  0  0  0  0
  146.3920  138.7061  153.4711 C   0  0  0  0  0  0  0  0  0  0  0  0
  145.7125  137.6228  152.9961 N   0  0  0  0  0  0  0  0  0  0  0  0
  144.5635  137.1368  153.7578 C   0  0  0  0  0  0  0  0  0  0  0  0
  145.7217  137.3567  151.5573 C   0  0  0  0  0  0  0  0  0  0  0  0
  145.0870  135.9992  151.1806 C   0  0  1  0  0  0  0  0  0  0  0  0
  144.5760  136.0251  149.8626 O   0  0  0  0  0  0  0  0  0  0  0  0
  146.0622  134.8073  151.3134 C   0  0  0  0  0  0  0  0  0  0  0  0
  145.4690  133.4947  151.5901 N   0  0  0  0  0  0  0  0  0  0  0  0
  146.4281  132.5341  152.1325 C   0  0  0  0  0  0  0  0  0  0  0  0
  145.7860  131.1584  152.3845 C   0  0  0  0  0  0  0  0  0  0  0  0
  145.2034  130.6712  151.1803 O   0  0  0  0  0  0  0  0  0  0  0  0
  144.2262  131.5588  150.6474 C   0  0  0  0  0  0  0  0  0  0  0  0
  144.8687  132.9317  150.3849 C   0  0  0  0  0  0  0  0  0  0  0  0
  146.8424  139.6358  152.5848 N   0  0  0  0  0  0  0  0  0  0  0  0
  147.5263  140.7048  152.9997 C   0  0  0  0  0  0  0  0  0  0  0  0
  147.8680  141.0434  154.2423 N   0  0  0  0  0  0  0  0  0  0  0  0
  147.4145  140.1274  155.1439 C   0  0  0  0  0  0  0  0  0  0  0  0
  150.4005  139.6110  154.7073 H   0  0  0  0  0  0  0  0  0  0  0  0
  151.7502  138.8416  155.5326 H   0  0  0  0  0  0  0  0  0  0  0  0
  151.8440  140.5465  155.1083 H   0  0  0  0  0  0  0  0  0  0  0  0
  149.9503  139.2819  157.1615 H   0  0  0  0  0  0  0  0  0  0  0  0
  150.5201  140.7941  159.4483 H   0  0  0  0  0  0  0  0  0  0  0  0
  152.0610  141.6524  159.2762 H   0  0  0  0  0  0  0  0  0  0  0  0
  149.9046  142.9837  158.4590 H   0  0  0  0  0  0  0  0  0  0  0  0
  151.2649  142.8752  157.3569 H   0  0  0  0  0  0  0  0  0  0  0  0
  149.4319  143.0143  155.8047 H   0  0  0  0  0  0  0  0  0  0  0  0
  148.2499  140.7942  158.3642 H   0  0  0  0  0  0  0  0  0  0  0  0
  147.6686  142.0536  157.3110 H   0  0  0  0  0  0  0  0  0  0  0  0
  146.8538  138.7640  158.0173 H   0  0  0  0  0  0  0  0  0  0  0  0
  144.8320  136.9707  154.8018 H   0  0  0  0  0  0  0  0  0  0  0  0
  144.2039  136.1887  153.3576 H   0  0  0  0  0  0  0  0  0  0  0  0
  143.7414  137.8522  153.7192 H   0  0  0  0  0  0  0  0  0  0  0  0
  145.2927  138.1725  150.9810 H   0  0  0  0  0  0  0  0  0  0  0  0
  146.7693  137.3362  151.2553 H   0  0  0  0  0  0  0  0  0  0  0  0
  144.2412  135.7990  151.8393 H   0  0  0  0  0  0  0  0  0  0  0  0
  145.1532  135.5210  149.3098 H   0  0  0  0  0  0  0  0  0  0  0  0
  146.5868  134.7374  150.3595 H   0  0  0  0  0  0  0  0  0  0  0  0
  146.8350  135.0353  152.0494 H   0  0  0  0  0  0  0  0  0  0  0  0
  147.2688  132.4217  151.4461 H   0  0  0  0  0  0  0  0  0  0  0  0
  146.8366  132.8967  153.0747 H   0  0  0  0  0  0  0  0  0  0  0  0
  146.5360  130.4475  152.7310 H   0  0  0  0  0  0  0  0  0  0  0  0
  145.0247  131.2259  153.1632 H   0  0  0  0  0  0  0  0  0  0  0  0
  143.8312  131.1408  149.7214 H   0  0  0  0  0  0  0  0  0  0  0  0
  143.3893  131.6500  151.3416 H   0  0  0  0  0  0  0  0  0  0  0  0
  144.1108  133.6123  149.9954 H   0  0  0  0  0  0  0  0  0  0  0  0
  145.6268  132.8314  149.6064 H   0  0  0  0  0  0  0  0  0  0  0  0
  147.8464  141.3849  152.2243 H   0  0  0  0  0  0  0  0  0  0  0  0
  1  2  1  0  0  0  0
  1 30  1  0  0  0  0
  1 31  1  0  0  0  0
  1 32  1  0  0  0  0
  2  6  1  0  0  0  0
  2  3  1  0  0  0  0
  2 33  1  0  0  0  0
  3  4  1  0  0  0  0
  4  5  1  0  0  0  0
  4 34  1  0  0  0  0
  4 35  1  0  0  0  0
  5  6  1  0  0  0  0
  5 36  1  0  0  0  0
  5 37  1  0  0  0  0
  6  7  1  0  0  0  0
  6  8  1  0  0  0  0
  7 38  1  0  0  0  0
  8  9  1  0  0  0  0
  8 39  1  0  0  0  0
  8 40  1  0  0  0  0
  9 29  1  0  0  0  0
  9 10  1  0  0  0  0
 10 11  2  0  0  0  0
 10 41  1  0  0  0  0
 11 12  1  0  0  0  0
 12 29  2  0  0  0  0
 12 13  1  0  0  0  0
 13 14  1  0  0  0  0
 13 26  2  0  0  0  0
 14 15  1  0  0  0  0
 14 16  1  0  0  0  0
 15 42  1  0  0  0  0
 15 43  1  0  0  0  0
 15 44  1  0  0  0  0
 16 17  1  0  0  0  0
 16 45  1  0  0  0  0
 16 46  1  0  0  0  0
 17 18  1  0  0  0  0
 17 19  1  0  0  0  0
 17 47  1  0  0  0  0
 18 48  1  0  0  0  0
 19 20  1  0  0  0  0
 19 49  1  0  0  0  0
 19 50  1  0  0  0  0
 20 25  1  0  0  0  0
 20 21  1  0  0  0  0
 21 22  1  0  0  0  0
 21 51  1  0  0  0  0
 21 52  1  0  0  0  0
 22 23  1  0  0  0  0
 22 53  1  0  0  0  0
 22 54  1  0  0  0  0
 23 24  1  0  0  0  0
 24 25  1  0  0  0  0
 24 55  1  0  0  0  0
 24 56  1  0  0  0  0
 25 57  1  0  0  0  0
 25 58  1  0  0  0  0
 26 27  1  0  0  0  0
 27 28  2  0  0  0  0
 27 59  1  0  0  0  0
 28 29  1  0  0  0  0
M  END
> <s_m_source_file>
AV-unprocessed.smi

> <i_m_source_file_index>
153

> <i_lp_mmshare_version>
43012

> <i_f3d_flags>
0

> <s_epik_input>
W0NIMl0xW0NIMl1PW0NAQEhdKFtDSDNdKVtDQEBdMShbT0hdKVtDSDJdbihbY0hdbjIpYyhjMjMpbltjSF1uYzNOKFtDSDNdKVtDSDJdW0NASF0oW09IXSlbQ0gyXU40W0NIMl1bQ0gyXU9bQ0gyXVtDSDJdNA==

> <s_epik_cmdline>
J2VwaWtfcHl0aG9uJywgJy1waCcsICc3LjAnLCAnLXRuJywgJzgnLCAnLW1hJywgJzIwMCcsICctbWV0YWxfYmluZGluZycsICctaW1hZScsICc8aW5maWxlLm1hZT4nLCAnLW9tYWUnLCAnPG91dGZpbGUubWFlPic=

> <r_lp_tautomer_probability>
1

> <r_epik_Ionization_Penalty>
0.424123

> <r_epik_Ionization_Penalty_Charging>
0

> <r_epik_Ionization_Penalty_Neutral>
0.424123

> <r_epik_State_Penalty>
0.421495

> <r_epik_Charging_Adjusted_Penalty>
0.421495

> <i_epik_Tot_Q>
0

> <i_epik_Tot_abs_Q>
0

> <r_epik_Metal_State_Penalty>
0.421223

> <b_epik_Metal_Only>
0

> <s_lp_Force_Field>
OPLS_2005

> <r_lp_Energy>
60.0656

> <b_lp_Chiralities_Consistent>
1

> <s_lp_Variant>
AV-unprocessed.smi:153-14

> <Gold.Version>
5.8.1

> <Gold.Id.Protein>
6NUR|6NUR_protein|mol2

> <Gold.PLP.Fitness>
41.7376

> <Gold.PLP.PLP>
-36.5092

> <Gold.PLP.part.hbond>
-3.0000

> <Gold.PLP.part.metal>
0.0000

> <Gold.PLP.part.buried>
-3.9811

> <Gold.PLP.part.nonpolar>
-30.9695

> <Gold.PLP.part.repulsive>
1.5444

> <Gold.PLP.ligand.clash>
0.0000

> <Gold.PLP.ligand.torsion>
1.3600

> <Gold.PLP.Chemscore.Hbond>
2.0000

> <Gold.PLP.Chemscore.CHOScore>
0.4466

> <Gold.PLP.Chemscore.Metal>
0.0000

> <Gold.Chemscore.Hbonds>
donor molecule, donor type, donor heavy atom, donor atom, acceptor molecule, acceptor atom, score
      L1  H     7    38       P1  8028  1.00
      L1  H    18    48       P1  7921  0.93
      L1  C    27    59       P1  7957  0.43

> <Gold.PLP.Chemscore.Internal.Correction>
0.6086

> <Gold.Rescore>
     Score         DG    S(hbond)    S(metal)    S(lipo)     H(rot)  DE(clash)    DE(int)     intcor
      7.82     -12.69       1.96        0.00      82.64       3.52       1.86       3.01       ----

> <Gold.Chemscore.Fitness>
7.8175

> <Gold.Chemscore.DG>
-12.6899

> <Gold.Chemscore.ZeroCoef>
-5.4800

> <Gold.Chemscore.Hbond>
1.9596

> <Gold.Chemscore.Metal>
0.0000

> <Gold.Chemscore.Lipo>
82.6361

> <Gold.Chemscore.Internal_Hbond>
0.0000

> <Gold.Chemscore.DEClash>
1.8608

> <Gold.Chemscore.DEInternal>
3.0116

> <Gold.Chemscore.Rot>
3.5170

> <Gold.Chemscore.Internal.Correction>
   9.000000E+99

> <Gold.Chemscore.Hbonds>
donor molecule, donor type, donor heavy atom, donor atom, acceptor molecule, acceptor atom, score
      L1  H     7    38       P1  8028  1.00
      L1  H    18    48       P1  7921  0.88

> <Gold.Chemscore.Hbond.Weighted>
-6.5451

> <Gold.Chemscore.Metal.Weighted>
-0.0000

> <Gold.Chemscore.Lipo.Weighted>
-9.6684

> <Gold.Chemscore.Internal_Hbond.Weighted>
0.0000

> <Gold.Chemscore.DEClash.Weighted>
1.8608

> <Gold.Chemscore.DEInternal.Weighted>
3.0116

> <Gold.Chemscore.Rot.Weighted>
9.0036

> <Gold.Chemscore.Internal.Correction.Weighted>
   9.000000E+99

> <Gold.Protein.RotatedTorsions>
[ 6907 6896 6895 6894 ] final  138.68 input  -60.11 | X-H torsion
[ 7974 7965 7964 7962 ] final -134.33 input  175.53 | X-H torsion
[ 8008 7997 7996 7995 ] final  -13.07 input   59.86 | X-H torsion
[ 10167 10162 10161 10158 ] final  -50.60 input  -65.29 | X-H torsion
[ 10718 10713 10712 10709 ] final -144.99 input   66.30 | X-H torsion
[ 10763 10752 10751 10750 ] final  169.45 input  -60.55 | X-H torsion
[ 11005 11000 10999 10996 ] final -133.58 input  -57.11 | X-H torsion

> <Gold.Protein.ActiveResidues>
 VAL166  LYS551  ARG553  GLY616  TRP617  ASP618  TYR619  PRO620  LYS621  CYS622 
 ASP623  PHE694  ASN695  SER759  ASP760  ASP761  ALA762  ILE779  LEU786  VAL792 
 PHE793  MET794  SER795  GLU796  ALA797  LYS798  CYS799  TRP800  GLU811  SER814 

> <Gold.Protein.RotatedAtoms>
  152.2638  133.5321  159.5397 H   0  0  0  0  0  0  0  0  0  0  0  0  # atno 6907 bound_to 6896
  150.7134  134.0793  159.3901 H   0  0  0  0  0  0  0  0  0  0  0  0  # atno 6908 bound_to 6896
  151.8709  135.0489  160.0530 H   0  0  0  0  0  0  0  0  0  0  0  0  # atno 6909 bound_to 6896
  144.9112  140.6897  143.5024 H   0  0  0  0  0  0  0  0  0  0  0  0  # atno 7974 bound_to 7965
  154.5323  140.2259  155.8783 H   0  0  0  0  0  0  0  0  0  0  0  0  # atno 8008 bound_to 7997
  156.1776  140.3107  155.9052 H   0  0  0  0  0  0  0  0  0  0  0  0  # atno 8009 bound_to 7997
  155.3426  140.0451  157.3036 H   0  0  0  0  0  0  0  0  0  0  0  0  # atno 8010 bound_to 7997
  140.6630  143.2651  151.4382 H   0  0  0  0  0  0  0  0  0  0  0  0  # atno 10167 bound_to 10162
  156.3769  130.7817  151.2004 H   0  0  0  0  0  0  0  0  0  0  0  0  # atno 10718 bound_to 10713
  154.3833  135.2753  155.2198 H   0  0  0  0  0  0  0  0  0  0  0  0  # atno 10763 bound_to 10752
  154.4296  135.5980  153.6064 H   0  0  0  0  0  0  0  0  0  0  0  0  # atno 10764 bound_to 10752
  152.9834  135.5992  154.4078 H   0  0  0  0  0  0  0  0  0  0  0  0  # atno 10765 bound_to 10752
  140.9068  134.1619  157.4419 H   0  0  0  0  0  0  0  0  0  0  0  0  # atno 11005 bound_to 11000
  145.3451  139.1721  143.4465 LP  0  0  0  0  0  0  0  0  0  0  0  0  # atno 17320 bound_to 7965
  146.3159  140.3496  142.8655 LP  0  0  0  0  0  0  0  0  0  0  0  0  # atno 17321 bound_to 7965
  139.5869  144.1584  152.2040 LP  0  0  0  0  0  0  0  0  0  0  0  0  # atno 17342 bound_to 10162
  140.0927  144.5607  150.7043 LP  0  0  0  0  0  0  0  0  0  0  0  0  # atno 17343 bound_to 10162
  157.7489  131.0356  150.4369 LP  0  0  0  0  0  0  0  0  0  0  0  0  # atno 17370 bound_to 10713
  156.4606  130.4031  149.6579 LP  0  0  0  0  0  0  0  0  0  0  0  0  # atno 17371 bound_to 10713
  139.8751  134.9920  156.5575 LP  0  0  0  0  0  0  0  0  0  0  0  0  # atno 17394 bound_to 11000
  140.8161  133.8391  155.8853 LP  0  0  0  0  0  0  0  0  0  0  0  0  # atno 17395 bound_to 11000

$$$$
