#       Name:                AV-unprocessed.smi:740
#       Creating user name   scv26
#       Creation time:       Fri Mar 27 00:54:46 2020


#       File generated by GOLD software.
#

@<TRIPOS>MOLECULE
AV-unprocessed.smi:740
    51    53     1
SMALL
NO_CHARGES


@<TRIPOS>ATOM
      1 ****        -3.6738   4.2563   2.5197 C.3            1 S1                 0.0000
      2 ****        -3.1443   3.1608   1.6100 C.ar           1 S1                 0.0000
      3 ****        -3.0579   3.4190   0.2236 C.ar           1 S1                 0.0000
      4 ****        -2.5679   2.3985  -0.5823 C.ar           1 S1                 0.0000
      5 ****        -2.3616   2.3445  -1.9621 N.pl3          1 S1                 1.0000
      6 ****        -1.8573   1.1254  -2.2985 C.2            1 S1                 0.0000
      7 ****        -1.7413   0.3984  -1.1543 N.pl3          1 S1                 0.0000
      8 ****        -1.2512  -0.9746  -0.9670 C.3            1 S1                 0.0000
      9 ****         0.2837  -1.0487  -0.8489 C.3            1 S1                 0.0000
     10 ****         0.6856  -0.3588   0.3184 O.3            1 S1                 0.0000
     11 ****         0.7758  -2.5084  -0.7600 C.3            1 S1                 0.0000
     12 ****         2.2099  -2.6263  -1.0477 N.am           1 S1                 0.0000
     13 ****         2.7298  -2.6347  -2.2827 C.2            1 S1                 0.0000
     14 ****         2.1013  -2.5538  -3.3377 O.2            1 S1                 0.0000
     15 ****         4.2467  -2.7525  -2.2358 C.3            1 S1                 0.0000
     16 ****         4.5513  -2.8011  -0.7309 C.3            1 S1                 0.0000
     17 ****         5.4729  -1.6685  -0.2489 C.3            1 S1                 0.0000
     18 ****         3.1607  -2.7055  -0.1059 C.2            1 S1                 0.0000
     19 ****         2.9774  -2.7004   1.1115 O.2            1 S1                 0.0000
     20 ****        -2.1726   1.1529  -0.0563 C.ar           1 S1                 0.0000
     21 ****        -2.2525   0.8823   1.3080 C.ar           1 S1                 0.0000
     22 ****        -2.7449   1.9089   2.1454 C.ar           1 S1                 0.0000
     23 ****        -2.8378   1.6431   3.6385 C.3            1 S1                 0.0000
     24 ****        -3.9771   5.1354   1.9504 H              1 S1                 0.0000
     25 ****        -2.9066   4.5668   3.2294 H              1 S1                 0.0000
     26 ****        -4.5422   3.9064   3.0783 H              1 S1                 0.0000
     27 ****        -3.3579   4.3701  -0.1914 H              1 S1                 0.0000
     28 ****        -1.5964   0.7945  -3.2934 H              1 S1                 0.0000
     29 ****        -1.7424  -1.4236  -0.1034 H              1 S1                 0.0000
     30 ****        -1.5813  -1.5456  -1.8357 H              1 S1                 0.0000
     31 ****         0.7257  -0.5541  -1.7150 H              1 S1                 0.0000
     32 ****         0.3585  -0.8262   1.0718 H              1 S1                 0.0000
     33 ****         0.5273  -2.9409   0.2110 H              1 S1                 0.0000
     34 ****         0.2374  -3.1183  -1.4877 H              1 S1                 0.0000
     35 ****         4.5741  -3.6598  -2.7446 H              1 S1                 0.0000
     36 ****         4.7049  -1.8938  -2.7281 H              1 S1                 0.0000
     37 ****         4.9869  -3.7668  -0.4710 H              1 S1                 0.0000
     38 ****         5.6904  -1.7636   0.8154 H              1 S1                 0.0000
     39 ****         5.0240  -0.6877  -0.4117 H              1 S1                 0.0000
     40 ****         6.4244  -1.6894  -0.7807 H              1 S1                 0.0000
     41 ****        -1.9464  -0.0685   1.7177 H              1 S1                 0.0000
     42 ****        -2.4438   0.6591   3.8945 H              1 S1                 0.0000
     43 ****        -3.8759   1.6834   3.9693 H              1 S1                 0.0000
     44 ****        -2.2663   2.3843   4.1975 H              1 S1                 0.0000
     45 ****        -2.5496   3.0837  -2.6274 H              1 S1                 0.0000
     46 ****         0.3107   0.5682   0.3079 LP             1 S1                 0.0000
     47 ****         1.6839  -0.3143   0.3567 LP             1 S1                 0.0000
     48 ****         1.1048  -2.4725  -3.3211 LP             1 S1                 0.0000
     49 ****         2.5872  -2.5695  -4.2116 LP             1 S1                 0.0000
     50 ****         2.0491  -2.6325   1.4771 LP             1 S1                 0.0000
     51 ****         3.7568  -2.7643   1.7347 LP             1 S1                 0.0000
@<TRIPOS>BOND
    1    1    2 1     
    2    1   24 1     
    3    1   25 1     
    4    1   26 1     
    5    2   22 ar    
    6    2    3 ar    
    7    3    4 ar    
    8    3   27 1     
    9    4   20 ar    
   10    4    5 1     
   11    5    6 2     
   12    5   45 1     
   13    6    7 1     
   14    6   28 1     
   15    7    8 1     
   16    7   20 1     
   17    8    9 1     
   18    8   29 1     
   19    8   30 1     
   20    9   10 1     
   21    9   11 1     
   22    9   31 1     
   23   10   32 1     
   24   11   12 1     
   25   11   33 1     
   26   11   34 1     
   27   12   18 am    
   28   12   13 am    
   29   13   14 2     
   30   13   15 1     
   31   15   16 1     
   32   15   35 1     
   33   15   36 1     
   34   16   17 1     
   35   16   18 1     
   36   16   37 1     
   37   17   38 1     
   38   17   39 1     
   39   17   40 1     
   40   18   19 2     
   41   20   21 ar    
   42   21   22 ar    
   43   21   41 1     
   44   22   23 1     
   45   23   42 1     
   46   23   43 1     
   47   23   44 1     
   48   10   46 1     
   49   10   47 1     
   50   14   48 1     
   51   14   49 1     
   52   19   50 1     
   53   19   51 1     
@<TRIPOS>SUBSTRUCTURE
      1 S1             1
@<TRIPOS>SET
LONE_PAIRS      STATIC     ATOMS    <user>   **** ""
6 46 47 48 49 50 51
DONOR_HYDROGENS      STATIC     ATOMS    <user>   **** ""
2 45 32
ATOM$BLUE        STATIC     ATOMS    COLORGROUP SYSTEM
6 46 47 48 49 50 51
ATOM$RED        STATIC     ATOMS    COLORGROUP SYSTEM
2 45 32
