AV-unprocessed.smi:1682|AV-procd|sdf|6745|dock4
  -GOLD-   22720 7503D 1   1.00000     0.00000
 Structure written by MMmdl.
 39 40  0  0  0  0  0  0  0  0  2 V2000
  148.0929  140.0189  157.3898 O   0  0  0  0  0  0  0  0  0  0  0  0
  148.6165  140.4820  156.3770 C   0  0  0  0  0  0  0  0  0  0  0  0
  148.1467  140.2495  155.1410 N   0  0  0  0  0  0  0  0  0  0  0  0
  146.9598  139.4575  154.8519 C   0  0  0  0  0  0  0  0  0  0  0  0
  147.2791  138.3430  153.8460 C   0  0  0  0  0  0  0  0  0  0  0  0
  146.0241  137.7432  153.2413 C   0  0  0  0  0  0  0  0  0  0  0  0
  144.7507  137.9183  153.8258 C   0  0  0  0  0  0  0  0  0  0  0  0
  143.6256  137.3225  153.2182 C   0  0  0  0  0  0  0  0  0  0  0  0
  143.7969  136.5656  152.0407 C   0  0  0  0  0  0  0  0  0  0  0  0
  145.0908  136.4237  151.4994 C   0  0  0  0  0  0  0  0  0  0  0  0
  146.1438  137.0096  152.1109 N   0  3  0  0  0  0  0  0  0  0  0  0
  149.8606  141.3769  156.5012 C   0  0  2  0  0  0  0  0  0  0  0  0
  151.1164  140.7177  155.8992 C   0  0  0  0  0  0  0  0  0  0  0  0
  152.0150  140.4898  157.1038 C   0  0  0  0  0  0  0  0  0  0  0  0
  153.0665  139.8559  157.0374 O   0  0  0  0  0  0  0  0  0  0  0  0
  151.4969  141.0455  158.2052 N   0  0  0  0  0  0  0  0  0  0  0  0
  152.0731  141.0068  159.5486 C   0  0  0  0  0  0  0  0  0  0  0  0
  153.2228  142.0152  159.7269 C   0  0  0  0  0  0  0  0  0  0  0  0
  153.2609  142.4076  160.9995 F   0  0  0  0  0  0  0  0  0  0  0  0
  154.3989  141.4693  159.4189 F   0  0  0  0  0  0  0  0  0  0  0  0
  153.0219  143.0860  158.9586 F   0  0  0  0  0  0  0  0  0  0  0  0
  150.2294  141.7164  157.9610 C   0  0  0  0  0  0  0  0  0  0  0  0
  148.6313  140.6643  154.3580 H   0  0  0  0  0  0  0  0  0  0  0  0
  146.5756  139.0309  155.7800 H   0  0  0  0  0  0  0  0  0  0  0  0
  146.1828  140.1097  154.4498 H   0  0  0  0  0  0  0  0  0  0  0  0
  147.9090  138.7330  153.0450 H   0  0  0  0  0  0  0  0  0  0  0  0
  147.8522  137.5514  154.3309 H   0  0  0  0  0  0  0  0  0  0  0  0
  144.6347  138.4983  154.7302 H   0  0  0  0  0  0  0  0  0  0  0  0
  142.6434  137.4432  153.6513 H   0  0  0  0  0  0  0  0  0  0  0  0
  142.9486  136.1001  151.5605 H   0  0  0  0  0  0  0  0  0  0  0  0
  145.3142  135.8624  150.6039 H   0  0  0  0  0  0  0  0  0  0  0  0
  149.6536  142.3046  155.9648 H   0  0  0  0  0  0  0  0  0  0  0  0
  150.9169  139.7767  155.3840 H   0  0  0  0  0  0  0  0  0  0  0  0
  151.6144  141.3869  155.1970 H   0  0  0  0  0  0  0  0  0  0  0  0
  151.2896  141.2152  160.2783 H   0  0  0  0  0  0  0  0  0  0  0  0
  152.4256  139.9969  159.7646 H   0  0  0  0  0  0  0  0  0  0  0  0
  150.3601  142.7922  158.0856 H   0  0  0  0  0  0  0  0  0  0  0  0
  149.4741  141.3922  158.6791 H   0  0  0  0  0  0  0  0  0  0  0  0
  147.0713  136.8908  151.7026 H   0  0  0  0  0  0  0  0  0  0  0  0
  1  2  2  0  0  0  0
  2  3  1  0  0  0  0
  2 12  1  0  0  0  0
  3  4  1  0  0  0  0
  3 23  1  0  0  0  0
  4  5  1  0  0  0  0
  4 24  1  0  0  0  0
  4 25  1  0  0  0  0
  5  6  1  0  0  0  0
  5 26  1  0  0  0  0
  5 27  1  0  0  0  0
  6 11  1  0  0  0  0
  6  7  2  0  0  0  0
  7  8  1  0  0  0  0
  7 28  1  0  0  0  0
  8  9  2  0  0  0  0
  8 29  1  0  0  0  0
  9 10  1  0  0  0  0
  9 30  1  0  0  0  0
 10 11  2  0  0  0  0
 10 31  1  0  0  0  0
 11 39  1  0  0  0  0
 12 22  1  0  0  0  0
 12 13  1  0  0  0  0
 12 32  1  0  0  0  0
 13 14  1  0  0  0  0
 13 33  1  0  0  0  0
 13 34  1  0  0  0  0
 14 15  2  0  0  0  0
 14 16  1  0  0  0  0
 16 17  1  0  0  0  0
 16 22  1  0  0  0  0
 17 18  1  0  0  0  0
 17 35  1  0  0  0  0
 17 36  1  0  0  0  0
 18 19  1  0  0  0  0
 18 20  1  0  0  0  0
 18 21  1  0  0  0  0
 22 37  1  0  0  0  0
 22 38  1  0  0  0  0
M  CHG  1  11   1
M  END
> <s_m_source_file>
AV-unprocessed.smi

> <i_m_source_file_index>
1682

> <i_lp_mmshare_version>
43012

> <i_f3d_flags>
0

> <s_epik_input>
RkMoRikoRilbQ0gyXU4oW0NIMl0xKUMoPU8pW0NIMl1bQ0BIXTFDKD1PKVtOSF1bQ0gyXVtDSDJdYzJbY0hdW2NIXVtjSF1bY0hdbjI=

> <s_epik_cmdline>
J2VwaWtfcHl0aG9uJywgJy1waCcsICc3LjAnLCAnLXRuJywgJzgnLCAnLW1hJywgJzIwMCcsICctbWV0YWxfYmluZGluZycsICctaW1hZScsICc8aW5maWxlLm1hZT4nLCAnLW9tYWUnLCAnPG91dGZpbGUubWFlPic=

> <r_epik_Ionization_Penalty>
1.88249

> <r_epik_Ionization_Penalty_Charging>
1.88249

> <r_epik_Ionization_Penalty_Neutral>
2.8664e-08

> <r_epik_State_Penalty>
2.00238

> <r_epik_Charging_Adjusted_Penalty>
3.88487

> <i_epik_Tot_Q>
1

> <i_epik_Tot_abs_Q>
1

> <r_epik_Metal_State_Penalty>
2.02677

> <b_epik_Metal_Only>
0

> <s_lp_Force_Field>
OPLS_2005

> <r_lp_Energy>
22.1056

> <b_lp_Chiralities_Consistent>
1

> <s_lp_Variant>
AV-unprocessed.smi:1682-3

> <Gold.Version>
5.8.1

> <Gold.Id.Protein>
6NUR|6NUR_protein|mol2

> <Gold.PLP.Fitness>
43.4021

> <Gold.PLP.PLP>
-36.6354

> <Gold.PLP.part.hbond>
-2.0000

> <Gold.PLP.part.metal>
0.0000

> <Gold.PLP.part.buried>
-3.5427

> <Gold.PLP.part.nonpolar>
-31.1869

> <Gold.PLP.part.repulsive>
0.0635

> <Gold.PLP.ligand.clash>
0.0000

> <Gold.PLP.ligand.torsion>
1.1942

> <Gold.PLP.Chemscore.Hbond>
3.0000

> <Gold.PLP.Chemscore.CHOScore>
0.0000

> <Gold.PLP.Chemscore.Metal>
0.0000

> <Gold.Chemscore.Hbonds>
donor molecule, donor type, donor heavy atom, donor atom, acceptor molecule, acceptor atom, score
      L1  H    11    39       P1  7948  2.00
      P1  H  7997  8010       L1    15  0.68

> <Gold.PLP.Chemscore.Internal.Correction>
0.1550

> <Gold.Rescore>
     Score         DG    S(hbond)    S(metal)    S(lipo)     H(rot)  DE(clash)    DE(int)     intcor
     11.49     -13.38       1.99        0.00      58.72       2.19       0.04       1.84       ----

> <Gold.Chemscore.Fitness>
11.4913

> <Gold.Chemscore.DG>
-13.3778

> <Gold.Chemscore.ZeroCoef>
-5.4800

> <Gold.Chemscore.Hbond>
1.9886

> <Gold.Chemscore.Metal>
0.0000

> <Gold.Chemscore.Lipo>
58.7217

> <Gold.Chemscore.Internal_Hbond>
0.0000

> <Gold.Chemscore.DEClash>
0.0425

> <Gold.Chemscore.DEInternal>
1.8439

> <Gold.Chemscore.Rot>
2.1932

> <Gold.Chemscore.Internal.Correction>
   9.000000E+99

> <Gold.Chemscore.Hbonds>
donor molecule, donor type, donor heavy atom, donor atom, acceptor molecule, acceptor atom, score
      L1  H    11    39       P1  7948  0.93
      P1  H  7997  8010       L1    15  0.68

> <Gold.Chemscore.Hbond.Weighted>
-6.6418

> <Gold.Chemscore.Metal.Weighted>
-0.0000

> <Gold.Chemscore.Lipo.Weighted>
-6.8704

> <Gold.Chemscore.Internal_Hbond.Weighted>
0.0000

> <Gold.Chemscore.DEClash.Weighted>
0.0425

> <Gold.Chemscore.DEInternal.Weighted>
1.8439

> <Gold.Chemscore.Rot.Weighted>
5.6145

> <Gold.Chemscore.Internal.Correction.Weighted>
   9.000000E+99

> <Gold.Protein.RotatedTorsions>
[ 6907 6896 6895 6894 ] final  120.85 input  -60.11 | X-H torsion
[ 7974 7965 7964 7962 ] final  -33.11 input  175.53 | X-H torsion
[ 8008 7997 7996 7995 ] final   49.71 input   59.86 | X-H torsion
[ 10167 10162 10161 10158 ] final  -79.62 input  -65.29 | X-H torsion
[ 10718 10713 10712 10709 ] final   49.79 input   66.30 | X-H torsion
[ 10763 10752 10751 10750 ] final   64.15 input  -60.55 | X-H torsion
[ 11005 11000 10999 10996 ] final  144.77 input  -57.11 | X-H torsion

> <Gold.Protein.ActiveResidues>
 VAL166  LYS551  ARG553  GLY616  TRP617  ASP618  TYR619  PRO620  LYS621  CYS622 
 ASP623  PHE694  ASN695  SER759  ASP760  ASP761  ALA762  ILE779  LEU786  VAL792 
 PHE793  MET794  SER795  GLU796  ALA797  LYS798  CYS799  TRP800  GLU811  SER814 

> <Gold.Protein.RotatedAtoms>
  152.4366  133.7372  159.6620 H   0  0  0  0  0  0  0  0  0  0  0  0  # atno 6907 bound_to 6896
  150.8251  133.8175  159.3128 H   0  0  0  0  0  0  0  0  0  0  0  0  # atno 6908 bound_to 6896
  151.5846  135.1059  160.0077 H   0  0  0  0  0  0  0  0  0  0  0  0  # atno 6909 bound_to 6896
  146.0936  140.5876  142.8853 H   0  0  0  0  0  0  0  0  0  0  0  0  # atno 7974 bound_to 7965
  155.4067  140.3440  155.4260 H   0  0  0  0  0  0  0  0  0  0  0  0  # atno 8008 bound_to 7997
  156.1472  140.1560  156.8859 H   0  0  0  0  0  0  0  0  0  0  0  0  # atno 8009 bound_to 7997
  154.5021  140.0812  156.7800 H   0  0  0  0  0  0  0  0  0  0  0  0  # atno 8010 bound_to 7997
  140.4577  143.2463  151.8395 H   0  0  0  0  0  0  0  0  0  0  0  0  # atno 10167 bound_to 10162
  157.4822  130.8322  149.8106 H   0  0  0  0  0  0  0  0  0  0  0  0  # atno 10718 bound_to 10713
  153.0045  135.5403  154.6465 H   0  0  0  0  0  0  0  0  0  0  0  0  # atno 10763 bound_to 10752
  154.5708  135.2841  155.0831 H   0  0  0  0  0  0  0  0  0  0  0  0  # atno 10764 bound_to 10752
  154.1998  135.6486  153.5136 H   0  0  0  0  0  0  0  0  0  0  0  0  # atno 10765 bound_to 10752
  140.0658  134.9179  157.1262 H   0  0  0  0  0  0  0  0  0  0  0  0  # atno 11005 bound_to 11000
  144.7379  140.4859  143.6890 LP  0  0  0  0  0  0  0  0  0  0  0  0  # atno 17320 bound_to 7965
  145.5991  139.1502  143.3139 LP  0  0  0  0  0  0  0  0  0  0  0  0  # atno 17321 bound_to 7965
  139.4803  144.5045  151.9016 LP  0  0  0  0  0  0  0  0  0  0  0  0  # atno 17342 bound_to 10162
  140.4131  144.2342  150.5888 LP  0  0  0  0  0  0  0  0  0  0  0  0  # atno 17343 bound_to 10162
  156.0127  130.3826  150.2210 LP  0  0  0  0  0  0  0  0  0  0  0  0  # atno 17370 bound_to 10713
  157.0396  131.0031  151.3287 LP  0  0  0  0  0  0  0  0  0  0  0  0  # atno 17371 bound_to 10713
  140.3700  134.2400  155.7179 LP  0  0  0  0  0  0  0  0  0  0  0  0  # atno 17394 bound_to 11000
  141.1992  133.8017  157.0546 LP  0  0  0  0  0  0  0  0  0  0  0  0  # atno 17395 bound_to 11000

$$$$
