#       Name:                AV-unprocessed.smi:2032
#       Creating user name   scv26
#       Creation time:       Fri Mar 27 10:52:46 2020


#       File generated by GOLD software.
#

@<TRIPOS>MOLECULE
AV-unprocessed.smi:2032
    48    49     1
SMALL
NO_CHARGES


@<TRIPOS>ATOM
      1 ****        -2.6686  -1.7061  -3.1955 C.3            1 S1                 0.0000
      2 ****        -2.0989  -1.0649  -1.9254 C.3            1 S1                 0.0000
      3 ****        -2.2896   0.4676  -1.9159 C.3            1 S1                 0.0000
      4 ****        -1.7918   1.0643  -0.6460 N.4            1 S1                 1.0000
      5 ****        -0.2960   1.1330  -0.5071 C.3            1 S1                 0.0000
      6 ****         0.3612   1.8242  -1.7267 C.3            1 S1                 0.0000
      7 ****         0.1364   1.8507   0.8027 C.3            1 S1                 0.0000
      8 ****         1.5858   1.8986   0.9737 N.am           1 S1                 0.0000
      9 ****         2.3650   0.8623   1.3154 C.2            1 S1                 0.0000
     10 ****         1.8583  -0.2408   1.5345 O.2            1 S1                 0.0000
     11 ****         3.6804   1.1666   1.3729 N.pl3          1 S1                -1.0000
     12 ****         4.5762   0.2146   1.6811 C.2            1 S1                 0.0000
     13 ****         5.0981   0.0718   2.9046 N.2            1 S1                 0.0000
     14 ****         6.0122  -0.9793   2.9986 C.2            1 S1                 0.0000
     15 ****         6.1966  -1.6469   1.8169 C.2            1 S1                 0.0000
     16 ****         5.2226  -0.9709   0.5428 S.3            1 S1                 0.0000
     17 ****        -2.5140   0.4043   0.4765 C.3            1 S1                 0.0000
     18 ****        -2.3185  -1.1267   0.4455 C.3            1 S1                 0.0000
     19 ****        -3.1101  -1.8279   1.5550 C.3            1 S1                 0.0000
     20 ****        -2.7820  -1.6239  -0.8068 O.3            1 S1                 0.0000
     21 ****        -2.1672  -1.3256  -4.0857 H              1 S1                 0.0000
     22 ****        -3.7348  -1.5020  -3.2986 H              1 S1                 0.0000
     23 ****        -2.5372  -2.7883  -3.1782 H              1 S1                 0.0000
     24 ****        -1.0394  -1.3171  -1.8630 H              1 S1                 0.0000
     25 ****        -1.8466   0.9290  -2.7959 H              1 S1                 0.0000
     26 ****        -3.3546   0.6914  -1.9960 H              1 S1                 0.0000
     27 ****         0.0906   0.1155  -0.4720 H              1 S1                 0.0000
     28 ****         1.4334   1.9638  -1.5913 H              1 S1                 0.0000
     29 ****        -0.0747   2.8071  -1.9074 H              1 S1                 0.0000
     30 ****         0.2662   1.2342  -2.6372 H              1 S1                 0.0000
     31 ****        -0.2407   2.8737   0.8096 H              1 S1                 0.0000
     32 ****        -0.2615   1.3677   1.6931 H              1 S1                 0.0000
     33 ****         2.0393   2.7855   0.8086 H              1 S1                 0.0000
     34 ****         6.4868  -1.1806   3.9474 H              1 S1                 0.0000
     35 ****         6.8428  -2.4885   1.6179 H              1 S1                 0.0000
     36 ****        -2.2533   0.8170   1.4476 H              1 S1                 0.0000
     37 ****        -3.5768   0.6248   0.3648 H              1 S1                 0.0000
     38 ****        -1.2649  -1.3803   0.5689 H              1 S1                 0.0000
     39 ****        -2.7888  -1.4888   2.5401 H              1 S1                 0.0000
     40 ****        -2.9667  -2.9078   1.5134 H              1 S1                 0.0000
     41 ****        -4.1787  -1.6298   1.4646 H              1 S1                 0.0000
     42 ****        -2.0978   2.0268  -0.6495 H              1 S1                 0.0000
     43 ****         0.8686  -0.3606   1.4572 LP             1 S1                 0.0000
     44 ****         2.4373  -1.0152   1.7895 LP             1 S1                 0.0000
     45 ****         3.9867   2.1001   1.1861 LP             1 S1                 0.0000
     46 ****         4.8570   0.6604   3.6764 LP             1 S1                 0.0000
     47 ****        -2.6548  -2.6156  -0.8208 LP             1 S1                 0.0000
     48 ****        -3.7556  -1.4115  -0.8914 LP             1 S1                 0.0000
@<TRIPOS>BOND
    1    1    2 1     
    2    1   21 1     
    3    1   22 1     
    4    1   23 1     
    5    2   20 1     
    6    2    3 1     
    7    2   24 1     
    8    3    4 1     
    9    3   25 1     
   10    3   26 1     
   11    4    5 1     
   12    4   17 1     
   13    4   42 1     
   14    5    6 1     
   15    5    7 1     
   16    5   27 1     
   17    6   28 1     
   18    6   29 1     
   19    6   30 1     
   20    7    8 1     
   21    7   31 1     
   22    7   32 1     
   23    8    9 am    
   24    8   33 1     
   25    9   10 2     
   26    9   11 1     
   27   11   12 1     
   28   12   16 1     
   29   12   13 2     
   30   13   14 1     
   31   14   15 2     
   32   14   34 1     
   33   15   16 1     
   34   15   35 1     
   35   17   18 1     
   36   17   36 1     
   37   17   37 1     
   38   18   19 1     
   39   18   20 1     
   40   18   38 1     
   41   19   39 1     
   42   19   40 1     
   43   19   41 1     
   44   10   43 1     
   45   10   44 1     
   46   11   45 1     
   47   13   46 1     
   48   20   47 1     
   49   20   48 1     
@<TRIPOS>SUBSTRUCTURE
      1 S1             1
@<TRIPOS>SET
LONE_PAIRS      STATIC     ATOMS    <user>   **** ""
6 43 44 45 46 47 48
DONOR_HYDROGENS      STATIC     ATOMS    <user>   **** ""
2 42 33
ATOM$BLUE        STATIC     ATOMS    COLORGROUP SYSTEM
6 43 44 45 46 47 48
ATOM$RED        STATIC     ATOMS    COLORGROUP SYSTEM
2 42 33
