AV-unprocessed.smi:2032|AV-procd|sdf|8253|dock10
  -GOLD-   2272010523D 1   1.00000     0.00000
 Structure written by MMmdl.
 42 43  0  0  0  0  0  0  0  0  3 V2000
  146.1408  132.8302  150.3386 C   0  0  0  0  0  0  0  0  0  0  0  0
  146.3670  133.9818  151.3246 C   0  0  2  0  0  0  0  0  0  0  0  0
  147.1177  133.5189  152.5873 C   0  0  0  0  0  0  0  0  0  0  0  0
  147.2388  134.6289  153.5699 N   0  3  2  0  0  0  0  0  0  0  0  0
  148.0327  134.3337  154.8059 C   0  0  1  0  0  0  0  0  0  0  0  0
  149.4603  133.8065  154.5229 C   0  0  0  0  0  0  0  0  0  0  0  0
  148.0937  135.5974  155.7033 C   0  0  0  0  0  0  0  0  0  0  0  0
  148.6554  135.3320  157.0239 N   0  0  0  0  0  0  0  0  0  0  0  0
  148.1593  135.7786  158.1862 C   0  0  0  0  0  0  0  0  0  0  0  0
  147.1554  136.4951  158.1905 O   0  0  0  0  0  0  0  0  0  0  0  0
  148.8522  135.3600  159.2684 N   0  5  0  0  0  0  0  0  0  0  0  0
  148.3059  135.4517  160.4918 C   0  0  0  0  0  0  0  0  0  0  0  0
  148.2190  136.6026  161.1684 N   0  0  0  0  0  0  0  0  0  0  0  0
  147.6206  136.4652  162.4223 C   0  0  0  0  0  0  0  0  0  0  0  0
  147.2510  135.1781  162.7104 C   0  0  0  0  0  0  0  0  0  0  0  0
  147.6468  134.0935  161.4079 S   0  0  0  0  0  0  0  0  0  0  0  0
  145.8846  135.1591  153.8828 C   0  0  0  0  0  0  0  0  0  0  0  0
  145.1353  135.5887  152.6082 C   0  0  1  0  0  0  0  0  0  0  0  0
  145.6822  136.8831  151.9795 C   0  0  0  0  0  0  0  0  0  0  0  0
  145.0927  134.5062  151.6813 O   0  0  0  0  0  0  0  0  0  0  0  0
  147.0878  132.3967  150.0166 H   0  0  0  0  0  0  0  0  0  0  0  0
  145.6152  133.1767  149.4483 H   0  0  0  0  0  0  0  0  0  0  0  0
  145.5448  132.0356  150.7886 H   0  0  0  0  0  0  0  0  0  0  0  0
  146.9499  134.7496  150.8153 H   0  0  0  0  0  0  0  0  0  0  0  0
  146.6045  132.6747  153.0512 H   0  0  0  0  0  0  0  0  0  0  0  0
  148.1009  133.1721  152.2704 H   0  0  0  0  0  0  0  0  0  0  0  0
  147.5131  133.5398  155.3448 H   0  0  0  0  0  0  0  0  0  0  0  0
  150.0090  133.6187  155.4458 H   0  0  0  0  0  0  0  0  0  0  0  0
  150.0418  134.5200  153.9382 H   0  0  0  0  0  0  0  0  0  0  0  0
  149.4462  132.8550  153.9912 H   0  0  0  0  0  0  0  0  0  0  0  0
  148.7136  136.3567  155.2256 H   0  0  0  0  0  0  0  0  0  0  0  0
  147.1131  136.0531  155.8367 H   0  0  0  0  0  0  0  0  0  0  0  0
  149.4818  134.7532  157.0644 H   0  0  0  0  0  0  0  0  0  0  0  0
  147.4990  137.3382  163.0460 H   0  0  0  0  0  0  0  0  0  0  0  0
  146.7750  134.8029  163.6038 H   0  0  0  0  0  0  0  0  0  0  0  0
  145.3116  134.3831  154.3936 H   0  0  0  0  0  0  0  0  0  0  0  0
  145.9342  136.0030  154.5691 H   0  0  0  0  0  0  0  0  0  0  0  0
  144.0992  135.7870  152.8844 H   0  0  0  0  0  0  0  0  0  0  0  0
  145.5720  137.7217  152.6674 H   0  0  0  0  0  0  0  0  0  0  0  0
  145.1389  137.1324  151.0678 H   0  0  0  0  0  0  0  0  0  0  0  0
  146.7404  136.8089  151.7296 H   0  0  0  0  0  0  0  0  0  0  0  0
  147.7391  135.3640  153.0909 H   0  0  0  0  0  0  0  0  0  0  0  0
  1  2  1  0  0  0  0
  1 21  1  0  0  0  0
  1 22  1  0  0  0  0
  1 23  1  0  0  0  0
  2 20  1  0  0  0  0
  2  3  1  0  0  0  0
  2 24  1  0  0  0  0
  3  4  1  0  0  0  0
  3 25  1  0  0  0  0
  3 26  1  0  0  0  0
  4  5  1  0  0  0  0
  4 17  1  0  0  0  0
  4 42  1  0  0  0  0
  5  6  1  0  0  0  0
  5  7  1  0  0  0  0
  5 27  1  0  0  0  0
  6 28  1  0  0  0  0
  6 29  1  0  0  0  0
  6 30  1  0  0  0  0
  7  8  1  0  0  0  0
  7 31  1  0  0  0  0
  7 32  1  0  0  0  0
  8  9  1  0  0  0  0
  8 33  1  0  0  0  0
  9 10  2  0  0  0  0
  9 11  1  0  0  0  0
 11 12  1  0  0  0  0
 12 16  1  0  0  0  0
 12 13  2  0  0  0  0
 13 14  1  0  0  0  0
 14 15  2  0  0  0  0
 14 34  1  0  0  0  0
 15 16  1  0  0  0  0
 15 35  1  0  0  0  0
 17 18  1  0  0  0  0
 17 36  1  0  0  0  0
 17 37  1  0  0  0  0
 18 19  1  0  0  0  0
 18 20  1  0  0  0  0
 18 38  1  0  0  0  0
 19 39  1  0  0  0  0
 19 40  1  0  0  0  0
 19 41  1  0  0  0  0
M  CHG  1   4   1
M  CHG  1  11  -1
M  END
> <s_m_source_file>
AV-unprocessed.smi

> <i_m_source_file_index>
2032

> <i_lp_mmshare_version>
43012

> <i_f3d_flags>
0

> <s_epik_input>
W0NIM11bQ0BASF0xW0NIMl1OKFtDSDJdW0NASF0oTzEpW0NIM10pW0NASF0oW0NIM10pW0NIMl1bTkhdQyg9TylbTkhdYzJuW2NIXVtjSF1zMg==

> <s_epik_cmdline>
J2VwaWtfcHl0aG9uJywgJy1waCcsICc3LjAnLCAnLXRuJywgJzgnLCAnLW1hJywgJzIwMCcsICctbWV0YWxfYmluZGluZycsICctaW1hZScsICc8aW5maWxlLm1hZT4nLCAnLW9tYWUnLCAnPG91dGZpbGUubWFlPic=

> <r_lp_tautomer_probability>
0.999

> <r_epik_Ionization_Penalty>
6.71699

> <r_epik_Ionization_Penalty_Charging>
5.88592

> <r_epik_Ionization_Penalty_Neutral>
0.831074

> <r_epik_State_Penalty>
6.08365

> <r_epik_Charging_Adjusted_Penalty>
11.9696

> <i_epik_Tot_Q>
0

> <i_epik_Tot_abs_Q>
2

> <r_epik_Metal_State_Penalty>
2.0947

> <b_epik_Metal_Only>
1

> <s_lp_Force_Field>
OPLS_2005

> <r_lp_Energy>
13.0518

> <b_lp_Chiralities_Consistent>
1

> <s_lp_Variant>
AV-unprocessed.smi:2032-23

> <Gold.Version>
5.8.1

> <Gold.Id.Protein>
6NUR|6NUR_protein|mol2

> <Gold.PLP.Fitness>
42.5508

> <Gold.PLP.PLP>
-30.9435

> <Gold.PLP.part.hbond>
-3.0000

> <Gold.PLP.part.metal>
0.0000

> <Gold.PLP.part.buried>
-4.8621

> <Gold.PLP.part.nonpolar>
-24.0145

> <Gold.PLP.part.repulsive>
0.1589

> <Gold.PLP.ligand.clash>
0.0000

> <Gold.PLP.ligand.torsion>
0.9014

> <Gold.PLP.Chemscore.Hbond>
4.4500

> <Gold.PLP.Chemscore.CHOScore>
0.0000

> <Gold.PLP.Chemscore.Metal>
0.0000

> <Gold.Chemscore.Hbonds>
donor molecule, donor type, donor heavy atom, donor atom, acceptor molecule, acceptor atom, score
      L1  H     4    42       P1  7948  2.00
      P1  H  6896  6909       L1    11  2.00
      P1  H  6931  6943       L1    13  0.30

> <Gold.PLP.Chemscore.Internal.Correction>
0.0600

> <Gold.Rescore>
     Score         DG    S(hbond)    S(metal)    S(lipo)     H(rot)  DE(clash)    DE(int)     intcor
     14.93     -15.85       1.87        0.00      69.78       1.58       0.01       0.90       ----

> <Gold.Chemscore.Fitness>
14.9341

> <Gold.Chemscore.DG>
-15.8488

> <Gold.Chemscore.ZeroCoef>
-5.4800

> <Gold.Chemscore.Hbond>
1.8703

> <Gold.Chemscore.Metal>
0.0000

> <Gold.Chemscore.Lipo>
69.7829

> <Gold.Chemscore.Internal_Hbond>
0.0000

> <Gold.Chemscore.DEClash>
0.0115

> <Gold.Chemscore.DEInternal>
0.9032

> <Gold.Chemscore.Rot>
1.5791

> <Gold.Chemscore.Internal.Correction>
   9.000000E+99

> <Gold.Chemscore.Hbonds>
donor molecule, donor type, donor heavy atom, donor atom, acceptor molecule, acceptor atom, score
      L1  H     4    42       P1  7948  0.99
      P1  H  6896  6909       L1    11  0.53

> <Gold.Chemscore.Hbond.Weighted>
-6.2467

> <Gold.Chemscore.Metal.Weighted>
-0.0000

> <Gold.Chemscore.Lipo.Weighted>
-8.1646

> <Gold.Chemscore.Internal_Hbond.Weighted>
0.0000

> <Gold.Chemscore.DEClash.Weighted>
0.0115

> <Gold.Chemscore.DEInternal.Weighted>
0.9032

> <Gold.Chemscore.Rot.Weighted>
4.0425

> <Gold.Chemscore.Internal.Correction.Weighted>
   9.000000E+99

> <Gold.Protein.RotatedTorsions>
[ 6907 6896 6895 6894 ] final   42.91 input  -60.11 | X-H torsion
[ 7974 7965 7964 7962 ] final   13.80 input  175.53 | X-H torsion
[ 8008 7997 7996 7995 ] final  108.77 input   59.86 | X-H torsion
[ 10167 10162 10161 10158 ] final   67.81 input  -65.29 | X-H torsion
[ 10718 10713 10712 10709 ] final -102.17 input   66.30 | X-H torsion
[ 10763 10752 10751 10750 ] final  165.35 input  -60.55 | X-H torsion
[ 11005 11000 10999 10996 ] final  -62.12 input  -57.11 | X-H torsion

> <Gold.Protein.ActiveResidues>
 VAL166  LYS551  ARG553  GLY616  TRP617  ASP618  TYR619  PRO620  LYS621  CYS622 
 ASP623  PHE694  ASN695  SER759  ASP760  ASP761  ALA762  ILE779  LEU786  VAL792 
 PHE793  MET794  SER795  GLU796  ALA797  LYS798  CYS799  TRP800  GLU811  SER814 

> <Gold.Protein.RotatedAtoms>
  152.2137  134.8478  160.0494 H   0  0  0  0  0  0  0  0  0  0  0  0  # atno 6907 bound_to 6896
  151.9287  133.3600  159.3931 H   0  0  0  0  0  0  0  0  0  0  0  0  # atno 6908 bound_to 6896
  150.6982  134.4485  159.5369 H   0  0  0  0  0  0  0  0  0  0  0  0  # atno 6909 bound_to 6896
  146.2320  139.9135  142.8521 H   0  0  0  0  0  0  0  0  0  0  0  0  # atno 7974 bound_to 7965
  156.1928  140.3070  155.9367 H   0  0  0  0  0  0  0  0  0  0  0  0  # atno 8008 bound_to 7997
  155.3134  140.0452  157.3053 H   0  0  0  0  0  0  0  0  0  0  0  0  # atno 8009 bound_to 7997
  154.5473  140.2280  155.8551 H   0  0  0  0  0  0  0  0  0  0  0  0  # atno 8010 bound_to 7997
  140.0855  144.5034  150.7133 H   0  0  0  0  0  0  0  0  0  0  0  0  # atno 10167 bound_to 10162
  156.0219  130.5408  150.7070 H   0  0  0  0  0  0  0  0  0  0  0  0  # atno 10718 bound_to 10713
  154.3227  135.2755  155.2511 H   0  0  0  0  0  0  0  0  0  0  0  0  # atno 10763 bound_to 10752
  154.4858  135.5846  153.6426 H   0  0  0  0  0  0  0  0  0  0  0  0  # atno 10764 bound_to 10752
  152.9875  135.6122  154.3413 H   0  0  0  0  0  0  0  0  0  0  0  0  # atno 10765 bound_to 10752
  141.1349  133.6637  156.5480 H   0  0  0  0  0  0  0  0  0  0  0  0  # atno 11005 bound_to 11000
  145.2206  140.9933  143.4047 LP  0  0  0  0  0  0  0  0  0  0  0  0  # atno 17320 bound_to 7965
  144.9613  139.3977  143.6354 LP  0  0  0  0  0  0  0  0  0  0  0  0  # atno 17321 bound_to 7965
  140.7056  143.2465  151.4737 LP  0  0  0  0  0  0  0  0  0  0  0  0  # atno 17342 bound_to 10162
  139.5755  144.1830  152.1896 LP  0  0  0  0  0  0  0  0  0  0  0  0  # atno 17343 bound_to 10162
  157.4717  131.0894  151.0635 LP  0  0  0  0  0  0  0  0  0  0  0  0  # atno 17370 bound_to 10713
  157.1094  130.6015  149.5478 LP  0  0  0  0  0  0  0  0  0  0  0  0  # atno 17371 bound_to 10713
  140.4087  134.7292  157.4823 LP  0  0  0  0  0  0  0  0  0  0  0  0  # atno 17394 bound_to 11000
  140.0443  134.6222  155.8941 LP  0  0  0  0  0  0  0  0  0  0  0  0  # atno 17395 bound_to 11000

$$$$
