#       Name:                AV-unprocessed.smi:2631
#       Creating user name   scv26
#       Creation time:       Fri Mar 27 14:26:00 2020


#       File generated by GOLD software.
#

@<TRIPOS>MOLECULE
AV-unprocessed.smi:2631
    41    42     1
SMALL
NO_CHARGES


@<TRIPOS>ATOM
      1 ****        -2.9947   1.6863   2.2346 C.3            1 S1                 0.0000
      2 ****        -2.5730   0.3346   2.2272 O.3            1 S1                 0.0000
      3 ****        -2.8574  -0.3191   1.0016 C.3            1 S1                 0.0000
      4 ****        -2.3389  -1.7666   1.0472 C.3            1 S1                 0.0000
      5 ****        -0.8612  -1.8210   1.0637 N.am           1 S1                 0.0000
      6 ****        -0.1575  -1.7186  -0.1656 C.2            1 S1                 0.0000
      7 ****        -0.8539  -1.5773  -1.3550 N.pl3          1 S1                 0.0000
      8 ****         1.1940  -1.7534  -0.1603 C.2            1 S1                 0.0000
      9 ****         2.2455  -1.6125  -1.5883 S.3            1 S1                 0.0000
     10 ****         2.3709   0.1396  -1.7338 C.ar           1 S1                 0.0000
     11 ****         1.4767   0.8416  -2.5661 C.ar           1 S1                 0.0000
     12 ****         1.5712   2.2428  -2.6737 C.ar           1 S1                 0.0000
     13 ****         2.5592   2.9406  -1.9507 C.ar           1 S1                 0.0000
     14 ****         2.6721   4.6572  -2.0812 Cl             1 S1                 0.0000
     15 ****         3.4548   2.2366  -1.1212 C.ar           1 S1                 0.0000
     16 ****         3.3619   0.8354  -1.0131 C.ar           1 S1                 0.0000
     17 ****         1.9293  -1.9022   1.0971 C.2            1 S1                 0.0000
     18 ****         3.1601  -1.9481   1.1169 O.2            1 S1                 0.0000
     19 ****         1.1837  -1.9841   2.2325 N.pl3          1 S1                -1.0000
     20 ****        -0.1821  -1.9411   2.2485 C.2            1 S1                 0.0000
     21 ****        -0.8156  -2.0074   3.3027 O.2            1 S1                 0.0000
     22 ****        -2.7523   2.1396   3.1958 H              1 S1                 0.0000
     23 ****        -4.0726   1.7641   2.0872 H              1 S1                 0.0000
     24 ****        -2.4909   2.2599   1.4556 H              1 S1                 0.0000
     25 ****        -3.9361  -0.3253   0.8393 H              1 S1                 0.0000
     26 ****        -2.4090   0.2234   0.1680 H              1 S1                 0.0000
     27 ****        -2.7801  -2.2839   1.9004 H              1 S1                 0.0000
     28 ****        -2.7218  -2.3186   0.1887 H              1 S1                 0.0000
     29 ****        -1.8629  -1.5444  -1.3748 H              1 S1                 0.0000
     30 ****        -0.3814  -1.3693  -2.2226 H              1 S1                 0.0000
     31 ****         0.7168   0.3093  -3.1189 H              1 S1                 0.0000
     32 ****         0.8841   2.7810  -3.3100 H              1 S1                 0.0000
     33 ****         4.2126   2.7693  -0.5658 H              1 S1                 0.0000
     34 ****         4.0474   0.2985  -0.3737 H              1 S1                 0.0000
     35 ****        -3.0414  -0.1510   2.9653 LP             1 S1                 0.0000
     36 ****        -1.5857   0.3064   2.3836 LP             1 S1                 0.0000
     37 ****         3.6766  -1.8833   0.2631 LP             1 S1                 0.0000
     38 ****         3.6427  -2.0501   1.9868 LP             1 S1                 0.0000
     39 ****         1.6625  -2.0813   3.1050 LP             1 S1                 0.0000
     40 ****        -1.8149  -1.9735   3.2885 LP             1 S1                 0.0000
     41 ****        -0.3306  -2.0951   4.1728 LP             1 S1                 0.0000
@<TRIPOS>BOND
    1    1    2 1     
    2    1   22 1     
    3    1   23 1     
    4    1   24 1     
    5    2    3 1     
    6    3    4 1     
    7    3   25 1     
    8    3   26 1     
    9    4    5 1     
   10    4   27 1     
   11    4   28 1     
   12    5   20 am    
   13    5    6 1     
   14    6    7 1     
   15    6    8 2     
   16    7   29 1     
   17    7   30 1     
   18    8    9 1     
   19    8   17 1     
   20    9   10 1     
   21   10   16 ar    
   22   10   11 ar    
   23   11   12 ar    
   24   11   31 1     
   25   12   13 ar    
   26   12   32 1     
   27   13   14 1     
   28   13   15 ar    
   29   15   16 ar    
   30   15   33 1     
   31   16   34 1     
   32   17   18 2     
   33   17   19 1     
   34   19   20 1     
   35   20   21 2     
   36    2   35 1     
   37    2   36 1     
   38   18   37 1     
   39   18   38 1     
   40   19   39 1     
   41   21   40 1     
   42   21   41 1     
@<TRIPOS>SUBSTRUCTURE
      1 S1             1
@<TRIPOS>SET
LONE_PAIRS      STATIC     ATOMS    <user>   **** ""
7 35 36 37 38 39 40 41
DONOR_HYDROGENS      STATIC     ATOMS    <user>   **** ""
2 29 30
ATOM$BLUE        STATIC     ATOMS    COLORGROUP SYSTEM
7 35 36 37 38 39 40 41
ATOM$RED        STATIC     ATOMS    COLORGROUP SYSTEM
2 29 30
