AV-unprocessed.smi:1607|AV-procd|sdf|6465|dock1
  -GOLD-   22720 7123D 1   1.00000     0.00000
 Structure written by MMmdl.
 39 40  0  0  0  0  0  0  0  0  2 V2000
  148.1049  133.4889  153.2318 C   0  0  0  0  0  0  0  0  0  0  0  0
  146.5685  133.5769  153.2210 C   0  0  2  0  0  0  0  0  0  0  0  0
  145.9611  133.2548  151.8429 C   0  0  0  0  0  0  0  0  0  0  0  0
  146.1767  134.4099  150.8549 C   0  0  0  0  0  0  0  0  0  0  0  0
  145.6690  135.7381  151.4380 C   0  0  0  0  0  0  0  0  0  0  0  0
  146.3118  136.0282  152.7457 N   0  3  1  0  0  0  0  0  0  0  0  0
  145.9598  137.3746  153.2621 C   0  0  0  0  0  0  0  0  0  0  0  0
  146.3939  138.4993  152.3019 C   0  0  0  0  0  0  0  0  0  0  0  0
  147.4785  139.2965  152.8630 N   0  0  0  0  0  0  0  0  0  0  0  0
  147.4099  139.9770  154.0179 C   0  0  0  0  0  0  0  0  0  0  0  0
  146.4004  140.0091  154.7218 O   0  0  0  0  0  0  0  0  0  0  0  0
  148.6696  140.7339  154.4447 C   0  0  0  0  0  0  0  0  0  0  0  0
  149.7302  139.8177  154.8219 N   0  0  0  0  0  0  0  0  0  0  0  0
  150.2628  138.7782  154.1756 C   0  0  0  0  0  0  0  0  0  0  0  0
  151.2207  138.2005  154.8841 N   0  0  0  0  0  0  0  0  0  0  0  0
  151.2581  138.9604  156.0413 N   0  0  0  0  0  0  0  0  0  0  0  0
  150.3765  139.9218  156.0099 N   0  0  0  0  0  0  0  0  0  0  0  0
  146.0594  134.9411  153.7308 C   0  0  0  0  0  0  0  0  0  0  0  0
  148.5616  134.2343  152.5811 H   0  0  0  0  0  0  0  0  0  0  0  0
  148.4431  132.5070  152.8997 H   0  0  0  0  0  0  0  0  0  0  0  0
  148.4975  133.6461  154.2369 H   0  0  0  0  0  0  0  0  0  0  0  0
  146.2140  132.8155  153.9170 H   0  0  0  0  0  0  0  0  0  0  0  0
  146.3813  132.3306  151.4448 H   0  0  0  0  0  0  0  0  0  0  0  0
  144.8903  133.0787  151.9553 H   0  0  0  0  0  0  0  0  0  0  0  0
  147.2352  134.4969  150.6080 H   0  0  0  0  0  0  0  0  0  0  0  0
  145.6623  134.1952  149.9177 H   0  0  0  0  0  0  0  0  0  0  0  0
  145.8859  136.5408  150.7319 H   0  0  0  0  0  0  0  0  0  0  0  0
  144.5851  135.7081  151.5617 H   0  0  0  0  0  0  0  0  0  0  0  0
  144.8784  137.4429  153.3901 H   0  0  0  0  0  0  0  0  0  0  0  0
  146.3944  137.5096  154.2538 H   0  0  0  0  0  0  0  0  0  0  0  0
  146.7064  138.1043  151.3349 H   0  0  0  0  0  0  0  0  0  0  0  0
  145.5521  139.1639  152.1057 H   0  0  0  0  0  0  0  0  0  0  0  0
  148.3454  139.3225  152.3453 H   0  0  0  0  0  0  0  0  0  0  0  0
  149.0333  141.3713  153.6373 H   0  0  0  0  0  0  0  0  0  0  0  0
  148.4341  141.3846  155.2882 H   0  0  0  0  0  0  0  0  0  0  0  0
  149.9492  138.4464  153.1968 H   0  0  0  0  0  0  0  0  0  0  0  0
  144.9875  134.8829  153.9270 H   0  0  0  0  0  0  0  0  0  0  0  0
  146.5337  135.1674  154.6850 H   0  0  0  0  0  0  0  0  0  0  0  0
  147.3064  136.0416  152.5701 H   0  0  0  0  0  0  0  0  0  0  0  0
  1  2  1  0  0  0  0
  1 19  1  0  0  0  0
  1 20  1  0  0  0  0
  1 21  1  0  0  0  0
  2 18  1  0  0  0  0
  2  3  1  0  0  0  0
  2 22  1  0  0  0  0
  3  4  1  0  0  0  0
  3 23  1  0  0  0  0
  3 24  1  0  0  0  0
  4  5  1  0  0  0  0
  4 25  1  0  0  0  0
  4 26  1  0  0  0  0
  5  6  1  0  0  0  0
  5 27  1  0  0  0  0
  5 28  1  0  0  0  0
  6  7  1  0  0  0  0
  6 18  1  0  0  0  0
  6 39  1  0  0  0  0
  7  8  1  0  0  0  0
  7 29  1  0  0  0  0
  7 30  1  0  0  0  0
  8  9  1  0  0  0  0
  8 31  1  0  0  0  0
  8 32  1  0  0  0  0
  9 10  1  0  0  0  0
  9 33  1  0  0  0  0
 10 11  2  0  0  0  0
 10 12  1  0  0  0  0
 12 13  1  0  0  0  0
 12 34  1  0  0  0  0
 12 35  1  0  0  0  0
 13 17  1  0  0  0  0
 13 14  1  0  0  0  0
 14 15  2  0  0  0  0
 14 36  1  0  0  0  0
 15 16  1  0  0  0  0
 16 17  2  0  0  0  0
 18 37  1  0  0  0  0
 18 38  1  0  0  0  0
M  CHG  1   6   1
M  END
> <s_m_source_file>
AV-unprocessed.smi

> <i_m_source_file_index>
1607

> <i_lp_mmshare_version>
43012

> <i_f3d_flags>
0

> <s_epik_input>
W0NIM11bQ0BASF0xW0NIMl1bQ0gyXVtDSDJdTihbQ0gyXTEpW0NIMl1bQ0gyXVtOSF1DKD1PKVtDSDJdbjJbY0hdbm5uMg==

> <s_epik_cmdline>
J2VwaWtfcHl0aG9uJywgJy1waCcsICc3LjAnLCAnLXRuJywgJzgnLCAnLW1hJywgJzIwMCcsICctbWV0YWxfYmluZGluZycsICctaW1hZScsICc8aW5maWxlLm1hZT4nLCAnLW9tYWUnLCAnPG91dGZpbGUubWFlPic=

> <r_lp_tautomer_probability>
1

> <r_epik_Ionization_Penalty>
0.00268321

> <r_epik_Ionization_Penalty_Charging>
0.00267875

> <r_epik_Ionization_Penalty_Neutral>
4.46125e-06

> <r_epik_State_Penalty>
0.00186642

> <r_epik_Charging_Adjusted_Penalty>
0.00454517

> <i_epik_Tot_Q>
1

> <i_epik_Tot_abs_Q>
1

> <r_epik_Metal_State_Penalty>
-0

> <b_epik_Metal_Only>
0

> <s_lp_Force_Field>
OPLS_2005

> <r_lp_Energy>
22.0016

> <b_lp_Chiralities_Consistent>
1

> <s_lp_Variant>
AV-unprocessed.smi:1607-3

> <Gold.Version>
5.8.1

> <Gold.Id.Protein>
6NUR|6NUR_protein|mol2

> <Gold.PLP.Fitness>
41.5714

> <Gold.PLP.PLP>
-28.1867

> <Gold.PLP.part.hbond>
-2.0953

> <Gold.PLP.part.metal>
0.0000

> <Gold.PLP.part.buried>
-3.0441

> <Gold.PLP.part.nonpolar>
-22.6205

> <Gold.PLP.part.repulsive>
0.3261

> <Gold.PLP.ligand.clash>
0.0000

> <Gold.PLP.ligand.torsion>
0.5104

> <Gold.PLP.Chemscore.Hbond>
2.9920

> <Gold.PLP.Chemscore.CHOScore>
1.7914

> <Gold.PLP.Chemscore.Metal>
0.0000

> <Gold.Chemscore.Hbonds>
donor molecule, donor type, donor heavy atom, donor atom, acceptor molecule, acceptor atom, score
      L1  H     6    39       P1  7948  2.00
      L1  H     9    33       P1  7957  1.00
      L1  C    14    36       P1  7948  0.51
      L1  C    14    36       P1  7957  0.76

> <Gold.PLP.Chemscore.Internal.Correction>
0.0552

> <Gold.Rescore>
     Score         DG    S(hbond)    S(metal)    S(lipo)     H(rot)  DE(clash)    DE(int)     intcor
     10.20     -10.82       1.98        0.00      48.01       2.69       0.10       0.52       ----

> <Gold.Chemscore.Fitness>
10.2038

> <Gold.Chemscore.DG>
-10.8239

> <Gold.Chemscore.ZeroCoef>
-5.4800

> <Gold.Chemscore.Hbond>
1.9825

> <Gold.Chemscore.Metal>
0.0000

> <Gold.Chemscore.Lipo>
48.0070

> <Gold.Chemscore.Internal_Hbond>
0.0000

> <Gold.Chemscore.DEClash>
0.1012

> <Gold.Chemscore.DEInternal>
0.5188

> <Gold.Chemscore.Rot>
2.6932

> <Gold.Chemscore.Internal.Correction>
   9.000000E+99

> <Gold.Chemscore.Hbonds>
donor molecule, donor type, donor heavy atom, donor atom, acceptor molecule, acceptor atom, score
      L1  H     6    39       P1  7948  1.00
      L1  H     9    33       P1  7957  0.98

> <Gold.Chemscore.Hbond.Weighted>
-6.6216

> <Gold.Chemscore.Metal.Weighted>
-0.0000

> <Gold.Chemscore.Lipo.Weighted>
-5.6168

> <Gold.Chemscore.Internal_Hbond.Weighted>
0.0000

> <Gold.Chemscore.DEClash.Weighted>
0.1012

> <Gold.Chemscore.DEInternal.Weighted>
0.5188

> <Gold.Chemscore.Rot.Weighted>
6.8945

> <Gold.Chemscore.Internal.Correction.Weighted>
   9.000000E+99

> <Gold.Protein.RotatedTorsions>
[ 6907 6896 6895 6894 ] final -155.59 input  -60.11 | X-H torsion
[ 7974 7965 7964 7962 ] final  149.52 input  175.53 | X-H torsion
[ 8008 7997 7996 7995 ] final  -48.58 input   59.86 | X-H torsion
[ 10167 10162 10161 10158 ] final  -18.22 input  -65.29 | X-H torsion
[ 10718 10713 10712 10709 ] final  179.79 input   66.30 | X-H torsion
[ 10763 10752 10751 10750 ] final -150.32 input  -60.55 | X-H torsion
[ 11005 11000 10999 10996 ] final   74.53 input  -57.11 | X-H torsion

> <Gold.Protein.ActiveResidues>
 VAL166  LYS551  ARG553  GLY616  TRP617  ASP618  TYR619  PRO620  LYS621  CYS622 
 ASP623  PHE694  ASN695  SER759  ASP760  ASP761  ALA762  ILE779  LEU786  VAL792 
 PHE793  MET794  SER795  GLU796  ALA797  LYS798  CYS799  TRP800  GLU811  SER814 

> <Gold.Protein.RotatedAtoms>
  151.2747  133.4238  159.2623 H   0  0  0  0  0  0  0  0  0  0  0  0  # atno 6907 bound_to 6896
  151.0413  134.9609  159.8173 H   0  0  0  0  0  0  0  0  0  0  0  0  # atno 6908 bound_to 6896
  152.5365  134.2705  159.9022 H   0  0  0  0  0  0  0  0  0  0  0  0  # atno 6909 bound_to 6896
  144.8432  139.6291  143.6007 H   0  0  0  0  0  0  0  0  0  0  0  0  # atno 7974 bound_to 7965
  154.4031  140.1318  156.4362 H   0  0  0  0  0  0  0  0  0  0  0  0  # atno 8008 bound_to 7997
  155.7503  140.3488  155.5127 H   0  0  0  0  0  0  0  0  0  0  0  0  # atno 8009 bound_to 7997
  155.8956  140.1010  157.1377 H   0  0  0  0  0  0  0  0  0  0  0  0  # atno 8010 bound_to 7997
  140.7256  143.4938  150.9958 H   0  0  0  0  0  0  0  0  0  0  0  0  # atno 10167 bound_to 10162
  156.8705  130.9782  151.3074 H   0  0  0  0  0  0  0  0  0  0  0  0  # atno 10718 bound_to 10713
  154.8126  135.3287  154.7265 H   0  0  0  0  0  0  0  0  0  0  0  0  # atno 10763 bound_to 10752
  153.7911  135.6911  153.4876 H   0  0  0  0  0  0  0  0  0  0  0  0  # atno 10764 bound_to 10752
  153.1916  135.4549  155.0103 H   0  0  0  0  0  0  0  0  0  0  0  0  # atno 10765 bound_to 10752
  139.9387  134.7440  156.1159 H   0  0  0  0  0  0  0  0  0  0  0  0  # atno 11005 bound_to 11000
  146.2721  139.6661  142.9289 LP  0  0  0  0  0  0  0  0  0  0  0  0  # atno 17320 bound_to 7965
  145.4651  141.0434  143.2729 LP  0  0  0  0  0  0  0  0  0  0  0  0  # atno 17321 bound_to 7965
  139.8643  143.7274  152.3171 LP  0  0  0  0  0  0  0  0  0  0  0  0  # atno 17342 bound_to 10162
  139.7500  144.7537  151.0521 LP  0  0  0  0  0  0  0  0  0  0  0  0  # atno 17343 bound_to 10162
  157.6198  130.8646  149.9090 LP  0  0  0  0  0  0  0  0  0  0  0  0  # atno 17370 bound_to 10713
  156.0729  130.3683  150.0738 LP  0  0  0  0  0  0  0  0  0  0  0  0  # atno 17371 bound_to 10713
  141.1012  133.6676  156.2758 LP  0  0  0  0  0  0  0  0  0  0  0  0  # atno 17394 bound_to 11000
  140.6009  134.5556  157.5517 LP  0  0  0  0  0  0  0  0  0  0  0  0  # atno 17395 bound_to 11000

$$$$
