AV-unprocessed.smi:2440|AV-procd|sdf|9615|dock3
  -GOLD-   2272013253D 1   1.00000     0.00000
 Structure written by MMmdl.
 52 54  0  0  0  0  0  0  0  0  2 V2000
  145.7239  136.1919  151.0782 C   0  0  0  0  0  0  0  0  0  0  0  0
  144.8828  136.7007  152.2357 C   0  0  0  0  0  0  0  0  0  0  0  0
  143.4929  136.4543  152.2578 C   0  0  0  0  0  0  0  0  0  0  0  0
  142.6760  136.8747  153.2457 N   0  0  0  0  0  0  0  0  0  0  0  0
  143.2250  137.5716  154.2615 C   0  0  0  0  0  0  0  0  0  0  0  0
  144.5983  137.8737  154.3417 C   0  0  0  0  0  0  0  0  0  0  0  0
  145.4573  137.4194  153.3121 C   0  0  0  0  0  0  0  0  0  0  0  0
  146.8531  137.6959  153.2872 N   0  0  0  0  0  0  0  0  0  0  0  0
  147.5607  138.5083  154.0910 C   0  0  0  0  0  0  0  0  0  0  0  0
  147.1092  139.1308  155.0523 O   0  0  0  0  0  0  0  0  0  0  0  0
  148.8514  138.5429  153.7295 N   0  0  0  0  0  0  0  0  0  0  0  0
  149.8904  139.3224  154.3957 C   0  0  2  0  0  0  0  0  0  0  0  0
  150.3792  138.5804  155.6462 C   0  0  0  0  0  0  0  0  0  0  0  0
  151.4128  139.4099  156.4276 C   0  0  0  0  0  0  0  0  0  0  0  0
  150.8751  140.7506  156.8019 N   0  3  1  0  0  0  0  0  0  0  0  0
  151.7582  141.5926  157.6739 C   0  0  0  0  0  0  0  0  0  0  0  0
  151.9580  141.0437  159.1120 C   0  0  0  0  0  0  0  0  0  0  0  0
  152.8443  141.9642  159.9665 C   0  0  0  0  0  0  0  0  0  0  0  0
  152.2756  143.3870  160.0279 C   0  0  0  0  0  0  0  0  0  0  0  0
  152.0846  143.9550  158.6159 C   0  0  0  0  0  0  0  0  0  0  0  0
  151.2000  143.0348  157.7593 C   0  0  0  0  0  0  0  0  0  0  0  0
  150.4202  141.4910  155.5902 C   0  0  0  0  0  0  0  0  0  0  0  0
  149.3585  140.7044  154.8053 C   0  0  0  0  0  0  0  0  0  0  0  0
  145.1232  135.6133  150.3760 H   0  0  0  0  0  0  0  0  0  0  0  0
  146.5262  135.5499  151.4431 H   0  0  0  0  0  0  0  0  0  0  0  0
  146.1674  137.0269  150.5352 H   0  0  0  0  0  0  0  0  0  0  0  0
  143.0183  135.9055  151.4576 H   0  0  0  0  0  0  0  0  0  0  0  0
  142.5468  137.9069  155.0325 H   0  0  0  0  0  0  0  0  0  0  0  0
  144.9597  138.4546  155.1763 H   0  0  0  0  0  0  0  0  0  0  0  0
  147.3832  137.1717  152.6067 H   0  0  0  0  0  0  0  0  0  0  0  0
  149.1346  137.9935  152.9311 H   0  0  0  0  0  0  0  0  0  0  0  0
  150.7389  139.4504  153.7203 H   0  0  0  0  0  0  0  0  0  0  0  0
  149.5334  138.3533  156.2975 H   0  0  0  0  0  0  0  0  0  0  0  0
  150.8166  137.6218  155.3637 H   0  0  0  0  0  0  0  0  0  0  0  0
  151.6708  138.8329  157.3147 H   0  0  0  0  0  0  0  0  0  0  0  0
  152.3245  139.5302  155.8401 H   0  0  0  0  0  0  0  0  0  0  0  0
  152.7462  141.6269  157.2110 H   0  0  0  0  0  0  0  0  0  0  0  0
  150.9914  140.9223  159.6035 H   0  0  0  0  0  0  0  0  0  0  0  0
  152.4306  140.0613  159.0898 H   0  0  0  0  0  0  0  0  0  0  0  0
  152.9366  141.5590  160.9747 H   0  0  0  0  0  0  0  0  0  0  0  0
  153.8526  141.9906  159.5512 H   0  0  0  0  0  0  0  0  0  0  0  0
  151.3199  143.3787  160.5538 H   0  0  0  0  0  0  0  0  0  0  0  0
  152.9410  144.0311  160.6037 H   0  0  0  0  0  0  0  0  0  0  0  0
  151.6390  144.9486  158.6748 H   0  0  0  0  0  0  0  0  0  0  0  0
  153.0560  144.0805  158.1363 H   0  0  0  0  0  0  0  0  0  0  0  0
  151.1027  143.4804  156.7704 H   0  0  0  0  0  0  0  0  0  0  0  0
  150.1935  143.0112  158.1801 H   0  0  0  0  0  0  0  0  0  0  0  0
  150.0012  142.4586  155.8617 H   0  0  0  0  0  0  0  0  0  0  0  0
  151.2781  141.6956  154.9475 H   0  0  0  0  0  0  0  0  0  0  0  0
  149.0639  141.2706  153.9207 H   0  0  0  0  0  0  0  0  0  0  0  0
  148.4609  140.5953  155.4160 H   0  0  0  0  0  0  0  0  0  0  0  0
  150.0501  140.5618  157.3531 H   0  0  0  0  0  0  0  0  0  0  0  0
  1  2  1  0  0  0  0
  1 24  1  0  0  0  0
  1 25  1  0  0  0  0
  1 26  1  0  0  0  0
  2  7  1  0  0  0  0
  2  3  2  0  0  0  0
  3  4  1  0  0  0  0
  3 27  1  0  0  0  0
  4  5  2  0  0  0  0
  5  6  1  0  0  0  0
  5 28  1  0  0  0  0
  6  7  2  0  0  0  0
  6 29  1  0  0  0  0
  7  8  1  0  0  0  0
  8  9  1  0  0  0  0
  8 30  1  0  0  0  0
  9 10  2  0  0  0  0
  9 11  1  0  0  0  0
 11 12  1  0  0  0  0
 11 31  1  0  0  0  0
 12 23  1  0  0  0  0
 12 13  1  0  0  0  0
 12 32  1  0  0  0  0
 13 14  1  0  0  0  0
 13 33  1  0  0  0  0
 13 34  1  0  0  0  0
 14 15  1  0  0  0  0
 14 35  1  0  0  0  0
 14 36  1  0  0  0  0
 15 16  1  0  0  0  0
 15 22  1  0  0  0  0
 15 52  1  0  0  0  0
 16 21  1  0  0  0  0
 16 17  1  0  0  0  0
 16 37  1  0  0  0  0
 17 18  1  0  0  0  0
 17 38  1  0  0  0  0
 17 39  1  0  0  0  0
 18 19  1  0  0  0  0
 18 40  1  0  0  0  0
 18 41  1  0  0  0  0
 19 20  1  0  0  0  0
 19 42  1  0  0  0  0
 19 43  1  0  0  0  0
 20 21  1  0  0  0  0
 20 44  1  0  0  0  0
 20 45  1  0  0  0  0
 21 46  1  0  0  0  0
 21 47  1  0  0  0  0
 22 23  1  0  0  0  0
 22 48  1  0  0  0  0
 22 49  1  0  0  0  0
 23 50  1  0  0  0  0
 23 51  1  0  0  0  0
M  CHG  1  15   1
M  END
> <s_m_source_file>
AV-unprocessed.smi

> <i_m_source_file_index>
2440

> <i_lp_mmshare_version>
43012

> <i_f3d_flags>
0

> <s_epik_input>
W0NIM11jMVtjSF1uW2NIXVtjSF1jMVtOSF1DKD1PKVtOSF1bQ0hdMltDSDJdW0NIMl1OKFtDSDJdW0NIMl0yKVtDSF0zW0NIMl1bQ0gyXVtDSDJdW0NIMl1bQ0gyXTM=

> <s_epik_cmdline>
J2VwaWtfcHl0aG9uJywgJy1waCcsICc3LjAnLCAnLXRuJywgJzgnLCAnLW1hJywgJzIwMCcsICctbWV0YWxfYmluZGluZycsICctaW1hZScsICc8aW5maWxlLm1hZT4nLCAnLW9tYWUnLCAnPG91dGZpbGUubWFlPic=

> <r_epik_Ionization_Penalty>
0.180356

> <r_epik_Ionization_Penalty_Charging>
0.00171891

> <r_epik_Ionization_Penalty_Neutral>
0.178637

> <r_epik_State_Penalty>
0.173134

> <r_epik_Charging_Adjusted_Penalty>
0.174853

> <i_epik_Tot_Q>
1

> <i_epik_Tot_abs_Q>
1

> <r_epik_Metal_State_Penalty>
0.131816

> <b_epik_Metal_Only>
0

> <s_lp_Force_Field>
OPLS_2005

> <r_lp_Energy>
33.4917

> <b_lp_Chiralities_Consistent>
1

> <s_lp_Variant>
AV-unprocessed.smi:2440-1

> <Gold.Version>
5.8.1

> <Gold.Id.Protein>
6NUR|6NUR_protein|mol2

> <Gold.PLP.Fitness>
45.3270

> <Gold.PLP.PLP>
-40.2749

> <Gold.PLP.part.hbond>
-2.8337

> <Gold.PLP.part.metal>
0.0000

> <Gold.PLP.part.buried>
-5.7190

> <Gold.PLP.part.nonpolar>
-33.2900

> <Gold.PLP.part.repulsive>
0.3173

> <Gold.PLP.ligand.clash>
0.0000

> <Gold.PLP.ligand.torsion>
0.4943

> <Gold.PLP.Chemscore.Hbond>
2.0000

> <Gold.PLP.Chemscore.CHOScore>
0.0000

> <Gold.PLP.Chemscore.Metal>
0.0000

> <Gold.Chemscore.Hbonds>
donor molecule, donor type, donor heavy atom, donor atom, acceptor molecule, acceptor atom, score
      L1  H     8    30       P1  7948  1.00
      L1  H    11    31       P1  7948  0.98

> <Gold.PLP.Chemscore.Internal.Correction>
0.0407

> <Gold.Rescore>
     Score         DG    S(hbond)    S(metal)    S(lipo)     H(rot)  DE(clash)    DE(int)     intcor
     19.21     -22.29       1.95        0.00     113.73       1.17       0.02       3.07       ----

> <Gold.Chemscore.Fitness>
19.2084

> <Gold.Chemscore.DG>
-22.2944

> <Gold.Chemscore.ZeroCoef>
-5.4800

> <Gold.Chemscore.Hbond>
1.9482

> <Gold.Chemscore.Metal>
0.0000

> <Gold.Chemscore.Lipo>
113.7321

> <Gold.Chemscore.Internal_Hbond>
0.0000

> <Gold.Chemscore.DEClash>
0.0186

> <Gold.Chemscore.DEInternal>
3.0674

> <Gold.Chemscore.Rot>
1.1715

> <Gold.Chemscore.Internal.Correction>
   9.000000E+99

> <Gold.Chemscore.Hbonds>
donor molecule, donor type, donor heavy atom, donor atom, acceptor molecule, acceptor atom, score
      L1  H     8    30       P1  7948  0.97
      L1  H    11    31       P1  7948  0.86

> <Gold.Chemscore.Hbond.Weighted>
-6.5069

> <Gold.Chemscore.Metal.Weighted>
-0.0000

> <Gold.Chemscore.Lipo.Weighted>
-13.3067

> <Gold.Chemscore.Internal_Hbond.Weighted>
0.0000

> <Gold.Chemscore.DEClash.Weighted>
0.0186

> <Gold.Chemscore.DEInternal.Weighted>
3.0674

> <Gold.Chemscore.Rot.Weighted>
2.9991

> <Gold.Chemscore.Internal.Correction.Weighted>
   9.000000E+99

> <Gold.Protein.RotatedTorsions>
[ 6907 6896 6895 6894 ] final  178.32 input  -60.11 | X-H torsion
[ 7974 7965 7964 7962 ] final   15.40 input  175.53 | X-H torsion
[ 8008 7997 7996 7995 ] final  140.68 input   59.86 | X-H torsion
[ 10167 10162 10161 10158 ] final -120.91 input  -65.29 | X-H torsion
[ 10718 10713 10712 10709 ] final  141.27 input   66.30 | X-H torsion
[ 10763 10752 10751 10750 ] final   53.45 input  -60.55 | X-H torsion
[ 11005 11000 10999 10996 ] final    5.81 input  -57.11 | X-H torsion

> <Gold.Protein.ActiveResidues>
 VAL166  LYS551  ARG553  GLY616  TRP617  ASP618  TYR619  PRO620  LYS621  CYS622 
 ASP623  PHE694  ASN695  SER759  ASP760  ASP761  ALA762  ILE779  LEU786  VAL792 
 PHE793  MET794  SER795  GLU796  ALA797  LYS798  CYS799  TRP800  GLU811  SER814 

> <Gold.Protein.RotatedAtoms>
  151.6898  133.3311  159.3239 H   0  0  0  0  0  0  0  0  0  0  0  0  # atno 6907 bound_to 6896
  150.7784  134.6708  159.6400 H   0  0  0  0  0  0  0  0  0  0  0  0  # atno 6908 bound_to 6896
  152.3834  134.6558  160.0186 H   0  0  0  0  0  0  0  0  0  0  0  0  # atno 6909 bound_to 6896
  146.2279  139.8899  142.8556 H   0  0  0  0  0  0  0  0  0  0  0  0  # atno 7974 bound_to 7965
  156.2976  140.2335  156.4440 H   0  0  0  0  0  0  0  0  0  0  0  0  # atno 8008 bound_to 7997
  154.8160  140.0440  157.1397 H   0  0  0  0  0  0  0  0  0  0  0  0  # atno 8009 bound_to 7997
  154.9369  140.3024  155.5143 H   0  0  0  0  0  0  0  0  0  0  0  0  # atno 8010 bound_to 7997
  140.0308  143.5250  152.2177 H   0  0  0  0  0  0  0  0  0  0  0  0  # atno 10167 bound_to 10162
  157.3939  131.1008  151.0619 H   0  0  0  0  0  0  0  0  0  0  0  0  # atno 10718 bound_to 10713
  152.9795  135.5778  154.4744 H   0  0  0  0  0  0  0  0  0  0  0  0  # atno 10763 bound_to 10752
  154.4302  135.2773  155.1919 H   0  0  0  0  0  0  0  0  0  0  0  0  # atno 10764 bound_to 10752
  154.3631  135.6184  153.5755 H   0  0  0  0  0  0  0  0  0  0  0  0  # atno 10765 bound_to 10752
  140.5665  134.0143  155.7992 H   0  0  0  0  0  0  0  0  0  0  0  0  # atno 11005 bound_to 11000
  145.2428  141.0015  143.3926 LP  0  0  0  0  0  0  0  0  0  0  0  0  # atno 17320 bound_to 7965
  144.9438  139.4159  143.6436 LP  0  0  0  0  0  0  0  0  0  0  0  0  # atno 17321 bound_to 7965
  139.6078  144.7601  151.3022 LP  0  0  0  0  0  0  0  0  0  0  0  0  # atno 17342 bound_to 10162
  140.7303  143.6884  150.7943 LP  0  0  0  0  0  0  0  0  0  0  0  0  # atno 17343 bound_to 10162
  157.1643  130.6239  149.5620 LP  0  0  0  0  0  0  0  0  0  0  0  0  # atno 17370 bound_to 10713
  155.9805  130.4806  150.6777 LP  0  0  0  0  0  0  0  0  0  0  0  0  # atno 17371 bound_to 10713
  141.1082  133.9659  157.2958 LP  0  0  0  0  0  0  0  0  0  0  0  0  # atno 17394 bound_to 11000
  139.9382  135.0194  156.8624 LP  0  0  0  0  0  0  0  0  0  0  0  0  # atno 17395 bound_to 11000

$$$$
