AV-unprocessed.smi:550|AV-procd|sdf|2895|dock4
  -GOLD-   2262023393D 1   1.00000     0.00000
 Structure written by MMmdl.
 45 47  0  0  0  0  0  0  0  0  1 V2000
  147.9596  140.9698  153.7667 O   0  0  0  0  0  0  0  0  0  0  0  0
  148.4916  139.8699  153.6162 C   0  0  0  0  0  0  0  0  0  0  0  0
  148.0762  138.9669  152.7180 N   0  0  0  0  0  0  0  0  0  0  0  0
  146.9447  139.1602  151.8186 C   0  0  0  0  0  0  0  0  0  0  0  0
  145.9900  137.9545  151.8527 C   0  0  1  0  0  0  0  0  0  0  0  0
  146.2354  136.9809  150.6832 C   0  0  0  0  0  0  0  0  0  0  0  0
  145.4421  135.6970  150.9427 C   0  0  0  0  0  0  0  0  0  0  0  0
  145.4879  135.4531  152.7563 S   0  0  0  0  0  0  0  0  0  0  0  0
  144.1156  135.2647  153.2507 O   0  0  0  0  0  0  0  0  0  0  0  0
  146.5528  134.4968  153.0947 O   0  0  0  0  0  0  0  0  0  0  0  0
  146.0621  137.1477  153.1618 C   0  0  0  0  0  0  0  0  0  0  0  0
  149.5615  139.4269  154.2988 N   0  0  0  0  0  0  0  0  0  0  0  0
  150.2385  140.0631  155.3741 C   0  0  0  0  0  0  0  0  0  0  0  0
  149.6811  141.1023  156.1542 C   0  0  0  0  0  0  0  0  0  0  0  0
  150.4359  141.6401  157.2137 C   0  0  0  0  0  0  0  0  0  0  0  0
  151.7260  141.1213  157.4755 C   0  0  0  0  0  0  0  0  0  0  0  0
  152.5138  141.6375  158.5235 N   0  0  0  0  0  0  0  0  0  0  0  0
  153.2359  140.7703  159.4411 C   0  0  0  0  0  0  0  0  0  0  0  0
  153.8314  141.7193  160.4800 C   0  0  0  0  0  0  0  0  0  0  0  0
  152.7921  142.8372  160.5637 C   0  0  0  0  0  0  0  0  0  0  0  0
  152.2136  142.9195  159.1461 C   0  0  0  0  0  0  0  0  0  0  0  0
  152.2554  140.1213  156.7307 N   0  0  0  0  0  0  0  0  0  0  0  0
  151.5266  139.6068  155.7181 C   0  0  0  0  0  0  0  0  0  0  0  0
  148.5719  138.0901  152.6521 H   0  0  0  0  0  0  0  0  0  0  0  0
  146.3990  140.0625  152.1001 H   0  0  0  0  0  0  0  0  0  0  0  0
  147.3214  139.3194  150.8072 H   0  0  0  0  0  0  0  0  0  0  0  0
  144.9677  138.3228  151.7514 H   0  0  0  0  0  0  0  0  0  0  0  0
  145.9692  137.4255  149.7240 H   0  0  0  0  0  0  0  0  0  0  0  0
  147.2972  136.7349  150.6369 H   0  0  0  0  0  0  0  0  0  0  0  0
  144.4007  135.8195  150.6439 H   0  0  0  0  0  0  0  0  0  0  0  0
  145.8538  134.8266  150.4320 H   0  0  0  0  0  0  0  0  0  0  0  0
  147.0887  137.0725  153.5217 H   0  0  0  0  0  0  0  0  0  0  0  0
  145.4468  137.5704  153.9561 H   0  0  0  0  0  0  0  0  0  0  0  0
  149.9598  138.5516  153.9911 H   0  0  0  0  0  0  0  0  0  0  0  0
  148.6892  141.4857  155.9711 H   0  0  0  0  0  0  0  0  0  0  0  0
  150.0173  142.4400  157.8059 H   0  0  0  0  0  0  0  0  0  0  0  0
  152.5388  140.0742  159.9096 H   0  0  0  0  0  0  0  0  0  0  0  0
  154.0087  140.1958  158.9291 H   0  0  0  0  0  0  0  0  0  0  0  0
  154.0188  141.2356  161.4390 H   0  0  0  0  0  0  0  0  0  0  0  0
  154.7767  142.1224  160.1140 H   0  0  0  0  0  0  0  0  0  0  0  0
  152.0057  142.5497  161.2629 H   0  0  0  0  0  0  0  0  0  0  0  0
  153.2118  143.7841  160.9041 H   0  0  0  0  0  0  0  0  0  0  0  0
  152.6991  143.7110  158.5746 H   0  0  0  0  0  0  0  0  0  0  0  0
  151.1423  143.1224  159.1746 H   0  0  0  0  0  0  0  0  0  0  0  0
  151.9924  138.8070  155.1610 H   0  0  0  0  0  0  0  0  0  0  0  0
  1  2  2  0  0  0  0
  2  3  1  0  0  0  0
  2 12  1  0  0  0  0
  3  4  1  0  0  0  0
  3 24  1  0  0  0  0
  4  5  1  0  0  0  0
  4 25  1  0  0  0  0
  4 26  1  0  0  0  0
  5 11  1  0  0  0  0
  5  6  1  0  0  0  0
  5 27  1  0  0  0  0
  6  7  1  0  0  0  0
  6 28  1  0  0  0  0
  6 29  1  0  0  0  0
  7  8  1  0  0  0  0
  7 30  1  0  0  0  0
  7 31  1  0  0  0  0
  8  9  2  0  0  0  0
  8 10  2  0  0  0  0
  8 11  1  0  0  0  0
 11 32  1  0  0  0  0
 11 33  1  0  0  0  0
 12 13  1  0  0  0  0
 12 34  1  0  0  0  0
 13 23  1  0  0  0  0
 13 14  2  0  0  0  0
 14 15  1  0  0  0  0
 14 35  1  0  0  0  0
 15 16  2  0  0  0  0
 15 36  1  0  0  0  0
 16 17  1  0  0  0  0
 16 22  1  0  0  0  0
 17 21  1  0  0  0  0
 17 18  1  0  0  0  0
 18 19  1  0  0  0  0
 18 37  1  0  0  0  0
 18 38  1  0  0  0  0
 19 20  1  0  0  0  0
 19 39  1  0  0  0  0
 19 40  1  0  0  0  0
 20 21  1  0  0  0  0
 20 41  1  0  0  0  0
 20 42  1  0  0  0  0
 21 43  1  0  0  0  0
 21 44  1  0  0  0  0
 22 23  2  0  0  0  0
 23 45  1  0  0  0  0
M  END
> <s_m_source_file>
AV-unprocessed.smi

> <i_m_source_file_index>
550

> <i_lp_mmshare_version>
43012

> <i_f3d_flags>
0

> <s_epik_input>
Tz1TMSg9TylbQ0gyXVtDSDJdW0NASF0oW0NIMl0xKVtDSDJdW05IXUMoPU8pW05IXWMyW2NIXVtjSF1jKG5bY0hdMilOM1tDSDJdW0NIMl1bQ0gyXVtDSDJdMw==

> <s_epik_cmdline>
J2VwaWtfcHl0aG9uJywgJy1waCcsICc3LjAnLCAnLXRuJywgJzgnLCAnLW1hJywgJzIwMCcsICctbWV0YWxfYmluZGluZycsICctaW1hZScsICc8aW5maWxlLm1hZT4nLCAnLW9tYWUnLCAnPG91dGZpbGUubWFlPic=

> <r_lp_tautomer_probability>
1

> <r_epik_Ionization_Penalty>
0.0965651

> <r_epik_Ionization_Penalty_Charging>
0

> <r_epik_Ionization_Penalty_Neutral>
0.0965651

> <r_epik_State_Penalty>
0.0861592

> <r_epik_Charging_Adjusted_Penalty>
0.0861592

> <i_epik_Tot_Q>
0

> <i_epik_Tot_abs_Q>
0

> <r_epik_Metal_State_Penalty>
0.0740405

> <b_epik_Metal_Only>
0

> <s_lp_Force_Field>
OPLS_2005

> <r_lp_Energy>
33.1318

> <b_lp_Chiralities_Consistent>
1

> <s_lp_Variant>
AV-unprocessed.smi:550-2

> <Gold.Version>
5.8.1

> <Gold.Id.Protein>
6NUR|6NUR_protein|mol2

> <Gold.PLP.Fitness>
43.9374

> <Gold.PLP.PLP>
-40.2771

> <Gold.PLP.part.hbond>
-3.2213

> <Gold.PLP.part.metal>
0.0000

> <Gold.PLP.part.buried>
2.1784

> <Gold.PLP.part.nonpolar>
-39.3907

> <Gold.PLP.part.repulsive>
0.4581

> <Gold.PLP.ligand.clash>
0.0000

> <Gold.PLP.ligand.torsion>
1.0616

> <Gold.PLP.Chemscore.Hbond>
1.8613

> <Gold.PLP.Chemscore.CHOScore>
0.0000

> <Gold.PLP.Chemscore.Metal>
0.0000

> <Gold.Chemscore.Hbonds>
donor molecule, donor type, donor heavy atom, donor atom, acceptor molecule, acceptor atom, score
      L1  H     3    24       P1  7948  1.00
      P1  H  7997  8009       L1    22  0.83

> <Gold.PLP.Chemscore.Internal.Correction>
0.1998

> <Gold.Rescore>
     Score         DG    S(hbond)    S(metal)    S(lipo)     H(rot)  DE(clash)    DE(int)     intcor
     16.08     -19.30       1.74        0.00      95.92       1.25       1.23       1.99       ----

> <Gold.Chemscore.Fitness>
16.0826

> <Gold.Chemscore.DG>
-19.3023

> <Gold.Chemscore.ZeroCoef>
-5.4800

> <Gold.Chemscore.Hbond>
1.7370

> <Gold.Chemscore.Metal>
0.0000

> <Gold.Chemscore.Lipo>
95.9188

> <Gold.Chemscore.Internal_Hbond>
0.0000

> <Gold.Chemscore.DEClash>
1.2341

> <Gold.Chemscore.DEInternal>
1.9856

> <Gold.Chemscore.Rot>
1.2506

> <Gold.Chemscore.Internal.Correction>
   9.000000E+99

> <Gold.Chemscore.Hbonds>
donor molecule, donor type, donor heavy atom, donor atom, acceptor molecule, acceptor atom, score
      L1  H     3    24       P1  7948  0.91
      P1  H  7997  8009       L1    22  0.72

> <Gold.Chemscore.Hbond.Weighted>
-5.8014

> <Gold.Chemscore.Metal.Weighted>
-0.0000

> <Gold.Chemscore.Lipo.Weighted>
-11.2225

> <Gold.Chemscore.Internal_Hbond.Weighted>
0.0000

> <Gold.Chemscore.DEClash.Weighted>
1.2341

> <Gold.Chemscore.DEInternal.Weighted>
1.9856

> <Gold.Chemscore.Rot.Weighted>
3.2016

> <Gold.Chemscore.Internal.Correction.Weighted>
   9.000000E+99

> <Gold.Protein.RotatedTorsions>
[ 6907 6896 6895 6894 ] final -102.05 input  -60.11 | X-H torsion
[ 7974 7965 7964 7962 ] final   22.81 input  175.53 | X-H torsion
[ 8008 7997 7996 7995 ] final -171.89 input   59.86 | X-H torsion
[ 10167 10162 10161 10158 ] final  -77.28 input  -65.29 | X-H torsion
[ 10718 10713 10712 10709 ] final -146.72 input   66.30 | X-H torsion
[ 10763 10752 10751 10750 ] final  126.82 input  -60.55 | X-H torsion
[ 11005 11000 10999 10996 ] final    8.09 input  -57.11 | X-H torsion

> <Gold.Protein.ActiveResidues>
 VAL166  LYS551  ARG553  GLY616  TRP617  ASP618  TYR619  PRO620  LYS621  CYS622 
 ASP623  PHE694  ASN695  SER759  ASP760  ASP761  ALA762  ILE779  LEU786  VAL792 
 PHE793  MET794  SER795  GLU796  ALA797  LYS798  CYS799  TRP800  GLU811  SER814 

> <Gold.Protein.RotatedAtoms>
  150.7180  134.0640  159.3841 H   0  0  0  0  0  0  0  0  0  0  0  0  # atno 6907 bound_to 6896
  151.8621  135.0518  160.0480 H   0  0  0  0  0  0  0  0  0  0  0  0  # atno 6908 bound_to 6896
  152.2709  133.5346  159.5475 H   0  0  0  0  0  0  0  0  0  0  0  0  # atno 6909 bound_to 6896
  146.2012  139.7833  142.8760 H   0  0  0  0  0  0  0  0  0  0  0  0  # atno 7974 bound_to 7965
  155.9375  140.1102  157.1083 H   0  0  0  0  0  0  0  0  0  0  0  0  # atno 8008 bound_to 7997
  154.4082  140.1225  156.4949 H   0  0  0  0  0  0  0  0  0  0  0  0  # atno 8009 bound_to 7997
  155.7003  140.3472  155.4932 H   0  0  0  0  0  0  0  0  0  0  0  0  # atno 8010 bound_to 7997
  140.4784  143.2408  151.8097 H   0  0  0  0  0  0  0  0  0  0  0  0  # atno 10167 bound_to 10162
  156.3985  130.7922  151.2130 H   0  0  0  0  0  0  0  0  0  0  0  0  # atno 10718 bound_to 10713
  153.6995  135.3286  155.3221 H   0  0  0  0  0  0  0  0  0  0  0  0  # atno 10763 bound_to 10752
  154.8417  135.4451  154.1425 H   0  0  0  0  0  0  0  0  0  0  0  0  # atno 10764 bound_to 10752
  153.2489  135.6979  153.7779 H   0  0  0  0  0  0  0  0  0  0  0  0  # atno 10765 bound_to 10752
  140.5409  134.0376  155.7904 H   0  0  0  0  0  0  0  0  0  0  0  0  # atno 11005 bound_to 11000
  145.3476  141.0301  143.3357 LP  0  0  0  0  0  0  0  0  0  0  0  0  # atno 17320 bound_to 7965
  144.8689  139.5068  143.6777 LP  0  0  0  0  0  0  0  0  0  0  0  0  # atno 17321 bound_to 7965
  139.4829  144.4804  151.9314 LP  0  0  0  0  0  0  0  0  0  0  0  0  # atno 17342 bound_to 10162
  140.3889  144.2641  150.5901 LP  0  0  0  0  0  0  0  0  0  0  0  0  # atno 17343 bound_to 10162
  157.7503  131.0294  150.4091 LP  0  0  0  0  0  0  0  0  0  0  0  0  # atno 17370 bound_to 10713
  156.4366  130.3983  149.6725 LP  0  0  0  0  0  0  0  0  0  0  0  0  # atno 17371 bound_to 10713
  141.1228  133.9433  157.2696 LP  0  0  0  0  0  0  0  0  0  0  0  0  # atno 17394 bound_to 11000
  139.9505  135.0176  156.8979 LP  0  0  0  0  0  0  0  0  0  0  0  0  # atno 17395 bound_to 11000

$$$$
