#       Name:                AV-unprocessed.smi:3284
#       Creating user name   scv26
#       Creation time:       Fri Mar 27 18:50:08 2020


#       File generated by GOLD software.
#

@<TRIPOS>MOLECULE
AV-unprocessed.smi:3284
    45    46     1
SMALL
NO_CHARGES


@<TRIPOS>ATOM
      1 ****        -0.6923   1.7844   1.9913 C.3            1 S1                 0.0000
      2 ****        -1.7583   2.0453   0.9399 C.2            1 S1                 0.0000
      3 ****        -2.9610   2.5239   1.3116 C.2            1 S1                 0.0000
      4 ****        -4.0669   2.8891   0.3488 C.3            1 S1                 0.0000
      5 ****        -3.5097   3.1435  -1.0537 C.3            1 S1                 0.0000
      6 ****        -2.5930   1.9965  -1.5094 C.3            1 S1                 0.0000
      7 ****        -2.1289   2.2560  -2.9558 C.3            1 S1                 0.0000
      8 ****        -1.3978   1.7646  -0.5337 C.3            1 S1                 0.0000
      9 ****        -0.8098   0.3443  -0.7441 C.3            1 S1                 0.0000
     10 ****         0.5813   0.2198  -0.2618 N.4            1 S1                 1.0000
     11 ****         1.1185  -1.1537  -0.3199 C.3            1 S1                 0.0000
     12 ****         2.5669  -1.2030   0.1857 C.3            1 S1                 0.0000
     13 ****         3.1392  -2.5875   0.1785 C.2            1 S1                 0.0000
     14 ****         3.7961  -3.1545  -0.8409 N.pl3          1 S1                 1.0000
     15 ****         4.1697  -4.4308  -0.5171 C.2            1 S1                 0.0000
     16 ****         3.7166  -4.6556   0.7564 C.2            1 S1                 0.0000
     17 ****         3.0847  -3.5063   1.1575 N.pl3          1 S1                 0.0000
     18 ****         2.4392  -3.2730   2.4513 C.3            1 S1                 0.0000
     19 ****         0.2468   2.2622   1.7112 H              1 S1                 0.0000
     20 ****        -0.5241   0.7155   2.1199 H              1 S1                 0.0000
     21 ****        -0.9879   2.1844   2.9619 H              1 S1                 0.0000
     22 ****        -3.1785   2.6830   2.3580 H              1 S1                 0.0000
     23 ****        -4.8011   2.0829   0.3360 H              1 S1                 0.0000
     24 ****        -4.5765   3.7825   0.7106 H              1 S1                 0.0000
     25 ****        -4.3367   3.2730  -1.7530 H              1 S1                 0.0000
     26 ****        -2.9518   4.0813  -1.0592 H              1 S1                 0.0000
     27 ****        -3.2037   1.0920  -1.5157 H              1 S1                 0.0000
     28 ****        -1.5066   3.1495  -3.0164 H              1 S1                 0.0000
     29 ****        -2.9825   2.4074  -3.6174 H              1 S1                 0.0000
     30 ****        -1.5554   1.4257  -3.3650 H              1 S1                 0.0000
     31 ****        -0.6287   2.4959  -0.7879 H              1 S1                 0.0000
     32 ****        -1.4418  -0.3897  -0.2417 H              1 S1                 0.0000
     33 ****        -0.8049   0.0710  -1.7982 H              1 S1                 0.0000
     34 ****         1.1679   0.8269  -0.8166 H              1 S1                 0.0000
     35 ****         0.4878  -1.8067   0.2847 H              1 S1                 0.0000
     36 ****         1.0687  -1.5175  -1.3472 H              1 S1                 0.0000
     37 ****         3.2161  -0.5879  -0.4389 H              1 S1                 0.0000
     38 ****         2.6431  -0.8201   1.2039 H              1 S1                 0.0000
     39 ****         4.7154  -5.0670  -1.1992 H              1 S1                 0.0000
     40 ****         3.7957  -5.5274   1.3902 H              1 S1                 0.0000
     41 ****         2.4289  -4.1991   3.0270 H              1 S1                 0.0000
     42 ****         1.4140  -2.9376   2.2933 H              1 S1                 0.0000
     43 ****         2.9975  -2.5139   3.0000 H              1 S1                 0.0000
     44 ****         0.6097   0.5336   0.6982 H              1 S1                 0.0000
     45 ****         3.9929  -2.7020  -1.7249 H              1 S1                 0.0000
@<TRIPOS>BOND
    1    1    2 1     
    2    1   19 1     
    3    1   20 1     
    4    1   21 1     
    5    2    8 1     
    6    2    3 2     
    7    3    4 1     
    8    3   22 1     
    9    4    5 1     
   10    4   23 1     
   11    4   24 1     
   12    5    6 1     
   13    5   25 1     
   14    5   26 1     
   15    6    7 1     
   16    6    8 1     
   17    6   27 1     
   18    7   28 1     
   19    7   29 1     
   20    7   30 1     
   21    8    9 1     
   22    8   31 1     
   23    9   10 1     
   24    9   32 1     
   25    9   33 1     
   26   10   11 1     
   27   10   34 1     
   28   10   44 1     
   29   11   12 1     
   30   11   35 1     
   31   11   36 1     
   32   12   13 1     
   33   12   37 1     
   34   12   38 1     
   35   13   17 1     
   36   13   14 2     
   37   14   15 1     
   38   14   45 1     
   39   15   16 2     
   40   15   39 1     
   41   16   17 1     
   42   16   40 1     
   43   17   18 1     
   44   18   41 1     
   45   18   42 1     
   46   18   43 1     
@<TRIPOS>SUBSTRUCTURE
      1 S1             1
@<TRIPOS>SET
DONOR_HYDROGENS      STATIC     ATOMS    <user>   **** ""
3 34 44 45
ATOM$RED        STATIC     ATOMS    COLORGROUP SYSTEM
3 34 44 45
