AV-unprocessed.smi:2831|AV-procd|sdf|10911|dock3
  -GOLD-   2272015353D 1   1.00000     0.00000
 Structure written by MMmdl.
 29 30  0  0  0  0  0  0  0  0  2 V2000
  152.4240  144.1460  161.9223 C   0  0  0  0  0  0  0  0  0  0  0  0
  151.9668  143.5743  160.6242 C   0  0  0  0  0  0  0  0  0  0  0  0
  151.2883  142.4275  160.5381 N   0  0  0  0  0  0  0  0  0  0  0  0
  150.9723  142.1049  159.2261 N   0  0  0  0  0  0  0  0  0  0  0  0
  151.4047  143.0150  158.3417 C   0  0  0  0  0  0  0  0  0  0  0  0
  151.2017  142.8896  157.0197 N   0  5  0  0  0  0  0  0  0  0  0  0
  150.5028  141.8360  156.5398 C   0  0  0  0  0  0  0  0  0  0  0  0
  150.7423  140.6466  156.7579 O   0  0  0  0  0  0  0  0  0  0  0  0
  149.4646  142.1925  155.7645 N   0  0  0  0  0  0  0  0  0  0  0  0
  148.4845  141.3467  155.0680 C   0  0  2  0  0  0  0  0  0  0  0  0
  149.2591  140.1833  154.4208 C   0  0  0  0  0  0  0  0  0  0  0  0
  147.6741  142.1075  154.0034 C   0  0  0  0  0  0  0  0  0  0  0  0
  146.2304  142.0200  154.4951 C   0  0  0  0  0  0  0  0  0  0  0  0
  146.2095  140.8184  155.2457 O   0  0  0  0  0  0  0  0  0  0  0  0
  147.3980  140.8034  156.0207 C   0  0  0  0  0  0  0  0  0  0  0  0
  152.2754  144.3571  159.0836 S   0  0  0  0  0  0  0  0  0  0  0  0
  151.6005  144.6685  162.4092 H   0  0  0  0  0  0  0  0  0  0  0  0
  153.2388  144.8513  161.7581 H   0  0  0  0  0  0  0  0  0  0  0  0
  152.7777  143.3530  162.5815 H   0  0  0  0  0  0  0  0  0  0  0  0
  149.3405  143.1865  155.6390 H   0  0  0  0  0  0  0  0  0  0  0  0
  148.5871  139.4944  153.9075 H   0  0  0  0  0  0  0  0  0  0  0  0
  149.8085  139.6085  155.1674 H   0  0  0  0  0  0  0  0  0  0  0  0
  149.9811  140.5479  153.6891 H   0  0  0  0  0  0  0  0  0  0  0  0
  147.9901  143.1407  153.8543 H   0  0  0  0  0  0  0  0  0  0  0  0
  147.7511  141.6150  153.0333 H   0  0  0  0  0  0  0  0  0  0  0  0
  145.9848  142.8609  155.1451 H   0  0  0  0  0  0  0  0  0  0  0  0
  145.5086  141.9973  153.6786 H   0  0  0  0  0  0  0  0  0  0  0  0
  147.6136  139.7993  156.3874 H   0  0  0  0  0  0  0  0  0  0  0  0
  147.2466  141.4396  156.8934 H   0  0  0  0  0  0  0  0  0  0  0  0
  1  2  1  0  0  0  0
  1 17  1  0  0  0  0
  1 18  1  0  0  0  0
  1 19  1  0  0  0  0
  2 16  1  0  0  0  0
  2  3  2  0  0  0  0
  3  4  1  0  0  0  0
  4  5  2  0  0  0  0
  5  6  1  0  0  0  0
  5 16  1  0  0  0  0
  6  7  1  0  0  0  0
  7  8  2  0  0  0  0
  7  9  1  0  0  0  0
  9 10  1  0  0  0  0
  9 20  1  0  0  0  0
 10 15  1  0  0  0  0
 10 11  1  0  0  0  0
 10 12  1  0  0  0  0
 11 21  1  0  0  0  0
 11 22  1  0  0  0  0
 11 23  1  0  0  0  0
 12 13  1  0  0  0  0
 12 24  1  0  0  0  0
 12 25  1  0  0  0  0
 13 14  1  0  0  0  0
 13 26  1  0  0  0  0
 13 27  1  0  0  0  0
 14 15  1  0  0  0  0
 15 28  1  0  0  0  0
 15 29  1  0  0  0  0
M  CHG  1   6  -1
M  END
> <s_m_source_file>
AV-unprocessed.smi

> <i_m_source_file_index>
2831

> <i_lp_mmshare_version>
43012

> <i_f3d_flags>
0

> <s_epik_input>
W0NIM11jMW5uYyhzMSlbTkhdQyg9TylbTkhdW0NAQF0yKFtDSDNdKVtDSDJdW0NIMl1PW0NIMl0y

> <s_epik_cmdline>
J2VwaWtfcHl0aG9uJywgJy1waCcsICc3LjAnLCAnLXRuJywgJzgnLCAnLW1hJywgJzIwMCcsICctbWV0YWxfYmluZGluZycsICctaW1hZScsICc8aW5maWxlLm1hZT4nLCAnLW9tYWUnLCAnPG91dGZpbGUubWFlPic=

> <r_lp_tautomer_probability>
1

> <r_epik_Ionization_Penalty>
3.33648

> <r_epik_Ionization_Penalty_Charging>
3.18522

> <r_epik_Ionization_Penalty_Neutral>
0.151254

> <r_epik_State_Penalty>
3.18248

> <r_epik_Charging_Adjusted_Penalty>
6.3677

> <i_epik_Tot_Q>
-1

> <i_epik_Tot_abs_Q>
1

> <r_epik_Metal_State_Penalty>
0.469716

> <b_epik_Metal_Only>
1

> <s_lp_Force_Field>
OPLS_2005

> <r_lp_Energy>
14.5797

> <b_lp_Chiralities_Consistent>
1

> <s_lp_Variant>
AV-unprocessed.smi:2831-4

> <Gold.Version>
5.8.1

> <Gold.Id.Protein>
6NUR|6NUR_protein|mol2

> <Gold.PLP.Fitness>
32.5326

> <Gold.PLP.PLP>
-31.0598

> <Gold.PLP.part.hbond>
-2.4491

> <Gold.PLP.part.metal>
0.0000

> <Gold.PLP.part.buried>
-4.3733

> <Gold.PLP.part.nonpolar>
-23.8380

> <Gold.PLP.part.repulsive>
0.3950

> <Gold.PLP.ligand.clash>
0.0000

> <Gold.PLP.ligand.torsion>
0.8188

> <Gold.PLP.Chemscore.Hbond>
1.0312

> <Gold.PLP.Chemscore.CHOScore>
0.0000

> <Gold.PLP.Chemscore.Metal>
0.0000

> <Gold.Chemscore.Hbonds>
donor molecule, donor type, donor heavy atom, donor atom, acceptor molecule, acceptor atom, score
      L1  H     9    20       P1  8028  1.00
      P1  H  6933  6945       L1     3  0.03

> <Gold.PLP.Chemscore.Internal.Correction>
0.0168

> <Gold.Rescore>
     Score         DG    S(hbond)    S(metal)    S(lipo)     H(rot)  DE(clash)    DE(int)     intcor
     10.75     -14.30       1.03        0.00      67.83       1.00       0.07       3.48       ----

> <Gold.Chemscore.Fitness>
10.7545

> <Gold.Chemscore.DG>
-14.3026

> <Gold.Chemscore.ZeroCoef>
-5.4800

> <Gold.Chemscore.Hbond>
1.0317

> <Gold.Chemscore.Metal>
0.0000

> <Gold.Chemscore.Lipo>
67.8348

> <Gold.Chemscore.Internal_Hbond>
0.0000

> <Gold.Chemscore.DEClash>
0.0697

> <Gold.Chemscore.DEInternal>
3.4783

> <Gold.Chemscore.Rot>
1.0000

> <Gold.Chemscore.Internal.Correction>
   9.000000E+99

> <Gold.Chemscore.Hbonds>
donor molecule, donor type, donor heavy atom, donor atom, acceptor molecule, acceptor atom, score
      L1  H     9    20       P1  8028  0.99
      P1  H  6933  6945       L1     3  0.05

> <Gold.Chemscore.Hbond.Weighted>
-3.4459

> <Gold.Chemscore.Metal.Weighted>
-0.0000

> <Gold.Chemscore.Lipo.Weighted>
-7.9367

> <Gold.Chemscore.Internal_Hbond.Weighted>
0.0000

> <Gold.Chemscore.DEClash.Weighted>
0.0697

> <Gold.Chemscore.DEInternal.Weighted>
3.4783

> <Gold.Chemscore.Rot.Weighted>
2.5600

> <Gold.Chemscore.Internal.Correction.Weighted>
   9.000000E+99

> <Gold.Protein.RotatedTorsions>
[ 6907 6896 6895 6894 ] final  -38.86 input  -60.11 | X-H torsion
[ 7974 7965 7964 7962 ] final  135.87 input  175.53 | X-H torsion
[ 8008 7997 7996 7995 ] final  -79.06 input   59.86 | X-H torsion
[ 10167 10162 10161 10158 ] final  113.98 input  -65.29 | X-H torsion
[ 10718 10713 10712 10709 ] final   82.93 input   66.30 | X-H torsion
[ 10763 10752 10751 10750 ] final  -15.13 input  -60.55 | X-H torsion
[ 11005 11000 10999 10996 ] final   97.49 input  -57.11 | X-H torsion

> <Gold.Protein.ActiveResidues>
 VAL166  LYS551  ARG553  GLY616  TRP617  ASP618  TYR619  PRO620  LYS621  CYS622 
 ASP623  PHE694  ASN695  SER759  ASP760  ASP761  ALA762  ILE779  LEU786  VAL792 
 PHE793  MET794  SER795  GLU796  ALA797  LYS798  CYS799  TRP800  GLU811  SER814 

> <Gold.Protein.RotatedAtoms>
  150.9973  134.9293  159.7933 H   0  0  0  0  0  0  0  0  0  0  0  0  # atno 6907 bound_to 6896
  152.5268  134.3201  159.9155 H   0  0  0  0  0  0  0  0  0  0  0  0  # atno 6908 bound_to 6896
  151.3207  133.4000  159.2688 H   0  0  0  0  0  0  0  0  0  0  0  0  # atno 6909 bound_to 6896
  144.9620  139.4699  143.5475 H   0  0  0  0  0  0  0  0  0  0  0  0  # atno 7974 bound_to 7965
  154.5749  140.0684  156.9019 H   0  0  0  0  0  0  0  0  0  0  0  0  # atno 8008 bound_to 7997
  155.2567  140.3355  155.4259 H   0  0  0  0  0  0  0  0  0  0  0  0  # atno 8009 bound_to 7997
  156.2146  140.1773  156.7603 H   0  0  0  0  0  0  0  0  0  0  0  0  # atno 8010 bound_to 7997
  139.6422  144.7124  151.2214 H   0  0  0  0  0  0  0  0  0  0  0  0  # atno 10167 bound_to 10162
  157.6868  131.0069  150.2447 H   0  0  0  0  0  0  0  0  0  0  0  0  # atno 10718 bound_to 10713
  153.5386  135.7013  153.5647 H   0  0  0  0  0  0  0  0  0  0  0  0  # atno 10763 bound_to 10752
  153.3623  135.3966  155.1727 H   0  0  0  0  0  0  0  0  0  0  0  0  # atno 10764 bound_to 10752
  154.8676  135.3791  154.4889 H   0  0  0  0  0  0  0  0  0  0  0  0  # atno 10765 bound_to 10752
  139.8776  134.9003  156.4316 H   0  0  0  0  0  0  0  0  0  0  0  0  # atno 11005 bound_to 11000
  146.3356  139.8776  142.8829 LP  0  0  0  0  0  0  0  0  0  0  0  0  # atno 17320 bound_to 7965
  145.2685  141.0101  143.3785 LP  0  0  0  0  0  0  0  0  0  0  0  0  # atno 17321 bound_to 7965
  140.7496  143.6292  150.8439 LP  0  0  0  0  0  0  0  0  0  0  0  0  # atno 17342 bound_to 10162
  139.9931  143.5825  152.2903 LP  0  0  0  0  0  0  0  0  0  0  0  0  # atno 17343 bound_to 10162
  156.3055  130.3764  149.7710 LP  0  0  0  0  0  0  0  0  0  0  0  0  # atno 17370 bound_to 10713
  156.5327  130.8265  151.3242 LP  0  0  0  0  0  0  0  0  0  0  0  0  # atno 17371 bound_to 10713
  140.9063  133.7743  155.9739 LP  0  0  0  0  0  0  0  0  0  0  0  0  # atno 17394 bound_to 11000
  140.8596  134.2857  157.5240 LP  0  0  0  0  0  0  0  0  0  0  0  0  # atno 17395 bound_to 11000

$$$$
