#       Name:                AV-unprocessed.smi:1406
#       Creating user name   scv26
#       Creation time:       Fri Mar 27 05:34:54 2020


#       File generated by GOLD software.
#

@<TRIPOS>MOLECULE
AV-unprocessed.smi:1406
    45    47     1
SMALL
NO_CHARGES


@<TRIPOS>ATOM
      1 ****        -1.9682  -2.9202  -2.9143 C.3            1 S1                 0.0000
      2 ****        -1.8391  -1.5743  -2.1727 C.3            1 S1                 0.0000
      3 ****        -0.3815  -1.1128  -2.0106 C.2            1 S1                 0.0000
      4 ****         0.5549  -1.8792  -2.2389 O.2            1 S1                 0.0000
      5 ****        -0.2064   0.1467  -1.5781 N.am           1 S1                 0.0000
      6 ****         1.0762   0.7487  -1.2225 C.3            1 S1                 0.0000
      7 ****         1.0970   2.2769  -1.4196 C.3            1 S1                 0.0000
      8 ****         1.8378   2.8170  -0.1918 C.3            1 S1                 0.0000
      9 ****         1.4588   1.8703   0.8633 N.4            1 S1                 1.0000
     10 ****         2.1775   1.9239   2.1526 C.3            1 S1                 0.0000
     11 ****         1.4757   0.9692   3.1422 C.3            1 S1                 0.0000
     12 ****         1.3078  -0.4540   2.5635 C.3            1 S1                 0.0000
     13 ****         0.6685  -0.4304   1.1587 C.3            1 S1                 0.0000
     14 ****         1.4712   0.5275   0.2580 C.3            1 S1                 0.0000
     15 ****        -2.4985  -1.6051  -0.8720 N.pl3          1 S1                 0.0000
     16 ****        -3.3405  -0.7315  -0.3154 C.2            1 S1                 0.0000
     17 ****        -3.7020  -1.0445   0.9208 N.2            1 S1                 0.0000
     18 ****        -2.9974  -2.2043   1.0781 C.2            1 S1                 0.0000
     19 ****        -2.2505  -2.5785   0.0398 N.2            1 S1                 0.0000
     20 ****        -1.5243  -2.8659  -3.9089 H              1 S1                 0.0000
     21 ****        -3.0160  -3.1943  -3.0403 H              1 S1                 0.0000
     22 ****        -1.4776  -3.7326  -2.3768 H              1 S1                 0.0000
     23 ****        -2.3484  -0.8204  -2.7750 H              1 S1                 0.0000
     24 ****        -1.0307   0.7101  -1.4279 H              1 S1                 0.0000
     25 ****         1.8571   0.3197  -1.8539 H              1 S1                 0.0000
     26 ****         1.5716   2.5736  -2.3556 H              1 S1                 0.0000
     27 ****         0.0801   2.6727  -1.4274 H              1 S1                 0.0000
     28 ****         2.9171   2.7829  -0.3481 H              1 S1                 0.0000
     29 ****         1.5543   3.8401   0.0559 H              1 S1                 0.0000
     30 ****         3.2223   1.6426   2.0131 H              1 S1                 0.0000
     31 ****         2.1645   2.9431   2.5401 H              1 S1                 0.0000
     32 ****         2.0308   0.9285   4.0799 H              1 S1                 0.0000
     33 ****         0.4912   1.3700   3.3869 H              1 S1                 0.0000
     34 ****         2.2854  -0.9343   2.5049 H              1 S1                 0.0000
     35 ****         0.7064  -1.0645   3.2377 H              1 S1                 0.0000
     36 ****         0.6639  -1.4377   0.7417 H              1 S1                 0.0000
     37 ****        -0.3720  -0.1093   1.2269 H              1 S1                 0.0000
     38 ****         2.5076   0.1831   0.2480 H              1 S1                 0.0000
     39 ****        -3.6874   0.1579  -0.8207 H              1 S1                 0.0000
     40 ****        -3.0278  -2.7848   1.9883 H              1 S1                 0.0000
     41 ****         0.4909   2.0728   1.0690 H              1 S1                 0.0000
     42 ****         0.3728  -2.8170  -2.5344 LP             1 S1                 0.0000
     43 ****         1.4974  -1.5637  -2.1287 LP             1 S1                 0.0000
     44 ****        -4.3130  -0.5696   1.5543 LP             1 S1                 0.0000
     45 ****        -1.6555  -3.3776  -0.0458 LP             1 S1                 0.0000
@<TRIPOS>BOND
    1    1    2 1     
    2    1   20 1     
    3    1   21 1     
    4    1   22 1     
    5    2    3 1     
    6    2   15 1     
    7    2   23 1     
    8    3    4 2     
    9    3    5 am    
   10    5    6 1     
   11    5   24 1     
   12    6   14 1     
   13    6    7 1     
   14    6   25 1     
   15    7    8 1     
   16    7   26 1     
   17    7   27 1     
   18    8    9 1     
   19    8   28 1     
   20    8   29 1     
   21    9   14 1     
   22    9   10 1     
   23    9   41 1     
   24   10   11 1     
   25   10   30 1     
   26   10   31 1     
   27   11   12 1     
   28   11   32 1     
   29   11   33 1     
   30   12   13 1     
   31   12   34 1     
   32   12   35 1     
   33   13   14 1     
   34   13   36 1     
   35   13   37 1     
   36   14   38 1     
   37   15   19 1     
   38   15   16 1     
   39   16   17 2     
   40   16   39 1     
   41   17   18 1     
   42   18   19 2     
   43   18   40 1     
   44    4   42 1     
   45    4   43 1     
   46   17   44 1     
   47   19   45 1     
@<TRIPOS>SUBSTRUCTURE
      1 S1             1
@<TRIPOS>SET
LONE_PAIRS      STATIC     ATOMS    <user>   **** ""
4 42 43 44 45
DONOR_HYDROGENS      STATIC     ATOMS    <user>   **** ""
2 24 41
ATOM$BLUE        STATIC     ATOMS    COLORGROUP SYSTEM
4 42 43 44 45
ATOM$RED        STATIC     ATOMS    COLORGROUP SYSTEM
2 24 41
