AV-unprocessed.smi:1160|AV-procd|sdf|4916|dock8
  -GOLD-   22720 3493D 1   1.00000     0.00000
 Structure written by MMmdl.
 44 45  0  0  0  0  0  0  0  0  1 V2000
  151.9744  138.0979  154.8792 C   0  0  0  0  0  0  0  0  0  0  0  0
  150.9556  139.2354  154.9832 C   0  0  0  0  0  0  0  0  0  0  0  0
  149.7376  138.8151  154.3760 O   0  0  0  0  0  0  0  0  0  0  0  0
  148.7373  139.7482  154.1777 C   0  0  0  0  0  0  0  0  0  0  0  0
  148.9353  141.0119  154.6298 N   0  0  0  0  0  0  0  0  0  0  0  0
  147.9630  141.9251  154.4316 C   0  0  0  0  0  0  0  0  0  0  0  0
  146.7554  141.6330  153.7722 C   0  0  0  0  0  0  0  0  0  0  0  0
  146.5472  140.3229  153.3026 C   0  0  0  0  0  0  0  0  0  0  0  0
  147.5524  139.3482  153.5164 C   0  0  0  0  0  0  0  0  0  0  0  0
  147.4570  137.9983  153.0767 N   0  0  0  0  0  0  0  0  0  0  0  0
  146.3663  137.2220  152.9583 C   0  0  0  0  0  0  0  0  0  0  0  0
  145.2108  137.5745  153.1921 O   0  0  0  0  0  0  0  0  0  0  0  0
  146.7002  135.9853  152.5623 N   0  0  0  0  0  0  0  0  0  0  0  0
  145.7762  134.8727  152.3589 C   0  0  0  0  0  0  0  0  0  0  0  0
  146.5694  133.6047  151.9781 C   0  0  0  0  0  0  0  0  0  0  0  0
  145.6272  132.4638  151.5554 C   0  0  0  0  0  0  0  0  0  0  0  0
  144.7798  132.9333  150.4529 N   0  0  0  0  0  0  0  0  0  0  0  0
  144.9189  132.4858  149.1818 C   0  0  0  0  0  0  0  0  0  0  0  0
  144.0316  133.0701  148.0805 C   0  0  0  0  0  0  0  0  0  0  0  0
  145.7354  131.6199  148.8668 O   0  0  0  0  0  0  0  0  0  0  0  0
  143.8872  134.0182  150.8807 C   0  0  0  0  0  0  0  0  0  0  0  0
  144.7389  135.2388  151.2748 C   0  0  0  0  0  0  0  0  0  0  0  0
  152.9251  138.3845  155.3293 H   0  0  0  0  0  0  0  0  0  0  0  0
  152.1628  137.8361  153.8378 H   0  0  0  0  0  0  0  0  0  0  0  0
  151.6177  137.2036  155.3910 H   0  0  0  0  0  0  0  0  0  0  0  0
  150.7909  139.4844  156.0328 H   0  0  0  0  0  0  0  0  0  0  0  0
  151.3468  140.1221  154.4816 H   0  0  0  0  0  0  0  0  0  0  0  0
  148.1565  142.9200  154.8041 H   0  0  0  0  0  0  0  0  0  0  0  0
  146.0068  142.3974  153.6258 H   0  0  0  0  0  0  0  0  0  0  0  0
  145.6301  140.1011  152.7800 H   0  0  0  0  0  0  0  0  0  0  0  0
  148.3419  137.5433  152.9057 H   0  0  0  0  0  0  0  0  0  0  0  0
  147.6774  135.7920  152.3986 H   0  0  0  0  0  0  0  0  0  0  0  0
  145.2330  134.6538  153.2801 H   0  0  0  0  0  0  0  0  0  0  0  0
  147.2514  133.8260  151.1556 H   0  0  0  0  0  0  0  0  0  0  0  0
  147.1898  133.2852  152.8163 H   0  0  0  0  0  0  0  0  0  0  0  0
  146.2094  131.5790  151.2951 H   0  0  0  0  0  0  0  0  0  0  0  0
  144.9971  132.1664  152.3949 H   0  0  0  0  0  0  0  0  0  0  0  0
  144.1806  134.1466  147.9929 H   0  0  0  0  0  0  0  0  0  0  0  0
  142.9796  132.8718  148.2860 H   0  0  0  0  0  0  0  0  0  0  0  0
  144.2718  132.6217  147.1159 H   0  0  0  0  0  0  0  0  0  0  0  0
  143.1556  134.3062  150.1271 H   0  0  0  0  0  0  0  0  0  0  0  0
  143.3027  133.6811  151.7379 H   0  0  0  0  0  0  0  0  0  0  0  0
  144.0939  136.0431  151.6307 H   0  0  0  0  0  0  0  0  0  0  0  0
  145.2469  135.6200  150.3874 H   0  0  0  0  0  0  0  0  0  0  0  0
  1  2  1  0  0  0  0
  1 23  1  0  0  0  0
  1 24  1  0  0  0  0
  1 25  1  0  0  0  0
  2  3  1  0  0  0  0
  2 26  1  0  0  0  0
  2 27  1  0  0  0  0
  3  4  1  0  0  0  0
  4  9  1  0  0  0  0
  4  5  2  0  0  0  0
  5  6  1  0  0  0  0
  6  7  2  0  0  0  0
  6 28  1  0  0  0  0
  7  8  1  0  0  0  0
  7 29  1  0  0  0  0
  8  9  2  0  0  0  0
  8 30  1  0  0  0  0
  9 10  1  0  0  0  0
 10 11  1  0  0  0  0
 10 31  1  0  0  0  0
 11 12  2  0  0  0  0
 11 13  1  0  0  0  0
 13 14  1  0  0  0  0
 13 32  1  0  0  0  0
 14 22  1  0  0  0  0
 14 15  1  0  0  0  0
 14 33  1  0  0  0  0
 15 16  1  0  0  0  0
 15 34  1  0  0  0  0
 15 35  1  0  0  0  0
 16 17  1  0  0  0  0
 16 36  1  0  0  0  0
 16 37  1  0  0  0  0
 17 18  1  0  0  0  0
 17 21  1  0  0  0  0
 18 19  1  0  0  0  0
 18 20  2  0  0  0  0
 19 38  1  0  0  0  0
 19 39  1  0  0  0  0
 19 40  1  0  0  0  0
 21 22  1  0  0  0  0
 21 41  1  0  0  0  0
 21 42  1  0  0  0  0
 22 43  1  0  0  0  0
 22 44  1  0  0  0  0
M  END
> <s_m_source_file>
AV-unprocessed.smi

> <i_m_source_file_index>
1160

> <i_lp_mmshare_version>
43012

> <i_f3d_flags>
0

> <s_epik_input>
W0NIM11bQ0gyXU9jMW5bY0hdW2NIXVtjSF1jMVtOSF1DKD1PKVtOSF1bQ0hdMltDSDJdW0NIMl1OKEMoPU8pW0NIM10pW0NIMl1bQ0gyXTI=

> <s_epik_cmdline>
J2VwaWtfcHl0aG9uJywgJy1waCcsICc3LjAnLCAnLXRuJywgJzgnLCAnLW1hJywgJzIwMCcsICctbWV0YWxfYmluZGluZycsICctaW1hZScsICc8aW5maWxlLm1hZT4nLCAnLW9tYWUnLCAnPG91dGZpbGUubWFlPic=

> <r_lp_tautomer_probability>
1

> <r_epik_Ionization_Penalty>
0.00011666

> <r_epik_Ionization_Penalty_Charging>
0

> <r_epik_Ionization_Penalty_Neutral>
0.00011666

> <r_epik_State_Penalty>
-0

> <r_epik_Charging_Adjusted_Penalty>
0

> <i_epik_Tot_Q>
0

> <i_epik_Tot_abs_Q>
0

> <r_epik_Metal_State_Penalty>
-0

> <b_epik_Metal_Only>
0

> <s_lp_Force_Field>
OPLS_2005

> <r_lp_Energy>
24.4955

> <b_lp_Chiralities_Consistent>
1

> <s_lp_Variant>
AV-unprocessed.smi:1160-1

> <Gold.Version>
5.8.1

> <Gold.Id.Protein>
6NUR|6NUR_protein|mol2

> <Gold.PLP.Fitness>
43.8630

> <Gold.PLP.PLP>
-36.1313

> <Gold.PLP.part.hbond>
-2.5624

> <Gold.PLP.part.metal>
0.0000

> <Gold.PLP.part.buried>
0.8968

> <Gold.PLP.part.nonpolar>
-35.7254

> <Gold.PLP.part.repulsive>
0.7263

> <Gold.PLP.ligand.clash>
0.0000

> <Gold.PLP.ligand.torsion>
0.2479

> <Gold.PLP.Chemscore.Hbond>
1.7356

> <Gold.PLP.Chemscore.CHOScore>
1.0000

> <Gold.PLP.Chemscore.Metal>
0.0000

> <Gold.Chemscore.Hbonds>
donor molecule, donor type, donor heavy atom, donor atom, acceptor molecule, acceptor atom, score
      L1  H    10    31       P1  7948  0.75
      L1  H    13    32       P1  7948  0.75
      L1  C     6    28       P1  8028  1.00

> <Gold.PLP.Chemscore.Internal.Correction>
0.0207

> <Gold.Rescore>
     Score         DG    S(hbond)    S(metal)    S(lipo)     H(rot)  DE(clash)    DE(int)     intcor
     15.05     -17.57       1.85        0.00      81.88       1.43       1.63       0.89       ----

> <Gold.Chemscore.Fitness>
15.0482

> <Gold.Chemscore.DG>
-17.5697

> <Gold.Chemscore.ZeroCoef>
-5.4800

> <Gold.Chemscore.Hbond>
1.8473

> <Gold.Chemscore.Metal>
0.0000

> <Gold.Chemscore.Lipo>
81.8783

> <Gold.Chemscore.Internal_Hbond>
0.0000

> <Gold.Chemscore.DEClash>
1.6307

> <Gold.Chemscore.DEInternal>
0.8907

> <Gold.Chemscore.Rot>
1.4297

> <Gold.Chemscore.Internal.Correction>
   9.000000E+99

> <Gold.Chemscore.Hbonds>
donor molecule, donor type, donor heavy atom, donor atom, acceptor molecule, acceptor atom, score
      L1  H    10    31       P1  7948  0.74
      L1  H    13    32       P1  7948  0.70

> <Gold.Chemscore.Hbond.Weighted>
-6.1699

> <Gold.Chemscore.Metal.Weighted>
-0.0000

> <Gold.Chemscore.Lipo.Weighted>
-9.5798

> <Gold.Chemscore.Internal_Hbond.Weighted>
0.0000

> <Gold.Chemscore.DEClash.Weighted>
1.6307

> <Gold.Chemscore.DEInternal.Weighted>
0.8907

> <Gold.Chemscore.Rot.Weighted>
3.6600

> <Gold.Chemscore.Internal.Correction.Weighted>
   9.000000E+99

> <Gold.Protein.RotatedTorsions>
[ 6907 6896 6895 6894 ] final   36.41 input  -60.11 | X-H torsion
[ 7974 7965 7964 7962 ] final  124.07 input  175.53 | X-H torsion
[ 8008 7997 7996 7995 ] final  133.29 input   59.86 | X-H torsion
[ 10167 10162 10161 10158 ] final  153.02 input  -65.29 | X-H torsion
[ 10718 10713 10712 10709 ] final  -89.55 input   66.30 | X-H torsion
[ 10763 10752 10751 10750 ] final  124.15 input  -60.55 | X-H torsion
[ 11005 11000 10999 10996 ] final  107.40 input  -57.11 | X-H torsion

> <Gold.Protein.ActiveResidues>
 VAL166  LYS551  ARG553  GLY616  TRP617  ASP618  TYR619  PRO620  LYS621  CYS622 
 ASP623  PHE694  ASN695  SER759  ASP760  ASP761  ALA762  ILE779  LEU786  VAL792 
 PHE793  MET794  SER795  GLU796  ALA797  LYS798  CYS799  TRP800  GLU811  SER814 

> <Gold.Protein.RotatedAtoms>
  152.1294  134.9146  160.0559 H   0  0  0  0  0  0  0  0  0  0  0  0  # atno 6907 bound_to 6896
  152.0256  133.3911  159.4284 H   0  0  0  0  0  0  0  0  0  0  0  0  # atno 6908 bound_to 6896
  150.6855  134.3498  159.4948 H   0  0  0  0  0  0  0  0  0  0  0  0  # atno 6909 bound_to 6896
  145.0886  139.3603  143.4872 H   0  0  0  0  0  0  0  0  0  0  0  0  # atno 7974 bound_to 7965
  156.2991  140.2525  156.3228 H   0  0  0  0  0  0  0  0  0  0  0  0  # atno 8008 bound_to 7997
  154.9219  140.0400  157.2021 H   0  0  0  0  0  0  0  0  0  0  0  0  # atno 8009 bound_to 7997
  154.8303  140.2874  155.5731 H   0  0  0  0  0  0  0  0  0  0  0  0  # atno 8010 bound_to 7997
  139.4829  144.5309  151.7725 H   0  0  0  0  0  0  0  0  0  0  0  0  # atno 10167 bound_to 10162
  155.9985  130.4876  150.5189 H   0  0  0  0  0  0  0  0  0  0  0  0  # atno 10718 bound_to 10713
  153.6569  135.3353  155.3116 H   0  0  0  0  0  0  0  0  0  0  0  0  # atno 10763 bound_to 10752
  154.8524  135.4354  154.1845 H   0  0  0  0  0  0  0  0  0  0  0  0  # atno 10764 bound_to 10752
  153.2802  135.7008  153.7468 H   0  0  0  0  0  0  0  0  0  0  0  0  # atno 10765 bound_to 10752
  139.8827  134.9399  156.5813 H   0  0  0  0  0  0  0  0  0  0  0  0  # atno 11005 bound_to 11000
  146.3531  140.0710  142.8623 LP  0  0  0  0  0  0  0  0  0  0  0  0  # atno 17320 bound_to 7965
  145.1093  140.9395  143.4666 LP  0  0  0  0  0  0  0  0  0  0  0  0  # atno 17321 bound_to 7965
  140.4835  144.1415  150.5937 LP  0  0  0  0  0  0  0  0  0  0  0  0  # atno 17342 bound_to 10162
  140.4252  143.2593  151.9666 LP  0  0  0  0  0  0  0  0  0  0  0  0  # atno 17343 bound_to 10162
  157.3152  131.0671  151.1972 LP  0  0  0  0  0  0  0  0  0  0  0  0  # atno 17370 bound_to 10713
  157.2904  130.6793  149.6111 LP  0  0  0  0  0  0  0  0  0  0  0  0  # atno 17371 bound_to 10713
  140.8024  133.8494  155.8739 LP  0  0  0  0  0  0  0  0  0  0  0  0  # atno 17394 bound_to 11000
  140.9580  134.1693  157.4676 LP  0  0  0  0  0  0  0  0  0  0  0  0  # atno 17395 bound_to 11000

$$$$
