AV-unprocessed.smi:2623|AV-procd|sdf|10230|dock7
  -GOLD-   2272014233D 1   1.00000     0.00000
 Structure written by MMmdl.
 40 42  0  0  0  0  0  0  0  0  1 V2000
  151.6638  139.6646  154.8301 O   0  0  0  0  0  0  0  0  0  0  0  0
  150.9625  139.5322  156.0502 C   0  0  0  0  0  0  0  0  0  0  0  0
  151.4798  140.4134  157.1524 C   0  0  0  0  0  0  0  0  0  0  0  0
  152.6201  140.1727  157.8044 N   0  0  0  0  0  0  0  0  0  0  0  0
  152.6924  141.2248  158.6956 C   0  0  0  0  0  0  0  0  0  0  0  0
  153.6693  141.5400  159.6673 C   0  0  0  0  0  0  0  0  0  0  0  0
  153.5291  142.6879  160.4745 C   0  0  0  0  0  0  0  0  0  0  0  0
  152.4125  143.5350  160.3221 C   0  0  0  0  0  0  0  0  0  0  0  0
  151.4278  143.2394  159.3597 C   0  0  0  0  0  0  0  0  0  0  0  0
  151.5724  142.0922  158.5562 C   0  0  0  0  0  0  0  0  0  0  0  0
  150.8066  141.5256  157.5412 N   0  0  0  0  0  0  0  0  0  0  0  0
  149.5484  142.0416  157.0173 C   0  0  0  0  0  0  0  0  0  0  0  0
  148.4926  142.2794  158.1169 C   0  0  1  0  0  0  0  0  0  0  0  0
  148.5553  143.6173  158.5700 O   0  0  0  0  0  0  0  0  0  0  0  0
  147.0635  142.0006  157.6293 C   0  0  0  0  0  0  0  0  0  0  0  0
  147.0481  142.0168  156.2079 O   0  0  0  0  0  0  0  0  0  0  0  0
  146.1822  142.8826  155.5750 C   0  0  0  0  0  0  0  0  0  0  0  0
  146.1890  142.8765  154.1647 C   0  0  0  0  0  0  0  0  0  0  0  0
  145.3345  143.7258  153.4355 C   0  0  0  0  0  0  0  0  0  0  0  0
  144.4596  144.5940  154.1139 C   0  0  0  0  0  0  0  0  0  0  0  0
  144.4427  144.6120  155.5208 C   0  0  0  0  0  0  0  0  0  0  0  0
  145.2981  143.7628  156.2499 C   0  0  0  0  0  0  0  0  0  0  0  0
  152.2186  138.9082  154.7183 H   0  0  0  0  0  0  0  0  0  0  0  0
  149.9124  139.7649  155.8717 H   0  0  0  0  0  0  0  0  0  0  0  0
  151.0182  138.4903  156.3635 H   0  0  0  0  0  0  0  0  0  0  0  0
  154.5279  140.8969  159.7916 H   0  0  0  0  0  0  0  0  0  0  0  0
  154.2816  142.9189  161.2144 H   0  0  0  0  0  0  0  0  0  0  0  0
  152.3120  144.4116  160.9450 H   0  0  0  0  0  0  0  0  0  0  0  0
  150.5713  143.8860  159.2420 H   0  0  0  0  0  0  0  0  0  0  0  0
  149.7516  142.9700  156.4823 H   0  0  0  0  0  0  0  0  0  0  0  0
  149.1688  141.3456  156.2691 H   0  0  0  0  0  0  0  0  0  0  0  0
  148.7015  141.6388  158.9738 H   0  0  0  0  0  0  0  0  0  0  0  0
  148.1584  144.1747  157.9184 H   0  0  0  0  0  0  0  0  0  0  0  0
  146.7428  141.0192  157.9836 H   0  0  0  0  0  0  0  0  0  0  0  0
  146.3767  142.7475  158.0315 H   0  0  0  0  0  0  0  0  0  0  0  0
  146.8571  142.2130  153.6355 H   0  0  0  0  0  0  0  0  0  0  0  0
  145.3500  143.7100  152.3557 H   0  0  0  0  0  0  0  0  0  0  0  0
  143.8024  145.2449  153.5562 H   0  0  0  0  0  0  0  0  0  0  0  0
  143.7714  145.2779  156.0428 H   0  0  0  0  0  0  0  0  0  0  0  0
  145.2547  143.8052  157.3273 H   0  0  0  0  0  0  0  0  0  0  0  0
  1  2  1  0  0  0  0
  1 23  1  0  0  0  0
  2  3  1  0  0  0  0
  2 24  1  0  0  0  0
  2 25  1  0  0  0  0
  3 11  1  0  0  0  0
  3  4  2  0  0  0  0
  4  5  1  0  0  0  0
  5 10  2  0  0  0  0
  5  6  1  0  0  0  0
  6  7  2  0  0  0  0
  6 26  1  0  0  0  0
  7  8  1  0  0  0  0
  7 27  1  0  0  0  0
  8  9  2  0  0  0  0
  8 28  1  0  0  0  0
  9 10  1  0  0  0  0
  9 29  1  0  0  0  0
 10 11  1  0  0  0  0
 11 12  1  0  0  0  0
 12 13  1  0  0  0  0
 12 30  1  0  0  0  0
 12 31  1  0  0  0  0
 13 14  1  0  0  0  0
 13 15  1  0  0  0  0
 13 32  1  0  0  0  0
 14 33  1  0  0  0  0
 15 16  1  0  0  0  0
 15 34  1  0  0  0  0
 15 35  1  0  0  0  0
 16 17  1  0  0  0  0
 17 22  1  0  0  0  0
 17 18  2  0  0  0  0
 18 19  1  0  0  0  0
 18 36  1  0  0  0  0
 19 20  2  0  0  0  0
 19 37  1  0  0  0  0
 20 21  1  0  0  0  0
 20 38  1  0  0  0  0
 21 22  2  0  0  0  0
 21 39  1  0  0  0  0
 22 40  1  0  0  0  0
M  END
> <s_m_source_file>
AV-unprocessed.smi

> <i_m_source_file_index>
2623

> <i_lp_mmshare_version>
43012

> <i_f3d_flags>
0

> <s_epik_input>
W2NIXTFbY0hdW2NIXVtjSF1jKGMxMiluKGMobjIpW0NIMl1bT0hdKVtDSDJdW0NASF0oW09IXSlbQ0gyXU9jM1tjSF1bY0hdW2NIXVtjSF1bY0hdMw==

> <s_epik_cmdline>
J2VwaWtfcHl0aG9uJywgJy1waCcsICc3LjAnLCAnLXRuJywgJzgnLCAnLW1hJywgJzIwMCcsICctbWV0YWxfYmluZGluZycsICctaW1hZScsICc8aW5maWxlLm1hZT4nLCAnLW9tYWUnLCAnPG91dGZpbGUubWFlPic=

> <r_lp_tautomer_probability>
1

> <r_epik_Ionization_Penalty>
0.0583159

> <r_epik_Ionization_Penalty_Charging>
0

> <r_epik_Ionization_Penalty_Neutral>
0.0583159

> <r_epik_State_Penalty>
0.0503525

> <r_epik_Charging_Adjusted_Penalty>
0.0503525

> <i_epik_Tot_Q>
0

> <i_epik_Tot_abs_Q>
0

> <r_epik_Metal_State_Penalty>
5.25517e-05

> <b_epik_Metal_Only>
0

> <s_lp_Force_Field>
OPLS_2005

> <r_lp_Energy>
15.201

> <b_lp_Chiralities_Consistent>
1

> <s_lp_Variant>
AV-unprocessed.smi:2623-2

> <Gold.Version>
5.8.1

> <Gold.Id.Protein>
6NUR|6NUR_protein|mol2

> <Gold.PLP.Fitness>
47.9287

> <Gold.PLP.PLP>
-42.5744

> <Gold.PLP.part.hbond>
-3.1781

> <Gold.PLP.part.metal>
0.0000

> <Gold.PLP.part.buried>
-5.2255

> <Gold.PLP.part.nonpolar>
-34.0079

> <Gold.PLP.part.repulsive>
0.1362

> <Gold.PLP.ligand.clash>
0.0000

> <Gold.PLP.ligand.torsion>
1.6321

> <Gold.PLP.Chemscore.Hbond>
2.8420

> <Gold.PLP.Chemscore.CHOScore>
0.0000

> <Gold.PLP.Chemscore.Metal>
0.0000

> <Gold.Chemscore.Hbonds>
donor molecule, donor type, donor heavy atom, donor atom, acceptor molecule, acceptor atom, score
      L1  H    14    33       P1  8029  0.67
      P1  H  7989  7998       L1     1  1.00
      P1  H  7997  8009       L1     4  0.89

> <Gold.PLP.Chemscore.Internal.Correction>
0.0925

> <Gold.Rescore>
     Score         DG    S(hbond)    S(metal)    S(lipo)     H(rot)  DE(clash)    DE(int)     intcor
     13.59     -15.74       1.79        0.00     103.03       3.04       0.01       2.14       ----

> <Gold.Chemscore.Fitness>
13.5862

> <Gold.Chemscore.DG>
-15.7362

> <Gold.Chemscore.ZeroCoef>
-5.4800

> <Gold.Chemscore.Hbond>
1.7885

> <Gold.Chemscore.Metal>
0.0000

> <Gold.Chemscore.Lipo>
103.0262

> <Gold.Chemscore.Internal_Hbond>
0.0000

> <Gold.Chemscore.DEClash>
0.0052

> <Gold.Chemscore.DEInternal>
2.1448

> <Gold.Chemscore.Rot>
3.0358

> <Gold.Chemscore.Internal.Correction>
   9.000000E+99

> <Gold.Chemscore.Hbonds>
donor molecule, donor type, donor heavy atom, donor atom, acceptor molecule, acceptor atom, score
      L1  H    14    33       P1  8029  0.07
      P1  H  7989  7998       L1     1  0.91
      P1  H  7997  8009       L1     4  0.45

> <Gold.Chemscore.Hbond.Weighted>
-5.9737

> <Gold.Chemscore.Metal.Weighted>
-0.0000

> <Gold.Chemscore.Lipo.Weighted>
-12.0541

> <Gold.Chemscore.Internal_Hbond.Weighted>
0.0000

> <Gold.Chemscore.DEClash.Weighted>
0.0052

> <Gold.Chemscore.DEInternal.Weighted>
2.1448

> <Gold.Chemscore.Rot.Weighted>
7.7716

> <Gold.Chemscore.Internal.Correction.Weighted>
   9.000000E+99

> <Gold.Protein.RotatedTorsions>
[ 6907 6896 6895 6894 ] final   92.90 input  -60.11 | X-H torsion
[ 7974 7965 7964 7962 ] final  -51.93 input  175.53 | X-H torsion
[ 8008 7997 7996 7995 ] final  166.04 input   59.86 | X-H torsion
[ 10167 10162 10161 10158 ] final  -64.84 input  -65.29 | X-H torsion
[ 10718 10713 10712 10709 ] final  -44.66 input   66.30 | X-H torsion
[ 10763 10752 10751 10750 ] final  -19.67 input  -60.55 | X-H torsion
[ 11005 11000 10999 10996 ] final -109.24 input  -57.11 | X-H torsion

> <Gold.Protein.ActiveResidues>
 VAL166  LYS551  ARG553  GLY616  TRP617  ASP618  TYR619  PRO620  LYS621  CYS622 
 ASP623  PHE694  ASN695  SER759  ASP760  ASP761  ALA762  ILE779  LEU786  VAL792 
 PHE793  MET794  SER795  GLU796  ALA797  LYS798  CYS799  TRP800  GLU811  SER814 

> <Gold.Protein.RotatedAtoms>
  152.5453  134.1431  159.8486 H   0  0  0  0  0  0  0  0  0  0  0  0  # atno 6907 bound_to 6896
  151.1465  133.4929  159.2603 H   0  0  0  0  0  0  0  0  0  0  0  0  # atno 6908 bound_to 6896
  151.1518  135.0241  159.8726 H   0  0  0  0  0  0  0  0  0  0  0  0  # atno 6909 bound_to 6896
  145.9136  140.7894  142.9683 H   0  0  0  0  0  0  0  0  0  0  0  0  # atno 7974 bound_to 7965
  156.1751  140.1654  156.8376 H   0  0  0  0  0  0  0  0  0  0  0  0  # atno 8008 bound_to 7997
  154.5299  140.0759  156.8359 H   0  0  0  0  0  0  0  0  0  0  0  0  # atno 8009 bound_to 7997
  155.3429  140.3385  155.4241 H   0  0  0  0  0  0  0  0  0  0  0  0  # atno 8010 bound_to 7997
  140.5772  143.2323  151.6417 H   0  0  0  0  0  0  0  0  0  0  0  0  # atno 10167 bound_to 10162
  156.2362  130.4176  149.8815 H   0  0  0  0  0  0  0  0  0  0  0  0  # atno 10718 bound_to 10713
  153.6085  135.6997  153.5356 H   0  0  0  0  0  0  0  0  0  0  0  0  # atno 10763 bound_to 10752
  153.3037  135.4121  155.1274 H   0  0  0  0  0  0  0  0  0  0  0  0  # atno 10764 bound_to 10752
  154.8568  135.3655  154.5623 H   0  0  0  0  0  0  0  0  0  0  0  0  # atno 10765 bound_to 10752
  141.0858  133.9141  157.2188 H   0  0  0  0  0  0  0  0  0  0  0  0  # atno 11005 bound_to 11000
  144.6745  140.1864  143.7401 LP  0  0  0  0  0  0  0  0  0  0  0  0  # atno 17320 bound_to 7965
  145.8640  139.2237  143.1700 LP  0  0  0  0  0  0  0  0  0  0  0  0  # atno 17321 bound_to 7965
  139.5149  144.3394  152.0754 LP  0  0  0  0  0  0  0  0  0  0  0  0  # atno 17342 bound_to 10162
  140.2540  144.4139  150.6211 LP  0  0  0  0  0  0  0  0  0  0  0  0  # atno 17343 bound_to 10162
  156.6412  130.8705  151.3514 LP  0  0  0  0  0  0  0  0  0  0  0  0  # atno 17370 bound_to 10713
  157.7155  130.9492  150.1241 LP  0  0  0  0  0  0  0  0  0  0  0  0  # atno 17371 bound_to 10713
  139.9676  135.0137  156.9429 LP  0  0  0  0  0  0  0  0  0  0  0  0  # atno 17394 bound_to 11000
  140.5366  134.0761  155.7330 LP  0  0  0  0  0  0  0  0  0  0  0  0  # atno 17395 bound_to 11000

$$$$
