AV-unprocessed.smi:2521|AV-procd|sdf|9916|dock10
  -GOLD-   2272013553D 1   1.00000     0.00000
 Structure written by MMmdl.
 36 37  0  0  0  0  0  0  0  0  1 V2000
  151.5769  143.5140  157.1460 C   0  0  0  0  0  0  0  0  0  0  0  0
  150.8221  142.2518  157.5882 C   0  0  0  0  0  0  0  0  0  0  0  0
  151.4615  141.5615  158.8019 C   0  0  0  0  0  0  0  0  0  0  0  0
  150.5961  141.3027  156.4528 C   0  0  0  0  0  0  0  0  0  0  0  0
  151.5924  140.6537  155.8348 N   0  0  0  0  0  0  0  0  0  0  0  0
  151.1352  139.8315  154.8150 N   0  0  0  0  0  0  0  0  0  0  0  0
  149.8022  139.8841  154.6908 C   0  0  0  0  0  0  0  0  0  0  0  0
  149.0696  139.1444  153.7250 N   0  0  0  0  0  0  0  0  0  0  0  0
  147.7589  139.2212  153.4352 C   0  0  0  0  0  0  0  0  0  0  0  0
  146.9516  139.9762  153.9776 O   0  0  0  0  0  0  0  0  0  0  0  0
  147.4272  138.3634  152.4596 N   0  0  0  0  0  0  0  0  0  0  0  0
  146.0892  138.2112  151.8980 C   0  0  0  0  0  0  0  0  0  0  0  0
  145.5117  136.8063  152.1547 C   0  0  1  0  0  0  0  0  0  0  0  0
  144.0175  136.7689  152.4091 C   0  0  0  0  0  0  0  0  0  0  0  0
  143.6929  135.3032  152.1408 C   0  0  0  0  0  0  0  0  0  0  0  0
  144.6068  134.8831  151.1319 O   0  0  0  0  0  0  0  0  0  0  0  0
  145.6326  135.8578  150.9624 C   0  0  0  0  0  0  0  0  0  0  0  0
  148.9903  140.9536  155.8207 S   0  0  0  0  0  0  0  0  0  0  0  0
  151.0483  144.0247  156.3405 H   0  0  0  0  0  0  0  0  0  0  0  0
  152.5782  143.2730  156.7874 H   0  0  0  0  0  0  0  0  0  0  0  0
  151.6810  144.2187  157.9714 H   0  0  0  0  0  0  0  0  0  0  0  0
  149.8349  142.5837  157.9115 H   0  0  0  0  0  0  0  0  0  0  0  0
  150.8546  140.7210  159.1396 H   0  0  0  0  0  0  0  0  0  0  0  0
  151.5629  142.2531  159.6387 H   0  0  0  0  0  0  0  0  0  0  0  0
  152.4555  141.1812  158.5641 H   0  0  0  0  0  0  0  0  0  0  0  0
  149.6086  138.4805  153.1892 H   0  0  0  0  0  0  0  0  0  0  0  0
  148.1527  137.7790  152.0707 H   0  0  0  0  0  0  0  0  0  0  0  0
  145.4473  138.9691  152.3479 H   0  0  0  0  0  0  0  0  0  0  0  0
  146.1084  138.4216  150.8274 H   0  0  0  0  0  0  0  0  0  0  0  0
  146.0201  136.3510  153.0065 H   0  0  0  0  0  0  0  0  0  0  0  0
  143.7442  137.0849  153.4162 H   0  0  0  0  0  0  0  0  0  0  0  0
  143.4925  137.4054  151.6952 H   0  0  0  0  0  0  0  0  0  0  0  0
  143.8670  134.7060  153.0367 H   0  0  0  0  0  0  0  0  0  0  0  0
  142.6585  135.1551  151.8302 H   0  0  0  0  0  0  0  0  0  0  0  0
  145.4490  136.3863  150.0259 H   0  0  0  0  0  0  0  0  0  0  0  0
  146.6166  135.3926  150.8991 H   0  0  0  0  0  0  0  0  0  0  0  0
  1  2  1  0  0  0  0
  1 19  1  0  0  0  0
  1 20  1  0  0  0  0
  1 21  1  0  0  0  0
  2  3  1  0  0  0  0
  2  4  1  0  0  0  0
  2 22  1  0  0  0  0
  3 23  1  0  0  0  0
  3 24  1  0  0  0  0
  3 25  1  0  0  0  0
  4 18  1  0  0  0  0
  4  5  2  0  0  0  0
  5  6  1  0  0  0  0
  6  7  2  0  0  0  0
  7  8  1  0  0  0  0
  7 18  1  0  0  0  0
  8  9  1  0  0  0  0
  8 26  1  0  0  0  0
  9 10  2  0  0  0  0
  9 11  1  0  0  0  0
 11 12  1  0  0  0  0
 11 27  1  0  0  0  0
 12 13  1  0  0  0  0
 12 28  1  0  0  0  0
 12 29  1  0  0  0  0
 13 17  1  0  0  0  0
 13 14  1  0  0  0  0
 13 30  1  0  0  0  0
 14 15  1  0  0  0  0
 14 31  1  0  0  0  0
 14 32  1  0  0  0  0
 15 16  1  0  0  0  0
 15 33  1  0  0  0  0
 15 34  1  0  0  0  0
 16 17  1  0  0  0  0
 17 35  1  0  0  0  0
 17 36  1  0  0  0  0
M  END
> <s_m_source_file>
AV-unprocessed.smi

> <i_m_source_file_index>
2521

> <i_lp_mmshare_version>
43012

> <i_f3d_flags>
0

> <s_epik_input>
W0NIM11bQ0hdKFtDSDNdKWMxbm5jKHMxKVtOSF1DKD1PKVtOSF1bQ0gyXVtDQEBIXTJbQ0gyXVtDSDJdT1tDSDJdMg==

> <s_epik_cmdline>
J2VwaWtfcHl0aG9uJywgJy1waCcsICc3LjAnLCAnLXRuJywgJzgnLCAnLW1hJywgJzIwMCcsICctbWV0YWxfYmluZGluZycsICctaW1hZScsICc8aW5maWxlLm1hZT4nLCAnLW9tYWUnLCAnPG91dGZpbGUubWFlPic=

> <r_lp_tautomer_probability>
1

> <r_epik_Ionization_Penalty>
0.000452582

> <r_epik_Ionization_Penalty_Charging>
0

> <r_epik_Ionization_Penalty_Neutral>
0.000452582

> <r_epik_State_Penalty>
-0

> <r_epik_Charging_Adjusted_Penalty>
0

> <i_epik_Tot_Q>
0

> <i_epik_Tot_abs_Q>
0

> <r_epik_Metal_State_Penalty>
0.207746

> <b_epik_Metal_Only>
0

> <s_lp_Force_Field>
OPLS_2005

> <r_lp_Energy>
10.682

> <b_lp_Chiralities_Consistent>
1

> <s_lp_Variant>
AV-unprocessed.smi:2521-2

> <Gold.Version>
5.8.1

> <Gold.Id.Protein>
6NUR|6NUR_protein|mol2

> <Gold.PLP.Fitness>
35.3883

> <Gold.PLP.PLP>
-30.8872

> <Gold.PLP.part.hbond>
-4.9303

> <Gold.PLP.part.metal>
0.0000

> <Gold.PLP.part.buried>
-2.7815

> <Gold.PLP.part.nonpolar>
-24.5847

> <Gold.PLP.part.repulsive>
0.5892

> <Gold.PLP.ligand.clash>
0.0000

> <Gold.PLP.ligand.torsion>
0.5855

> <Gold.PLP.Chemscore.Hbond>
1.8640

> <Gold.PLP.Chemscore.CHOScore>
0.0000

> <Gold.PLP.Chemscore.Metal>
0.0000

> <Gold.Chemscore.Hbonds>
donor molecule, donor type, donor heavy atom, donor atom, acceptor molecule, acceptor atom, score
      L1  H    11    27       P1  7948  1.00
      P1  H  7989  7998       L1     6  0.80

> <Gold.PLP.Chemscore.Internal.Correction>
0.0801

> <Gold.Rescore>
     Score         DG    S(hbond)    S(metal)    S(lipo)     H(rot)  DE(clash)    DE(int)     intcor
     12.23     -14.02       1.47        0.00      62.69       1.45       0.02       1.78       ----

> <Gold.Chemscore.Fitness>
12.2305

> <Gold.Chemscore.DG>
-14.0237

> <Gold.Chemscore.ZeroCoef>
-5.4800

> <Gold.Chemscore.Hbond>
1.4704

> <Gold.Chemscore.Metal>
0.0000

> <Gold.Chemscore.Lipo>
62.6869

> <Gold.Chemscore.Internal_Hbond>
0.0000

> <Gold.Chemscore.DEClash>
0.0163

> <Gold.Chemscore.DEInternal>
1.7769

> <Gold.Chemscore.Rot>
1.4461

> <Gold.Chemscore.Internal.Correction>
   9.000000E+99

> <Gold.Chemscore.Hbonds>
donor molecule, donor type, donor heavy atom, donor atom, acceptor molecule, acceptor atom, score
      L1  H    11    27       P1  7948  0.98
      P1  H  7989  7998       L1     6  0.04

> <Gold.Chemscore.Hbond.Weighted>
-4.9113

> <Gold.Chemscore.Metal.Weighted>
-0.0000

> <Gold.Chemscore.Lipo.Weighted>
-7.3344

> <Gold.Chemscore.Internal_Hbond.Weighted>
0.0000

> <Gold.Chemscore.DEClash.Weighted>
0.0163

> <Gold.Chemscore.DEInternal.Weighted>
1.7769

> <Gold.Chemscore.Rot.Weighted>
3.7019

> <Gold.Chemscore.Internal.Correction.Weighted>
   9.000000E+99

> <Gold.Protein.RotatedTorsions>
[ 6907 6896 6895 6894 ] final  -53.77 input  -60.11 | X-H torsion
[ 7974 7965 7964 7962 ] final  115.07 input  175.53 | X-H torsion
[ 8008 7997 7996 7995 ] final   -8.37 input   59.86 | X-H torsion
[ 10167 10162 10161 10158 ] final  -25.72 input  -65.29 | X-H torsion
[ 10718 10713 10712 10709 ] final -172.69 input   66.30 | X-H torsion
[ 10763 10752 10751 10750 ] final   16.29 input  -60.55 | X-H torsion
[ 11005 11000 10999 10996 ] final -112.54 input  -57.11 | X-H torsion

> <Gold.Protein.ActiveResidues>
 VAL166  LYS551  ARG553  GLY616  TRP617  ASP618  TYR619  PRO620  LYS621  CYS622 
 ASP623  PHE694  ASN695  SER759  ASP760  ASP761  ALA762  ILE779  LEU786  VAL792 
 PHE793  MET794  SER795  GLU796  ALA797  LYS798  CYS799  TRP800  GLU811  SER814 

> <Gold.Protein.RotatedAtoms>
  150.8397  134.7684  159.6921 H   0  0  0  0  0  0  0  0  0  0  0  0  # atno 6907 bound_to 6896
  152.4487  134.5437  159.9856 H   0  0  0  0  0  0  0  0  0  0  0  0  # atno 6908 bound_to 6896
  151.5580  133.3369  159.3001 H   0  0  0  0  0  0  0  0  0  0  0  0  # atno 6909 bound_to 6896
  145.1966  139.2973  143.4340 H   0  0  0  0  0  0  0  0  0  0  0  0  # atno 7974 bound_to 7965
  154.5748  140.2383  155.8139 H   0  0  0  0  0  0  0  0  0  0  0  0  # atno 8008 bound_to 7997
  156.2135  140.3019  155.9742 H   0  0  0  0  0  0  0  0  0  0  0  0  # atno 8009 bound_to 7997
  155.2647  140.0416  157.2991 H   0  0  0  0  0  0  0  0  0  0  0  0  # atno 8010 bound_to 7997
  140.7285  143.4240  151.0906 H   0  0  0  0  0  0  0  0  0  0  0  0  # atno 10167 bound_to 10162
  156.7593  130.9407  151.3117 H   0  0  0  0  0  0  0  0  0  0  0  0  # atno 10718 bound_to 10713
  153.1445  135.6766  153.8976 H   0  0  0  0  0  0  0  0  0  0  0  0  # atno 10763 bound_to 10752
  153.8423  135.3104  155.3428 H   0  0  0  0  0  0  0  0  0  0  0  0  # atno 10764 bound_to 10752
  154.7814  135.4886  153.9937 H   0  0  0  0  0  0  0  0  0  0  0  0  # atno 10765 bound_to 10752
  141.0669  133.9444  157.2561 H   0  0  0  0  0  0  0  0  0  0  0  0  # atno 11005 bound_to 11000
  146.3426  140.2196  142.8591 LP  0  0  0  0  0  0  0  0  0  0  0  0  # atno 17320 bound_to 7965
  144.9989  140.8614  143.5294 LP  0  0  0  0  0  0  0  0  0  0  0  0  # atno 17321 bound_to 7965
  139.7889  143.8247  152.3149 LP  0  0  0  0  0  0  0  0  0  0  0  0  # atno 17342 bound_to 10162
  139.8224  144.7290  150.9555 LP  0  0  0  0  0  0  0  0  0  0  0  0  # atno 17343 bound_to 10162
  157.6742  130.9079  150.0110 LP  0  0  0  0  0  0  0  0  0  0  0  0  # atno 17370 bound_to 10713
  156.1349  130.3643  149.9672 LP  0  0  0  0  0  0  0  0  0  0  0  0  # atno 17371 bound_to 10713
  139.9485  135.0180  156.8924 LP  0  0  0  0  0  0  0  0  0  0  0  0  # atno 17394 bound_to 11000
  140.5754  134.0403  155.7445 LP  0  0  0  0  0  0  0  0  0  0  0  0  # atno 17395 bound_to 11000

$$$$
