AV-unprocessed.smi:3254|AV-procd|sdf|12456|dock2
  -GOLD-   2272018353D 1   1.00000     0.00000
 Structure written by MMmdl.
 36 37  0  0  0  0  0  0  0  0  1 V2000
  152.1074  144.7985  158.3677 C   0  0  0  0  0  0  0  0  0  0  0  0
  151.7341  144.2589  159.7553 C   0  0  0  0  0  0  0  0  0  0  0  0
  152.6142  143.1678  160.1662 N   0  0  0  0  0  0  0  0  0  0  0  0
  153.6288  142.6528  159.2622 C   0  0  0  0  0  0  0  0  0  0  0  0
  154.2072  141.3988  159.9537 C   0  0  2  0  0  0  0  0  0  0  0  0
  153.8160  140.1015  159.2287 C   0  0  0  0  0  0  0  0  0  0  0  0
  154.6837  139.3008  158.8780 O   0  0  0  0  0  0  0  0  0  0  0  0
  152.5058  139.9045  159.0164 N   0  0  0  0  0  0  0  0  0  0  0  0
  151.9333  138.7385  158.3547 C   0  0  0  0  0  0  0  0  0  0  0  0
  152.5424  138.5233  156.9594 C   0  0  0  0  0  0  0  0  0  0  0  0
  151.6183  138.9077  155.9123 N   0  0  0  0  0  0  0  0  0  0  0  0
  151.1072  138.0961  154.9082 C   0  0  0  0  0  0  0  0  0  0  0  0
  150.2764  138.8884  154.1481 C   0  0  0  0  0  0  0  0  0  0  0  0
  150.2628  140.1827  154.6626 N   0  0  0  0  0  0  0  0  0  0  0  0
  151.0800  140.1173  155.7059 C   0  0  0  0  0  0  0  0  0  0  0  0
  153.6466  141.4371  161.3894 C   0  0  0  0  0  0  0  0  0  0  0  0
  152.6036  142.5413  161.3479 C   0  0  0  0  0  0  0  0  0  0  0  0
  151.8576  142.7890  162.2941 O   0  0  0  0  0  0  0  0  0  0  0  0
  151.4261  145.5944  158.0667 H   0  0  0  0  0  0  0  0  0  0  0  0
  152.0549  144.0130  157.6133 H   0  0  0  0  0  0  0  0  0  0  0  0
  153.1178  145.2079  158.3569 H   0  0  0  0  0  0  0  0  0  0  0  0
  151.7808  145.0608  160.4935 H   0  0  0  0  0  0  0  0  0  0  0  0
  150.7008  143.9104  159.7464 H   0  0  0  0  0  0  0  0  0  0  0  0
  153.1974  142.4386  158.2825 H   0  0  0  0  0  0  0  0  0  0  0  0
  154.4022  143.4089  159.1219 H   0  0  0  0  0  0  0  0  0  0  0  0
  155.2956  141.4730  159.9854 H   0  0  0  0  0  0  0  0  0  0  0  0
  151.8600  140.6122  159.3357 H   0  0  0  0  0  0  0  0  0  0  0  0
  152.1229  137.8670  158.9821 H   0  0  0  0  0  0  0  0  0  0  0  0
  150.8489  138.8435  158.2887 H   0  0  0  0  0  0  0  0  0  0  0  0
  153.4554  139.1078  156.8399 H   0  0  0  0  0  0  0  0  0  0  0  0
  152.8151  137.4765  156.8186 H   0  0  0  0  0  0  0  0  0  0  0  0
  151.3706  137.0522  154.8194 H   0  0  0  0  0  0  0  0  0  0  0  0
  149.6931  138.6284  153.2769 H   0  0  0  0  0  0  0  0  0  0  0  0
  151.2932  140.9701  156.3336 H   0  0  0  0  0  0  0  0  0  0  0  0
  153.1950  140.4974  161.7117 H   0  0  0  0  0  0  0  0  0  0  0  0
  154.4241  141.6999  162.1073 H   0  0  0  0  0  0  0  0  0  0  0  0
  1  2  1  0  0  0  0
  1 19  1  0  0  0  0
  1 20  1  0  0  0  0
  1 21  1  0  0  0  0
  2  3  1  0  0  0  0
  2 22  1  0  0  0  0
  2 23  1  0  0  0  0
  3 17  1  0  0  0  0
  3  4  1  0  0  0  0
  4  5  1  0  0  0  0
  4 24  1  0  0  0  0
  4 25  1  0  0  0  0
  5  6  1  0  0  0  0
  5 16  1  0  0  0  0
  5 26  1  0  0  0  0
  6  7  2  0  0  0  0
  6  8  1  0  0  0  0
  8  9  1  0  0  0  0
  8 27  1  0  0  0  0
  9 10  1  0  0  0  0
  9 28  1  0  0  0  0
  9 29  1  0  0  0  0
 10 11  1  0  0  0  0
 10 30  1  0  0  0  0
 10 31  1  0  0  0  0
 11 15  1  0  0  0  0
 11 12  1  0  0  0  0
 12 13  2  0  0  0  0
 12 32  1  0  0  0  0
 13 14  1  0  0  0  0
 13 33  1  0  0  0  0
 14 15  2  0  0  0  0
 15 34  1  0  0  0  0
 16 17  1  0  0  0  0
 16 35  1  0  0  0  0
 16 36  1  0  0  0  0
 17 18  2  0  0  0  0
M  END
> <s_m_source_file>
AV-unprocessed.smi

> <i_m_source_file_index>
3254

> <i_lp_mmshare_version>
43012

> <i_f3d_flags>
0

> <s_epik_input>
W0NIM11bQ0gyXU4xW0NIMl1bQ0BIXShbQ0gyXUMxPU8pQyg9TylbTkhdW0NIMl1bQ0gyXW4yW2NIXVtjSF1uW2NIXTI=

> <s_epik_cmdline>
J2VwaWtfcHl0aG9uJywgJy1waCcsICc3LjAnLCAnLXRuJywgJzgnLCAnLW1hJywgJzIwMCcsICctbWV0YWxfYmluZGluZycsICctaW1hZScsICc8aW5maWxlLm1hZT4nLCAnLW9tYWUnLCAnPG91dGZpbGUubWFlPic=

> <r_lp_tautomer_probability>
1

> <r_epik_Ionization_Penalty>
0.587394

> <r_epik_Ionization_Penalty_Charging>
0.587394

> <r_epik_Ionization_Penalty_Neutral>
3.11583e-08

> <r_epik_State_Penalty>
0.600671

> <r_epik_Charging_Adjusted_Penalty>
1.18807

> <i_epik_Tot_Q>
0

> <i_epik_Tot_abs_Q>
0

> <r_epik_Metal_State_Penalty>
0.297665

> <b_epik_Metal_Only>
0

> <s_lp_Force_Field>
OPLS_2005

> <r_lp_Energy>
13.3235

> <b_lp_Chiralities_Consistent>
1

> <s_lp_Variant>
AV-unprocessed.smi:3254-4

> <Gold.Version>
5.8.1

> <Gold.Id.Protein>
6NUR|6NUR_protein|mol2

> <Gold.PLP.Fitness>
53.0565

> <Gold.PLP.PLP>
-41.3372

> <Gold.PLP.part.hbond>
-3.0000

> <Gold.PLP.part.metal>
0.0000

> <Gold.PLP.part.buried>
-4.6081

> <Gold.PLP.part.nonpolar>
-35.6907

> <Gold.PLP.part.repulsive>
2.2615

> <Gold.PLP.ligand.clash>
0.0000

> <Gold.PLP.ligand.torsion>
0.4056

> <Gold.PLP.Chemscore.Hbond>
2.9120

> <Gold.PLP.Chemscore.CHOScore>
1.2598

> <Gold.PLP.Chemscore.Metal>
0.0000

> <Gold.Chemscore.Hbonds>
donor molecule, donor type, donor heavy atom, donor atom, acceptor molecule, acceptor atom, score
      P1  H  6933  6945       L1    18  0.87
      P1  H  7989  7998       L1    14  0.56
      P1  H  7997  8009       L1     7  1.00
      L1  C    13    33       P1  7948  0.23
      L1  C    13    33       P1  7957  0.88

> <Gold.PLP.Chemscore.Internal.Correction>
0.0149

> <Gold.Rescore>
     Score         DG    S(hbond)    S(metal)    S(lipo)     H(rot)  DE(clash)    DE(int)     intcor
     12.94     -15.21       1.67        0.00      83.44       2.20       1.74       0.53       ----

> <Gold.Chemscore.Fitness>
12.9412

> <Gold.Chemscore.DG>
-15.2090

> <Gold.Chemscore.ZeroCoef>
-5.4800

> <Gold.Chemscore.Hbond>
1.6724

> <Gold.Chemscore.Metal>
0.0000

> <Gold.Chemscore.Lipo>
83.4420

> <Gold.Chemscore.Internal_Hbond>
0.0000

> <Gold.Chemscore.DEClash>
1.7369

> <Gold.Chemscore.DEInternal>
0.5309

> <Gold.Chemscore.Rot>
2.1952

> <Gold.Chemscore.Internal.Correction>
   9.000000E+99

> <Gold.Chemscore.Hbonds>
donor molecule, donor type, donor heavy atom, donor atom, acceptor molecule, acceptor atom, score
      P1  H  6933  6945       L1    18  0.73
      P1  H  7989  7998       L1    14  0.01
      P1  H  7997  8009       L1     7  0.48

> <Gold.Chemscore.Hbond.Weighted>
-5.5860

> <Gold.Chemscore.Metal.Weighted>
-0.0000

> <Gold.Chemscore.Lipo.Weighted>
-9.7627

> <Gold.Chemscore.Internal_Hbond.Weighted>
0.0000

> <Gold.Chemscore.DEClash.Weighted>
1.7369

> <Gold.Chemscore.DEInternal.Weighted>
0.5309

> <Gold.Chemscore.Rot.Weighted>
5.6197

> <Gold.Chemscore.Internal.Correction.Weighted>
   9.000000E+99

> <Gold.Protein.RotatedTorsions>
[ 6907 6896 6895 6894 ] final -173.12 input  -60.11 | X-H torsion
[ 7974 7965 7964 7962 ] final   14.49 input  175.53 | X-H torsion
[ 8008 7997 7996 7995 ] final  102.73 input   59.86 | X-H torsion
[ 10167 10162 10161 10158 ] final -146.47 input  -65.29 | X-H torsion
[ 10718 10713 10712 10709 ] final -109.94 input   66.30 | X-H torsion
[ 10763 10752 10751 10750 ] final   81.87 input  -60.55 | X-H torsion
[ 11005 11000 10999 10996 ] final -108.98 input  -57.11 | X-H torsion

> <Gold.Protein.ActiveResidues>
 VAL166  LYS551  ARG553  GLY616  TRP617  ASP618  TYR619  PRO620  LYS621  CYS622 
 ASP623  PHE694  ASN695  SER759  ASP760  ASP761  ALA762  ILE779  LEU786  VAL792 
 PHE793  MET794  SER795  GLU796  ALA797  LYS798  CYS799  TRP800  GLU811  SER814 

> <Gold.Protein.RotatedAtoms>
  151.5511  133.3417  159.2952 H   0  0  0  0  0  0  0  0  0  0  0  0  # atno 6907 bound_to 6896
  150.8478  134.7796  159.6996 H   0  0  0  0  0  0  0  0  0  0  0  0  # atno 6908 bound_to 6896
  152.4532  134.5357  159.9876 H   0  0  0  0  0  0  0  0  0  0  0  0  # atno 6909 bound_to 6896
  146.2303  139.9034  142.8536 H   0  0  0  0  0  0  0  0  0  0  0  0  # atno 7974 bound_to 7965
  156.1419  140.3176  155.8509 H   0  0  0  0  0  0  0  0  0  0  0  0  # atno 8008 bound_to 7997
  155.4137  140.0507  157.3047 H   0  0  0  0  0  0  0  0  0  0  0  0  # atno 8009 bound_to 7997
  154.4984  140.2119  155.9411 H   0  0  0  0  0  0  0  0  0  0  0  0  # atno 8010 bound_to 7997
  139.7711  143.8237  152.2624 H   0  0  0  0  0  0  0  0  0  0  0  0  # atno 10167 bound_to 10162
  156.0564  130.5790  150.8169 H   0  0  0  0  0  0  0  0  0  0  0  0  # atno 10718 bound_to 10713
  153.1154  135.4749  154.9106 H   0  0  0  0  0  0  0  0  0  0  0  0  # atno 10763 bound_to 10752
  154.7523  135.3109  154.8537 H   0  0  0  0  0  0  0  0  0  0  0  0  # atno 10764 bound_to 10752
  153.9115  135.6864  153.4804 H   0  0  0  0  0  0  0  0  0  0  0  0  # atno 10765 bound_to 10752
  141.0872  133.9117  157.2157 H   0  0  0  0  0  0  0  0  0  0  0  0  # atno 11005 bound_to 11000
  145.2301  140.9969  143.3995 LP  0  0  0  0  0  0  0  0  0  0  0  0  # atno 17320 bound_to 7965
  144.9537  139.4054  143.6389 LP  0  0  0  0  0  0  0  0  0  0  0  0  # atno 17321 bound_to 7965
  139.8271  144.7270  150.9497 LP  0  0  0  0  0  0  0  0  0  0  0  0  # atno 17342 bound_to 10162
  140.7814  143.4104  151.1002 LP  0  0  0  0  0  0  0  0  0  0  0  0  # atno 17343 bound_to 10162
  157.5537  131.0944  150.9659 LP  0  0  0  0  0  0  0  0  0  0  0  0  # atno 17370 bound_to 10713
  156.9913  130.5564  149.5303 LP  0  0  0  0  0  0  0  0  0  0  0  0  # atno 17371 bound_to 10713
  139.9692  135.0133  156.9469 LP  0  0  0  0  0  0  0  0  0  0  0  0  # atno 17394 bound_to 11000
  140.5335  134.0790  155.7322 LP  0  0  0  0  0  0  0  0  0  0  0  0  # atno 17395 bound_to 11000

$$$$
