#       Name:                AV-unprocessed.smi:153
#       Creating user name   scv26
#       Creation time:       Thu Mar 26 18:50:56 2020


#       File generated by GOLD software.
#

@<TRIPOS>MOLECULE
AV-unprocessed.smi:153
    71    74     1
SMALL
NO_CHARGES


@<TRIPOS>ATOM
      1 ****        -6.4957  -1.7950   1.3079 C.3            1 S1                 0.0000
      2 ****        -5.5220  -2.6515   0.4835 C.3            1 S1                 0.0000
      3 ****        -5.6951  -2.2927  -0.8856 O.3            1 S1                 0.0000
      4 ****        -4.4567  -2.4294  -1.5592 C.3            1 S1                 0.0000
      5 ****        -3.4656  -1.9075  -0.5306 C.3            1 S1                 0.0000
      6 ****        -4.0064  -2.4695   0.7810 C.3            1 S1                 0.0000
      7 ****        -3.4456  -3.7595   0.9623 O.3            1 S1                 0.0000
      8 ****        -3.6445  -1.6158   2.0250 C.3            1 S1                 0.0000
      9 ****        -2.2111  -1.4473   2.2134 N.pl3          1 S1                 0.0000
     10 ****        -1.3658  -2.2945   2.8903 C.2            1 S1                 0.0000
     11 ****        -0.1152  -1.9260   2.9130 N.2            1 S1                 0.0000
     12 ****        -0.0873  -0.7280   2.2046 C.ar           1 S1                 0.0000
     13 ****         0.9355   0.2045   1.8424 C.ar           1 S1                 0.0000
     14 ****         2.2613   0.0681   2.1464 N.pl3          1 S1                 0.0000
     15 ****         2.7776  -1.2524   2.4865 C.3            1 S1                 0.0000
     16 ****         3.2269   1.0629   1.6726 C.3            1 S1                 0.0000
     17 ****         3.5735   0.8886   0.1765 C.3            1 S1                 0.0000
     18 ****         4.8078   0.2062   0.0832 O.3            1 S1                 0.0000
     19 ****         3.7364   2.2510  -0.5310 C.3            1 S1                 0.0000
     20 ****         3.6870   2.2123  -1.9937 N.3            1 S1                 0.0000
     21 ****         4.1413   3.4779  -2.5610 C.3            1 S1                 0.0000
     22 ****         4.0917   3.4735  -4.0988 C.3            1 S1                 0.0000
     23 ****         2.7675   3.1797  -4.5306 O.3            1 S1                 0.0000
     24 ****         2.2973   1.9292  -4.0393 C.3            1 S1                 0.0000
     25 ****         2.3446   1.9262  -2.5014 C.3            1 S1                 0.0000
     26 ****         0.5359   1.3025   1.1430 N.ar           1 S1                 0.0000
     27 ****        -0.7433   1.4789   0.8058 C.ar           1 S1                 0.0000
     28 ****        -1.7864   0.6923   1.0641 N.ar           1 S1                 0.0000
     29 ****        -1.4088  -0.4095   1.7716 C.ar           1 S1                 0.0000
     30 ****        -6.4256  -2.0223   2.3716 H              1 S1                 0.0000
     31 ****        -7.5250  -1.9841   1.0025 H              1 S1                 0.0000
     32 ****        -6.3063  -0.7302   1.1715 H              1 S1                 0.0000
     33 ****        -5.8089  -3.6993   0.5916 H              1 S1                 0.0000
     34 ****        -4.2731  -3.4802  -1.7881 H              1 S1                 0.0000
     35 ****        -4.4388  -1.8616  -2.4895 H              1 S1                 0.0000
     36 ****        -2.4336  -2.1901  -0.7433 H              1 S1                 0.0000
     37 ****        -3.5171  -0.8183  -0.5217 H              1 S1                 0.0000
     38 ****        -2.5072  -3.6708   1.0277 H              1 S1                 0.0000
     39 ****        -4.0883  -0.6228   1.9511 H              1 S1                 0.0000
     40 ****        -4.0531  -2.0698   2.9286 H              1 S1                 0.0000
     41 ****        -1.7072  -3.2038   3.3642 H              1 S1                 0.0000
     42 ****         2.4748  -1.5336   3.4951 H              1 S1                 0.0000
     43 ****         3.8674  -1.2675   2.4553 H              1 S1                 0.0000
     44 ****         2.4181  -2.0058   1.7848 H              1 S1                 0.0000
     45 ****         2.8234   2.0585   1.8609 H              1 S1                 0.0000
     46 ****         4.1289   1.0158   2.2844 H              1 S1                 0.0000
     47 ****         2.8076   0.2868  -0.3104 H              1 S1                 0.0000
     48 ****         5.4772   0.7412   0.4812 H              1 S1                 0.0000
     49 ****         2.9587   2.9319  -0.1815 H              1 S1                 0.0000
     50 ****         4.6778   2.6962  -0.2051 H              1 S1                 0.0000
     51 ****         3.5243   4.2951  -2.1838 H              1 S1                 0.0000
     52 ****         5.1621   3.6829  -2.2364 H              1 S1                 0.0000
     53 ****         4.3870   4.4467  -4.4910 H              1 S1                 0.0000
     54 ****         4.7871   2.7384  -4.5066 H              1 S1                 0.0000
     55 ****         1.2766   1.7704  -4.3873 H              1 S1                 0.0000
     56 ****         2.9045   1.1191  -4.4458 H              1 S1                 0.0000
     57 ****         1.9969   0.9565  -2.1496 H              1 S1                 0.0000
     58 ****         1.6391   2.6660  -2.1198 H              1 S1                 0.0000
     59 ****        -0.9607   2.3781   0.2482 H              1 S1                 0.0000
     60 ****        -6.0070  -1.3445  -0.9467 LP             1 S1                 0.0000
     61 ****        -6.3738  -2.8945  -1.3065 LP             1 S1                 0.0000
     62 ****        -3.6762  -4.3406   0.1818 LP             1 S1                 0.0000
     63 ****        -3.8052  -4.1692   1.8006 LP             1 S1                 0.0000
     64 ****         0.6533  -2.3990   3.3437 LP             1 S1                 0.0000
     65 ****         5.0321   0.0448  -0.8779 LP             1 S1                 0.0000
     66 ****         4.7463  -0.6692   0.5627 LP             1 S1                 0.0000
     67 ****         4.2955   1.4699  -2.2739 LP             1 S1                 0.0000
     68 ****         2.7541   3.1568  -5.5303 LP             1 S1                 0.0000
     69 ****         2.1568   3.9018  -4.2056 LP             1 S1                 0.0000
     70 ****         1.2129   1.9888   0.8773 LP             1 S1                 0.0000
     71 ****        -2.7245   0.8851   0.7764 LP             1 S1                 0.0000
@<TRIPOS>BOND
    1    1    2 1     
    2    1   30 1     
    3    1   31 1     
    4    1   32 1     
    5    2    6 1     
    6    2    3 1     
    7    2   33 1     
    8    3    4 1     
    9    4    5 1     
   10    4   34 1     
   11    4   35 1     
   12    5    6 1     
   13    5   36 1     
   14    5   37 1     
   15    6    7 1     
   16    6    8 1     
   17    7   38 1     
   18    8    9 1     
   19    8   39 1     
   20    8   40 1     
   21    9   29 1     
   22    9   10 1     
   23   10   11 2     
   24   10   41 1     
   25   11   12 1     
   26   12   29 ar    
   27   12   13 ar    
   28   13   14 1     
   29   13   26 ar    
   30   14   15 1     
   31   14   16 1     
   32   15   42 1     
   33   15   43 1     
   34   15   44 1     
   35   16   17 1     
   36   16   45 1     
   37   16   46 1     
   38   17   18 1     
   39   17   19 1     
   40   17   47 1     
   41   18   48 1     
   42   19   20 1     
   43   19   49 1     
   44   19   50 1     
   45   20   25 1     
   46   20   21 1     
   47   21   22 1     
   48   21   51 1     
   49   21   52 1     
   50   22   23 1     
   51   22   53 1     
   52   22   54 1     
   53   23   24 1     
   54   24   25 1     
   55   24   55 1     
   56   24   56 1     
   57   25   57 1     
   58   25   58 1     
   59   26   27 ar    
   60   27   28 ar    
   61   27   59 1     
   62   28   29 ar    
   63    3   60 1     
   64    3   61 1     
   65    7   62 1     
   66    7   63 1     
   67   11   64 1     
   68   18   65 1     
   69   18   66 1     
   70   20   67 1     
   71   23   68 1     
   72   23   69 1     
   73   26   70 1     
   74   28   71 1     
@<TRIPOS>SUBSTRUCTURE
      1 S1             1
@<TRIPOS>SET
LONE_PAIRS      STATIC     ATOMS    <user>   **** ""
12 60 61 62 63 64 65 66 67 68 69 70 71
DONOR_HYDROGENS      STATIC     ATOMS    <user>   **** ""
2 38 48
ATOM$BLUE        STATIC     ATOMS    COLORGROUP SYSTEM
12 60 61 62 63 64 65 66 67 68 69 70 71
ATOM$RED        STATIC     ATOMS    COLORGROUP SYSTEM
2 38 48
