#       Name:                AV-unprocessed.smi:2197
#       Creating user name   scv26
#       Creation time:       Fri Mar 27 12:12:52 2020


#       File generated by GOLD software.
#

@<TRIPOS>MOLECULE
AV-unprocessed.smi:2197
    34    34     1
SMALL
NO_CHARGES


@<TRIPOS>ATOM
      1 ****        -4.4192   0.9859   1.4093 C.3            1 S1                 0.0000
      2 ****        -2.8869   1.0032   1.4094 C.3            1 S1                 0.0000
      3 ****        -2.2836  -0.4030   1.2601 C.3            1 S1                 0.0000
      4 ****        -0.8262  -0.3686   1.2920 N.am           1 S1                 0.0000
      5 ****        -0.0375  -0.0672   0.2494 C.2            1 S1                 0.0000
      6 ****        -0.4747   0.2361  -0.8617 O.2            1 S1                 0.0000
      7 ****         1.4733  -0.0831   0.5207 C.3            1 S1                 0.0000
      8 ****         2.2687  -0.4251  -0.6697 N.am           1 S1                 0.0000
      9 ****         2.8230   0.6327  -1.4121 C.2            1 S1                 0.0000
     10 ****         3.5622   0.4147  -2.5164 C.2            1 S1                 0.0000
     11 ****         3.7835  -0.9631  -2.9381 C.2            1 S1                 0.0000
     12 ****         4.4607  -1.1812  -3.9408 O.2            1 S1                 0.0000
     13 ****         3.2202  -1.9548  -2.1875 N.pl3          1 S1                -1.0000
     14 ****         2.4680  -1.7178  -1.0680 C.2            1 S1                 0.0000
     15 ****         1.9664  -2.6276  -0.4065 O.2            1 S1                 0.0000
     16 ****        -4.8189   1.9945   1.5162 H              1 S1                 0.0000
     17 ****        -4.8073   0.3850   2.2322 H              1 S1                 0.0000
     18 ****        -4.8070   0.5711   0.4784 H              1 S1                 0.0000
     19 ****        -2.5388   1.6439   0.5980 H              1 S1                 0.0000
     20 ****        -2.5328   1.4582   2.3353 H              1 S1                 0.0000
     21 ****        -2.6236  -1.0410   2.0762 H              1 S1                 0.0000
     22 ****        -2.6275  -0.8718   0.3364 H              1 S1                 0.0000
     23 ****        -0.3824  -0.6029   2.1681 H              1 S1                 0.0000
     24 ****         1.7591   0.8990   0.8994 H              1 S1                 0.0000
     25 ****         1.6963  -0.7783   1.3325 H              1 S1                 0.0000
     26 ****         2.6062   1.6217  -1.0361 H              1 S1                 0.0000
     27 ****         3.9781   1.2384  -3.0776 H              1 S1                 0.0000
     28 ****        -1.4617   0.2663  -1.0195 LP             1 S1                 0.0000
     29 ****         0.1575   0.4522  -1.6058 LP             1 S1                 0.0000
     30 ****         4.8517  -0.4183  -4.4557 LP             1 S1                 0.0000
     31 ****         4.6206  -2.1214  -4.2414 LP             1 S1                 0.0000
     32 ****         3.3644  -2.9032  -2.4698 LP             1 S1                 0.0000
     33 ****         1.4243  -2.4145   0.4064 LP             1 S1                 0.0000
     34 ****         2.1013  -3.5793  -0.6822 LP             1 S1                 0.0000
@<TRIPOS>BOND
    1    1    2 1     
    2    1   16 1     
    3    1   17 1     
    4    1   18 1     
    5    2    3 1     
    6    2   19 1     
    7    2   20 1     
    8    3    4 1     
    9    3   21 1     
   10    3   22 1     
   11    4    5 am    
   12    4   23 1     
   13    5    6 2     
   14    5    7 1     
   15    7    8 1     
   16    7   24 1     
   17    7   25 1     
   18    8   14 am    
   19    8    9 1     
   20    9   10 2     
   21    9   26 1     
   22   10   11 1     
   23   10   27 1     
   24   11   12 2     
   25   11   13 1     
   26   13   14 1     
   27   14   15 2     
   28    6   28 1     
   29    6   29 1     
   30   12   30 1     
   31   12   31 1     
   32   13   32 1     
   33   15   33 1     
   34   15   34 1     
@<TRIPOS>SUBSTRUCTURE
      1 S1             1
@<TRIPOS>SET
LONE_PAIRS      STATIC     ATOMS    <user>   **** ""
7 28 29 30 31 32 33 34
DONOR_HYDROGENS      STATIC     ATOMS    <user>   **** ""
1 23
ATOM$BLUE        STATIC     ATOMS    COLORGROUP SYSTEM
7 28 29 30 31 32 33 34
ATOM$RED        STATIC     ATOMS    COLORGROUP SYSTEM
1 23
