#       Name:                AV-unprocessed.smi:697
#       Creating user name   scv26
#       Creation time:       Fri Mar 27 00:37:24 2020


#       File generated by GOLD software.
#

@<TRIPOS>MOLECULE
AV-unprocessed.smi:697
    50    51     1
SMALL
NO_CHARGES


@<TRIPOS>ATOM
      1 ****        -3.9463  -3.3730  -2.0917 C.3            1 S1                 0.0000
      2 ****        -3.3611  -2.7767  -0.9414 O.3            1 S1                 0.0000
      3 ****        -3.1236  -1.3695  -1.0077 C.3            1 S1                 0.0000
      4 ****        -4.4603  -0.6134  -1.0627 C.3            1 S1                 0.0000
      5 ****        -2.0467  -1.0084  -2.0474 C.3            1 S1                 0.0000
      6 ****        -1.4784  -0.0551  -0.9985 C.3            1 S1                 0.0000
      7 ****        -0.0206  -0.0008  -1.0183 N.am           1 S1                 0.0000
      8 ****         0.7176   0.8022  -0.2405 C.2            1 S1                 0.0000
      9 ****         0.2281   1.6033   0.5553 O.2            1 S1                 0.0000
     10 ****         2.0308   0.6072  -0.4606 N.am           1 S1                 0.0000
     11 ****         3.1411   1.2000   0.1648 C.2            1 S1                 0.0000
     12 ****         3.0954   1.9251   1.3134 C.2            1 S1                 0.0000
     13 ****         4.2893   2.4977   1.9125 C.2            1 S1                 0.0000
     14 ****         4.2139   3.3750   3.1526 C.3            1 S1                 0.0000
     15 ****         5.2127   4.2579   3.1839 F              1 S1                 0.0000
     16 ****         3.0622   4.0450   3.1939 F              1 S1                 0.0000
     17 ****         4.2930   2.6193   4.2469 F              1 S1                 0.0000
     18 ****         5.4494   2.2793   1.2663 C.2            1 S1                 0.0000
     19 ****         5.5082   1.5174   0.0975 N.am           1 S1                 0.0000
     20 ****         4.4322   0.9595  -0.5010 C.2            1 S1                 0.0000
     21 ****         4.5676   0.3016  -1.5322 O.2            1 S1                 0.0000
     22 ****        -2.0803  -0.9808   0.0900 C.3            1 S1                 0.0000
     23 ****        -2.6216  -0.2777   1.3389 C.3            1 S1                 0.0000
     24 ****        -1.1809  -2.1227   0.6058 C.3            1 S1                 0.0000
     25 ****         6.4186   1.3842  -0.3187 H              1 S1                 0.0000
     26 ****        -3.9800  -4.4537  -1.9537 H              1 S1                 0.0000
     27 ****        -3.3683  -3.1744  -2.9944 H              1 S1                 0.0000
     28 ****        -4.9704  -3.0355  -2.2483 H              1 S1                 0.0000
     29 ****        -4.3216   0.4640  -0.9733 H              1 S1                 0.0000
     30 ****        -5.1242  -0.9247  -0.2561 H              1 S1                 0.0000
     31 ****        -4.9827  -0.7773  -2.0047 H              1 S1                 0.0000
     32 ****        -1.3801  -1.8368  -2.2947 H              1 S1                 0.0000
     33 ****        -2.4234  -0.5180  -2.9453 H              1 S1                 0.0000
     34 ****        -1.9579   0.9256  -1.0403 H              1 S1                 0.0000
     35 ****         0.4539  -0.6282  -1.6511 H              1 S1                 0.0000
     36 ****         2.2671  -0.0473  -1.1925 H              1 S1                 0.0000
     37 ****         2.1670   2.0848   1.8359 H              1 S1                 0.0000
     38 ****         6.4057   2.6680   1.5840 H              1 S1                 0.0000
     39 ****        -1.8174   0.0168   2.0139 H              1 S1                 0.0000
     40 ****        -3.3003  -0.9235   1.8966 H              1 S1                 0.0000
     41 ****        -3.1680   0.6321   1.0912 H              1 S1                 0.0000
     42 ****        -0.3594  -1.7452   1.2155 H              1 S1                 0.0000
     43 ****        -0.7360  -2.6982  -0.2060 H              1 S1                 0.0000
     44 ****        -1.7427  -2.8246   1.2228 H              1 S1                 0.0000
     45 ****        -2.4828  -3.2263  -0.7789 LP             1 S1                 0.0000
     46 ****        -3.9707  -2.9464  -0.1671 LP             1 S1                 0.0000
     47 ****        -0.7653   1.6767   0.6436 LP             1 S1                 0.0000
     48 ****         0.8237   2.1808   1.1136 LP             1 S1                 0.0000
     49 ****         3.7688  -0.1097  -1.9714 LP             1 S1                 0.0000
     50 ****         5.4763   0.1783  -1.9310 LP             1 S1                 0.0000
@<TRIPOS>BOND
    1    1    2 1     
    2    1   26 1     
    3    1   27 1     
    4    1   28 1     
    5    2    3 1     
    6    3   22 1     
    7    3    4 1     
    8    3    5 1     
    9    4   29 1     
   10    4   30 1     
   11    4   31 1     
   12    5    6 1     
   13    5   32 1     
   14    5   33 1     
   15    6    7 1     
   16    6   22 1     
   17    6   34 1     
   18    7    8 am    
   19    7   35 1     
   20    8    9 2     
   21    8   10 am    
   22   10   11 1     
   23   10   36 1     
   24   11   20 1     
   25   11   12 2     
   26   12   13 1     
   27   12   37 1     
   28   13   14 1     
   29   13   18 2     
   30   14   15 1     
   31   14   16 1     
   32   14   17 1     
   33   18   19 1     
   34   18   38 1     
   35   19   25 1     
   36   19   20 am    
   37   20   21 2     
   38   22   23 1     
   39   22   24 1     
   40   23   39 1     
   41   23   40 1     
   42   23   41 1     
   43   24   42 1     
   44   24   43 1     
   45   24   44 1     
   46    2   45 1     
   47    2   46 1     
   48    9   47 1     
   49    9   48 1     
   50   21   49 1     
   51   21   50 1     
@<TRIPOS>SUBSTRUCTURE
      1 S1             1
@<TRIPOS>SET
LONE_PAIRS      STATIC     ATOMS    <user>   **** ""
6 45 46 47 48 49 50
DONOR_HYDROGENS      STATIC     ATOMS    <user>   **** ""
3 35 36 25
ATOM$BLUE        STATIC     ATOMS    COLORGROUP SYSTEM
6 45 46 47 48 49 50
ATOM$RED        STATIC     ATOMS    COLORGROUP SYSTEM
3 35 36 25
