AV-unprocessed.smi:3015|AV-procd|sdf|11471|dock8
  -GOLD-   2272016403D 1   1.00000     0.00000
 Structure written by MMmdl.
 24 24  0  0  0  0  0  0  0  0  2 V2000
  148.6951  142.2049  156.8126 N   0  3  0  0  0  0  0  0  0  0  0  0
  149.7646  141.3131  156.3251 C   0  0  1  0  0  0  0  0  0  0  0  0
  149.3483  140.6583  154.9967 C   0  0  0  0  0  0  0  0  0  0  0  0
  150.4142  139.8922  154.4751 O   0  0  0  0  0  0  0  0  0  0  0  0
  151.0885  142.0880  156.1806 C   0  0  0  0  0  0  0  0  0  0  0  0
  151.4981  142.8106  157.4522 C   0  0  0  0  0  0  0  0  0  0  0  0
  151.9089  142.0899  158.5930 C   0  0  0  0  0  0  0  0  0  0  0  0
  152.2759  142.8026  159.7505 C   0  0  0  0  0  0  0  0  0  0  0  0
  152.2183  144.2103  159.7186 C   0  0  0  0  0  0  0  0  0  0  0  0
  151.8276  144.9108  158.6319 N   0  0  0  0  0  0  0  0  0  0  0  0
  151.4812  144.2203  157.5249 C   0  0  0  0  0  0  0  0  0  0  0  0
  148.9116  142.5136  157.7492 H   0  0  0  0  0  0  0  0  0  0  0  0
  147.8169  141.7060  156.8154 H   0  0  0  0  0  0  0  0  0  0  0  0
  149.9058  140.5272  157.0686 H   0  0  0  0  0  0  0  0  0  0  0  0
  148.4689  140.0258  155.1250 H   0  0  0  0  0  0  0  0  0  0  0  0
  149.0918  141.4213  154.2608 H   0  0  0  0  0  0  0  0  0  0  0  0
  150.5758  139.1632  155.0554 H   0  0  0  0  0  0  0  0  0  0  0  0
  151.8919  141.4011  155.9107 H   0  0  0  0  0  0  0  0  0  0  0  0
  151.0179  142.8059  155.3620 H   0  0  0  0  0  0  0  0  0  0  0  0
  151.9406  141.0102  158.5837 H   0  0  0  0  0  0  0  0  0  0  0  0
  152.5951  142.2834  160.6422 H   0  0  0  0  0  0  0  0  0  0  0  0
  152.4926  144.7883  160.5888 H   0  0  0  0  0  0  0  0  0  0  0  0
  151.1730  144.8111  156.6749 H   0  0  0  0  0  0  0  0  0  0  0  0
  148.6268  143.0061  156.2012 H   0  0  0  0  0  0  0  0  0  0  0  0
  1  2  1  0  0  0  0
  1 12  1  0  0  0  0
  1 13  1  0  0  0  0
  1 24  1  0  0  0  0
  2  3  1  0  0  0  0
  2  5  1  0  0  0  0
  2 14  1  0  0  0  0
  3  4  1  0  0  0  0
  3 15  1  0  0  0  0
  3 16  1  0  0  0  0
  4 17  1  0  0  0  0
  5  6  1  0  0  0  0
  5 18  1  0  0  0  0
  5 19  1  0  0  0  0
  6 11  1  0  0  0  0
  6  7  2  0  0  0  0
  7  8  1  0  0  0  0
  7 20  1  0  0  0  0
  8  9  2  0  0  0  0
  8 21  1  0  0  0  0
  9 10  1  0  0  0  0
  9 22  1  0  0  0  0
 10 11  2  0  0  0  0
 11 23  1  0  0  0  0
M  CHG  1   1   1
M  END
> <s_m_source_file>
AV-unprocessed.smi

> <i_m_source_file_index>
3015

> <i_lp_mmshare_version>
43012

> <i_f3d_flags>
0

> <s_epik_input>
W09IXVtDSDJdW0NAQEhdKFtOSDJdKVtDSDJdYzFbY0hdW2NIXVtjSF1uW2NIXTE=

> <s_epik_cmdline>
J2VwaWtfcHl0aG9uJywgJy1waCcsICc3LjAnLCAnLXRuJywgJzgnLCAnLW1hJywgJzIwMCcsICctbWV0YWxfYmluZGluZycsICctaW1hZScsICc8aW5maWxlLm1hZT4nLCAnLW9tYWUnLCAnPG91dGZpbGUubWFlPic=

> <r_epik_Ionization_Penalty>
0.0193991

> <r_epik_Ionization_Penalty_Charging>
0.0188044

> <r_epik_Ionization_Penalty_Neutral>
0.000594726

> <r_epik_State_Penalty>
0.00921718

> <r_epik_Charging_Adjusted_Penalty>
0.0280216

> <i_epik_Tot_Q>
1

> <i_epik_Tot_abs_Q>
1

> <r_epik_Metal_State_Penalty>
0.00867471

> <b_epik_Metal_Only>
0

> <s_lp_Force_Field>
OPLS_2005

> <r_lp_Energy>
6.76442

> <b_lp_Chiralities_Consistent>
1

> <s_lp_Variant>
AV-unprocessed.smi:3015-2

> <Gold.Version>
5.8.1

> <Gold.Id.Protein>
6NUR|6NUR_protein|mol2

> <Gold.PLP.Fitness>
37.1132

> <Gold.PLP.PLP>
-25.3740

> <Gold.PLP.part.hbond>
-2.3564

> <Gold.PLP.part.metal>
0.0000

> <Gold.PLP.part.buried>
-4.7797

> <Gold.PLP.part.nonpolar>
-18.4540

> <Gold.PLP.part.repulsive>
0.0822

> <Gold.PLP.ligand.clash>
0.0000

> <Gold.PLP.ligand.torsion>
0.1084

> <Gold.PLP.Chemscore.Hbond>
3.0000

> <Gold.PLP.Chemscore.CHOScore>
0.9831

> <Gold.PLP.Chemscore.Metal>
0.0000

> <Gold.Chemscore.Hbonds>
donor molecule, donor type, donor heavy atom, donor atom, acceptor molecule, acceptor atom, score
      L1  H     1    24       P1  8028  2.00
      P1  H  7989  7998       L1     4  1.00
      L1  C    11    23       P1  8028  0.90

> <Gold.PLP.Chemscore.Internal.Correction>
0.0068

> <Gold.Rescore>
     Score         DG    S(hbond)    S(metal)    S(lipo)     H(rot)  DE(clash)    DE(int)     intcor
     15.21     -15.41       1.94        0.00      76.24       2.14       0.14       0.06       ----

> <Gold.Chemscore.Fitness>
15.2091

> <Gold.Chemscore.DG>
-15.4130

> <Gold.Chemscore.ZeroCoef>
-5.4800

> <Gold.Chemscore.Hbond>
1.9438

> <Gold.Chemscore.Metal>
0.0000

> <Gold.Chemscore.Lipo>
76.2423

> <Gold.Chemscore.Internal_Hbond>
0.0000

> <Gold.Chemscore.DEClash>
0.1414

> <Gold.Chemscore.DEInternal>
0.0625

> <Gold.Chemscore.Rot>
2.1405

> <Gold.Chemscore.Internal.Correction>
   9.000000E+99

> <Gold.Chemscore.Hbonds>
donor molecule, donor type, donor heavy atom, donor atom, acceptor molecule, acceptor atom, score
      L1  H     1    24       P1  8028  0.96
      P1  H  7989  7998       L1     4  0.88

> <Gold.Chemscore.Hbond.Weighted>
-6.4924

> <Gold.Chemscore.Metal.Weighted>
-0.0000

> <Gold.Chemscore.Lipo.Weighted>
-8.9203

> <Gold.Chemscore.Internal_Hbond.Weighted>
0.0000

> <Gold.Chemscore.DEClash.Weighted>
0.1414

> <Gold.Chemscore.DEInternal.Weighted>
0.0625

> <Gold.Chemscore.Rot.Weighted>
5.4797

> <Gold.Chemscore.Internal.Correction.Weighted>
   9.000000E+99

> <Gold.Protein.RotatedTorsions>
[ 6907 6896 6895 6894 ] final   71.91 input  -60.11 | X-H torsion
[ 7974 7965 7964 7962 ] final   36.58 input  175.53 | X-H torsion
[ 8008 7997 7996 7995 ] final  157.76 input   59.86 | X-H torsion
[ 10167 10162 10161 10158 ] final  127.60 input  -65.29 | X-H torsion
[ 10718 10713 10712 10709 ] final  107.63 input   66.30 | X-H torsion
[ 10763 10752 10751 10750 ] final -137.33 input  -60.55 | X-H torsion
[ 11005 11000 10999 10996 ] final -175.51 input  -57.11 | X-H torsion

> <Gold.Protein.ActiveResidues>
 VAL166  LYS551  ARG553  GLY616  TRP617  ASP618  TYR619  PRO620  LYS621  CYS622 
 ASP623  PHE694  ASN695  SER759  ASP760  ASP761  ALA762  ILE779  LEU786  VAL792 
 PHE793  MET794  SER795  GLU796  ALA797  LYS798  CYS799  TRP800  GLU811  SER814 

> <Gold.Protein.RotatedAtoms>
  152.4837  134.4650  159.9617 H   0  0  0  0  0  0  0  0  0  0  0  0  # atno 6907 bound_to 6896
  151.4651  133.3577  159.2823 H   0  0  0  0  0  0  0  0  0  0  0  0  # atno 6908 bound_to 6896
  150.8930  134.8361  159.7367 H   0  0  0  0  0  0  0  0  0  0  0  0  # atno 6909 bound_to 6896
  146.1201  139.6000  142.9295 H   0  0  0  0  0  0  0  0  0  0  0  0  # atno 7974 bound_to 7965
  156.2344  140.1876  156.7158 H   0  0  0  0  0  0  0  0  0  0  0  0  # atno 8008 bound_to 7997
  154.6080  140.0626  156.9484 H   0  0  0  0  0  0  0  0  0  0  0  0  # atno 8009 bound_to 7997
  155.2063  140.3296  155.4338 H   0  0  0  0  0  0  0  0  0  0  0  0  # atno 8010 bound_to 7997
  139.5570  144.6855  151.4153 H   0  0  0  0  0  0  0  0  0  0  0  0  # atno 10167 bound_to 10162
  157.6620  131.0877  150.6184 H   0  0  0  0  0  0  0  0  0  0  0  0  # atno 10718 bound_to 10713
  154.8664  135.3645  154.5205 H   0  0  0  0  0  0  0  0  0  0  0  0  # atno 10763 bound_to 10752
  153.5835  135.7017  153.5458 H   0  0  0  0  0  0  0  0  0  0  0  0  # atno 10764 bound_to 10752
  153.3436  135.4091  155.1553 H   0  0  0  0  0  0  0  0  0  0  0  0  # atno 10765 bound_to 10752
  140.4625  134.6241  157.4849 H   0  0  0  0  0  0  0  0  0  0  0  0  # atno 11005 bound_to 11000
  145.5484  141.0415  143.2292 LP  0  0  0  0  0  0  0  0  0  0  0  0  # atno 17320 bound_to 7965
  144.7589  139.7006  143.7242 LP  0  0  0  0  0  0  0  0  0  0  0  0  # atno 17321 bound_to 7965
  140.6844  143.8007  150.7166 LP  0  0  0  0  0  0  0  0  0  0  0  0  # atno 17342 bound_to 10162
  140.1470  143.4391  152.2156 LP  0  0  0  0  0  0  0  0  0  0  0  0  # atno 17343 bound_to 10162
  156.6487  130.4479  149.5727 LP  0  0  0  0  0  0  0  0  0  0  0  0  # atno 17370 bound_to 10713
  156.2154  130.6704  151.1313 LP  0  0  0  0  0  0  0  0  0  0  0  0  # atno 17371 bound_to 10713
  139.9936  134.6946  155.9647 LP  0  0  0  0  0  0  0  0  0  0  0  0  # atno 17394 bound_to 11000
  141.1614  133.6538  156.4333 LP  0  0  0  0  0  0  0  0  0  0  0  0  # atno 17395 bound_to 11000

$$$$
