#       Name:                AV-unprocessed.smi:2640
#       Creating user name   scv26
#       Creation time:       Fri Mar 27 14:28:10 2020


#       File generated by GOLD software.
#

@<TRIPOS>MOLECULE
AV-unprocessed.smi:2640
    47    48     1
SMALL
NO_CHARGES


@<TRIPOS>ATOM
      1 ****         0.4876   1.4103  -0.7071 O.2            1 S1                 0.0000
      2 ****        -0.2252   0.5204  -0.2412 C.2            1 S1                 0.0000
      3 ****         0.2087  -0.9443  -0.3115 C.3            1 S1                 0.0000
      4 ****         1.6515  -1.0866  -0.5939 N.4            1 S1                 1.0000
      5 ****         2.1019  -2.4853  -0.7258 C.3            1 S1                 0.0000
      6 ****         3.6078  -2.5564  -1.0177 C.3            1 S1                 0.0000
      7 ****         4.0623  -3.9245  -1.1774 N.pl3          1 S1                 0.0000
      8 ****         4.4971  -4.5571  -2.3235 C.2            1 S1                 0.0000
      9 ****         4.8271  -5.8370  -1.9806 C.2            1 S1                 0.0000
     10 ****         4.5608  -5.8924  -0.5838 C.2            1 S1                 0.0000
     11 ****         4.1055  -4.7452  -0.1057 N.2            1 S1                 0.0000
     12 ****        -1.4131   0.7547   0.3393 N.am           1 S1                 0.0000
     13 ****        -2.0269   2.0722   0.5251 C.3            1 S1                 0.0000
     14 ****        -3.5507   1.8571   0.6745 C.3            1 S1                 0.0000
     15 ****        -4.3910   3.1032   0.3458 C.3            1 S1                 0.0000
     16 ****        -4.1884   4.2913   1.2979 C.3            1 S1                 0.0000
     17 ****        -2.7565   4.8528   1.2894 C.3            1 S1                 0.0000
     18 ****        -1.8382   4.0252   2.0604 N.am           1 S1                 0.0000
     19 ****        -1.4815   2.7583   1.8002 C.2            1 S1                 0.0000
     20 ****        -0.7335   2.1529   2.5680 O.2            1 S1                 0.0000
     21 ****        -0.0238  -1.4389   0.6329 H              1 S1                 0.0000
     22 ****        -0.3673  -1.4413  -1.0930 H              1 S1                 0.0000
     23 ****         1.8552  -0.5970  -1.4538 H              1 S1                 0.0000
     24 ****         1.8699  -3.0218   0.1952 H              1 S1                 0.0000
     25 ****         1.5439  -2.9667  -1.5301 H              1 S1                 0.0000
     26 ****         3.8443  -2.0045  -1.9285 H              1 S1                 0.0000
     27 ****         4.1780  -2.0952  -0.2099 H              1 S1                 0.0000
     28 ****         4.5350  -4.0511  -3.2771 H              1 S1                 0.0000
     29 ****         5.2033  -6.6151  -2.6283 H              1 S1                 0.0000
     30 ****         4.6851  -6.7257   0.0921 H              1 S1                 0.0000
     31 ****        -1.9294  -0.0354   0.6983 H              1 S1                 0.0000
     32 ****        -1.8180   2.6885  -0.3515 H              1 S1                 0.0000
     33 ****        -3.8676   1.0708  -0.0125 H              1 S1                 0.0000
     34 ****        -3.7977   1.4882   1.6718 H              1 S1                 0.0000
     35 ****        -4.1851   3.4194  -0.6775 H              1 S1                 0.0000
     36 ****        -5.4451   2.8245   0.3624 H              1 S1                 0.0000
     37 ****        -4.8718   5.0859   0.9963 H              1 S1                 0.0000
     38 ****        -4.4799   4.0163   2.3125 H              1 S1                 0.0000
     39 ****        -2.3897   4.9873   0.2710 H              1 S1                 0.0000
     40 ****        -2.7577   5.8418   1.7481 H              1 S1                 0.0000
     41 ****        -1.4558   4.4465   2.8948 H              1 S1                 0.0000
     42 ****         2.1671  -0.6471   0.1553 H              1 S1                 0.0000
     43 ****         1.3602   1.1784  -1.1370 LP             1 S1                 0.0000
     44 ****         0.1938   2.3648  -0.6555 LP             1 S1                 0.0000
     45 ****         3.8506  -4.5335   0.8378 LP             1 S1                 0.0000
     46 ****        -0.4725   1.2080   2.3704 LP             1 S1                 0.0000
     47 ****        -0.3868   2.6061   3.3893 LP             1 S1                 0.0000
@<TRIPOS>BOND
    1    1    2 2     
    2    2    3 1     
    3    2   12 am    
    4    3    4 1     
    5    3   21 1     
    6    3   22 1     
    7    4    5 1     
    8    4   23 1     
    9    4   42 1     
   10    5    6 1     
   11    5   24 1     
   12    5   25 1     
   13    6    7 1     
   14    6   26 1     
   15    6   27 1     
   16    7   11 1     
   17    7    8 1     
   18    8    9 2     
   19    8   28 1     
   20    9   10 1     
   21    9   29 1     
   22   10   11 2     
   23   10   30 1     
   24   12   13 1     
   25   12   31 1     
   26   13   19 1     
   27   13   14 1     
   28   13   32 1     
   29   14   15 1     
   30   14   33 1     
   31   14   34 1     
   32   15   16 1     
   33   15   35 1     
   34   15   36 1     
   35   16   17 1     
   36   16   37 1     
   37   16   38 1     
   38   17   18 1     
   39   17   39 1     
   40   17   40 1     
   41   18   19 am    
   42   18   41 1     
   43   19   20 2     
   44    1   43 1     
   45    1   44 1     
   46   11   45 1     
   47   20   46 1     
   48   20   47 1     
@<TRIPOS>SUBSTRUCTURE
      1 S1             1
@<TRIPOS>SET
LONE_PAIRS      STATIC     ATOMS    <user>   **** ""
5 43 44 45 46 47
DONOR_HYDROGENS      STATIC     ATOMS    <user>   **** ""
4 23 42 31 41
ATOM$BLUE        STATIC     ATOMS    COLORGROUP SYSTEM
5 43 44 45 46 47
ATOM$RED        STATIC     ATOMS    COLORGROUP SYSTEM
4 23 42 31 41
