#       Name:                AV-unprocessed.smi:2257
#       Creating user name   scv26
#       Creation time:       Fri Mar 27 12:33:26 2020


#       File generated by GOLD software.
#

@<TRIPOS>MOLECULE
AV-unprocessed.smi:2257
    46    48     1
SMALL
NO_CHARGES


@<TRIPOS>ATOM
      1 ****        -2.3412  -0.8930  -3.1572 C.3            1 S1                 0.0000
      2 ****        -2.3649  -1.5256  -1.8828 O.3            1 S1                 0.0000
      3 ****        -1.7006  -2.7863  -1.7919 C.3            1 S1                 0.0000
      4 ****        -0.1711  -2.6296  -1.8569 C.3            1 S1                 0.0000
      5 ****         0.3485  -1.9132  -0.6963 N.am           1 S1                 0.0000
      6 ****         0.6008  -0.5988  -0.6363 C.2            1 S1                 0.0000
      7 ****         0.4418   0.1713  -1.5826 O.2            1 S1                 0.0000
      8 ****         1.0646  -0.2525   0.5761 N.am           1 S1                 0.0000
      9 ****         1.4209   1.0389   1.0478 C.ar           1 S1                 0.0000
     10 ****         2.2327   1.1465   2.1963 C.ar           1 S1                 0.0000
     11 ****         2.5942   2.3421   2.7087 N.ar           1 S1                 0.0000
     12 ****         2.1296   3.4294   2.0870 C.ar           1 S1                 0.0000
     13 ****         2.5624   4.7544   2.6339 C.3            1 S1                 0.0000
     14 ****         2.3506   5.1010   4.0938 C.3            1 S1                 0.0000
     15 ****         1.5386   5.7960   3.0369 C.3            1 S1                 0.0000
     16 ****         1.3580   3.4543   0.9969 N.ar           1 S1                 0.0000
     17 ****         0.9935   2.2625   0.4757 C.ar           1 S1                 0.0000
     18 ****        -2.2944  -3.5501  -0.5913 C.3            1 S1                 0.0000
     19 ****        -2.3666  -4.7987  -1.4716 C.3            1 S1                 0.0000
     20 ****        -2.3752  -3.8565  -2.6762 C.3            1 S1                 0.0000
     21 ****        -2.8948   0.0438  -3.0985 H              1 S1                 0.0000
     22 ****        -2.8138  -1.5031  -3.9266 H              1 S1                 0.0000
     23 ****        -1.3304  -0.6511  -3.4815 H              1 S1                 0.0000
     24 ****         0.3021  -3.6117  -1.8577 H              1 S1                 0.0000
     25 ****         0.1524  -2.1594  -2.7856 H              1 S1                 0.0000
     26 ****         0.5145  -2.4633   0.1336 H              1 S1                 0.0000
     27 ****         1.2185  -1.0093   1.2263 H              1 S1                 0.0000
     28 ****         2.6004   0.2683   2.7068 H              1 S1                 0.0000
     29 ****         3.4772   5.0993   2.1558 H              1 S1                 0.0000
     30 ****         1.8379   4.3739   4.7204 H              1 S1                 0.0000
     31 ****         3.1294   5.6762   4.5901 H              1 S1                 0.0000
     32 ****         1.7724   6.8375   2.8262 H              1 S1                 0.0000
     33 ****         0.4862   5.5299   2.9599 H              1 S1                 0.0000
     34 ****         0.3457   2.3101  -0.3856 H              1 S1                 0.0000
     35 ****        -1.6355  -3.6462   0.2719 H              1 S1                 0.0000
     36 ****        -3.2823  -3.1901  -0.2980 H              1 S1                 0.0000
     37 ****        -1.4655  -5.4116  -1.4166 H              1 S1                 0.0000
     38 ****        -3.2719  -5.3939  -1.3485 H              1 S1                 0.0000
     39 ****        -3.3898  -3.5959  -2.9827 H              1 S1                 0.0000
     40 ****        -1.7767  -4.1971  -3.5216 H              1 S1                 0.0000
     41 ****        -3.3221  -1.6662  -1.6298 LP             1 S1                 0.0000
     42 ****        -1.9343  -0.9059  -1.2266 LP             1 S1                 0.0000
     43 ****         0.1064  -0.1754  -2.4585 LP             1 S1                 0.0000
     44 ****         0.6481   1.1440  -1.4757 LP             1 S1                 0.0000
     45 ****         3.1817   2.4105   3.5151 LP             1 S1                 0.0000
     46 ****         1.0634   4.3166   0.5851 LP             1 S1                 0.0000
@<TRIPOS>BOND
    1    1    2 1     
    2    1   21 1     
    3    1   22 1     
    4    1   23 1     
    5    2    3 1     
    6    3   20 1     
    7    3    4 1     
    8    3   18 1     
    9    4    5 1     
   10    4   24 1     
   11    4   25 1     
   12    5    6 am    
   13    5   26 1     
   14    6    7 2     
   15    6    8 am    
   16    8    9 1     
   17    8   27 1     
   18    9   17 ar    
   19    9   10 ar    
   20   10   11 ar    
   21   10   28 1     
   22   11   12 ar    
   23   12   13 1     
   24   12   16 ar    
   25   13   15 1     
   26   13   14 1     
   27   13   29 1     
   28   14   15 1     
   29   14   30 1     
   30   14   31 1     
   31   15   32 1     
   32   15   33 1     
   33   16   17 ar    
   34   17   34 1     
   35   18   19 1     
   36   18   35 1     
   37   18   36 1     
   38   19   20 1     
   39   19   37 1     
   40   19   38 1     
   41   20   39 1     
   42   20   40 1     
   43    2   41 1     
   44    2   42 1     
   45    7   43 1     
   46    7   44 1     
   47   11   45 1     
   48   16   46 1     
@<TRIPOS>SUBSTRUCTURE
      1 S1             1
@<TRIPOS>SET
LONE_PAIRS      STATIC     ATOMS    <user>   **** ""
6 41 42 43 44 45 46
DONOR_HYDROGENS      STATIC     ATOMS    <user>   **** ""
2 26 27
ATOM$BLUE        STATIC     ATOMS    COLORGROUP SYSTEM
6 41 42 43 44 45 46
ATOM$RED        STATIC     ATOMS    COLORGROUP SYSTEM
2 26 27
