AV-unprocessed.smi:86|AV-procd|sdf|819|dock2
  -GOLD-   2262017223D 1   1.00000     0.00000
 Structure written by MMmdl.
 51 55  0  0  0  0  0  0  0  0  1 V2000
  152.9045  126.8844  153.9215 O   0  0  0  0  0  0  0  0  0  0  0  0
  151.7875  126.9119  154.7873 C   0  0  0  0  0  0  0  0  0  0  0  0
  151.9670  127.9445  155.9110 C   0  0  0  0  0  0  0  0  0  0  0  0
  152.1547  129.3315  155.2509 C   0  0  0  0  0  0  0  0  0  0  0  0
  150.9714  129.8749  154.6003 N   0  0  0  0  0  0  0  0  0  0  0  0
  150.1748  129.2434  153.6733 C   0  0  0  0  0  0  0  0  0  0  0  0
  149.1600  129.9424  153.2451 N   0  0  0  0  0  0  0  0  0  0  0  0
  149.2467  131.1438  153.9409 C   0  0  0  0  0  0  0  0  0  0  0  0
  148.4749  132.3441  153.9727 C   0  0  0  0  0  0  0  0  0  0  0  0
  147.3684  132.5722  153.2200 N   0  0  0  0  0  0  0  0  0  0  0  0
  146.9625  133.8894  152.7413 C   0  0  0  0  0  0  0  0  0  0  0  0
  145.6645  133.6087  151.9859 C   0  0  1  0  0  0  0  0  0  0  0  0
  145.2047  134.5984  150.9091 C   0  0  0  0  0  0  0  0  0  0  0  0
  143.9308  134.0474  150.2318 C   0  0  0  0  0  0  0  0  0  0  0  0
  144.1215  132.6053  149.6996 C   0  0  2  0  0  0  0  0  0  0  0  0
  142.8906  132.1159  149.2110 O   0  0  0  0  0  0  0  0  0  0  0  0
  144.6662  131.6421  150.7793 C   0  0  0  0  0  0  0  0  0  0  0  0
  145.9450  132.2414  151.3767 C   0  0  2  0  0  0  0  0  0  0  0  0
  146.6393  131.5108  152.5266 C   0  0  0  0  0  0  0  0  0  0  0  0
  148.8900  133.3270  154.8147 N   0  0  0  0  0  0  0  0  0  0  0  0
  149.9739  133.1576  155.5763 C   0  0  0  0  0  0  0  0  0  0  0  0
  150.7827  132.1003  155.6513 N   0  0  0  0  0  0  0  0  0  0  0  0
  150.3790  131.1093  154.8061 C   0  0  0  0  0  0  0  0  0  0  0  0
  150.9345  127.8176  157.0458 C   0  0  0  0  0  0  0  0  0  0  0  0
  151.8687  127.1161  157.8923 O   0  0  0  0  0  0  0  0  0  0  0  0
  152.9445  127.5284  157.0235 C   0  0  0  0  0  0  0  0  0  0  0  0
  152.5958  126.9582  153.0311 H   0  0  0  0  0  0  0  0  0  0  0  0
  150.8923  127.1209  154.2011 H   0  0  0  0  0  0  0  0  0  0  0  0
  151.6594  125.9100  155.1991 H   0  0  0  0  0  0  0  0  0  0  0  0
  152.4803  130.0640  155.9905 H   0  0  0  0  0  0  0  0  0  0  0  0
  152.9507  129.2928  154.5064 H   0  0  0  0  0  0  0  0  0  0  0  0
  150.3729  128.2421  153.3191 H   0  0  0  0  0  0  0  0  0  0  0  0
  146.8016  134.5899  153.5611 H   0  0  0  0  0  0  0  0  0  0  0  0
  147.7282  134.2913  152.0765 H   0  0  0  0  0  0  0  0  0  0  0  0
  144.8669  133.5074  152.7251 H   0  0  0  0  0  0  0  0  0  0  0  0
  145.0059  135.5755  151.3504 H   0  0  0  0  0  0  0  0  0  0  0  0
  145.9911  134.7401  150.1668 H   0  0  0  0  0  0  0  0  0  0  0  0
  143.1135  134.0619  150.9543 H   0  0  0  0  0  0  0  0  0  0  0  0
  143.6311  134.7097  149.4185 H   0  0  0  0  0  0  0  0  0  0  0  0
  144.8216  132.6300  148.8635 H   0  0  0  0  0  0  0  0  0  0  0  0
  142.2822  132.8367  149.1548 H   0  0  0  0  0  0  0  0  0  0  0  0
  143.9232  131.4926  151.5642 H   0  0  0  0  0  0  0  0  0  0  0  0
  144.8736  130.6627  150.3468 H   0  0  0  0  0  0  0  0  0  0  0  0
  146.6763  132.3600  150.5744 H   0  0  0  0  0  0  0  0  0  0  0  0
  147.2949  130.7229  152.1537 H   0  0  0  0  0  0  0  0  0  0  0  0
  145.9152  131.0670  153.2107 H   0  0  0  0  0  0  0  0  0  0  0  0
  150.2296  133.9890  156.2164 H   0  0  0  0  0  0  0  0  0  0  0  0
  150.6169  128.7541  157.5019 H   0  0  0  0  0  0  0  0  0  0  0  0
  150.0671  127.2095  156.7871 H   0  0  0  0  0  0  0  0  0  0  0  0
  153.6004  126.7010  156.7511 H   0  0  0  0  0  0  0  0  0  0  0  0
  153.5207  128.3428  157.4607 H   0  0  0  0  0  0  0  0  0  0  0  0
  1  2  1  0  0  0  0
  1 27  1  0  0  0  0
  2  3  1  0  0  0  0
  2 28  1  0  0  0  0
  2 29  1  0  0  0  0
  3 26  1  0  0  0  0
  3  4  1  0  0  0  0
  3 24  1  0  0  0  0
  4  5  1  0  0  0  0
  4 30  1  0  0  0  0
  4 31  1  0  0  0  0
  5 23  1  0  0  0  0
  5  6  1  0  0  0  0
  6  7  2  0  0  0  0
  6 32  1  0  0  0  0
  7  8  1  0  0  0  0
  8 23  2  0  0  0  0
  8  9  1  0  0  0  0
  9 10  1  0  0  0  0
  9 20  2  0  0  0  0
 10 19  1  0  0  0  0
 10 11  1  0  0  0  0
 11 12  1  0  0  0  0
 11 33  1  0  0  0  0
 11 34  1  0  0  0  0
 12 18  1  0  0  0  0
 12 13  1  0  0  0  0
 12 35  1  0  0  0  0
 13 14  1  0  0  0  0
 13 36  1  0  0  0  0
 13 37  1  0  0  0  0
 14 15  1  0  0  0  0
 14 38  1  0  0  0  0
 14 39  1  0  0  0  0
 15 16  1  0  0  0  0
 15 17  1  0  0  0  0
 15 40  1  0  0  0  0
 16 41  1  0  0  0  0
 17 18  1  0  0  0  0
 17 42  1  0  0  0  0
 17 43  1  0  0  0  0
 18 19  1  0  0  0  0
 18 44  1  0  0  0  0
 19 45  1  0  0  0  0
 19 46  1  0  0  0  0
 20 21  1  0  0  0  0
 21 22  2  0  0  0  0
 21 47  1  0  0  0  0
 22 23  1  0  0  0  0
 24 25  1  0  0  0  0
 24 48  1  0  0  0  0
 24 49  1  0  0  0  0
 25 26  1  0  0  0  0
 26 50  1  0  0  0  0
 26 51  1  0  0  0  0
M  END
> <s_m_source_file>
AV-unprocessed.smi

> <i_m_source_file_index>
86

> <i_lp_mmshare_version>
43012

> <i_f3d_flags>
0

> <s_epik_input>
W0NIMl0xT1tDSDJdQzEoW0NIMl1bT0hdKVtDSDJdbihbY0hdbjIpYyhjMjMpbltjSF1uYzNOKFtDSDJdNClbQ0gyXVtDQEBIXShbQ0BIXTQ1KVtDSDJdW0NASF0oW09IXSlbQ0gyXVtDSDJdNQ==

> <s_epik_cmdline>
J2VwaWtfcHl0aG9uJywgJy1waCcsICc3LjAnLCAnLXRuJywgJzgnLCAnLW1hJywgJzIwMCcsICctbWV0YWxfYmluZGluZycsICctaW1hZScsICc8aW5maWxlLm1hZT4nLCAnLW9tYWUnLCAnPG91dGZpbGUubWFlPic=

> <r_lp_tautomer_probability>
1

> <r_epik_Ionization_Penalty>
0.00425795

> <r_epik_Ionization_Penalty_Charging>
0

> <r_epik_Ionization_Penalty_Neutral>
0.00425795

> <r_epik_State_Penalty>
0.00299946

> <r_epik_Charging_Adjusted_Penalty>
0.00299946

> <i_epik_Tot_Q>
0

> <i_epik_Tot_abs_Q>
0

> <r_epik_Metal_State_Penalty>
-0

> <b_epik_Metal_Only>
0

> <s_lp_Force_Field>
OPLS_2005

> <r_lp_Energy>
53.3624

> <b_lp_Chiralities_Consistent>
1

> <s_lp_Variant>
AV-unprocessed.smi:86-8

> <Gold.Version>
5.8.1

> <Gold.Id.Protein>
6NUR|6NUR_protein|mol2

> <Gold.PLP.Fitness>
49.7078

> <Gold.PLP.PLP>
-39.3527

> <Gold.PLP.part.hbond>
-4.0000

> <Gold.PLP.part.metal>
0.0000

> <Gold.PLP.part.buried>
-3.6531

> <Gold.PLP.part.nonpolar>
-31.4296

> <Gold.PLP.part.repulsive>
0.2016

> <Gold.PLP.ligand.clash>
0.0000

> <Gold.PLP.ligand.torsion>
0.5304

> <Gold.PLP.Chemscore.Hbond>
2.8850

> <Gold.PLP.Chemscore.CHOScore>
0.7954

> <Gold.PLP.Chemscore.Metal>
0.0000

> <Gold.Chemscore.Hbonds>
donor molecule, donor type, donor heavy atom, donor atom, acceptor molecule, acceptor atom, score
      L1  H     1    27       P1 10737  1.00
      L1  H    16    41       P1 10186  0.93
      P1  H 10785 10796       L1    16  0.94
      L1  C     6    32       P1 10737  0.87

> <Gold.PLP.Chemscore.Internal.Correction>
0.3747

> <Gold.Rescore>
     Score         DG    S(hbond)    S(metal)    S(lipo)     H(rot)  DE(clash)    DE(int)     intcor
     13.20     -14.67       2.49        0.00      67.90       2.76       0.08       1.39       ----

> <Gold.Chemscore.Fitness>
13.1977

> <Gold.Chemscore.DG>
-14.6711

> <Gold.Chemscore.ZeroCoef>
-5.4800

> <Gold.Chemscore.Hbond>
2.4910

> <Gold.Chemscore.Metal>
0.0000

> <Gold.Chemscore.Lipo>
67.9028

> <Gold.Chemscore.Internal_Hbond>
0.0000

> <Gold.Chemscore.DEClash>
0.0830

> <Gold.Chemscore.DEInternal>
1.3905

> <Gold.Chemscore.Rot>
2.7630

> <Gold.Chemscore.Internal.Correction>
   9.000000E+99

> <Gold.Chemscore.Hbonds>
donor molecule, donor type, donor heavy atom, donor atom, acceptor molecule, acceptor atom, score
      L1  H     1    27       P1 10737  0.95
      L1  H    16    41       P1 10186  0.89
      P1  H 10785 10796       L1    16  0.54

> <Gold.Chemscore.Hbond.Weighted>
-8.3199

> <Gold.Chemscore.Metal.Weighted>
-0.0000

> <Gold.Chemscore.Lipo.Weighted>
-7.9446

> <Gold.Chemscore.Internal_Hbond.Weighted>
0.0000

> <Gold.Chemscore.DEClash.Weighted>
0.0830

> <Gold.Chemscore.DEInternal.Weighted>
1.3905

> <Gold.Chemscore.Rot.Weighted>
7.0734

> <Gold.Chemscore.Internal.Correction.Weighted>
   9.000000E+99

> <Gold.Protein.RotatedTorsions>
[ 6907 6896 6895 6894 ] final -143.31 input  -60.11 | X-H torsion
[ 7974 7965 7964 7962 ] final  179.86 input  175.53 | X-H torsion
[ 8008 7997 7996 7995 ] final -172.36 input   59.86 | X-H torsion
[ 10167 10162 10161 10158 ] final  -17.31 input  -65.29 | X-H torsion
[ 10718 10713 10712 10709 ] final -156.31 input   66.30 | X-H torsion
[ 10763 10752 10751 10750 ] final -141.27 input  -60.55 | X-H torsion
[ 11005 11000 10999 10996 ] final    3.05 input  -57.11 | X-H torsion

> <Gold.Protein.ActiveResidues>
 VAL166  LYS551  ARG553  GLY616  TRP617  ASP618  TYR619  PRO620  LYS621  CYS622 
 ASP623  PHE694  ASN695  SER759  ASP760  ASP761  ALA762  ILE779  LEU786  VAL792 
 PHE793  MET794  SER795  GLU796  ALA797  LYS798  CYS799  TRP800  GLU811  SER814 

> <Gold.Protein.RotatedAtoms>
  151.0987  133.5260  159.2610 H   0  0  0  0  0  0  0  0  0  0  0  0  # atno 6907 bound_to 6896
  151.2099  135.0476  159.8917 H   0  0  0  0  0  0  0  0  0  0  0  0  # atno 6908 bound_to 6896
  152.5441  134.0804  159.8286 H   0  0  0  0  0  0  0  0  0  0  0  0  # atno 6909 bound_to 6896
  144.7142  140.0611  143.6432 H   0  0  0  0  0  0  0  0  0  0  0  0  # atno 7974 bound_to 7965
  155.9436  140.1113  157.1036 H   0  0  0  0  0  0  0  0  0  0  0  0  # atno 8008 bound_to 7997
  154.4094  140.1214  156.5025 H   0  0  0  0  0  0  0  0  0  0  0  0  # atno 8009 bound_to 7997
  155.6931  140.3472  155.4904 H   0  0  0  0  0  0  0  0  0  0  0  0  # atno 8010 bound_to 7997
  140.7245  143.5029  150.9847 H   0  0  0  0  0  0  0  0  0  0  0  0  # atno 10167 bound_to 10162
  156.5248  130.8494  151.2695 H   0  0  0  0  0  0  0  0  0  0  0  0  # atno 10718 bound_to 10713
  154.8551  135.3529  154.5841 H   0  0  0  0  0  0  0  0  0  0  0  0  # atno 10763 bound_to 10752
  153.6452  135.6996  153.5232 H   0  0  0  0  0  0  0  0  0  0  0  0  # atno 10764 bound_to 10752
  153.2939  135.4226  155.1150 H   0  0  0  0  0  0  0  0  0  0  0  0  # atno 10765 bound_to 10752
  140.5975  133.9867  155.8116 H   0  0  0  0  0  0  0  0  0  0  0  0  # atno 11005 bound_to 11000
  145.9863  139.2980  143.1012 LP  0  0  0  0  0  0  0  0  0  0  0  0  # atno 17320 bound_to 7965
  145.8954  140.9277  143.0530 LP  0  0  0  0  0  0  0  0  0  0  0  0  # atno 17321 bound_to 7965
  139.8739  143.7157  152.3164 LP  0  0  0  0  0  0  0  0  0  0  0  0  # atno 17342 bound_to 10162
  139.7416  144.7558  151.0644 LP  0  0  0  0  0  0  0  0  0  0  0  0  # atno 17343 bound_to 10162
  157.7431  130.9905  150.2568 LP  0  0  0  0  0  0  0  0  0  0  0  0  # atno 17370 bound_to 10713
  156.3115  130.3772  149.7657 LP  0  0  0  0  0  0  0  0  0  0  0  0  # atno 17371 bound_to 10713
  141.0894  133.9940  157.3261 LP  0  0  0  0  0  0  0  0  0  0  0  0  # atno 17394 bound_to 11000
  139.9247  135.0201  156.8191 LP  0  0  0  0  0  0  0  0  0  0  0  0  # atno 17395 bound_to 11000

$$$$
