AV-unprocessed.smi:245|AV-procd|sdf|1879|dock2
  -GOLD-   2262020523D 1   1.00000     0.00000
 Structure written by MMmdl.
 54 58  0  0  0  0  0  0  0  0  1 V2000
  146.1066  142.8096  154.9671 O   0  0  0  0  0  0  0  0  0  0  0  0
  146.9295  141.9028  154.8654 C   0  0  0  0  0  0  0  0  0  0  0  0
  146.4762  140.4457  155.0590 C   0  0  0  0  0  0  0  0  0  0  0  0
  147.5376  139.4380  154.9184 N   0  0  0  0  0  0  0  0  0  0  0  0
  147.0195  138.1918  154.8264 C   0  0  0  0  0  0  0  0  0  0  0  0
  147.0719  137.3516  155.8934 N   0  0  0  0  0  0  0  0  0  0  0  0
  146.5679  136.1176  155.7945 C   0  0  0  0  0  0  0  0  0  0  0  0
  145.9813  135.5366  154.7454 N   0  0  0  0  0  0  0  0  0  0  0  0
  145.9353  136.3785  153.6728 C   0  0  0  0  0  0  0  0  0  0  0  0
  146.4373  137.7083  153.6262 C   0  0  0  0  0  0  0  0  0  0  0  0
  146.2319  138.2546  152.3662 N   0  0  0  0  0  0  0  0  0  0  0  0
  145.6430  137.2977  151.7016 C   0  0  0  0  0  0  0  0  0  0  0  0
  145.3975  136.1477  152.4191 N   0  0  0  0  0  0  0  0  0  0  0  0
  144.7968  134.9413  151.9318 C   0  0  0  0  0  0  0  0  0  0  0  0
  145.5215  133.5978  152.0322 C   0  0  0  0  0  0  0  0  0  0  0  0
  144.8536  133.1469  150.7128 C   0  0  0  0  0  0  0  0  0  0  0  0
  145.7547  132.4001  149.7143 C   0  0  0  0  0  0  0  0  0  0  0  0
  146.3478  131.2551  150.2917 O   0  0  0  0  0  0  0  0  0  0  0  0
  143.5092  132.4007  150.8402 C   0  0  0  0  0  0  0  0  0  0  0  0
  142.9237  132.1476  149.5800 O   0  0  0  0  0  0  0  0  0  0  0  0
  144.7056  134.6585  150.4305 C   0  0  0  0  0  0  0  0  0  0  0  0
  148.6970  139.7642  154.0773 C   0  0  2  0  0  0  0  0  0  0  0  0
  149.8227  138.6968  154.1017 C   0  0  0  0  0  0  0  0  0  0  0  0
  150.5382  138.6305  155.4596 C   0  0  0  0  0  0  0  0  0  0  0  0
  151.1132  140.0012  155.8392 C   0  0  0  0  0  0  0  0  0  0  0  0
  150.0160  141.0746  155.8444 C   0  0  0  0  0  0  0  0  0  0  0  0
  149.2672  141.1425  154.4947 C   0  0  2  0  0  0  0  0  0  0  0  0
  148.2158  142.1519  154.5718 N   0  0  0  0  0  0  0  0  0  0  0  0
  146.0375  140.3578  156.0540 H   0  0  0  0  0  0  0  0  0  0  0  0
  145.6761  140.2498  154.3424 H   0  0  0  0  0  0  0  0  0  0  0  0
  146.6445  135.5090  156.6834 H   0  0  0  0  0  0  0  0  0  0  0  0
  145.3611  137.4108  150.6647 H   0  0  0  0  0  0  0  0  0  0  0  0
  143.8115  134.8844  152.3980 H   0  0  0  0  0  0  0  0  0  0  0  0
  146.6049  133.6986  151.9424 H   0  0  0  0  0  0  0  0  0  0  0  0
  145.2580  133.0101  152.9120 H   0  0  0  0  0  0  0  0  0  0  0  0
  145.1987  132.1010  148.8253 H   0  0  0  0  0  0  0  0  0  0  0  0
  146.5629  133.0444  149.3670 H   0  0  0  0  0  0  0  0  0  0  0  0
  147.2845  131.3135  150.1795 H   0  0  0  0  0  0  0  0  0  0  0  0
  143.6351  131.4409  151.3415 H   0  0  0  0  0  0  0  0  0  0  0  0
  142.8016  132.9668  151.4468 H   0  0  0  0  0  0  0  0  0  0  0  0
  142.2615  132.8041  149.4232 H   0  0  0  0  0  0  0  0  0  0  0  0
  143.7597  134.9517  149.9737 H   0  0  0  0  0  0  0  0  0  0  0  0
  145.5489  135.0792  149.8793 H   0  0  0  0  0  0  0  0  0  0  0  0
  148.3341  139.8452  153.0509 H   0  0  0  0  0  0  0  0  0  0  0  0
  149.4512  137.7094  153.8295 H   0  0  0  0  0  0  0  0  0  0  0  0
  150.5565  138.9471  153.3345 H   0  0  0  0  0  0  0  0  0  0  0  0
  149.8427  138.2943  156.2298 H   0  0  0  0  0  0  0  0  0  0  0  0
  151.3381  137.8903  155.4219 H   0  0  0  0  0  0  0  0  0  0  0  0
  151.5861  139.9474  156.8203 H   0  0  0  0  0  0  0  0  0  0  0  0
  151.8958  140.2797  155.1324 H   0  0  0  0  0  0  0  0  0  0  0  0
  149.3124  140.8607  156.6505 H   0  0  0  0  0  0  0  0  0  0  0  0
  150.4576  142.0449  156.0744 H   0  0  0  0  0  0  0  0  0  0  0  0
  149.9715  141.4700  153.7290 H   0  0  0  0  0  0  0  0  0  0  0  0
  148.4915  143.1130  154.4307 H   0  0  0  0  0  0  0  0  0  0  0  0
  1  2  2  0  0  0  0
  2 28  1  0  0  0  0
  2  3  1  0  0  0  0
  3  4  1  0  0  0  0
  3 29  1  0  0  0  0
  3 30  1  0  0  0  0
  4  5  1  0  0  0  0
  4 22  1  0  0  0  0
  5 10  1  0  0  0  0
  5  6  2  0  0  0  0
  6  7  1  0  0  0  0
  7  8  2  0  0  0  0
  7 31  1  0  0  0  0
  8  9  1  0  0  0  0
  9 13  1  0  0  0  0
  9 10  2  0  0  0  0
 10 11  1  0  0  0  0
 11 12  2  0  0  0  0
 12 13  1  0  0  0  0
 12 32  1  0  0  0  0
 13 14  1  0  0  0  0
 14 21  1  0  0  0  0
 14 15  1  0  0  0  0
 14 33  1  0  0  0  0
 15 16  1  0  0  0  0
 15 34  1  0  0  0  0
 15 35  1  0  0  0  0
 16 17  1  0  0  0  0
 16 19  1  0  0  0  0
 16 21  1  0  0  0  0
 17 18  1  0  0  0  0
 17 36  1  0  0  0  0
 17 37  1  0  0  0  0
 18 38  1  0  0  0  0
 19 20  1  0  0  0  0
 19 39  1  0  0  0  0
 19 40  1  0  0  0  0
 20 41  1  0  0  0  0
 21 42  1  0  0  0  0
 21 43  1  0  0  0  0
 22 27  1  0  0  0  0
 22 23  1  0  0  0  0
 22 44  1  0  0  0  0
 23 24  1  0  0  0  0
 23 45  1  0  0  0  0
 23 46  1  0  0  0  0
 24 25  1  0  0  0  0
 24 47  1  0  0  0  0
 24 48  1  0  0  0  0
 25 26  1  0  0  0  0
 25 49  1  0  0  0  0
 25 50  1  0  0  0  0
 26 27  1  0  0  0  0
 26 51  1  0  0  0  0
 26 52  1  0  0  0  0
 27 28  1  0  0  0  0
 27 53  1  0  0  0  0
 28 54  1  0  0  0  0
M  END
> <s_m_source_file>
AV-unprocessed.smi

> <i_m_source_file_index>
245

> <i_lp_mmshare_version>
43012

> <i_f3d_flags>
0

> <s_epik_input>
W0NIMl0xW0NIMl1bQ0gyXVtDSDJdW0NASF0oW0NASF0xMilbTkhdQyg9TylbQ0gyXU4yYyhuW2NIXW4zKWMoYzM0KW5bY0hdbjRbQ0hdKFtDSDJdNSlbQ0gyXUM1KFtDSDJdW09IXSlbQ0gyXVtPSF0=

> <s_epik_cmdline>
J2VwaWtfcHl0aG9uJywgJy1waCcsICc3LjAnLCAnLXRuJywgJzgnLCAnLW1hJywgJzIwMCcsICctbWV0YWxfYmluZGluZycsICctaW1hZScsICc8aW5maWxlLm1hZT4nLCAnLW9tYWUnLCAnPG91dGZpbGUubWFlPic=

> <r_lp_tautomer_probability>
1

> <r_epik_Ionization_Penalty>
0.000702616

> <r_epik_Ionization_Penalty_Charging>
0

> <r_epik_Ionization_Penalty_Neutral>
0.000702616

> <r_epik_State_Penalty>
0.000343985

> <r_epik_Charging_Adjusted_Penalty>
0.000343985

> <i_epik_Tot_Q>
0

> <i_epik_Tot_abs_Q>
0

> <r_epik_Metal_State_Penalty>
-0

> <b_epik_Metal_Only>
0

> <s_lp_Force_Field>
OPLS_2005

> <r_lp_Energy>
48.2331

> <b_lp_Chiralities_Consistent>
1

> <s_lp_Variant>
AV-unprocessed.smi:245-4

> <Gold.Version>
5.8.1

> <Gold.Id.Protein>
6NUR|6NUR_protein|mol2

> <Gold.PLP.Fitness>
53.8468

> <Gold.PLP.PLP>
-41.6938

> <Gold.PLP.part.hbond>
-4.4927

> <Gold.PLP.part.metal>
0.0000

> <Gold.PLP.part.buried>
-4.2215

> <Gold.PLP.part.nonpolar>
-34.5950

> <Gold.PLP.part.repulsive>
0.8206

> <Gold.PLP.ligand.clash>
0.0000

> <Gold.PLP.ligand.torsion>
0.8858

> <Gold.PLP.Chemscore.Hbond>
3.3285

> <Gold.PLP.Chemscore.CHOScore>
1.0000

> <Gold.PLP.Chemscore.Metal>
0.0000

> <Gold.Chemscore.Hbonds>
donor molecule, donor type, donor heavy atom, donor atom, acceptor molecule, acceptor atom, score
      L1  H    18    38       P1 10747  1.00
      L1  H    20    41       P1 10186  0.98
      L1  H    28    54       P1  8028  0.74
      P1  H 10785 10796       L1    20  0.60
      L1  C    12    32       P1 10171  1.00

> <Gold.PLP.Chemscore.Internal.Correction>
0.9392

> <Gold.Rescore>
     Score         DG    S(hbond)    S(metal)    S(lipo)     H(rot)  DE(clash)    DE(int)     intcor
     16.98     -18.40       3.27        0.00      88.85       3.28       0.57       0.85       ----

> <Gold.Chemscore.Fitness>
16.9757

> <Gold.Chemscore.DG>
-18.3966

> <Gold.Chemscore.ZeroCoef>
-5.4800

> <Gold.Chemscore.Hbond>
3.2657

> <Gold.Chemscore.Metal>
0.0000

> <Gold.Chemscore.Lipo>
88.8478

> <Gold.Chemscore.Internal_Hbond>
0.0000

> <Gold.Chemscore.DEClash>
0.5729

> <Gold.Chemscore.DEInternal>
0.8480

> <Gold.Chemscore.Rot>
3.2758

> <Gold.Chemscore.Internal.Correction>
   9.000000E+99

> <Gold.Chemscore.Hbonds>
donor molecule, donor type, donor heavy atom, donor atom, acceptor molecule, acceptor atom, score
      L1  H    18    38       P1 10747  0.99
      L1  H    20    41       P1 10186  0.91
      L1  H    28    54       P1  8028  0.69
      P1  H 10785 10796       L1    20  0.57

> <Gold.Chemscore.Hbond.Weighted>
-10.9073

> <Gold.Chemscore.Metal.Weighted>
-0.0000

> <Gold.Chemscore.Lipo.Weighted>
-10.3952

> <Gold.Chemscore.Internal_Hbond.Weighted>
0.0000

> <Gold.Chemscore.DEClash.Weighted>
0.5729

> <Gold.Chemscore.DEInternal.Weighted>
0.8480

> <Gold.Chemscore.Rot.Weighted>
8.3859

> <Gold.Chemscore.Internal.Correction.Weighted>
   9.000000E+99

> <Gold.Protein.RotatedTorsions>
[ 6907 6896 6895 6894 ] final  -99.67 input  -60.11 | X-H torsion
[ 7974 7965 7964 7962 ] final   73.11 input  175.53 | X-H torsion
[ 8008 7997 7996 7995 ] final   47.29 input   59.86 | X-H torsion
[ 10167 10162 10161 10158 ] final  141.42 input  -65.29 | X-H torsion
[ 10718 10713 10712 10709 ] final -154.65 input   66.30 | X-H torsion
[ 10763 10752 10751 10750 ] final  -46.81 input  -60.55 | X-H torsion
[ 11005 11000 10999 10996 ] final  115.52 input  -57.11 | X-H torsion

> <Gold.Protein.ActiveResidues>
 VAL166  LYS551  ARG553  GLY616  TRP617  ASP618  TYR619  PRO620  LYS621  CYS622 
 ASP623  PHE694  ASN695  SER759  ASP760  ASP761  ALA762  ILE779  LEU786  VAL792 
 PHE793  MET794  SER795  GLU796  ALA797  LYS798  CYS799  TRP800  GLU811  SER814 

> <Gold.Protein.RotatedAtoms>
  150.7088  134.1004  159.3963 H   0  0  0  0  0  0  0  0  0  0  0  0  # atno 6907 bound_to 6896
  151.8990  135.0383  160.0514 H   0  0  0  0  0  0  0  0  0  0  0  0  # atno 6908 bound_to 6896
  152.2429  133.5115  159.5317 H   0  0  0  0  0  0  0  0  0  0  0  0  # atno 6909 bound_to 6896
  145.7450  139.2736  143.1464 H   0  0  0  0  0  0  0  0  0  0  0  0  # atno 7974 bound_to 7965
  155.3667  140.3421  155.4242 H   0  0  0  0  0  0  0  0  0  0  0  0  # atno 8008 bound_to 7997
  156.1685  140.1624  156.8524 H   0  0  0  0  0  0  0  0  0  0  0  0  # atno 8009 bound_to 7997
  154.5209  140.0767  156.8152 H   0  0  0  0  0  0  0  0  0  0  0  0  # atno 8010 bound_to 7997
  139.5021  144.6172  151.6135 H   0  0  0  0  0  0  0  0  0  0  0  0  # atno 10167 bound_to 10162
  156.5022  130.8396  151.2613 H   0  0  0  0  0  0  0  0  0  0  0  0  # atno 10718 bound_to 10713
  154.0511  135.6631  153.4800 H   0  0  0  0  0  0  0  0  0  0  0  0  # atno 10763 bound_to 10752
  153.0463  135.5112  154.7750 H   0  0  0  0  0  0  0  0  0  0  0  0  # atno 10764 bound_to 10752
  154.6757  135.3036  154.9648 H   0  0  0  0  0  0  0  0  0  0  0  0  # atno 10765 bound_to 10752
  139.9012  134.9585  156.7057 H   0  0  0  0  0  0  0  0  0  0  0  0  # atno 11005 bound_to 11000
  146.0412  140.8163  142.9828 LP  0  0  0  0  0  0  0  0  0  0  0  0  # atno 17320 bound_to 7965
  144.6862  140.2913  143.7277 LP  0  0  0  0  0  0  0  0  0  0  0  0  # atno 17321 bound_to 7965
  140.5864  143.9857  150.6298 LP  0  0  0  0  0  0  0  0  0  0  0  0  # atno 17342 bound_to 10162
  140.3023  143.3252  152.0960 LP  0  0  0  0  0  0  0  0  0  0  0  0  # atno 17343 bound_to 10162
  157.7461  130.9978  150.2829 LP  0  0  0  0  0  0  0  0  0  0  0  0  # atno 17370 bound_to 10713
  156.3322  130.3802  149.7481 LP  0  0  0  0  0  0  0  0  0  0  0  0  # atno 17371 bound_to 10713
  140.7115  133.9219  155.8088 LP  0  0  0  0  0  0  0  0  0  0  0  0  # atno 17394 bound_to 11000
  141.0296  134.0774  157.4029 LP  0  0  0  0  0  0  0  0  0  0  0  0  # atno 17395 bound_to 11000

$$$$
