AV-unprocessed.smi:1809|AV-procd|sdf|7322|dock7
  -GOLD-   22720 8583D 1   1.00000     0.00000
 Structure written by MMmdl.
 39 41  0  0  0  0  0  0  0  0  3 V2000
  153.3356  141.5103  160.0119 C   0  0  0  0  0  0  0  0  0  0  0  0
  152.8503  140.4333  159.1033 C   0  0  0  0  0  0  0  0  0  0  0  0
  153.6758  139.6125  158.4491 N   0  0  0  0  0  0  0  0  0  0  0  0
  152.9892  138.6954  157.6665 N   0  0  0  0  0  0  0  0  0  0  0  0
  151.6581  138.8418  157.7309 C   0  0  0  0  0  0  0  0  0  0  0  0
  150.8126  138.0498  157.0509 N   0  5  0  0  0  0  0  0  0  0  0  0
  151.2730  136.9331  156.4446 C   0  0  0  0  0  0  0  0  0  0  0  0
  152.3852  136.4221  156.5951 O   0  0  0  0  0  0  0  0  0  0  0  0
  150.3893  136.3704  155.6113 N   0  0  0  0  0  0  0  0  0  0  0  0
  150.6215  135.1532  154.8475 C   0  0  0  0  0  0  0  0  0  0  0  0
  149.6601  134.0353  155.2944 C   0  0  1  0  0  0  0  0  0  0  0  0
  148.1726  134.4454  155.1747 C   0  0  0  0  0  0  0  0  0  0  0  0
  147.7853  134.4301  153.7515 N   0  3  2  0  0  0  0  0  0  0  0  0
  146.4040  134.8032  153.4022 C   0  0  0  0  0  0  0  0  0  0  0  0
  146.1447  134.1302  152.0397 C   0  0  0  0  0  0  0  0  0  0  0  0
  147.3755  133.2460  151.7692 C   0  0  0  0  0  0  0  0  0  0  0  0
  148.0197  133.1174  153.1462 C   0  0  1  0  0  0  0  0  0  0  0  0
  149.5171  132.7945  153.2134 C   0  0  0  0  0  0  0  0  0  0  0  0
  149.9054  132.8074  154.5897 O   0  0  0  0  0  0  0  0  0  0  0  0
  151.1450  140.1443  158.8031 S   0  0  0  0  0  0  0  0  0  0  0  0
  153.6221  142.3867  159.4306 H   0  0  0  0  0  0  0  0  0  0  0  0
  154.2006  141.1657  160.5793 H   0  0  0  0  0  0  0  0  0  0  0  0
  152.5509  141.7951  160.7130 H   0  0  0  0  0  0  0  0  0  0  0  0
  149.4880  136.8151  155.5135 H   0  0  0  0  0  0  0  0  0  0  0  0
  150.4697  135.3695  153.7889 H   0  0  0  0  0  0  0  0  0  0  0  0
  151.6619  134.8450  154.9569 H   0  0  0  0  0  0  0  0  0  0  0  0
  149.8651  133.8344  156.3466 H   0  0  0  0  0  0  0  0  0  0  0  0
  147.5450  133.7474  155.7307 H   0  0  0  0  0  0  0  0  0  0  0  0
  148.0057  135.4362  155.5989 H   0  0  0  0  0  0  0  0  0  0  0  0
  145.7121  134.4135  154.1506 H   0  0  0  0  0  0  0  0  0  0  0  0
  146.2896  135.8868  153.3641 H   0  0  0  0  0  0  0  0  0  0  0  0
  145.2358  133.5288  152.0842 H   0  0  0  0  0  0  0  0  0  0  0  0
  146.0127  134.8656  151.2455 H   0  0  0  0  0  0  0  0  0  0  0  0
  147.1162  132.2804  151.3338 H   0  0  0  0  0  0  0  0  0  0  0  0
  148.0532  133.7546  151.0818 H   0  0  0  0  0  0  0  0  0  0  0  0
  147.4670  132.3665  153.7153 H   0  0  0  0  0  0  0  0  0  0  0  0
  149.7114  131.8048  152.7998 H   0  0  0  0  0  0  0  0  0  0  0  0
  150.1084  133.5036  152.6335 H   0  0  0  0  0  0  0  0  0  0  0  0
  148.3898  135.0793  153.2680 H   0  0  0  0  0  0  0  0  0  0  0  0
  1  2  1  0  0  0  0
  1 21  1  0  0  0  0
  1 22  1  0  0  0  0
  1 23  1  0  0  0  0
  2 20  1  0  0  0  0
  2  3  2  0  0  0  0
  3  4  1  0  0  0  0
  4  5  2  0  0  0  0
  5  6  1  0  0  0  0
  5 20  1  0  0  0  0
  6  7  1  0  0  0  0
  7  8  2  0  0  0  0
  7  9  1  0  0  0  0
  9 10  1  0  0  0  0
  9 24  1  0  0  0  0
 10 11  1  0  0  0  0
 10 25  1  0  0  0  0
 10 26  1  0  0  0  0
 11 19  1  0  0  0  0
 11 12  1  0  0  0  0
 11 27  1  0  0  0  0
 12 13  1  0  0  0  0
 12 28  1  0  0  0  0
 12 29  1  0  0  0  0
 13 17  1  0  0  0  0
 13 14  1  0  0  0  0
 13 39  1  0  0  0  0
 14 15  1  0  0  0  0
 14 30  1  0  0  0  0
 14 31  1  0  0  0  0
 15 16  1  0  0  0  0
 15 32  1  0  0  0  0
 15 33  1  0  0  0  0
 16 17  1  0  0  0  0
 16 34  1  0  0  0  0
 16 35  1  0  0  0  0
 17 18  1  0  0  0  0
 17 36  1  0  0  0  0
 18 19  1  0  0  0  0
 18 37  1  0  0  0  0
 18 38  1  0  0  0  0
M  CHG  1   6  -1
M  CHG  1  13   1
M  END
> <s_m_source_file>
AV-unprocessed.smi

> <i_m_source_file_index>
1809

> <i_lp_mmshare_version>
43012

> <i_f3d_flags>
0

> <s_epik_input>
W0NIM11jMW5uYyhzMSlbTkhdQyg9TylbTkhdW0NIMl1bQ0BIXShbQ0gyXTIpT1tDSDJdW0NAQEhdKE4yMylbQ0gyXVtDSDJdW0NIMl0z

> <s_epik_cmdline>
J2VwaWtfcHl0aG9uJywgJy1waCcsICc3LjAnLCAnLXRuJywgJzgnLCAnLW1hJywgJzIwMCcsICctbWV0YWxfYmluZGluZycsICctaW1hZScsICc8aW5maWxlLm1hZT4nLCAnLW9tYWUnLCAnPG91dGZpbGUubWFlPic=

> <r_lp_tautomer_probability>
1

> <r_epik_Ionization_Penalty>
3.2601

> <r_epik_Ionization_Penalty_Charging>
3.1406

> <r_epik_Ionization_Penalty_Neutral>
0.119497

> <r_epik_State_Penalty>
3.08894

> <r_epik_Charging_Adjusted_Penalty>
6.22954

> <i_epik_Tot_Q>
0

> <i_epik_Tot_abs_Q>
2

> <r_epik_Metal_State_Penalty>
0.510807

> <b_epik_Metal_Only>
1

> <s_lp_Force_Field>
OPLS_2005

> <r_lp_Energy>
31.1034

> <b_lp_Chiralities_Consistent>
1

> <s_lp_Variant>
AV-unprocessed.smi:1809-14

> <Gold.Version>
5.8.1

> <Gold.Id.Protein>
6NUR|6NUR_protein|mol2

> <Gold.PLP.Fitness>
39.3491

> <Gold.PLP.PLP>
-27.4792

> <Gold.PLP.part.hbond>
-3.6514

> <Gold.PLP.part.metal>
0.0000

> <Gold.PLP.part.buried>
-4.0697

> <Gold.PLP.part.nonpolar>
-19.5221

> <Gold.PLP.part.repulsive>
0.1222

> <Gold.PLP.ligand.clash>
0.0000

> <Gold.PLP.ligand.torsion>
0.0711

> <Gold.PLP.Chemscore.Hbond>
4.0000

> <Gold.PLP.Chemscore.CHOScore>
0.0000

> <Gold.PLP.Chemscore.Metal>
0.0000

> <Gold.Chemscore.Hbonds>
donor molecule, donor type, donor heavy atom, donor atom, acceptor molecule, acceptor atom, score
      L1  H    13    39       P1  7948  2.00
      P1  H  7997  8010       L1     3  0.85
      P1  H 10752 10764       L1     8  1.00

> <Gold.PLP.Chemscore.Internal.Correction>
0.0120

> <Gold.Rescore>
     Score         DG    S(hbond)    S(metal)    S(lipo)     H(rot)  DE(clash)    DE(int)     intcor
     16.47     -18.26       2.77        0.00      59.26       1.32       0.06       1.73       ----

> <Gold.Chemscore.Fitness>
16.4714

> <Gold.Chemscore.DG>
-18.2627

> <Gold.Chemscore.ZeroCoef>
-5.4800

> <Gold.Chemscore.Hbond>
2.7667

> <Gold.Chemscore.Metal>
0.0000

> <Gold.Chemscore.Lipo>
59.2563

> <Gold.Chemscore.Internal_Hbond>
0.0000

> <Gold.Chemscore.DEClash>
0.0595

> <Gold.Chemscore.DEInternal>
1.7318

> <Gold.Chemscore.Rot>
1.3246

> <Gold.Chemscore.Internal.Correction>
   9.000000E+99

> <Gold.Chemscore.Hbonds>
donor molecule, donor type, donor heavy atom, donor atom, acceptor molecule, acceptor atom, score
      L1  H    13    39       P1  7948  0.90
      P1  H  7997  8010       L1     3  0.14
      P1  H 10752 10764       L1     8  0.96

> <Gold.Chemscore.Hbond.Weighted>
-9.2407

> <Gold.Chemscore.Metal.Weighted>
-0.0000

> <Gold.Chemscore.Lipo.Weighted>
-6.9330

> <Gold.Chemscore.Internal_Hbond.Weighted>
0.0000

> <Gold.Chemscore.DEClash.Weighted>
0.0595

> <Gold.Chemscore.DEInternal.Weighted>
1.7318

> <Gold.Chemscore.Rot.Weighted>
3.3910

> <Gold.Chemscore.Internal.Correction.Weighted>
   9.000000E+99

> <Gold.Protein.RotatedTorsions>
[ 6907 6896 6895 6894 ] final -119.19 input  -60.11 | X-H torsion
[ 7974 7965 7964 7962 ] final  117.60 input  175.53 | X-H torsion
[ 8008 7997 7996 7995 ] final   12.10 input   59.86 | X-H torsion
[ 10167 10162 10161 10158 ] final  175.11 input  -65.29 | X-H torsion
[ 10718 10713 10712 10709 ] final   47.69 input   66.30 | X-H torsion
[ 10763 10752 10751 10750 ] final   -5.60 input  -60.55 | X-H torsion
[ 11005 11000 10999 10996 ] final   41.91 input  -57.11 | X-H torsion

> <Gold.Protein.ActiveResidues>
 VAL166  LYS551  ARG553  GLY616  TRP617  ASP618  TYR619  PRO620  LYS621  CYS622 
 ASP623  PHE694  ASN695  SER759  ASP760  ASP761  ALA762  ILE779  LEU786  VAL792 
 PHE793  MET794  SER795  GLU796  ALA797  LYS798  CYS799  TRP800  GLU811  SER814 

> <Gold.Protein.RotatedAtoms>
  150.8283  133.8133  159.3108 H   0  0  0  0  0  0  0  0  0  0  0  0  # atno 6907 bound_to 6896
  151.5871  135.1054  160.0040 H   0  0  0  0  0  0  0  0  0  0  0  0  # atno 6908 bound_to 6896
  152.4366  133.7330  159.6655 H   0  0  0  0  0  0  0  0  0  0  0  0  # atno 6909 bound_to 6896
  145.1654  139.3131  143.4495 H   0  0  0  0  0  0  0  0  0  0  0  0  # atno 7974 bound_to 7965
  154.8160  140.2876  155.5820 H   0  0  0  0  0  0  0  0  0  0  0  0  # atno 8008 bound_to 7997
  156.2993  140.2559  156.2987 H   0  0  0  0  0  0  0  0  0  0  0  0  # atno 8009 bound_to 7997
  154.9393  140.0381  157.2078 H   0  0  0  0  0  0  0  0  0  0  0  0  # atno 8010 bound_to 7997
  139.5165  144.3069  152.0327 H   0  0  0  0  0  0  0  0  0  0  0  0  # atno 10167 bound_to 10162
  157.4611  130.8197  149.7887 H   0  0  0  0  0  0  0  0  0  0  0  0  # atno 10718 bound_to 10713
  153.4008  135.7005  153.6428 H   0  0  0  0  0  0  0  0  0  0  0  0  # atno 10763 bound_to 10752
  153.4962  135.3662  155.2517 H   0  0  0  0  0  0  0  0  0  0  0  0  # atno 10764 bound_to 10752
  154.8710  135.4101  154.3342 H   0  0  0  0  0  0  0  0  0  0  0  0  # atno 10765 bound_to 10752
  140.1790  134.4128  155.8211 H   0  0  0  0  0  0  0  0  0  0  0  0  # atno 11005 bound_to 11000
  146.3476  140.1780  142.8589 LP  0  0  0  0  0  0  0  0  0  0  0  0  # atno 17320 bound_to 7965
  145.0287  140.8853  143.5122 LP  0  0  0  0  0  0  0  0  0  0  0  0  # atno 17321 bound_to 7965
  140.2515  144.4164  150.6220 LP  0  0  0  0  0  0  0  0  0  0  0  0  # atno 17342 bound_to 10162
  140.6221  143.2177  151.6672 LP  0  0  0  0  0  0  0  0  0  0  0  0  # atno 17343 bound_to 10162
  156.0029  130.3870  150.2538 LP  0  0  0  0  0  0  0  0  0  0  0  0  # atno 17370 bound_to 10713
  157.0716  131.0118  151.3188 LP  0  0  0  0  0  0  0  0  0  0  0  0  # atno 17371 bound_to 10713
  141.2222  133.6991  156.7896 LP  0  0  0  0  0  0  0  0  0  0  0  0  # atno 17394 bound_to 11000
  140.2290  134.8700  157.3456 LP  0  0  0  0  0  0  0  0  0  0  0  0  # atno 17395 bound_to 11000

$$$$
