AV-unprocessed.smi:1381|AV-procd|sdf|5605|dock2
  -GOLD-   22720 5213D 1   1.00000     0.00000
 Structure written by MMmdl.
 43 44  0  0  0  0  0  0  0  0  2 V2000
  153.2602  137.3856  156.7299 C   0  0  0  0  0  0  0  0  0  0  0  0
  152.3342  138.1443  155.8424 C   0  0  0  0  0  0  0  0  0  0  0  0
  151.3238  137.7607  155.0060 C   0  0  0  0  0  0  0  0  0  0  0  0
  150.8662  138.9940  154.4709 C   0  0  0  0  0  0  0  0  0  0  0  0
  149.7985  139.0314  153.5381 N   0  0  0  0  0  0  0  0  0  0  0  0
  148.5149  138.6950  153.7507 C   0  0  0  0  0  0  0  0  0  0  0  0
  148.0528  138.2940  154.8195 O   0  0  0  0  0  0  0  0  0  0  0  0
  147.7776  138.8472  152.6411 N   0  0  0  0  0  0  0  0  0  0  0  0
  146.3477  138.5747  152.5506 C   0  0  0  0  0  0  0  0  0  0  0  0
  146.0425  137.4993  151.4902 C   0  0  0  0  0  0  0  0  0  0  0  0
  146.3813  136.1317  151.9568 N   0  3  1  0  0  0  0  0  0  0  0  0
  145.8867  135.8650  153.3283 C   0  0  0  0  0  0  0  0  0  0  0  0
  146.3109  134.4592  153.7935 C   0  0  1  0  0  0  0  0  0  0  0  0
  145.7543  134.1164  155.1798 C   0  0  0  0  0  0  0  0  0  0  0  0
  145.8209  133.4965  152.8667 O   0  0  0  0  0  0  0  0  0  0  0  0
  146.3502  133.6778  151.5580 C   0  0  1  0  0  0  0  0  0  0  0  0
  145.8307  132.5412  150.6709 C   0  0  0  0  0  0  0  0  0  0  0  0
  145.9307  135.0632  151.0310 C   0  0  0  0  0  0  0  0  0  0  0  0
  151.5351  140.0363  154.9394 N   0  0  0  0  0  0  0  0  0  0  0  0
  152.4801  139.4969  155.8202 O   0  0  0  0  0  0  0  0  0  0  0  0
  152.9710  136.3362  156.7883 H   0  0  0  0  0  0  0  0  0  0  0  0
  153.2507  137.7955  157.7399 H   0  0  0  0  0  0  0  0  0  0  0  0
  154.2819  137.4343  156.3534 H   0  0  0  0  0  0  0  0  0  0  0  0
  150.9724  136.7585  154.8104 H   0  0  0  0  0  0  0  0  0  0  0  0
  150.0389  139.3501  152.6112 H   0  0  0  0  0  0  0  0  0  0  0  0
  148.2340  139.1831  151.8053 H   0  0  0  0  0  0  0  0  0  0  0  0
  145.9792  138.2837  153.5346 H   0  0  0  0  0  0  0  0  0  0  0  0
  145.8412  139.5049  152.2922 H   0  0  0  0  0  0  0  0  0  0  0  0
  144.9769  137.5456  151.2604 H   0  0  0  0  0  0  0  0  0  0  0  0
  146.5669  137.7049  150.5558 H   0  0  0  0  0  0  0  0  0  0  0  0
  146.2847  136.6132  154.0151 H   0  0  0  0  0  0  0  0  0  0  0  0
  144.7993  135.9581  153.3473 H   0  0  0  0  0  0  0  0  0  0  0  0
  147.3999  134.3975  153.8327 H   0  0  0  0  0  0  0  0  0  0  0  0
  146.1087  134.8223  155.9314 H   0  0  0  0  0  0  0  0  0  0  0  0
  146.0663  133.1186  155.4892 H   0  0  0  0  0  0  0  0  0  0  0  0
  144.6640  134.1405  155.1858 H   0  0  0  0  0  0  0  0  0  0  0  0
  147.4391  133.6147  151.5994 H   0  0  0  0  0  0  0  0  0  0  0  0
  146.2189  132.6267  149.6557 H   0  0  0  0  0  0  0  0  0  0  0  0
  144.7416  132.5499  150.6146 H   0  0  0  0  0  0  0  0  0  0  0  0
  146.1358  131.5705  151.0625 H   0  0  0  0  0  0  0  0  0  0  0  0
  144.8458  135.1106  150.9213 H   0  0  0  0  0  0  0  0  0  0  0  0
  146.3572  135.2145  150.0402 H   0  0  0  0  0  0  0  0  0  0  0  0
  147.3890  136.0810  152.0033 H   0  0  0  0  0  0  0  0  0  0  0  0
  1  2  1  0  0  0  0
  1 21  1  0  0  0  0
  1 22  1  0  0  0  0
  1 23  1  0  0  0  0
  2 20  1  0  0  0  0
  2  3  2  0  0  0  0
  3  4  1  0  0  0  0
  3 24  1  0  0  0  0
  4  5  1  0  0  0  0
  4 19  2  0  0  0  0
  5  6  1  0  0  0  0
  5 25  1  0  0  0  0
  6  7  2  0  0  0  0
  6  8  1  0  0  0  0
  8  9  1  0  0  0  0
  8 26  1  0  0  0  0
  9 10  1  0  0  0  0
  9 27  1  0  0  0  0
  9 28  1  0  0  0  0
 10 11  1  0  0  0  0
 10 29  1  0  0  0  0
 10 30  1  0  0  0  0
 11 18  1  0  0  0  0
 11 12  1  0  0  0  0
 11 43  1  0  0  0  0
 12 13  1  0  0  0  0
 12 31  1  0  0  0  0
 12 32  1  0  0  0  0
 13 14  1  0  0  0  0
 13 15  1  0  0  0  0
 13 33  1  0  0  0  0
 14 34  1  0  0  0  0
 14 35  1  0  0  0  0
 14 36  1  0  0  0  0
 15 16  1  0  0  0  0
 16 17  1  0  0  0  0
 16 18  1  0  0  0  0
 16 37  1  0  0  0  0
 17 38  1  0  0  0  0
 17 39  1  0  0  0  0
 17 40  1  0  0  0  0
 18 41  1  0  0  0  0
 18 42  1  0  0  0  0
 19 20  1  0  0  0  0
M  CHG  1  11   1
M  END
> <s_m_source_file>
AV-unprocessed.smi

> <i_m_source_file_index>
1381

> <i_lp_mmshare_version>
43012

> <i_f3d_flags>
0

> <s_epik_input>
W0NIM11jMVtjSF1jKG5vMSlbTkhdQyg9TylbTkhdW0NIMl1bQ0gyXU4yW0NIMl1bQ0BASF0oW0NIM10pT1tDQEBIXShbQ0gzXSlbQ0gyXTI=

> <s_epik_cmdline>
J2VwaWtfcHl0aG9uJywgJy1waCcsICc3LjAnLCAnLXRuJywgJzgnLCAnLW1hJywgJzIwMCcsICctbWV0YWxfYmluZGluZycsICctaW1hZScsICc8aW5maWxlLm1hZT4nLCAnLW9tYWUnLCAnPG91dGZpbGUubWFlPic=

> <r_epik_Ionization_Penalty>
0.707076

> <r_epik_Ionization_Penalty_Charging>
0.707039

> <r_epik_Ionization_Penalty_Neutral>
3.6548e-05

> <r_epik_State_Penalty>
0.730276

> <r_epik_Charging_Adjusted_Penalty>
1.43732

> <i_epik_Tot_Q>
1

> <i_epik_Tot_abs_Q>
1

> <r_epik_Metal_State_Penalty>
0.743132

> <b_epik_Metal_Only>
0

> <s_lp_Force_Field>
OPLS_2005

> <r_lp_Energy>
11.2606

> <b_lp_Chiralities_Consistent>
1

> <s_lp_Variant>
AV-unprocessed.smi:1381-4

> <Gold.Version>
5.8.1

> <Gold.Id.Protein>
6NUR|6NUR_protein|mol2

> <Gold.PLP.Fitness>
44.9408

> <Gold.PLP.PLP>
-28.8836

> <Gold.PLP.part.hbond>
-6.0000

> <Gold.PLP.part.metal>
0.0000

> <Gold.PLP.part.buried>
-1.4322

> <Gold.PLP.part.nonpolar>
-22.3781

> <Gold.PLP.part.repulsive>
0.4686

> <Gold.PLP.ligand.clash>
0.0000

> <Gold.PLP.ligand.torsion>
0.7453

> <Gold.PLP.Chemscore.Hbond>
5.8440

> <Gold.PLP.Chemscore.CHOScore>
0.0000

> <Gold.PLP.Chemscore.Metal>
0.0000

> <Gold.Chemscore.Hbonds>
donor molecule, donor type, donor heavy atom, donor atom, acceptor molecule, acceptor atom, score
      L1  H     5    25       P1  7957  1.00
      L1  H     8    26       P1  7957  0.94
      L1  H    11    43       P1  7948  2.00
      P1  H  7989  7998       L1    19  0.85
      P1  H  7997  8008       L1    20  1.00

> <Gold.PLP.Chemscore.Internal.Correction>
0.0158

> <Gold.Rescore>
     Score         DG    S(hbond)    S(metal)    S(lipo)     H(rot)  DE(clash)    DE(int)     intcor
     19.80     -20.64       3.85        0.00      54.92       1.61       0.13       0.71       ----

> <Gold.Chemscore.Fitness>
19.8031

> <Gold.Chemscore.DG>
-20.6354

> <Gold.Chemscore.ZeroCoef>
-5.4800

> <Gold.Chemscore.Hbond>
3.8462

> <Gold.Chemscore.Metal>
0.0000

> <Gold.Chemscore.Lipo>
54.9217

> <Gold.Chemscore.Internal_Hbond>
0.0000

> <Gold.Chemscore.DEClash>
0.1265

> <Gold.Chemscore.DEInternal>
0.7057

> <Gold.Chemscore.Rot>
1.6081

> <Gold.Chemscore.Internal.Correction>
   9.000000E+99

> <Gold.Chemscore.Hbonds>
donor molecule, donor type, donor heavy atom, donor atom, acceptor molecule, acceptor atom, score
      L1  H     5    25       P1  7957  0.85
      L1  H     8    26       P1  7957  0.91
      L1  H    11    43       P1  7948  0.95
      P1  H  7989  7998       L1    19  0.14
      P1  H  7997  8008       L1    20  0.84

> <Gold.Chemscore.Hbond.Weighted>
-12.8462

> <Gold.Chemscore.Metal.Weighted>
-0.0000

> <Gold.Chemscore.Lipo.Weighted>
-6.4258

> <Gold.Chemscore.Internal_Hbond.Weighted>
0.0000

> <Gold.Chemscore.DEClash.Weighted>
0.1265

> <Gold.Chemscore.DEInternal.Weighted>
0.7057

> <Gold.Chemscore.Rot.Weighted>
4.1167

> <Gold.Chemscore.Internal.Correction.Weighted>
   9.000000E+99

> <Gold.Protein.RotatedTorsions>
[ 6907 6896 6895 6894 ] final -154.66 input  -60.11 | X-H torsion
[ 7974 7965 7964 7962 ] final -149.22 input  175.53 | X-H torsion
[ 8008 7997 7996 7995 ] final  -38.12 input   59.86 | X-H torsion
[ 10167 10162 10161 10158 ] final   43.17 input  -65.29 | X-H torsion
[ 10718 10713 10712 10709 ] final -123.90 input   66.30 | X-H torsion
[ 10763 10752 10751 10750 ] final  -78.64 input  -60.55 | X-H torsion
[ 11005 11000 10999 10996 ] final   21.51 input  -57.11 | X-H torsion

> <Gold.Protein.ActiveResidues>
 VAL166  LYS551  ARG553  GLY616  TRP617  ASP618  TYR619  PRO620  LYS621  CYS622 
 ASP623  PHE694  ASN695  SER759  ASP760  ASP761  ALA762  ILE779  LEU786  VAL792 
 PHE793  MET794  SER795  GLU796  ALA797  LYS798  CYS799  TRP800  GLU811  SER814 

> <Gold.Protein.RotatedAtoms>
  151.2608  133.4303  159.2615 H   0  0  0  0  0  0  0  0  0  0  0  0  # atno 6907 bound_to 6896
  151.0532  134.9687  159.8232 H   0  0  0  0  0  0  0  0  0  0  0  0  # atno 6908 bound_to 6896
  152.5386  134.2562  159.8970 H   0  0  0  0  0  0  0  0  0  0  0  0  # atno 6909 bound_to 6896
  144.7981  140.5093  143.5726 H   0  0  0  0  0  0  0  0  0  0  0  0  # atno 7974 bound_to 7965
  154.4042  140.1586  156.2647 H   0  0  0  0  0  0  0  0  0  0  0  0  # atno 8008 bound_to 7997
  155.9005  140.3433  155.6001 H   0  0  0  0  0  0  0  0  0  0  0  0  # atno 8009 bound_to 7997
  155.7453  140.0798  157.2217 H   0  0  0  0  0  0  0  0  0  0  0  0  # atno 8010 bound_to 7997
  140.3470  144.2398  150.6149 H   0  0  0  0  0  0  0  0  0  0  0  0  # atno 10167 bound_to 10162
  156.1541  130.6555  150.9956 H   0  0  0  0  0  0  0  0  0  0  0  0  # atno 10718 bound_to 10713
  154.5285  135.5723  153.6739 H   0  0  0  0  0  0  0  0  0  0  0  0  # atno 10763 bound_to 10752
  152.9933  135.6199  154.2660 H   0  0  0  0  0  0  0  0  0  0  0  0  # atno 10764 bound_to 10752
  154.2585  135.2857  155.2767 H   0  0  0  0  0  0  0  0  0  0  0  0  # atno 10765 bound_to 10752
  140.3908  134.1821  155.7662 H   0  0  0  0  0  0  0  0  0  0  0  0  # atno 11005 bound_to 11000
  145.5623  139.1480  143.3334 LP  0  0  0  0  0  0  0  0  0  0  0  0  # atno 17320 bound_to 7965
  146.2255  140.5758  142.8998 LP  0  0  0  0  0  0  0  0  0  0  0  0  # atno 17321 bound_to 7965
  140.5255  143.2255  151.8322 LP  0  0  0  0  0  0  0  0  0  0  0  0  # atno 17342 bound_to 10162
  139.4832  144.4785  151.9336 LP  0  0  0  0  0  0  0  0  0  0  0  0  # atno 17343 bound_to 10162
  157.6681  131.0867  150.7679 LP  0  0  0  0  0  0  0  0  0  0  0  0  # atno 17370 bound_to 10713
  156.7746  130.4839  149.5412 LP  0  0  0  0  0  0  0  0  0  0  0  0  # atno 17371 bound_to 10713
  141.1891  133.8245  157.0968 LP  0  0  0  0  0  0  0  0  0  0  0  0  # atno 17394 bound_to 11000
  140.0408  134.9855  157.0958 LP  0  0  0  0  0  0  0  0  0  0  0  0  # atno 17395 bound_to 11000

$$$$
