AV-unprocessed.smi:703|AV-procd|sdf|3439|dock5
  -GOLD-   22720 0423D 1   1.00000     0.00000
 Structure written by MMmdl.
 37 38  0  0  0  0  0  0  0  0  3 V2000
  146.1220  134.2449  151.5867 C   0  0  0  0  0  0  0  0  0  0  0  0
  147.1638  133.3382  152.2560 C   0  0  0  0  0  0  0  0  0  0  0  0
  147.9288  134.0464  153.3100 N   0  3  2  0  0  0  0  0  0  0  0  0
  149.0416  133.2579  153.8925 C   0  0  0  0  0  0  0  0  0  0  0  0
  148.9225  133.3746  155.4213 C   0  0  1  0  0  0  0  0  0  0  0  0
  150.2850  133.3670  156.1421 C   0  0  0  0  0  0  0  0  0  0  0  0
  148.0719  134.6379  155.6216 C   0  0  2  0  0  0  0  0  0  0  0  0
  147.3638  134.6066  156.8915 N   0  5  0  0  0  0  0  0  0  0  0  0
  147.9097  135.4830  158.1429 S   0  0  0  0  0  0  0  0  0  0  0  0
  149.3058  135.1574  158.4757 O   0  0  0  0  0  0  0  0  0  0  0  0
  147.5632  136.9096  158.0294 O   0  0  0  0  0  0  0  0  0  0  0  0
  146.8884  134.7969  159.5210 C   0  0  0  0  0  0  0  0  0  0  0  0
  147.2241  135.4764  160.8198 C   0  0  0  0  0  0  0  0  0  0  0  0
  147.4375  134.8855  162.0963 C   0  0  0  0  0  0  0  0  0  0  0  0
  147.7053  135.9542  162.9020 C   0  0  0  0  0  0  0  0  0  0  0  0
  147.6547  137.1093  162.1921 O   0  0  0  0  0  0  0  0  0  0  0  0
  147.3419  136.7947  160.8649 N   0  0  0  0  0  0  0  0  0  0  0  0
  147.1157  134.5694  154.4290 C   0  0  0  0  0  0  0  0  0  0  0  0
  145.6126  133.7161  150.7810 H   0  0  0  0  0  0  0  0  0  0  0  0
  146.5888  135.1321  151.1578 H   0  0  0  0  0  0  0  0  0  0  0  0
  145.3605  134.5735  152.2945 H   0  0  0  0  0  0  0  0  0  0  0  0
  146.6840  132.4528  152.6761 H   0  0  0  0  0  0  0  0  0  0  0  0
  147.8618  132.9872  151.4948 H   0  0  0  0  0  0  0  0  0  0  0  0
  149.0120  132.2112  153.5854 H   0  0  0  0  0  0  0  0  0  0  0  0
  149.9824  133.6738  153.5266 H   0  0  0  0  0  0  0  0  0  0  0  0
  148.3482  132.5124  155.7675 H   0  0  0  0  0  0  0  0  0  0  0  0
  150.9247  134.1938  155.8280 H   0  0  0  0  0  0  0  0  0  0  0  0
  150.8233  132.4435  155.9280 H   0  0  0  0  0  0  0  0  0  0  0  0
  150.1708  133.4264  157.2260 H   0  0  0  0  0  0  0  0  0  0  0  0
  148.7109  135.5162  155.5175 H   0  0  0  0  0  0  0  0  0  0  0  0
  145.8337  134.8970  159.2638 H   0  0  0  0  0  0  0  0  0  0  0  0
  147.1064  133.7317  159.5912 H   0  0  0  0  0  0  0  0  0  0  0  0
  147.4060  133.8425  162.3739 H   0  0  0  0  0  0  0  0  0  0  0  0
  147.9384  136.0521  163.9520 H   0  0  0  0  0  0  0  0  0  0  0  0
  146.6862  135.5413  154.1840 H   0  0  0  0  0  0  0  0  0  0  0  0
  146.2944  133.8806  154.6385 H   0  0  0  0  0  0  0  0  0  0  0  0
  148.3621  134.8499  152.8781 H   0  0  0  0  0  0  0  0  0  0  0  0
  1  2  1  0  0  0  0
  1 19  1  0  0  0  0
  1 20  1  0  0  0  0
  1 21  1  0  0  0  0
  2  3  1  0  0  0  0
  2 22  1  0  0  0  0
  2 23  1  0  0  0  0
  3 18  1  0  0  0  0
  3  4  1  0  0  0  0
  3 37  1  0  0  0  0
  4  5  1  0  0  0  0
  4 24  1  0  0  0  0
  4 25  1  0  0  0  0
  5  6  1  0  0  0  0
  5  7  1  0  0  0  0
  5 26  1  0  0  0  0
  6 27  1  0  0  0  0
  6 28  1  0  0  0  0
  6 29  1  0  0  0  0
  7  8  1  0  0  0  0
  7 18  1  0  0  0  0
  7 30  1  0  0  0  0
  8  9  1  0  0  0  0
  9 10  2  0  0  0  0
  9 11  2  0  0  0  0
  9 12  1  0  0  0  0
 12 13  1  0  0  0  0
 12 31  1  0  0  0  0
 12 32  1  0  0  0  0
 13 17  2  0  0  0  0
 13 14  1  0  0  0  0
 14 15  2  0  0  0  0
 14 33  1  0  0  0  0
 15 16  1  0  0  0  0
 15 34  1  0  0  0  0
 16 17  1  0  0  0  0
 18 35  1  0  0  0  0
 18 36  1  0  0  0  0
M  CHG  1   3   1
M  CHG  1   8  -1
M  END
> <s_m_source_file>
AV-unprocessed.smi

> <i_m_source_file_index>
703

> <i_lp_mmshare_version>
43012

> <i_f3d_flags>
0

> <s_epik_input>
W0NIM11bQ0gyXU4xW0NIMl1bQ0BASF0oW0NIM10pW0NASF0oW0NIMl0xKVtOSF1TKD1PKSg9TylbQ0gyXWMyW2NIXVtjSF1vbjI=

> <s_epik_cmdline>
J2VwaWtfcHl0aG9uJywgJy1waCcsICc3LjAnLCAnLXRuJywgJzgnLCAnLW1hJywgJzIwMCcsICctbWV0YWxfYmluZGluZycsICctaW1hZScsICc8aW5maWxlLm1hZT4nLCAnLW9tYWUnLCAnPG91dGZpbGUubWFlPic=

> <r_epik_Ionization_Penalty>
3.62494

> <r_epik_Ionization_Penalty_Charging>
3.62494

> <r_epik_Ionization_Penalty_Neutral>
2.0321e-10

> <r_epik_State_Penalty>
3.62558

> <r_epik_Charging_Adjusted_Penalty>
7.25052

> <i_epik_Tot_Q>
0

> <i_epik_Tot_abs_Q>
2

> <r_epik_Metal_State_Penalty>
0.530836

> <b_epik_Metal_Only>
1

> <s_lp_Force_Field>
OPLS_2005

> <r_lp_Energy>
15.0444

> <b_lp_Chiralities_Consistent>
1

> <s_lp_Variant>
AV-unprocessed.smi:703-14

> <Gold.Version>
5.8.1

> <Gold.Id.Protein>
6NUR|6NUR_protein|mol2

> <Gold.PLP.Fitness>
39.8665

> <Gold.PLP.PLP>
-29.3853

> <Gold.PLP.part.hbond>
-4.5433

> <Gold.PLP.part.metal>
0.0000

> <Gold.PLP.part.buried>
-3.9569

> <Gold.PLP.part.nonpolar>
-21.0903

> <Gold.PLP.part.repulsive>
0.0000

> <Gold.PLP.ligand.clash>
0.0000

> <Gold.PLP.ligand.torsion>
1.1236

> <Gold.PLP.Chemscore.Hbond>
3.8960

> <Gold.PLP.Chemscore.CHOScore>
0.0000

> <Gold.PLP.Chemscore.Metal>
0.0000

> <Gold.Chemscore.Hbonds>
donor molecule, donor type, donor heavy atom, donor atom, acceptor molecule, acceptor atom, score
      L1  H     3    37       P1  7948  2.00
      P1  H  6896  6909       L1    10  1.00
      P1  H  6931  6943       L1    16  0.98

> <Gold.PLP.Chemscore.Internal.Correction>
1.0404

> <Gold.Rescore>
     Score         DG    S(hbond)    S(metal)    S(lipo)     H(rot)  DE(clash)    DE(int)     intcor
     13.08     -15.50       2.11        0.00      61.18       1.63       0.01       2.41       ----

> <Gold.Chemscore.Fitness>
13.0756

> <Gold.Chemscore.DG>
-15.5007

> <Gold.Chemscore.ZeroCoef>
-5.4800

> <Gold.Chemscore.Hbond>
2.1092

> <Gold.Chemscore.Metal>
0.0000

> <Gold.Chemscore.Lipo>
61.1848

> <Gold.Chemscore.Internal_Hbond>
0.0000

> <Gold.Chemscore.DEClash>
0.0150

> <Gold.Chemscore.DEInternal>
2.4101

> <Gold.Chemscore.Rot>
1.6338

> <Gold.Chemscore.Internal.Correction>
   9.000000E+99

> <Gold.Chemscore.Hbonds>
donor molecule, donor type, donor heavy atom, donor atom, acceptor molecule, acceptor atom, score
      L1  H     3    37       P1  7948  0.60
      P1  H  6896  6909       L1    10  0.98
      P1  H  6931  6943       L1    16  0.24

> <Gold.Chemscore.Hbond.Weighted>
-7.0446

> <Gold.Chemscore.Metal.Weighted>
-0.0000

> <Gold.Chemscore.Lipo.Weighted>
-7.1586

> <Gold.Chemscore.Internal_Hbond.Weighted>
0.0000

> <Gold.Chemscore.DEClash.Weighted>
0.0150

> <Gold.Chemscore.DEInternal.Weighted>
2.4101

> <Gold.Chemscore.Rot.Weighted>
4.1825

> <Gold.Chemscore.Internal.Correction.Weighted>
   9.000000E+99

> <Gold.Protein.RotatedTorsions>
[ 6907 6896 6895 6894 ] final   58.81 input  -60.11 | X-H torsion
[ 7974 7965 7964 7962 ] final  175.68 input  175.53 | X-H torsion
[ 8008 7997 7996 7995 ] final  -53.48 input   59.86 | X-H torsion
[ 10167 10162 10161 10158 ] final   -4.72 input  -65.29 | X-H torsion
[ 10718 10713 10712 10709 ] final   16.86 input   66.30 | X-H torsion
[ 10763 10752 10751 10750 ] final   36.07 input  -60.55 | X-H torsion
[ 11005 11000 10999 10996 ] final   43.44 input  -57.11 | X-H torsion

> <Gold.Protein.ActiveResidues>
 VAL166  LYS551  ARG553  GLY616  TRP617  ASP618  TYR619  PRO620  LYS621  CYS622 
 ASP623  PHE694  ASN695  SER759  ASP760  ASP761  ALA762  ILE779  LEU786  VAL792 
 PHE793  MET794  SER795  GLU796  ALA797  LYS798  CYS799  TRP800  GLU811  SER814 

> <Gold.Protein.RotatedAtoms>
  152.3858  134.6520  160.0125 H   0  0  0  0  0  0  0  0  0  0  0  0  # atno 6907 bound_to 6896
  151.6769  133.3307  159.3218 H   0  0  0  0  0  0  0  0  0  0  0  0  # atno 6908 bound_to 6896
  150.7784  134.6751  159.6457 H   0  0  0  0  0  0  0  0  0  0  0  0  # atno 6909 bound_to 6896
  144.7197  139.9982  143.6440 H   0  0  0  0  0  0  0  0  0  0  0  0  # atno 7974 bound_to 7965
  154.4134  140.1199  156.5161 H   0  0  0  0  0  0  0  0  0  0  0  0  # atno 8008 bound_to 7997
  155.6750  140.3496  155.4813 H   0  0  0  0  0  0  0  0  0  0  0  0  # atno 8009 bound_to 7997
  155.9600  140.1121  157.0893 H   0  0  0  0  0  0  0  0  0  0  0  0  # atno 8010 bound_to 7997
  140.6938  143.6391  150.8452 H   0  0  0  0  0  0  0  0  0  0  0  0  # atno 10167 bound_to 10162
  157.0739  130.6359  149.5811 H   0  0  0  0  0  0  0  0  0  0  0  0  # atno 10718 bound_to 10713
  153.0092  135.6316  154.1926 H   0  0  0  0  0  0  0  0  0  0  0  0  # atno 10763 bound_to 10752
  154.1669  135.2820  155.3094 H   0  0  0  0  0  0  0  0  0  0  0  0  # atno 10764 bound_to 10752
  154.5938  135.5609  153.7366 H   0  0  0  0  0  0  0  0  0  0  0  0  # atno 10765 bound_to 10752
  140.1645  134.4300  155.8296 H   0  0  0  0  0  0  0  0  0  0  0  0  # atno 11005 bound_to 11000
  146.0356  139.3375  143.0728 LP  0  0  0  0  0  0  0  0  0  0  0  0  # atno 17320 bound_to 7965
  145.8398  140.9586  143.0805 LP  0  0  0  0  0  0  0  0  0  0  0  0  # atno 17321 bound_to 7965
  140.0106  143.5646  152.2840 LP  0  0  0  0  0  0  0  0  0  0  0  0  # atno 17342 bound_to 10162
  139.6369  144.7651  151.2420 LP  0  0  0  0  0  0  0  0  0  0  0  0  # atno 17343 bound_to 10162
  155.9942  130.5006  150.7413 LP  0  0  0  0  0  0  0  0  0  0  0  0  # atno 17370 bound_to 10713
  157.4856  131.0906  151.0487 LP  0  0  0  0  0  0  0  0  0  0  0  0  # atno 17371 bound_to 10713
  141.2212  133.6928  156.7653 LP  0  0  0  0  0  0  0  0  0  0  0  0  # atno 17394 bound_to 11000
  140.2450  134.8584  157.3611 LP  0  0  0  0  0  0  0  0  0  0  0  0  # atno 17395 bound_to 11000

$$$$
