AV-unprocessed.smi:1586|AV-procd|sdf|6377|dock9
  -GOLD-   22720 7 03D 1   1.00000     0.00000
 Structure written by MMmdl.
 46 47  0  0  0  0  0  0  0  0  1 V2000
  151.8404  144.8532  158.6970 C   0  0  0  0  0  0  0  0  0  0  0  0
  152.0051  143.4290  159.2474 C   0  0  0  0  0  0  0  0  0  0  0  0
  152.0686  142.3803  158.2315 N   0  0  0  0  0  0  0  0  0  0  0  0
  152.2380  141.0482  158.8093 C   0  0  0  0  0  0  0  0  0  0  0  0
  152.3033  139.9604  157.7212 C   0  0  0  0  0  0  0  0  0  0  0  0
  151.0977  139.9287  156.8780 N   0  0  0  0  0  0  0  0  0  0  0  0
  151.1689  138.8943  155.8199 C   0  0  2  0  0  0  0  0  0  0  0  0
  152.2158  139.2270  154.7265 C   0  0  0  0  0  0  0  0  0  0  0  0
  149.7992  138.6191  155.1331 C   0  0  0  0  0  0  0  0  0  0  0  0
  149.7143  137.2985  154.5147 N   0  0  0  0  0  0  0  0  0  0  0  0
  149.9977  136.1413  155.1302 C   0  0  0  0  0  0  0  0  0  0  0  0
  150.3584  136.0703  156.3049 O   0  0  0  0  0  0  0  0  0  0  0  0
  149.8373  135.0970  154.2999 N   0  0  0  0  0  0  0  0  0  0  0  0
  150.0389  133.7183  154.5677 C   0  0  0  0  0  0  0  0  0  0  0  0
  149.8629  132.6443  153.6470 C   0  0  0  0  0  0  0  0  0  0  0  0
  150.1818  131.5457  154.3939 C   0  0  0  0  0  0  0  0  0  0  0  0
  150.2230  130.0880  154.0870 C   0  0  0  0  0  0  0  0  0  0  0  0
  150.5207  131.9141  155.6584 O   0  0  0  0  0  0  0  0  0  0  0  0
  150.4267  133.3068  155.7609 N   0  0  0  0  0  0  0  0  0  0  0  0
  150.9161  141.2813  156.3277 C   0  0  0  0  0  0  0  0  0  0  0  0
  150.8535  142.3612  157.4232 C   0  0  0  0  0  0  0  0  0  0  0  0
  151.6928  145.5630  159.5110 H   0  0  0  0  0  0  0  0  0  0  0  0
  150.9751  144.9216  158.0371 H   0  0  0  0  0  0  0  0  0  0  0  0
  152.7181  145.1794  158.1397 H   0  0  0  0  0  0  0  0  0  0  0  0
  152.8891  143.3840  159.8853 H   0  0  0  0  0  0  0  0  0  0  0  0
  151.1542  143.2321  159.9010 H   0  0  0  0  0  0  0  0  0  0  0  0
  153.1567  141.0058  159.3932 H   0  0  0  0  0  0  0  0  0  0  0  0
  151.4196  140.8305  159.4976 H   0  0  0  0  0  0  0  0  0  0  0  0
  153.1897  140.1105  157.1026 H   0  0  0  0  0  0  0  0  0  0  0  0
  152.4358  139.0133  158.2391 H   0  0  0  0  0  0  0  0  0  0  0  0
  151.4871  137.9623  156.2895 H   0  0  0  0  0  0  0  0  0  0  0  0
  152.2259  138.4930  153.9219 H   0  0  0  0  0  0  0  0  0  0  0  0
  153.2327  139.2320  155.1163 H   0  0  0  0  0  0  0  0  0  0  0  0
  152.0209  140.2015  154.2778 H   0  0  0  0  0  0  0  0  0  0  0  0
  148.9669  138.6886  155.8319 H   0  0  0  0  0  0  0  0  0  0  0  0
  149.6151  139.3673  154.3617 H   0  0  0  0  0  0  0  0  0  0  0  0
  149.4245  137.2676  153.5481 H   0  0  0  0  0  0  0  0  0  0  0  0
  149.5346  135.3130  153.3616 H   0  0  0  0  0  0  0  0  0  0  0  0
  149.5569  132.6579  152.6121 H   0  0  0  0  0  0  0  0  0  0  0  0
  150.1578  129.9143  153.0128 H   0  0  0  0  0  0  0  0  0  0  0  0
  149.3922  129.5690  154.5650 H   0  0  0  0  0  0  0  0  0  0  0  0
  151.1517  129.6429  154.4445 H   0  0  0  0  0  0  0  0  0  0  0  0
  151.7213  141.5126  155.6284 H   0  0  0  0  0  0  0  0  0  0  0  0
  149.9842  141.3451  155.7692 H   0  0  0  0  0  0  0  0  0  0  0  0
  149.9826  142.1896  158.0582 H   0  0  0  0  0  0  0  0  0  0  0  0
  150.7087  143.3350  156.9543 H   0  0  0  0  0  0  0  0  0  0  0  0
  1  2  1  0  0  0  0
  1 22  1  0  0  0  0
  1 23  1  0  0  0  0
  1 24  1  0  0  0  0
  2  3  1  0  0  0  0
  2 25  1  0  0  0  0
  2 26  1  0  0  0  0
  3 21  1  0  0  0  0
  3  4  1  0  0  0  0
  4  5  1  0  0  0  0
  4 27  1  0  0  0  0
  4 28  1  0  0  0  0
  5  6  1  0  0  0  0
  5 29  1  0  0  0  0
  5 30  1  0  0  0  0
  6  7  1  0  0  0  0
  6 20  1  0  0  0  0
  7  8  1  0  0  0  0
  7  9  1  0  0  0  0
  7 31  1  0  0  0  0
  8 32  1  0  0  0  0
  8 33  1  0  0  0  0
  8 34  1  0  0  0  0
  9 10  1  0  0  0  0
  9 35  1  0  0  0  0
  9 36  1  0  0  0  0
 10 11  1  0  0  0  0
 10 37  1  0  0  0  0
 11 12  2  0  0  0  0
 11 13  1  0  0  0  0
 13 14  1  0  0  0  0
 13 38  1  0  0  0  0
 14 19  2  0  0  0  0
 14 15  1  0  0  0  0
 15 16  2  0  0  0  0
 15 39  1  0  0  0  0
 16 17  1  0  0  0  0
 16 18  1  0  0  0  0
 17 40  1  0  0  0  0
 17 41  1  0  0  0  0
 17 42  1  0  0  0  0
 18 19  1  0  0  0  0
 20 21  1  0  0  0  0
 20 43  1  0  0  0  0
 20 44  1  0  0  0  0
 21 45  1  0  0  0  0
 21 46  1  0  0  0  0
M  END
> <s_m_source_file>
AV-unprocessed.smi

> <i_m_source_file_index>
1586

> <i_lp_mmshare_version>
43012

> <i_f3d_flags>
0

> <s_epik_input>
W0NIM11bQ0gyXU4xW0NIMl1bQ0gyXU4oW0NIMl1bQ0gyXTEpW0NASF0oW0NIM10pW0NIMl1bTkhdQyg9TylbTkhdYzJbY0hdYyhbQ0gzXSlvbjI=

> <s_epik_cmdline>
J2VwaWtfcHl0aG9uJywgJy1waCcsICc3LjAnLCAnLXRuJywgJzgnLCAnLW1hJywgJzIwMCcsICctbWV0YWxfYmluZGluZycsICctaW1hZScsICc8aW5maWxlLm1hZT4nLCAnLW9tYWUnLCAnPG91dGZpbGUubWFlPic=

> <r_epik_Ionization_Penalty>
2.42597

> <r_epik_Ionization_Penalty_Charging>
0

> <r_epik_Ionization_Penalty_Neutral>
2.42597

> <r_epik_State_Penalty>
1.76326

> <r_epik_Charging_Adjusted_Penalty>
1.76326

> <i_epik_Tot_Q>
0

> <i_epik_Tot_abs_Q>
0

> <r_epik_Metal_State_Penalty>
1.7742

> <b_epik_Metal_Only>
0

> <s_lp_Force_Field>
OPLS_2005

> <r_lp_Energy>
40.1671

> <b_lp_Chiralities_Consistent>
1

> <s_lp_Variant>
AV-unprocessed.smi:1586-5

> <Gold.Version>
5.8.1

> <Gold.Id.Protein>
6NUR|6NUR_protein|mol2

> <Gold.PLP.Fitness>
43.2247

> <Gold.PLP.PLP>
-37.8842

> <Gold.PLP.part.hbond>
-2.0000

> <Gold.PLP.part.metal>
0.0000

> <Gold.PLP.part.buried>
-4.6421

> <Gold.PLP.part.nonpolar>
-31.9892

> <Gold.PLP.part.repulsive>
0.0620

> <Gold.PLP.ligand.clash>
0.0000

> <Gold.PLP.ligand.torsion>
0.3413

> <Gold.PLP.Chemscore.Hbond>
2.0000

> <Gold.PLP.Chemscore.CHOScore>
0.0000

> <Gold.PLP.Chemscore.Metal>
0.0000

> <Gold.Chemscore.Hbonds>
donor molecule, donor type, donor heavy atom, donor atom, acceptor molecule, acceptor atom, score
      L1  H    10    37       P1  7948  1.00
      L1  H    13    38       P1  7948  0.60

> <Gold.PLP.Chemscore.Internal.Correction>
0.0230

> <Gold.Rescore>
     Score         DG    S(hbond)    S(metal)    S(lipo)     H(rot)  DE(clash)    DE(int)     intcor
     15.31     -17.00       1.85        0.00      83.08       1.72       0.01       1.68       ----

> <Gold.Chemscore.Fitness>
15.3122

> <Gold.Chemscore.DG>
-16.9960

> <Gold.Chemscore.ZeroCoef>
-5.4800

> <Gold.Chemscore.Hbond>
1.8542

> <Gold.Chemscore.Metal>
0.0000

> <Gold.Chemscore.Lipo>
83.0829

> <Gold.Chemscore.Internal_Hbond>
0.0000

> <Gold.Chemscore.DEClash>
0.0073

> <Gold.Chemscore.DEInternal>
1.6764

> <Gold.Chemscore.Rot>
1.7178

> <Gold.Chemscore.Internal.Correction>
   9.000000E+99

> <Gold.Chemscore.Hbonds>
donor molecule, donor type, donor heavy atom, donor atom, acceptor molecule, acceptor atom, score
      L1  H    10    37       P1  7948  0.86
      L1  H    13    38       P1  7948  0.04

> <Gold.Chemscore.Hbond.Weighted>
-6.1929

> <Gold.Chemscore.Metal.Weighted>
-0.0000

> <Gold.Chemscore.Lipo.Weighted>
-9.7207

> <Gold.Chemscore.Internal_Hbond.Weighted>
0.0000

> <Gold.Chemscore.DEClash.Weighted>
0.0073

> <Gold.Chemscore.DEInternal.Weighted>
1.6764

> <Gold.Chemscore.Rot.Weighted>
4.3976

> <Gold.Chemscore.Internal.Correction.Weighted>
   9.000000E+99

> <Gold.Protein.RotatedTorsions>
[ 6907 6896 6895 6894 ] final -131.18 input  -60.11 | X-H torsion
[ 7974 7965 7964 7962 ] final -132.51 input  175.53 | X-H torsion
[ 8008 7997 7996 7995 ] final  -22.42 input   59.86 | X-H torsion
[ 10167 10162 10161 10158 ] final -174.24 input  -65.29 | X-H torsion
[ 10718 10713 10712 10709 ] final   15.76 input   66.30 | X-H torsion
[ 10763 10752 10751 10750 ] final -158.01 input  -60.55 | X-H torsion
[ 11005 11000 10999 10996 ] final   55.29 input  -57.11 | X-H torsion

> <Gold.Protein.ActiveResidues>
 VAL166  LYS551  ARG553  GLY616  TRP617  ASP618  TYR619  PRO620  LYS621  CYS622 
 ASP623  PHE694  ASN695  SER759  ASP760  ASP761  ALA762  ILE779  LEU786  VAL792 
 PHE793  MET794  SER795  GLU796  ALA797  LYS798  CYS799  TRP800  GLU811  SER814 

> <Gold.Protein.RotatedAtoms>
  150.9480  133.6581  159.2777 H   0  0  0  0  0  0  0  0  0  0  0  0  # atno 6907 bound_to 6896
  151.3947  135.0960  159.9547 H   0  0  0  0  0  0  0  0  0  0  0  0  # atno 6908 bound_to 6896
  152.5098  133.8987  159.7485 H   0  0  0  0  0  0  0  0  0  0  0  0  # atno 6909 bound_to 6896
  144.9279  140.7093  143.4924 H   0  0  0  0  0  0  0  0  0  0  0  0  # atno 7974 bound_to 7965
  154.4645  140.2008  156.0155 H   0  0  0  0  0  0  0  0  0  0  0  0  # atno 8008 bound_to 7997
  156.0901  140.3259  155.7776 H   0  0  0  0  0  0  0  0  0  0  0  0  # atno 8009 bound_to 7997
  155.4970  140.0551  157.2936 H   0  0  0  0  0  0  0  0  0  0  0  0  # atno 8010 bound_to 7997
  139.5644  144.1790  152.1290 H   0  0  0  0  0  0  0  0  0  0  0  0  # atno 10167 bound_to 10162
  157.0582  130.6298  149.5781 H   0  0  0  0  0  0  0  0  0  0  0  0  # atno 10718 bound_to 10713
  154.7591  135.3113  154.8413 H   0  0  0  0  0  0  0  0  0  0  0  0  # atno 10763 bound_to 10752
  153.9179  135.6799  153.4753 H   0  0  0  0  0  0  0  0  0  0  0  0  # atno 10764 bound_to 10752
  153.1190  135.4831  154.9094 H   0  0  0  0  0  0  0  0  0  0  0  0  # atno 10765 bound_to 10752
  140.0618  134.5591  155.9143 H   0  0  0  0  0  0  0  0  0  0  0  0  # atno 11005 bound_to 11000
  145.3189  139.1794  143.4598 LP  0  0  0  0  0  0  0  0  0  0  0  0  # atno 17320 bound_to 7965
  146.3234  140.3204  142.8633 LP  0  0  0  0  0  0  0  0  0  0  0  0  # atno 17321 bound_to 7965
  140.1310  144.5288  150.6802 LP  0  0  0  0  0  0  0  0  0  0  0  0  # atno 17342 bound_to 10162
  140.6927  143.2385  151.5087 LP  0  0  0  0  0  0  0  0  0  0  0  0  # atno 17343 bound_to 10162
  155.9986  130.5061  150.7579 LP  0  0  0  0  0  0  0  0  0  0  0  0  # atno 17370 bound_to 10713
  157.4976  131.0916  151.0353 LP  0  0  0  0  0  0  0  0  0  0  0  0  # atno 17371 bound_to 10713
  141.1976  133.6597  156.5752 LP  0  0  0  0  0  0  0  0  0  0  0  0  # atno 17394 bound_to 11000
  140.3758  134.7566  157.4629 LP  0  0  0  0  0  0  0  0  0  0  0  0  # atno 17395 bound_to 11000

$$$$
