AV-unprocessed.smi:2057|AV-procd|sdf|8342|dock5
  -GOLD-   2272011 13D 1   1.00000     0.00000
 Structure written by MMmdl.
 45 47  0  0  0  0  0  0  0  0  2 V2000
  146.2380  143.1446  155.5284 C   0  0  0  0  0  0  0  0  0  0  0  0
  146.8078  142.3056  154.5340 O   0  0  0  0  0  0  0  0  0  0  0  0
  147.9238  141.5681  154.8667 C   0  0  0  0  0  0  0  0  0  0  0  0
  148.3317  140.5773  153.9549 C   0  0  0  0  0  0  0  0  0  0  0  0
  149.4662  139.7857  154.2088 C   0  0  0  0  0  0  0  0  0  0  0  0
  150.2213  139.9644  155.3942 C   0  0  0  0  0  0  0  0  0  0  0  0
  151.3539  139.2321  155.6899 O   0  0  0  0  0  0  0  0  0  0  0  0
  151.7898  138.2534  154.7579 C   0  0  0  0  0  0  0  0  0  0  0  0
  149.8071  140.9475  156.3259 C   0  0  0  0  0  0  0  0  0  0  0  0
  150.6032  141.1645  157.6095 C   0  0  2  0  0  0  0  0  0  0  0  0
  149.7972  141.1356  158.7726 O   0  0  0  0  0  0  0  0  0  0  0  0
  151.3967  142.4842  157.5485 C   0  0  0  0  0  0  0  0  0  0  0  0
  151.9209  142.8963  158.8593 N   0  0  0  0  0  0  0  0  0  0  0  0
  151.8740  144.1131  159.4727 C   0  0  0  0  0  0  0  0  0  0  0  0
  151.2488  145.3576  158.9259 C   0  0  0  0  0  0  0  0  0  0  0  0
  149.8395  145.3625  159.0187 O   0  0  0  0  0  0  0  0  0  0  0  0
  152.4981  143.9793  160.6779 N   0  3  0  0  0  0  0  0  0  0  0  0
  152.9498  142.6685  160.8350 C   0  0  0  0  0  0  0  0  0  0  0  0
  153.6348  142.0600  161.8822 C   0  0  0  0  0  0  0  0  0  0  0  0
  153.9520  140.6950  161.7226 C   0  0  0  0  0  0  0  0  0  0  0  0
  153.5910  139.9890  160.5567 C   0  0  0  0  0  0  0  0  0  0  0  0
  152.8957  140.6165  159.5022 C   0  0  0  0  0  0  0  0  0  0  0  0
  152.5839  141.9659  159.6686 C   0  0  0  0  0  0  0  0  0  0  0  0
  148.6738  141.7477  156.0537 C   0  0  0  0  0  0  0  0  0  0  0  0
  145.3708  143.6576  155.1126 H   0  0  0  0  0  0  0  0  0  0  0  0
  146.9447  143.9070  155.8588 H   0  0  0  0  0  0  0  0  0  0  0  0
  145.8977  142.5688  156.3901 H   0  0  0  0  0  0  0  0  0  0  0  0
  147.7709  140.4253  153.0443 H   0  0  0  0  0  0  0  0  0  0  0  0
  149.7379  139.0469  153.4706 H   0  0  0  0  0  0  0  0  0  0  0  0
  152.6999  137.7837  155.1306 H   0  0  0  0  0  0  0  0  0  0  0  0
  152.0224  138.6993  153.7900 H   0  0  0  0  0  0  0  0  0  0  0  0
  151.0436  137.4686  154.6259 H   0  0  0  0  0  0  0  0  0  0  0  0
  151.3030  140.3368  157.7258 H   0  0  0  0  0  0  0  0  0  0  0  0
  148.8933  141.2247  158.5110 H   0  0  0  0  0  0  0  0  0  0  0  0
  152.2559  142.3686  156.8866 H   0  0  0  0  0  0  0  0  0  0  0  0
  150.7973  143.2900  157.1245 H   0  0  0  0  0  0  0  0  0  0  0  0
  151.6390  146.2227  159.4629 H   0  0  0  0  0  0  0  0  0  0  0  0
  151.5353  145.4696  157.8799 H   0  0  0  0  0  0  0  0  0  0  0  0
  149.4874  145.7065  158.2115 H   0  0  0  0  0  0  0  0  0  0  0  0
  153.9139  142.5996  162.7754 H   0  0  0  0  0  0  0  0  0  0  0  0
  154.4844  140.1798  162.5091 H   0  0  0  0  0  0  0  0  0  0  0  0
  153.8537  138.9448  160.4680 H   0  0  0  0  0  0  0  0  0  0  0  0
  152.6302  140.0674  158.6112 H   0  0  0  0  0  0  0  0  0  0  0  0
  148.3929  142.5046  156.7696 H   0  0  0  0  0  0  0  0  0  0  0  0
  152.6053  144.7368  161.3403 H   0  0  0  0  0  0  0  0  0  0  0  0
  1  2  1  0  0  0  0
  1 25  1  0  0  0  0
  1 26  1  0  0  0  0
  1 27  1  0  0  0  0
  2  3  1  0  0  0  0
  3 24  1  0  0  0  0
  3  4  2  0  0  0  0
  4  5  1  0  0  0  0
  4 28  1  0  0  0  0
  5  6  2  0  0  0  0
  5 29  1  0  0  0  0
  6  7  1  0  0  0  0
  6  9  1  0  0  0  0
  7  8  1  0  0  0  0
  8 30  1  0  0  0  0
  8 31  1  0  0  0  0
  8 32  1  0  0  0  0
  9 10  1  0  0  0  0
  9 24  2  0  0  0  0
 10 11  1  0  0  0  0
 10 12  1  0  0  0  0
 10 33  1  0  0  0  0
 11 34  1  0  0  0  0
 12 13  1  0  0  0  0
 12 35  1  0  0  0  0
 12 36  1  0  0  0  0
 13 23  1  0  0  0  0
 13 14  1  0  0  0  0
 14 15  1  0  0  0  0
 14 17  2  0  0  0  0
 15 16  1  0  0  0  0
 15 37  1  0  0  0  0
 15 38  1  0  0  0  0
 16 39  1  0  0  0  0
 17 18  1  0  0  0  0
 17 45  1  0  0  0  0
 18 23  2  0  0  0  0
 18 19  1  0  0  0  0
 19 20  2  0  0  0  0
 19 40  1  0  0  0  0
 20 21  1  0  0  0  0
 20 41  1  0  0  0  0
 21 22  2  0  0  0  0
 21 42  1  0  0  0  0
 22 23  1  0  0  0  0
 22 43  1  0  0  0  0
 24 44  1  0  0  0  0
M  CHG  1  17   1
M  END
> <s_m_source_file>
AV-unprocessed.smi

> <i_m_source_file_index>
2057

> <i_lp_mmshare_version>
43012

> <i_f3d_flags>
0

> <s_epik_input>
W0NIM11PYzFbY0hdW2NIXWMoT1tDSDNdKWMoW2NIXTEpW0NASF0oW09IXSlbQ0gyXW4oYyhuMilbQ0gyXVtPSF0pYyhjMjMpW2NIXVtjSF1bY0hdW2NIXTM=

> <s_epik_cmdline>
J2VwaWtfcHl0aG9uJywgJy1waCcsICc3LjAnLCAnLXRuJywgJzgnLCAnLW1hJywgJzIwMCcsICctbWV0YWxfYmluZGluZycsICctaW1hZScsICc8aW5maWxlLm1hZT4nLCAnLW9tYWUnLCAnPG91dGZpbGUubWFlPic=

> <r_lp_tautomer_probability>
1

> <r_epik_Ionization_Penalty>
1.35643

> <r_epik_Ionization_Penalty_Charging>
1.35557

> <r_epik_Ionization_Penalty_Neutral>
0.000857128

> <r_epik_State_Penalty>
1.43401

> <r_epik_Charging_Adjusted_Penalty>
2.78958

> <i_epik_Tot_Q>
1

> <i_epik_Tot_abs_Q>
1

> <r_epik_Metal_State_Penalty>
5.47166

> <b_epik_Metal_Only>
0

> <s_lp_Force_Field>
OPLS_2005

> <r_lp_Energy>
20.8096

> <b_lp_Chiralities_Consistent>
1

> <s_lp_Variant>
AV-unprocessed.smi:2057-3

> <Gold.Version>
5.8.1

> <Gold.Id.Protein>
6NUR|6NUR_protein|mol2

> <Gold.PLP.Fitness>
50.5833

> <Gold.PLP.PLP>
-49.0921

> <Gold.PLP.part.hbond>
-2.0211

> <Gold.PLP.part.metal>
0.0000

> <Gold.PLP.part.buried>
-2.3754

> <Gold.PLP.part.nonpolar>
-44.9096

> <Gold.PLP.part.repulsive>
0.2037

> <Gold.PLP.ligand.clash>
0.0000

> <Gold.PLP.ligand.torsion>
0.8012

> <Gold.PLP.Chemscore.Hbond>
1.0000

> <Gold.PLP.Chemscore.CHOScore>
0.0000

> <Gold.PLP.Chemscore.Metal>
0.0000

> <Gold.Chemscore.Hbonds>
donor molecule, donor type, donor heavy atom, donor atom, acceptor molecule, acceptor atom, score
      L1  H    16    39       P1  8029  0.88

> <Gold.PLP.Chemscore.Internal.Correction>
0.0936

> <Gold.Rescore>
     Score         DG    S(hbond)    S(metal)    S(lipo)     H(rot)  DE(clash)    DE(int)     intcor
     13.87     -14.51       0.99        0.00     120.08       3.25       0.10       0.53       ----

> <Gold.Chemscore.Fitness>
13.8748

> <Gold.Chemscore.DG>
-14.5111

> <Gold.Chemscore.ZeroCoef>
-5.4800

> <Gold.Chemscore.Hbond>
0.9915

> <Gold.Chemscore.Metal>
0.0000

> <Gold.Chemscore.Lipo>
120.0777

> <Gold.Chemscore.Internal_Hbond>
0.0000

> <Gold.Chemscore.DEClash>
0.1047

> <Gold.Chemscore.DEInternal>
0.5316

> <Gold.Chemscore.Rot>
3.2537

> <Gold.Chemscore.Internal.Correction>
   9.000000E+99

> <Gold.Chemscore.Hbonds>
donor molecule, donor type, donor heavy atom, donor atom, acceptor molecule, acceptor atom, score
      L1  H    16    39       P1  8029  0.61

> <Gold.Chemscore.Hbond.Weighted>
-3.3115

> <Gold.Chemscore.Metal.Weighted>
-0.0000

> <Gold.Chemscore.Lipo.Weighted>
-14.0491

> <Gold.Chemscore.Internal_Hbond.Weighted>
0.0000

> <Gold.Chemscore.DEClash.Weighted>
0.1047

> <Gold.Chemscore.DEInternal.Weighted>
0.5316

> <Gold.Chemscore.Rot.Weighted>
8.3295

> <Gold.Chemscore.Internal.Correction.Weighted>
   9.000000E+99

> <Gold.Protein.RotatedTorsions>
[ 6907 6896 6895 6894 ] final   66.06 input  -60.11 | X-H torsion
[ 7974 7965 7964 7962 ] final  -23.72 input  175.53 | X-H torsion
[ 8008 7997 7996 7995 ] final  -37.89 input   59.86 | X-H torsion
[ 10167 10162 10161 10158 ] final  176.43 input  -65.29 | X-H torsion
[ 10718 10713 10712 10709 ] final  -81.11 input   66.30 | X-H torsion
[ 10763 10752 10751 10750 ] final   69.67 input  -60.55 | X-H torsion
[ 11005 11000 10999 10996 ] final   77.97 input  -57.11 | X-H torsion

> <Gold.Protein.ActiveResidues>
 VAL166  LYS551  ARG553  GLY616  TRP617  ASP618  TYR619  PRO620  LYS621  CYS622 
 ASP623  PHE694  ASN695  SER759  ASP760  ASP761  ALA762  ILE779  LEU786  VAL792 
 PHE793  MET794  SER795  GLU796  ALA797  LYS798  CYS799  TRP800  GLU811  SER814 

> <Gold.Protein.RotatedAtoms>
  152.4454  134.5506  159.9865 H   0  0  0  0  0  0  0  0  0  0  0  0  # atno 6907 bound_to 6896
  151.5592  133.3400  159.2976 H   0  0  0  0  0  0  0  0  0  0  0  0  # atno 6908 bound_to 6896
  150.8369  134.7678  159.6963 H   0  0  0  0  0  0  0  0  0  0  0  0  # atno 6909 bound_to 6896
  146.1599  140.4654  142.8576 H   0  0  0  0  0  0  0  0  0  0  0  0  # atno 7974 bound_to 7965
  154.4045  140.1592  156.2611 H   0  0  0  0  0  0  0  0  0  0  0  0  # atno 8008 bound_to 7997
  155.9036  140.3431  155.6022 H   0  0  0  0  0  0  0  0  0  0  0  0  # atno 8009 bound_to 7997
  155.7419  140.0793  157.2232 H   0  0  0  0  0  0  0  0  0  0  0  0  # atno 8010 bound_to 7997
  139.5214  144.2917  152.0458 H   0  0  0  0  0  0  0  0  0  0  0  0  # atno 10167 bound_to 10162
  156.0057  130.4594  150.3902 H   0  0  0  0  0  0  0  0  0  0  0  0  # atno 10718 bound_to 10713
  153.0300  135.5202  154.7324 H   0  0  0  0  0  0  0  0  0  0  0  0  # atno 10763 bound_to 10752
  154.6348  135.2905  155.0176 H   0  0  0  0  0  0  0  0  0  0  0  0  # atno 10764 bound_to 10752
  154.1115  135.6621  153.4938 H   0  0  0  0  0  0  0  0  0  0  0  0  # atno 10765 bound_to 10752
  139.9232  134.7726  156.1590 H   0  0  0  0  0  0  0  0  0  0  0  0  # atno 11005 bound_to 11000
  144.8013  140.6218  143.6476 LP  0  0  0  0  0  0  0  0  0  0  0  0  # atno 17320 bound_to 7965
  145.4614  139.1512  143.3864 LP  0  0  0  0  0  0  0  0  0  0  0  0  # atno 17321 bound_to 7965
  140.2367  144.4312  150.6277 LP  0  0  0  0  0  0  0  0  0  0  0  0  # atno 17342 bound_to 10162
  140.6318  143.2188  151.6479 LP  0  0  0  0  0  0  0  0  0  0  0  0  # atno 17343 bound_to 10162
  157.1977  131.0430  151.2667 LP  0  0  0  0  0  0  0  0  0  0  0  0  # atno 17370 bound_to 10713
  157.4004  130.7330  149.6763 LP  0  0  0  0  0  0  0  0  0  0  0  0  # atno 17371 bound_to 10713
  141.0769  133.6771  156.2256 LP  0  0  0  0  0  0  0  0  0  0  0  0  # atno 17394 bound_to 11000
  140.6413  134.5163  157.5569 LP  0  0  0  0  0  0  0  0  0  0  0  0  # atno 17395 bound_to 11000

$$$$
