AV-unprocessed.smi:2742|AV-procd|sdf|10562|dock3
  -GOLD-   2272015 13D 1   1.00000     0.00000
 Structure written by MMmdl.
 37 38  0  0  0  0  0  0  0  0  1 V2000
  143.8379  145.8703  155.8247 C   0  0  0  0  0  0  0  0  0  0  0  0
  143.7808  144.1630  156.4324 S   0  0  0  0  0  0  0  0  0  0  0  0
  145.3454  143.5146  155.7745 C   0  0  2  0  0  0  0  0  0  0  0  0
  145.3027  143.4756  154.2370 C   0  0  0  0  0  0  0  0  0  0  0  0
  146.6078  142.9142  153.6525 C   0  0  0  0  0  0  0  0  0  0  0  0
  146.9148  141.5170  154.2168 C   0  0  0  0  0  0  0  0  0  0  0  0
  146.9464  141.5071  155.7600 C   0  0  1  0  0  0  0  0  0  0  0  0
  148.1218  142.2112  156.2723 N   0  0  0  0  0  0  0  0  0  0  0  0
  149.0536  141.6835  157.0797 C   0  0  0  0  0  0  0  0  0  0  0  0
  149.0076  140.5280  157.5003 O   0  0  0  0  0  0  0  0  0  0  0  0
  150.0140  142.5812  157.3612 N   0  0  0  0  0  0  0  0  0  0  0  0
  151.1801  142.4339  158.1634 C   0  0  0  0  0  0  0  0  0  0  0  0
  151.5834  141.2239  158.7800 C   0  0  0  0  0  0  0  0  0  0  0  0
  152.7715  141.2154  159.5382 C   0  0  0  0  0  0  0  0  0  0  0  0
  153.5560  142.3008  159.7058 N   0  0  0  0  0  0  0  0  0  0  0  0
  153.1751  143.4493  159.1084 C   0  0  0  0  0  0  0  0  0  0  0  0
  152.0060  143.5662  158.3301 C   0  0  0  0  0  0  0  0  0  0  0  0
  151.6846  144.7502  157.7546 F   0  0  0  0  0  0  0  0  0  0  0  0
  145.6565  142.1154  156.3464 C   0  0  0  0  0  0  0  0  0  0  0  0
  142.9322  146.4004  156.1191 H   0  0  0  0  0  0  0  0  0  0  0  0
  143.9074  145.8858  154.7370 H   0  0  0  0  0  0  0  0  0  0  0  0
  144.6941  146.4023  156.2380 H   0  0  0  0  0  0  0  0  0  0  0  0
  146.1325  144.2082  156.0726 H   0  0  0  0  0  0  0  0  0  0  0  0
  144.4635  142.8618  153.9066 H   0  0  0  0  0  0  0  0  0  0  0  0
  145.1266  144.4772  153.8431 H   0  0  0  0  0  0  0  0  0  0  0  0
  146.5367  142.8668  152.5655 H   0  0  0  0  0  0  0  0  0  0  0  0
  147.4315  143.5930  153.8767 H   0  0  0  0  0  0  0  0  0  0  0  0
  146.1488  140.8209  153.8729 H   0  0  0  0  0  0  0  0  0  0  0  0
  147.8583  141.1488  153.8120 H   0  0  0  0  0  0  0  0  0  0  0  0
  147.0007  140.4700  156.0962 H   0  0  0  0  0  0  0  0  0  0  0  0
  148.2373  143.1703  155.9792 H   0  0  0  0  0  0  0  0  0  0  0  0
  149.8758  143.5063  156.9812 H   0  0  0  0  0  0  0  0  0  0  0  0
  151.0234  140.3076  158.6838 H   0  0  0  0  0  0  0  0  0  0  0  0
  153.1031  140.3075  160.0199 H   0  0  0  0  0  0  0  0  0  0  0  0
  153.8227  144.3014  159.2533 H   0  0  0  0  0  0  0  0  0  0  0  0
  145.7311  142.1534  157.4331 H   0  0  0  0  0  0  0  0  0  0  0  0
  144.8216  141.4485  156.1261 H   0  0  0  0  0  0  0  0  0  0  0  0
  1  2  1  0  0  0  0
  1 20  1  0  0  0  0
  1 21  1  0  0  0  0
  1 22  1  0  0  0  0
  2  3  1  0  0  0  0
  3 19  1  0  0  0  0
  3  4  1  0  0  0  0
  3 23  1  0  0  0  0
  4  5  1  0  0  0  0
  4 24  1  0  0  0  0
  4 25  1  0  0  0  0
  5  6  1  0  0  0  0
  5 26  1  0  0  0  0
  5 27  1  0  0  0  0
  6  7  1  0  0  0  0
  6 28  1  0  0  0  0
  6 29  1  0  0  0  0
  7  8  1  0  0  0  0
  7 19  1  0  0  0  0
  7 30  1  0  0  0  0
  8  9  1  0  0  0  0
  8 31  1  0  0  0  0
  9 10  2  0  0  0  0
  9 11  1  0  0  0  0
 11 12  1  0  0  0  0
 11 32  1  0  0  0  0
 12 17  1  0  0  0  0
 12 13  2  0  0  0  0
 13 14  1  0  0  0  0
 13 33  1  0  0  0  0
 14 15  2  0  0  0  0
 14 34  1  0  0  0  0
 15 16  1  0  0  0  0
 16 17  2  0  0  0  0
 16 35  1  0  0  0  0
 17 18  1  0  0  0  0
 19 36  1  0  0  0  0
 19 37  1  0  0  0  0
M  END
> <s_m_source_file>
AV-unprocessed.smi

> <i_m_source_file_index>
2742

> <i_lp_mmshare_version>
43012

> <i_f3d_flags>
0

> <s_epik_input>
W0NIM11TW0NAQEhdMVtDSDJdW0NIMl1bQ0gyXVtDQEhdKFtDSDJdMSlbTkhdQyg9TylbTkhdYzJbY0hdW2NIXW5bY0hdYzJG

> <s_epik_cmdline>
J2VwaWtfcHl0aG9uJywgJy1waCcsICc3LjAnLCAnLXRuJywgJzgnLCAnLW1hJywgJzIwMCcsICctbWV0YWxfYmluZGluZycsICctaW1hZScsICc8aW5maWxlLm1hZT4nLCAnLW9tYWUnLCAnPG91dGZpbGUubWFlPic=

> <r_epik_Ionization_Penalty>
0.00344009

> <r_epik_Ionization_Penalty_Charging>
0

> <r_epik_Ionization_Penalty_Neutral>
0.00344009

> <r_epik_State_Penalty>
0.0024078

> <r_epik_Charging_Adjusted_Penalty>
0.0024078

> <i_epik_Tot_Q>
0

> <i_epik_Tot_abs_Q>
0

> <r_epik_Metal_State_Penalty>
-0

> <b_epik_Metal_Only>
0

> <s_lp_Force_Field>
OPLS_2005

> <r_lp_Energy>
13.9457

> <b_lp_Chiralities_Consistent>
1

> <s_lp_Variant>
AV-unprocessed.smi:2742-1

> <Gold.Version>
5.8.1

> <Gold.Id.Protein>
6NUR|6NUR_protein|mol2

> <Gold.PLP.Fitness>
42.8473

> <Gold.PLP.PLP>
-36.9705

> <Gold.PLP.part.hbond>
-2.0000

> <Gold.PLP.part.metal>
0.0000

> <Gold.PLP.part.buried>
-6.7131

> <Gold.PLP.part.nonpolar>
-28.1218

> <Gold.PLP.part.repulsive>
0.0670

> <Gold.PLP.ligand.clash>
0.0000

> <Gold.PLP.ligand.torsion>
0.0559

> <Gold.PLP.Chemscore.Hbond>
1.9920

> <Gold.PLP.Chemscore.CHOScore>
0.0000

> <Gold.PLP.Chemscore.Metal>
0.0000

> <Gold.Chemscore.Hbonds>
donor molecule, donor type, donor heavy atom, donor atom, acceptor molecule, acceptor atom, score
      L1  H     8    31       P1  8028  1.00
      L1  H    11    32       P1  8028  0.97

> <Gold.PLP.Chemscore.Internal.Correction>
0.0126

> <Gold.Rescore>
     Score         DG    S(hbond)    S(metal)    S(lipo)     H(rot)  DE(clash)    DE(int)     intcor
     17.00     -19.03       1.85        0.00      88.99       1.19       0.77       1.27       ----

> <Gold.Chemscore.Fitness>
16.9990

> <Gold.Chemscore.DG>
-19.0306

> <Gold.Chemscore.ZeroCoef>
-5.4800

> <Gold.Chemscore.Hbond>
1.8498

> <Gold.Chemscore.Metal>
0.0000

> <Gold.Chemscore.Lipo>
88.9931

> <Gold.Chemscore.Internal_Hbond>
0.0000

> <Gold.Chemscore.DEClash>
0.7655

> <Gold.Chemscore.DEInternal>
1.2660

> <Gold.Chemscore.Rot>
1.1875

> <Gold.Chemscore.Internal.Correction>
   9.000000E+99

> <Gold.Chemscore.Hbonds>
donor molecule, donor type, donor heavy atom, donor atom, acceptor molecule, acceptor atom, score
      L1  H     8    31       P1  8028  0.78
      L1  H    11    32       P1  8028  0.84

> <Gold.Chemscore.Hbond.Weighted>
-6.1784

> <Gold.Chemscore.Metal.Weighted>
-0.0000

> <Gold.Chemscore.Lipo.Weighted>
-10.4122

> <Gold.Chemscore.Internal_Hbond.Weighted>
0.0000

> <Gold.Chemscore.DEClash.Weighted>
0.7655

> <Gold.Chemscore.DEInternal.Weighted>
1.2660

> <Gold.Chemscore.Rot.Weighted>
3.0400

> <Gold.Chemscore.Internal.Correction.Weighted>
   9.000000E+99

> <Gold.Protein.RotatedTorsions>
[ 6907 6896 6895 6894 ] final  -41.02 input  -60.11 | X-H torsion
[ 7974 7965 7964 7962 ] final  122.34 input  175.53 | X-H torsion
[ 8008 7997 7996 7995 ] final  164.87 input   59.86 | X-H torsion
[ 10167 10162 10161 10158 ] final  130.54 input  -65.29 | X-H torsion
[ 10718 10713 10712 10709 ] final   64.02 input   66.30 | X-H torsion
[ 10763 10752 10751 10750 ] final   50.25 input  -60.55 | X-H torsion
[ 11005 11000 10999 10996 ] final    6.66 input  -57.11 | X-H torsion

> <Gold.Protein.ActiveResidues>
 VAL166  LYS551  ARG553  GLY616  TRP617  ASP618  TYR619  PRO620  LYS621  CYS622 
 ASP623  PHE694  ASN695  SER759  ASP760  ASP761  ALA762  ILE779  LEU786  VAL792 
 PHE793  MET794  SER795  GLU796  ALA797  LYS798  CYS799  TRP800  GLU811  SER814 

> <Gold.Protein.RotatedAtoms>
  150.9716  134.9087  159.7790 H   0  0  0  0  0  0  0  0  0  0  0  0  # atno 6907 bound_to 6896
  152.5192  134.3534  159.9269 H   0  0  0  0  0  0  0  0  0  0  0  0  # atno 6908 bound_to 6896
  151.3543  133.3873  159.2718 H   0  0  0  0  0  0  0  0  0  0  0  0  # atno 6909 bound_to 6896
  145.1087  139.3467  143.4774 H   0  0  0  0  0  0  0  0  0  0  0  0  # atno 7974 bound_to 7965
  156.1845  140.1685  156.8211 H   0  0  0  0  0  0  0  0  0  0  0  0  # atno 8008 bound_to 7997
  154.5398  140.0739  156.8524 H   0  0  0  0  0  0  0  0  0  0  0  0  # atno 8009 bound_to 7997
  155.3237  140.3375  155.4243 H   0  0  0  0  0  0  0  0  0  0  0  0  # atno 8010 bound_to 7997
  139.5425  144.6743  151.4579 H   0  0  0  0  0  0  0  0  0  0  0  0  # atno 10167 bound_to 10162
  157.6011  130.9137  149.9792 H   0  0  0  0  0  0  0  0  0  0  0  0  # atno 10718 bound_to 10713
  152.9785  135.5885  154.4221 H   0  0  0  0  0  0  0  0  0  0  0  0  # atno 10763 bound_to 10752
  154.3845  135.2767  155.2194 H   0  0  0  0  0  0  0  0  0  0  0  0  # atno 10764 bound_to 10752
  154.4093  135.6085  153.5997 H   0  0  0  0  0  0  0  0  0  0  0  0  # atno 10765 bound_to 10752
  140.5570  134.0228  155.7957 H   0  0  0  0  0  0  0  0  0  0  0  0  # atno 11005 bound_to 11000
  146.3527  140.0997  142.8608 LP  0  0  0  0  0  0  0  0  0  0  0  0  # atno 17320 bound_to 7965
  145.0871  140.9260  143.4791 LP  0  0  0  0  0  0  0  0  0  0  0  0  # atno 17321 bound_to 7965
  140.6661  143.8396  150.6943 LP  0  0  0  0  0  0  0  0  0  0  0  0  # atno 17342 bound_to 10162
  140.1805  143.4119  152.1936 LP  0  0  0  0  0  0  0  0  0  0  0  0  # atno 17343 bound_to 10162
  156.1085  130.3651  150.0091 LP  0  0  0  0  0  0  0  0  0  0  0  0  # atno 17370 bound_to 10713
  156.8193  130.9353  151.3642 LP  0  0  0  0  0  0  0  0  0  0  0  0  # atno 17371 bound_to 10713
  141.1137  133.9575  157.2862 LP  0  0  0  0  0  0  0  0  0  0  0  0  # atno 17394 bound_to 11000
  139.9426  135.0189  156.8756 LP  0  0  0  0  0  0  0  0  0  0  0  0  # atno 17395 bound_to 11000

$$$$
