AV-unprocessed.smi:2727|AV-procd|sdf|10524|dock4
  -GOLD-   2272014563D 1   1.00000     0.00000
 Structure written by MMmdl.
 39 40  0  0  0  0  0  0  0  0  2 V2000
  149.2973  140.0784  156.0028 O   0  0  0  0  0  0  0  0  0  0  0  0
  149.0110  141.2042  155.5887 C   0  0  0  0  0  0  0  0  0  0  0  0
  149.3844  142.2851  156.2865 N   0  0  0  0  0  0  0  0  0  0  0  0
  150.1295  142.2610  157.5417 C   0  0  0  0  0  0  0  0  0  0  0  0
  151.4105  141.4106  157.4259 C   0  0  0  0  0  0  0  0  0  0  0  0
  152.3166  141.4441  158.6735 C   0  0  0  0  0  0  0  0  0  0  0  0
  152.4739  140.4085  159.3226 O   0  0  0  0  0  0  0  0  0  0  0  0
  152.9175  142.6069  159.0285 N   0  0  0  0  0  0  0  0  0  0  0  0
  153.7135  142.7118  160.2577 C   0  0  0  0  0  0  0  0  0  0  0  0
  152.8290  142.9457  161.4995 C   0  0  0  0  0  0  0  0  0  0  0  0
  151.5748  143.8209  161.2793 C   0  0  0  0  0  0  0  0  0  0  0  0
  151.7795  145.0530  160.3750 C   0  0  0  0  0  0  0  0  0  0  0  0
  151.6577  144.7444  158.8672 C   0  0  0  0  0  0  0  0  0  0  0  0
  152.7973  143.8770  158.2993 C   0  0  0  0  0  0  0  0  0  0  0  0
  148.3311  141.4944  154.4564 N   0  5  0  0  0  0  0  0  0  0  0  0
  147.9176  140.5016  153.6523 C   0  0  0  0  0  0  0  0  0  0  0  0
  148.2732  139.2180  153.7325 N   0  0  0  0  0  0  0  0  0  0  0  0
  147.6088  138.5753  152.6995 C   0  0  0  0  0  0  0  0  0  0  0  0
  146.8751  139.5126  152.0248 C   0  0  0  0  0  0  0  0  0  0  0  0
  147.0648  140.7321  152.6138 O   0  0  0  0  0  0  0  0  0  0  0  0
  149.1269  143.1895  155.9198 H   0  0  0  0  0  0  0  0  0  0  0  0
  150.3704  143.2805  157.8475 H   0  0  0  0  0  0  0  0  0  0  0  0
  149.4906  141.8446  158.3218 H   0  0  0  0  0  0  0  0  0  0  0  0
  151.1378  140.3721  157.2368 H   0  0  0  0  0  0  0  0  0  0  0  0
  151.9573  141.7556  156.5493 H   0  0  0  0  0  0  0  0  0  0  0  0
  154.3331  141.8247  160.4004 H   0  0  0  0  0  0  0  0  0  0  0  0
  154.4271  143.5325  160.1788 H   0  0  0  0  0  0  0  0  0  0  0  0
  152.5045  141.9820  161.8942 H   0  0  0  0  0  0  0  0  0  0  0  0
  153.4462  143.3889  162.2813 H   0  0  0  0  0  0  0  0  0  0  0  0
  150.7670  143.2093  160.8745 H   0  0  0  0  0  0  0  0  0  0  0  0
  151.2217  144.1521  162.2563 H   0  0  0  0  0  0  0  0  0  0  0  0
  151.0101  145.7846  160.6237 H   0  0  0  0  0  0  0  0  0  0  0  0
  152.7318  145.5366  160.5956 H   0  0  0  0  0  0  0  0  0  0  0  0
  150.6955  144.2692  158.6741 H   0  0  0  0  0  0  0  0  0  0  0  0
  151.6360  145.6861  158.3178 H   0  0  0  0  0  0  0  0  0  0  0  0
  153.7334  144.4340  158.3513 H   0  0  0  0  0  0  0  0  0  0  0  0
  152.6481  143.7124  157.2322 H   0  0  0  0  0  0  0  0  0  0  0  0
  147.7112  137.5142  152.5274 H   0  0  0  0  0  0  0  0  0  0  0  0
  146.2164  139.4816  151.1700 H   0  0  0  0  0  0  0  0  0  0  0  0
  1  2  2  0  0  0  0
  2  3  1  0  0  0  0
  2 15  1  0  0  0  0
  3  4  1  0  0  0  0
  3 21  1  0  0  0  0
  4  5  1  0  0  0  0
  4 22  1  0  0  0  0
  4 23  1  0  0  0  0
  5  6  1  0  0  0  0
  5 24  1  0  0  0  0
  5 25  1  0  0  0  0
  6  7  2  0  0  0  0
  6  8  1  0  0  0  0
  8 14  1  0  0  0  0
  8  9  1  0  0  0  0
  9 10  1  0  0  0  0
  9 26  1  0  0  0  0
  9 27  1  0  0  0  0
 10 11  1  0  0  0  0
 10 28  1  0  0  0  0
 10 29  1  0  0  0  0
 11 12  1  0  0  0  0
 11 30  1  0  0  0  0
 11 31  1  0  0  0  0
 12 13  1  0  0  0  0
 12 32  1  0  0  0  0
 12 33  1  0  0  0  0
 13 14  1  0  0  0  0
 13 34  1  0  0  0  0
 13 35  1  0  0  0  0
 14 36  1  0  0  0  0
 14 37  1  0  0  0  0
 15 16  1  0  0  0  0
 16 20  1  0  0  0  0
 16 17  2  0  0  0  0
 17 18  1  0  0  0  0
 18 19  2  0  0  0  0
 18 38  1  0  0  0  0
 19 20  1  0  0  0  0
 19 39  1  0  0  0  0
M  CHG  1  15  -1
M  END
> <s_m_source_file>
AV-unprocessed.smi

> <i_m_source_file_index>
2727

> <i_lp_mmshare_version>
43012

> <i_f3d_flags>
0

> <s_epik_input>
bzFbY0hdW2NIXW5jMVtOSF1DKD1PKVtOSF1bQ0gyXVtDSDJdQyg9TylOMltDSDJdW0NIMl1bQ0gyXVtDSDJdW0NIMl1bQ0gyXTI=

> <s_epik_cmdline>
J2VwaWtfcHl0aG9uJywgJy1waCcsICc3LjAnLCAnLXRuJywgJzgnLCAnLW1hJywgJzIwMCcsICctbWV0YWxfYmluZGluZycsICctaW1hZScsICc8aW5maWxlLm1hZT4nLCAnLW9tYWUnLCAnPG91dGZpbGUubWFlPic=

> <r_lp_tautomer_probability>
0.785861

> <r_epik_Ionization_Penalty>
9.14426

> <r_epik_Ionization_Penalty_Charging>
6.65642

> <r_epik_Ionization_Penalty_Neutral>
2.48784

> <r_epik_State_Penalty>
6.67734

> <r_epik_Charging_Adjusted_Penalty>
13.3338

> <i_epik_Tot_Q>
-1

> <i_epik_Tot_abs_Q>
1

> <r_epik_Metal_State_Penalty>
2.58025

> <b_epik_Metal_Only>
1

> <s_lp_Force_Field>
OPLS_2005

> <r_lp_Energy>
17.6318

> <b_lp_Chiralities_Consistent>
1

> <s_lp_Variant>
AV-unprocessed.smi:2727-4

> <Gold.Version>
5.8.1

> <Gold.Id.Protein>
6NUR|6NUR_protein|mol2

> <Gold.PLP.Fitness>
47.5611

> <Gold.PLP.PLP>
-38.8233

> <Gold.PLP.part.hbond>
-0.9912

> <Gold.PLP.part.metal>
0.0000

> <Gold.PLP.part.buried>
-2.7887

> <Gold.PLP.part.nonpolar>
-36.6120

> <Gold.PLP.part.repulsive>
0.6071

> <Gold.PLP.ligand.clash>
0.0000

> <Gold.PLP.ligand.torsion>
0.0973

> <Gold.PLP.Chemscore.Hbond>
1.0000

> <Gold.PLP.Chemscore.CHOScore>
1.9621

> <Gold.PLP.Chemscore.Metal>
0.0000

> <Gold.Chemscore.Hbonds>
donor molecule, donor type, donor heavy atom, donor atom, acceptor molecule, acceptor atom, score
      L1  H     3    21       P1  8028  1.00
      L1  C    18    38       P1  7948  0.66
      L1  C    19    39       P1 10171  0.26

> <Gold.PLP.Chemscore.Internal.Correction>
0.0462

> <Gold.Rescore>
     Score         DG    S(hbond)    S(metal)    S(lipo)     H(rot)  DE(clash)    DE(int)     intcor
     12.95     -16.23       0.98        0.00     100.57       1.67       0.30       2.99       ----

> <Gold.Chemscore.Fitness>
12.9464

> <Gold.Chemscore.DG>
-16.2324

> <Gold.Chemscore.ZeroCoef>
-5.4800

> <Gold.Chemscore.Hbond>
0.9797

> <Gold.Chemscore.Metal>
0.0000

> <Gold.Chemscore.Lipo>
100.5723

> <Gold.Chemscore.Internal_Hbond>
0.0000

> <Gold.Chemscore.DEClash>
0.2983

> <Gold.Chemscore.DEInternal>
2.9877

> <Gold.Chemscore.Rot>
1.6745

> <Gold.Chemscore.Internal.Correction>
   9.000000E+99

> <Gold.Chemscore.Hbonds>
donor molecule, donor type, donor heavy atom, donor atom, acceptor molecule, acceptor atom, score
      L1  H     3    21       P1  8028  0.97

> <Gold.Chemscore.Hbond.Weighted>
-3.2721

> <Gold.Chemscore.Metal.Weighted>
-0.0000

> <Gold.Chemscore.Lipo.Weighted>
-11.7670

> <Gold.Chemscore.Internal_Hbond.Weighted>
0.0000

> <Gold.Chemscore.DEClash.Weighted>
0.2983

> <Gold.Chemscore.DEInternal.Weighted>
2.9877

> <Gold.Chemscore.Rot.Weighted>
4.2866

> <Gold.Chemscore.Internal.Correction.Weighted>
   9.000000E+99

> <Gold.Protein.RotatedTorsions>
[ 6907 6896 6895 6894 ] final  -12.29 input  -60.11 | X-H torsion
[ 7974 7965 7964 7962 ] final  -85.52 input  175.53 | X-H torsion
[ 8008 7997 7996 7995 ] final   95.77 input   59.86 | X-H torsion
[ 10167 10162 10161 10158 ] final -159.11 input  -65.29 | X-H torsion
[ 10718 10713 10712 10709 ] final  159.69 input   66.30 | X-H torsion
[ 10763 10752 10751 10750 ] final -132.86 input  -60.55 | X-H torsion
[ 11005 11000 10999 10996 ] final   38.98 input  -57.11 | X-H torsion

> <Gold.Protein.ActiveResidues>
 VAL166  LYS551  ARG553  GLY616  TRP617  ASP618  TYR619  PRO620  LYS621  CYS622 
 ASP623  PHE694  ASN695  SER759  ASP760  ASP761  ALA762  ILE779  LEU786  VAL792 
 PHE793  MET794  SER795  GLU796  ALA797  LYS798  CYS799  TRP800  GLU811  SER814 

> <Gold.Protein.RotatedAtoms>
  151.3728  135.0925  159.9470 H   0  0  0  0  0  0  0  0  0  0  0  0  # atno 6907 bound_to 6896
  152.5130  133.9148  159.7516 H   0  0  0  0  0  0  0  0  0  0  0  0  # atno 6908 bound_to 6896
  150.9565  133.6437  159.2791 H   0  0  0  0  0  0  0  0  0  0  0  0  # atno 6909 bound_to 6896
  145.4921  140.9552  143.1806 H   0  0  0  0  0  0  0  0  0  0  0  0  # atno 7974 bound_to 7965
  156.0725  140.3282  155.7593 H   0  0  0  0  0  0  0  0  0  0  0  0  # atno 8008 bound_to 7997
  155.5283  140.0591  157.2911 H   0  0  0  0  0  0  0  0  0  0  0  0  # atno 8009 bound_to 7997
  154.4537  140.1932  156.0458 H   0  0  0  0  0  0  0  0  0  0  0  0  # atno 8010 bound_to 7997
  139.6640  143.9862  152.2243 H   0  0  0  0  0  0  0  0  0  0  0  0  # atno 10167 bound_to 10162
  157.1607  131.0586  151.2234 H   0  0  0  0  0  0  0  0  0  0  0  0  # atno 10718 bound_to 10713
  154.8739  135.3784  154.4478 H   0  0  0  0  0  0  0  0  0  0  0  0  # atno 10763 bound_to 10752
  153.5157  135.7029  153.5762 H   0  0  0  0  0  0  0  0  0  0  0  0  # atno 10764 bound_to 10752
  153.4032  135.3943  155.1967 H   0  0  0  0  0  0  0  0  0  0  0  0  # atno 10765 bound_to 10752
  140.2073  134.3798  155.8066 H   0  0  0  0  0  0  0  0  0  0  0  0  # atno 11005 bound_to 11000
  144.7828  139.6490  143.7147 LP  0  0  0  0  0  0  0  0  0  0  0  0  # atno 17320 bound_to 7965
  146.2277  139.5755  142.9576 LP  0  0  0  0  0  0  0  0  0  0  0  0  # atno 17321 bound_to 7965
  139.9609  144.6558  150.8081 LP  0  0  0  0  0  0  0  0  0  0  0  0  # atno 17342 bound_to 10162
  140.7592  143.3123  151.2816 LP  0  0  0  0  0  0  0  0  0  0  0  0  # atno 17343 bound_to 10162
  157.4135  130.7398  149.6857 LP  0  0  0  0  0  0  0  0  0  0  0  0  # atno 17370 bound_to 10713
  155.9754  130.4089  150.3850 LP  0  0  0  0  0  0  0  0  0  0  0  0  # atno 17371 bound_to 10713
  141.2227  133.7124  156.8358 LP  0  0  0  0  0  0  0  0  0  0  0  0  # atno 17394 bound_to 11000
  140.1989  134.8911  157.3146 LP  0  0  0  0  0  0  0  0  0  0  0  0  # atno 17395 bound_to 11000

$$$$
