AV-unprocessed.smi:1461|AV-procd|sdf|5930|dock4
  -GOLD-   22720 6 13D 1   1.00000     0.00000
 Structure written by MMmdl.
 41 42  0  0  0  0  0  0  0  0  1 V2000
  151.6381  145.4207  159.5365 C   0  0  0  0  0  0  0  0  0  0  0  0
  152.6432  144.3034  159.2051 C   0  0  0  0  0  0  0  0  0  0  0  0
  152.9798  144.3109  157.7068 C   0  0  0  0  0  0  0  0  0  0  0  0
  152.1545  142.9071  159.6443 C   0  0  0  0  0  0  0  0  0  0  0  0
  151.2849  142.2861  158.6490 N   0  0  0  0  0  0  0  0  0  0  0  0
  151.5104  141.1123  158.0419 C   0  0  0  0  0  0  0  0  0  0  0  0
  152.4875  140.3989  158.2712 O   0  0  0  0  0  0  0  0  0  0  0  0
  150.5511  140.8405  157.1422 N   0  0  0  0  0  0  0  0  0  0  0  0
  150.5021  139.7492  156.2312 C   0  0  0  0  0  0  0  0  0  0  0  0
  151.4597  138.7074  156.2841 C   0  0  0  0  0  0  0  0  0  0  0  0
  151.3356  137.6121  155.4124 C   0  0  0  0  0  0  0  0  0  0  0  0
  150.2458  137.5891  154.5265 C   0  0  0  0  0  0  0  0  0  0  0  0
  149.3186  138.5661  154.4732 N   0  0  0  0  0  0  0  0  0  0  0  0
  149.4322  139.6372  155.2973 C   0  0  0  0  0  0  0  0  0  0  0  0
  148.4408  140.6393  155.1824 N   0  0  0  0  0  0  0  0  0  0  0  0
  147.0704  140.3771  155.6089 C   0  0  0  0  0  0  0  0  0  0  0  0
  146.2430  141.5021  154.9944 C   0  0  0  0  0  0  0  0  0  0  0  0
  146.9436  141.7282  153.6583 C   0  0  0  0  0  0  0  0  0  0  0  0
  148.4184  141.4536  153.9704 C   0  0  0  0  0  0  0  0  0  0  0  0
  150.6717  145.2348  159.0667 H   0  0  0  0  0  0  0  0  0  0  0  0
  151.9976  146.3883  159.1857 H   0  0  0  0  0  0  0  0  0  0  0  0
  151.4750  145.5102  160.6105 H   0  0  0  0  0  0  0  0  0  0  0  0
  153.5657  144.5207  159.7452 H   0  0  0  0  0  0  0  0  0  0  0  0
  152.0967  144.1032  157.1019 H   0  0  0  0  0  0  0  0  0  0  0  0
  153.7314  143.5583  157.4678 H   0  0  0  0  0  0  0  0  0  0  0  0
  153.3754  145.2781  157.3964 H   0  0  0  0  0  0  0  0  0  0  0  0
  153.0046  142.2649  159.8808 H   0  0  0  0  0  0  0  0  0  0  0  0
  151.5789  142.9945  160.5663 H   0  0  0  0  0  0  0  0  0  0  0  0
  150.4553  142.8003  158.3912 H   0  0  0  0  0  0  0  0  0  0  0  0
  149.8597  141.5613  156.9942 H   0  0  0  0  0  0  0  0  0  0  0  0
  152.2725  138.7226  156.9945 H   0  0  0  0  0  0  0  0  0  0  0  0
  152.0515  136.8037  155.4321 H   0  0  0  0  0  0  0  0  0  0  0  0
  150.1109  136.7614  153.8459 H   0  0  0  0  0  0  0  0  0  0  0  0
  146.7221  139.4185  155.2221 H   0  0  0  0  0  0  0  0  0  0  0  0
  146.9882  140.3600  156.6959 H   0  0  0  0  0  0  0  0  0  0  0  0
  145.1888  141.2457  154.8874 H   0  0  0  0  0  0  0  0  0  0  0  0
  146.3154  142.3995  155.6106 H   0  0  0  0  0  0  0  0  0  0  0  0
  146.5821  141.0024  152.9285 H   0  0  0  0  0  0  0  0  0  0  0  0
  146.7757  142.7258  153.2515 H   0  0  0  0  0  0  0  0  0  0  0  0
  148.9353  142.3929  154.1683 H   0  0  0  0  0  0  0  0  0  0  0  0
  148.9176  140.9618  153.1343 H   0  0  0  0  0  0  0  0  0  0  0  0
  1  2  1  0  0  0  0
  1 20  1  0  0  0  0
  1 21  1  0  0  0  0
  1 22  1  0  0  0  0
  2  3  1  0  0  0  0
  2  4  1  0  0  0  0
  2 23  1  0  0  0  0
  3 24  1  0  0  0  0
  3 25  1  0  0  0  0
  3 26  1  0  0  0  0
  4  5  1  0  0  0  0
  4 27  1  0  0  0  0
  4 28  1  0  0  0  0
  5  6  1  0  0  0  0
  5 29  1  0  0  0  0
  6  7  2  0  0  0  0
  6  8  1  0  0  0  0
  8  9  1  0  0  0  0
  8 30  1  0  0  0  0
  9 14  1  0  0  0  0
  9 10  2  0  0  0  0
 10 11  1  0  0  0  0
 10 31  1  0  0  0  0
 11 12  2  0  0  0  0
 11 32  1  0  0  0  0
 12 13  1  0  0  0  0
 12 33  1  0  0  0  0
 13 14  2  0  0  0  0
 14 15  1  0  0  0  0
 15 19  1  0  0  0  0
 15 16  1  0  0  0  0
 16 17  1  0  0  0  0
 16 34  1  0  0  0  0
 16 35  1  0  0  0  0
 17 18  1  0  0  0  0
 17 36  1  0  0  0  0
 17 37  1  0  0  0  0
 18 19  1  0  0  0  0
 18 38  1  0  0  0  0
 18 39  1  0  0  0  0
 19 40  1  0  0  0  0
 19 41  1  0  0  0  0
M  END
> <s_m_source_file>
AV-unprocessed.smi

> <i_m_source_file_index>
1461

> <i_lp_mmshare_version>
43012

> <i_f3d_flags>
0

> <s_epik_input>
W0NIM11bQ0hdKFtDSDNdKVtDSDJdW05IXUMoPU8pW05IXWMxW2NIXVtjSF1bY0hdbmMxTjJbQ0gyXVtDSDJdW0NIMl1bQ0gyXTI=

> <s_epik_cmdline>
J2VwaWtfcHl0aG9uJywgJy1waCcsICc3LjAnLCAnLXRuJywgJzgnLCAnLW1hJywgJzIwMCcsICctbWV0YWxfYmluZGluZycsICctaW1hZScsICc8aW5maWxlLm1hZT4nLCAnLW9tYWUnLCAnPG91dGZpbGUubWFlPic=

> <r_lp_tautomer_probability>
1

> <r_epik_Ionization_Penalty>
0.101487

> <r_epik_Ionization_Penalty_Charging>
0

> <r_epik_Ionization_Penalty_Neutral>
0.101487

> <r_epik_State_Penalty>
0.0909146

> <r_epik_Charging_Adjusted_Penalty>
0.0909146

> <i_epik_Tot_Q>
0

> <i_epik_Tot_abs_Q>
0

> <r_epik_Metal_State_Penalty>
0.0775598

> <b_epik_Metal_Only>
0

> <s_lp_Force_Field>
OPLS_2005

> <r_lp_Energy>
32.2638

> <b_lp_Chiralities_Consistent>
1

> <s_lp_Variant>
AV-unprocessed.smi:1461-1

> <Gold.Version>
5.8.1

> <Gold.Id.Protein>
6NUR|6NUR_protein|mol2

> <Gold.PLP.Fitness>
44.7776

> <Gold.PLP.PLP>
-40.2005

> <Gold.PLP.part.hbond>
-1.0000

> <Gold.PLP.part.metal>
0.0000

> <Gold.PLP.part.buried>
-3.1173

> <Gold.PLP.part.nonpolar>
-36.1989

> <Gold.PLP.part.repulsive>
0.4232

> <Gold.PLP.ligand.clash>
0.0000

> <Gold.PLP.ligand.torsion>
0.4014

> <Gold.PLP.Chemscore.Hbond>
0.5967

> <Gold.PLP.Chemscore.CHOScore>
1.0805

> <Gold.PLP.Chemscore.Metal>
0.0000

> <Gold.Chemscore.Hbonds>
donor molecule, donor type, donor heavy atom, donor atom, acceptor molecule, acceptor atom, score
      L1  C    12    33       P1  7948  0.97
      L1  C    12    33       P1  7949  0.07

> <Gold.PLP.Chemscore.Internal.Correction>
0.3482

> <Gold.Rescore>
     Score         DG    S(hbond)    S(metal)    S(lipo)     H(rot)  DE(clash)    DE(int)     intcor
     13.70     -15.34       0.65        0.00      94.64       1.32       0.06       1.59       ----

> <Gold.Chemscore.Fitness>
13.7012

> <Gold.Chemscore.DG>
-15.3440

> <Gold.Chemscore.ZeroCoef>
-5.4800

> <Gold.Chemscore.Hbond>
0.6536

> <Gold.Chemscore.Metal>
0.0000

> <Gold.Chemscore.Lipo>
94.6376

> <Gold.Chemscore.Internal_Hbond>
0.0000

> <Gold.Chemscore.DEClash>
0.0566

> <Gold.Chemscore.DEInternal>
1.5862

> <Gold.Chemscore.Rot>
1.3248

> <Gold.Chemscore.Internal.Correction>
   9.000000E+99

> <Gold.Chemscore.Hbonds>
donor molecule, donor type, donor heavy atom, donor atom, acceptor molecule, acceptor atom, score
      P1  H  7997  8008       L1     7  0.04

> <Gold.Chemscore.Hbond.Weighted>
-2.1829

> <Gold.Chemscore.Metal.Weighted>
-0.0000

> <Gold.Chemscore.Lipo.Weighted>
-11.0726

> <Gold.Chemscore.Internal_Hbond.Weighted>
0.0000

> <Gold.Chemscore.DEClash.Weighted>
0.0566

> <Gold.Chemscore.DEInternal.Weighted>
1.5862

> <Gold.Chemscore.Rot.Weighted>
3.3915

> <Gold.Chemscore.Internal.Correction.Weighted>
   9.000000E+99

> <Gold.Protein.RotatedTorsions>
[ 6907 6896 6895 6894 ] final -111.41 input  -60.11 | X-H torsion
[ 7974 7965 7964 7962 ] final   18.13 input  175.53 | X-H torsion
[ 8008 7997 7996 7995 ] final  -77.18 input   59.86 | X-H torsion
[ 10167 10162 10161 10158 ] final  149.84 input  -65.29 | X-H torsion
[ 10718 10713 10712 10709 ] final   91.64 input   66.30 | X-H torsion
[ 10763 10752 10751 10750 ] final  -31.62 input  -60.55 | X-H torsion
[ 11005 11000 10999 10996 ] final  141.02 input  -57.11 | X-H torsion

> <Gold.Protein.ActiveResidues>
 VAL166  LYS551  ARG553  GLY616  TRP617  ASP618  TYR619  PRO620  LYS621  CYS622 
 ASP623  PHE694  ASN695  SER759  ASP760  ASP761  ALA762  ILE779  LEU786  VAL792 
 PHE793  MET794  SER795  GLU796  ALA797  LYS798  CYS799  TRP800  GLU811  SER814 

> <Gold.Protein.RotatedAtoms>
  150.7689  133.9239  159.3406 H   0  0  0  0  0  0  0  0  0  0  0  0  # atno 6907 bound_to 6896
  151.7130  135.0907  160.0280 H   0  0  0  0  0  0  0  0  0  0  0  0  # atno 6908 bound_to 6896
  152.3697  133.6365  159.6114 H   0  0  0  0  0  0  0  0  0  0  0  0  # atno 6909 bound_to 6896
  146.2195  139.8502  142.8624 H   0  0  0  0  0  0  0  0  0  0  0  0  # atno 7974 bound_to 7965
  154.5573  140.0714  156.8763 H   0  0  0  0  0  0  0  0  0  0  0  0  # atno 8008 bound_to 7997
  155.2878  140.3376  155.4236 H   0  0  0  0  0  0  0  0  0  0  0  0  # atno 8009 bound_to 7997
  156.2012  140.1722  156.7880 H   0  0  0  0  0  0  0  0  0  0  0  0  # atno 8010 bound_to 7997
  139.4857  144.5570  151.7300 H   0  0  0  0  0  0  0  0  0  0  0  0  # atno 10167 bound_to 10162
  157.6960  131.0414  150.3760 H   0  0  0  0  0  0  0  0  0  0  0  0  # atno 10718 bound_to 10713
  153.8003  135.6890  153.4857 H   0  0  0  0  0  0  0  0  0  0  0  0  # atno 10763 bound_to 10752
  153.1693  135.4549  154.9878 H   0  0  0  0  0  0  0  0  0  0  0  0  # atno 10764 bound_to 10752
  154.8009  135.3337  154.7492 H   0  0  0  0  0  0  0  0  0  0  0  0  # atno 10765 bound_to 10752
  140.0370  134.9324  157.0772 H   0  0  0  0  0  0  0  0  0  0  0  0  # atno 11005 bound_to 11000
  145.2809  141.0138  143.3718 LP  0  0  0  0  0  0  0  0  0  0  0  0  # atno 17320 bound_to 7965
  144.9150  139.4481  143.6568 LP  0  0  0  0  0  0  0  0  0  0  0  0  # atno 17321 bound_to 7965
  140.5133  144.0992  150.6001 LP  0  0  0  0  0  0  0  0  0  0  0  0  # atno 17342 bound_to 10162
  140.3925  143.2745  152.0044 LP  0  0  0  0  0  0  0  0  0  0  0  0  # atno 17343 bound_to 10162
  156.4179  130.3947  149.6845 LP  0  0  0  0  0  0  0  0  0  0  0  0  # atno 17370 bound_to 10713
  156.4106  130.7720  151.2733 LP  0  0  0  0  0  0  0  0  0  0  0  0  # atno 17371 bound_to 10713
  140.4131  134.1960  155.7163 LP  0  0  0  0  0  0  0  0  0  0  0  0  # atno 17394 bound_to 11000
  141.1863  133.8306  157.1074 LP  0  0  0  0  0  0  0  0  0  0  0  0  # atno 17395 bound_to 11000

$$$$
