AV-unprocessed.smi:1163|AV-procd|sdf|4925|dock6
  -GOLD-   22720 3503D 1   1.00000     0.00000
 Structure written by MMmdl.
 40 41  0  0  0  0  0  0  0  0  2 V2000
  153.8351  141.1992  160.8014 C   0  0  0  0  0  0  0  0  0  0  0  0
  153.6073  142.3684  160.0222 O   0  0  0  0  0  0  0  0  0  0  0  0
  152.5758  142.3543  159.1058 C   0  0  0  0  0  0  0  0  0  0  0  0
  152.0085  141.1155  158.7478 C   0  0  0  0  0  0  0  0  0  0  0  0
  150.9585  141.0911  157.8099 C   0  0  0  0  0  0  0  0  0  0  0  0
  150.5019  142.3137  157.2606 C   0  0  0  0  0  0  0  0  0  0  0  0
  149.4640  142.4357  156.2953 N   0  0  0  0  0  0  0  0  0  0  0  0
  148.7755  141.4726  155.6587 C   0  0  0  0  0  0  0  0  0  0  0  0
  148.9048  140.2615  155.8332 O   0  0  0  0  0  0  0  0  0  0  0  0
  147.9000  141.9978  154.7899 N   0  0  0  0  0  0  0  0  0  0  0  0
  147.0067  141.2203  153.9371 C   0  0  1  0  0  0  0  0  0  0  0  0
  147.7014  140.6058  152.7226 C   0  0  0  0  0  0  0  0  0  0  0  0
  146.8952  139.3303  152.4206 C   0  0  0  0  0  0  0  0  0  0  0  0
  145.9519  139.1374  153.5491 N   0  3  1  0  0  0  0  0  0  0  0  0
  145.7054  137.7292  153.9433 C   0  0  0  0  0  0  0  0  0  0  0  0
  144.7955  136.9850  152.9507 C   0  0  0  0  0  0  0  0  0  0  0  0
  144.4824  135.7937  153.4580 F   0  0  0  0  0  0  0  0  0  0  0  0
  143.6723  137.6750  152.7536 F   0  0  0  0  0  0  0  0  0  0  0  0
  145.4079  136.7985  151.7822 F   0  0  0  0  0  0  0  0  0  0  0  0
  146.4337  139.9938  154.6467 C   0  0  0  0  0  0  0  0  0  0  0  0
  151.1415  143.4981  157.6825 C   0  0  0  0  0  0  0  0  0  0  0  0
  152.1487  143.5286  158.5801 N   0  0  0  0  0  0  0  0  0  0  0  0
  154.6755  141.3719  161.4737 H   0  0  0  0  0  0  0  0  0  0  0  0
  154.0845  140.3428  160.1733 H   0  0  0  0  0  0  0  0  0  0  0  0
  152.9668  140.9532  161.4142 H   0  0  0  0  0  0  0  0  0  0  0  0
  152.3761  140.1973  159.1816 H   0  0  0  0  0  0  0  0  0  0  0  0
  150.5418  140.1368  157.5311 H   0  0  0  0  0  0  0  0  0  0  0  0
  149.1988  143.3846  156.0745 H   0  0  0  0  0  0  0  0  0  0  0  0
  147.8492  143.0033  154.7127 H   0  0  0  0  0  0  0  0  0  0  0  0
  146.1868  141.8526  153.5898 H   0  0  0  0  0  0  0  0  0  0  0  0
  147.7331  141.2903  151.8744 H   0  0  0  0  0  0  0  0  0  0  0  0
  148.7296  140.3352  152.9678 H   0  0  0  0  0  0  0  0  0  0  0  0
  146.3313  139.4260  151.4923 H   0  0  0  0  0  0  0  0  0  0  0  0
  147.5713  138.4805  152.3128 H   0  0  0  0  0  0  0  0  0  0  0  0
  146.6519  137.2021  154.0721 H   0  0  0  0  0  0  0  0  0  0  0  0
  145.2179  137.7317  154.9196 H   0  0  0  0  0  0  0  0  0  0  0  0
  147.2153  139.4745  155.2051 H   0  0  0  0  0  0  0  0  0  0  0  0
  145.6293  140.2454  155.3388 H   0  0  0  0  0  0  0  0  0  0  0  0
  150.8360  144.4560  157.2868 H   0  0  0  0  0  0  0  0  0  0  0  0
  145.0671  139.5298  153.2590 H   0  0  0  0  0  0  0  0  0  0  0  0
  1  2  1  0  0  0  0
  1 23  1  0  0  0  0
  1 24  1  0  0  0  0
  1 25  1  0  0  0  0
  2  3  1  0  0  0  0
  3 22  1  0  0  0  0
  3  4  2  0  0  0  0
  4  5  1  0  0  0  0
  4 26  1  0  0  0  0
  5  6  2  0  0  0  0
  5 27  1  0  0  0  0
  6  7  1  0  0  0  0
  6 21  1  0  0  0  0
  7  8  1  0  0  0  0
  7 28  1  0  0  0  0
  8  9  2  0  0  0  0
  8 10  1  0  0  0  0
 10 11  1  0  0  0  0
 10 29  1  0  0  0  0
 11 20  1  0  0  0  0
 11 12  1  0  0  0  0
 11 30  1  0  0  0  0
 12 13  1  0  0  0  0
 12 31  1  0  0  0  0
 12 32  1  0  0  0  0
 13 14  1  0  0  0  0
 13 33  1  0  0  0  0
 13 34  1  0  0  0  0
 14 15  1  0  0  0  0
 14 20  1  0  0  0  0
 14 40  1  0  0  0  0
 15 16  1  0  0  0  0
 15 35  1  0  0  0  0
 15 36  1  0  0  0  0
 16 17  1  0  0  0  0
 16 18  1  0  0  0  0
 16 19  1  0  0  0  0
 20 37  1  0  0  0  0
 20 38  1  0  0  0  0
 21 22  2  0  0  0  0
 21 39  1  0  0  0  0
M  CHG  1  14   1
M  END
> <s_m_source_file>
AV-unprocessed.smi

> <i_m_source_file_index>
1163

> <i_lp_mmshare_version>
43012

> <i_f3d_flags>
0

> <s_epik_input>
W0NIM11PYzFbY0hdW2NIXWMoW2NIXW4xKVtOSF1DKD1PKVtOSF1bQ0BASF0yW0NIMl1bQ0gyXU4oW0NIMl0yKVtDSDJdQyhGKShGKUY=

> <s_epik_cmdline>
J2VwaWtfcHl0aG9uJywgJy1waCcsICc3LjAnLCAnLXRuJywgJzgnLCAnLW1hJywgJzIwMCcsICctbWV0YWxfYmluZGluZycsICctaW1hZScsICc8aW5maWxlLm1hZT4nLCAnLW9tYWUnLCAnPG91dGZpbGUubWFlPic=

> <r_lp_tautomer_probability>
1

> <r_epik_Ionization_Penalty>
1.12054

> <r_epik_Ionization_Penalty_Charging>
1.12047

> <r_epik_Ionization_Penalty_Neutral>
7.20346e-05

> <r_epik_State_Penalty>
1.17927

> <r_epik_Charging_Adjusted_Penalty>
2.29974

> <i_epik_Tot_Q>
1

> <i_epik_Tot_abs_Q>
1

> <r_epik_Metal_State_Penalty>
1.17928

> <b_epik_Metal_Only>
0

> <s_lp_Force_Field>
OPLS_2005

> <r_lp_Energy>
29.7576

> <b_lp_Chiralities_Consistent>
1

> <s_lp_Variant>
AV-unprocessed.smi:1163-6

> <Gold.Version>
5.8.1

> <Gold.Id.Protein>
6NUR|6NUR_protein|mol2

> <Gold.PLP.Fitness>
43.6704

> <Gold.PLP.PLP>
-31.7981

> <Gold.PLP.part.hbond>
-2.7467

> <Gold.PLP.part.metal>
0.0000

> <Gold.PLP.part.buried>
-1.0053

> <Gold.PLP.part.nonpolar>
-29.1461

> <Gold.PLP.part.repulsive>
0.2416

> <Gold.PLP.ligand.clash>
0.0100

> <Gold.PLP.ligand.torsion>
0.6391

> <Gold.PLP.Chemscore.Hbond>
3.2995

> <Gold.PLP.Chemscore.CHOScore>
0.9327

> <Gold.PLP.Chemscore.Metal>
0.0000

> <Gold.Chemscore.Hbonds>
donor molecule, donor type, donor heavy atom, donor atom, acceptor molecule, acceptor atom, score
      L1  H     7    28       P1  8028  0.76
      L1  H    10    29       P1  8028  0.45
      L1  H    14    40       P1 10175  2.00
      L1  C    21    39       P1  8028  0.88

> <Gold.PLP.Chemscore.Internal.Correction>
0.4636

> <Gold.Rescore>
     Score         DG    S(hbond)    S(metal)    S(lipo)     H(rot)  DE(clash)    DE(int)     intcor
     13.10     -19.45       2.93        0.00      72.37       1.68       2.57       3.79       ----

> <Gold.Chemscore.Fitness>
13.0966

> <Gold.Chemscore.DG>
-19.4510

> <Gold.Chemscore.ZeroCoef>
-5.4800

> <Gold.Chemscore.Hbond>
2.9338

> <Gold.Chemscore.Metal>
0.0000

> <Gold.Chemscore.Lipo>
72.3691

> <Gold.Chemscore.Internal_Hbond>
0.0000

> <Gold.Chemscore.DEClash>
2.5678

> <Gold.Chemscore.DEInternal>
3.7866

> <Gold.Chemscore.Rot>
1.6778

> <Gold.Chemscore.Internal.Correction>
   9.000000E+99

> <Gold.Chemscore.Hbonds>
donor molecule, donor type, donor heavy atom, donor atom, acceptor molecule, acceptor atom, score
      L1  H     7    28       P1  8028  0.75
      L1  H    10    29       P1  8028  0.39
      L1  H    14    40       P1 10175  1.00

> <Gold.Chemscore.Hbond.Weighted>
-9.7989

> <Gold.Chemscore.Metal.Weighted>
-0.0000

> <Gold.Chemscore.Lipo.Weighted>
-8.4672

> <Gold.Chemscore.Internal_Hbond.Weighted>
0.0000

> <Gold.Chemscore.DEClash.Weighted>
2.5678

> <Gold.Chemscore.DEInternal.Weighted>
3.7866

> <Gold.Chemscore.Rot.Weighted>
4.2951

> <Gold.Chemscore.Internal.Correction.Weighted>
   9.000000E+99

> <Gold.Protein.RotatedTorsions>
[ 6907 6896 6895 6894 ] final   35.97 input  -60.11 | X-H torsion
[ 7974 7965 7964 7962 ] final  -47.24 input  175.53 | X-H torsion
[ 8008 7997 7996 7995 ] final  169.99 input   59.86 | X-H torsion
[ 10167 10162 10161 10158 ] final  148.79 input  -65.29 | X-H torsion
[ 10718 10713 10712 10709 ] final   76.98 input   66.30 | X-H torsion
[ 10763 10752 10751 10750 ] final   42.64 input  -60.55 | X-H torsion
[ 11005 11000 10999 10996 ] final -128.16 input  -57.11 | X-H torsion

> <Gold.Protein.ActiveResidues>
 VAL166  LYS551  ARG553  GLY616  TRP617  ASP618  TYR619  PRO620  LYS621  CYS622 
 ASP623  PHE694  ASN695  SER759  ASP760  ASP761  ALA762  ILE779  LEU786  VAL792 
 PHE793  MET794  SER795  GLU796  ALA797  LYS798  CYS799  TRP800  GLU811  SER814 

> <Gold.Protein.RotatedAtoms>
  152.1233  134.9189  160.0561 H   0  0  0  0  0  0  0  0  0  0  0  0  # atno 6907 bound_to 6896
  152.0321  133.3937  159.4310 H   0  0  0  0  0  0  0  0  0  0  0  0  # atno 6908 bound_to 6896
  150.6850  134.3430  159.4920 H   0  0  0  0  0  0  0  0  0  0  0  0  # atno 6909 bound_to 6896
  145.9636  140.7454  142.9445 H   0  0  0  0  0  0  0  0  0  0  0  0  # atno 7974 bound_to 7965
  156.1407  140.1549  156.8925 H   0  0  0  0  0  0  0  0  0  0  0  0  # atno 8008 bound_to 7997
  154.4985  140.0831  156.7786 H   0  0  0  0  0  0  0  0  0  0  0  0  # atno 8009 bound_to 7997
  155.4084  140.3417  155.4264 H   0  0  0  0  0  0  0  0  0  0  0  0  # atno 8010 bound_to 7997
  139.4870  144.5652  151.7158 H   0  0  0  0  0  0  0  0  0  0  0  0  # atno 10167 bound_to 10162
  157.6694  130.9800  150.1575 H   0  0  0  0  0  0  0  0  0  0  0  0  # atno 10718 bound_to 10713
  152.9878  135.6125  154.2982 H   0  0  0  0  0  0  0  0  0  0  0  0  # atno 10763 bound_to 10752
  154.2704  135.2779  155.2742 H   0  0  0  0  0  0  0  0  0  0  0  0  # atno 10764 bound_to 10752
  154.5127  135.5836  153.6675 H   0  0  0  0  0  0  0  0  0  0  0  0  # atno 10765 bound_to 10752
  140.9539  134.1028  157.4035 H   0  0  0  0  0  0  0  0  0  0  0  0  # atno 11005 bound_to 11000
  144.6820  140.2632  143.7316 LP  0  0  0  0  0  0  0  0  0  0  0  0  # atno 17320 bound_to 7965
  145.8005  139.1962  143.2051 LP  0  0  0  0  0  0  0  0  0  0  0  0  # atno 17321 bound_to 7965
  140.5229  144.0851  150.6028 LP  0  0  0  0  0  0  0  0  0  0  0  0  # atno 17342 bound_to 10162
  140.3815  143.2800  152.0165 LP  0  0  0  0  0  0  0  0  0  0  0  0  # atno 17343 bound_to 10162
  156.2360  130.3686  149.8391 LP  0  0  0  0  0  0  0  0  0  0  0  0  # atno 17370 bound_to 10713
  156.6205  130.8624  151.3474 LP  0  0  0  0  0  0  0  0  0  0  0  0  # atno 17371 bound_to 10713
  139.8856  135.0074  156.6445 LP  0  0  0  0  0  0  0  0  0  0  0  0  # atno 17394 bound_to 11000
  140.7563  133.8855  155.8384 LP  0  0  0  0  0  0  0  0  0  0  0  0  # atno 17395 bound_to 11000

$$$$
