AV-unprocessed.smi:1842|AV-procd|sdf|7498|dock8
  -GOLD-   22720 9203D 1   1.00000     0.00000
 Structure written by MMmdl.
 39 40  0  0  0  0  0  0  0  0  2 V2000
  152.3218  138.2477  159.7849 O   0  0  0  0  0  0  0  0  0  0  0  0
  152.6873  139.3985  159.5470 C   0  0  0  0  0  0  0  0  0  0  0  0
  153.6348  140.1219  160.5087 C   0  0  0  0  0  0  0  0  0  0  0  0
  153.9576  141.5697  160.0853 C   0  0  0  0  0  0  0  0  0  0  0  0
  152.7583  142.5397  160.1330 C   0  0  0  0  0  0  0  0  0  0  0  0
  152.9651  143.8063  159.2979 C   0  0  0  0  0  0  0  0  0  0  0  0
  151.9703  144.8303  159.8589 C   0  0  0  0  0  0  0  0  0  0  0  0
  151.5892  144.3386  161.2637 C   0  0  0  0  0  0  0  0  0  0  0  0
  152.4412  143.0931  161.5248 C   0  0  0  0  0  0  0  0  0  0  0  0
  152.2922  140.0888  158.4665 N   0  0  0  0  0  0  0  0  0  0  0  0
  151.4065  139.5842  157.4214 C   0  0  0  0  0  0  0  0  0  0  0  0
  151.2507  140.5671  156.2449 C   0  0  0  0  0  0  0  0  0  0  0  0
  150.2737  140.1087  155.2529 N   0  0  0  0  0  0  0  0  0  0  0  0
  149.1041  140.7261  154.8911 C   0  0  0  0  0  0  0  0  0  0  0  0
  148.5237  139.9329  153.9348 C   0  0  0  0  0  0  0  0  0  0  0  0
  149.3633  138.8666  153.7531 N   0  3  0  0  0  0  0  0  0  0  0  0
  150.4282  138.9763  154.5541 C   0  0  0  0  0  0  0  0  0  0  0  0
  153.2210  140.1137  161.5181 H   0  0  0  0  0  0  0  0  0  0  0  0
  154.5601  139.5474  160.5577 H   0  0  0  0  0  0  0  0  0  0  0  0
  154.7532  141.9489  160.7277 H   0  0  0  0  0  0  0  0  0  0  0  0
  154.3737  141.5667  159.0769 H   0  0  0  0  0  0  0  0  0  0  0  0
  151.8671  142.0376  159.7531 H   0  0  0  0  0  0  0  0  0  0  0  0
  153.9808  144.1804  159.4343 H   0  0  0  0  0  0  0  0  0  0  0  0
  152.8221  143.6294  158.2314 H   0  0  0  0  0  0  0  0  0  0  0  0
  152.4089  145.8284  159.8857 H   0  0  0  0  0  0  0  0  0  0  0  0
  151.0807  144.8822  159.2297 H   0  0  0  0  0  0  0  0  0  0  0  0
  151.7485  145.1028  162.0252 H   0  0  0  0  0  0  0  0  0  0  0  0
  150.5310  144.0742  161.2832 H   0  0  0  0  0  0  0  0  0  0  0  0
  151.9284  142.3685  162.1582 H   0  0  0  0  0  0  0  0  0  0  0  0
  153.3640  143.3815  162.0301 H   0  0  0  0  0  0  0  0  0  0  0  0
  152.6491  141.0262  158.3487 H   0  0  0  0  0  0  0  0  0  0  0  0
  151.8062  138.6350  157.0635 H   0  0  0  0  0  0  0  0  0  0  0  0
  150.4289  139.3612  157.8517 H   0  0  0  0  0  0  0  0  0  0  0  0
  150.9120  141.5363  156.6125 H   0  0  0  0  0  0  0  0  0  0  0  0
  152.2036  140.7398  155.7428 H   0  0  0  0  0  0  0  0  0  0  0  0
  148.7801  141.6589  155.3298 H   0  0  0  0  0  0  0  0  0  0  0  0
  147.6007  140.0447  153.3844 H   0  0  0  0  0  0  0  0  0  0  0  0
  151.2489  138.2846  154.6255 H   0  0  0  0  0  0  0  0  0  0  0  0
  149.2047  138.1045  153.1058 H   0  0  0  0  0  0  0  0  0  0  0  0
  1  2  2  0  0  0  0
  2  3  1  0  0  0  0
  2 10  1  0  0  0  0
  3  4  1  0  0  0  0
  3 18  1  0  0  0  0
  3 19  1  0  0  0  0
  4  5  1  0  0  0  0
  4 20  1  0  0  0  0
  4 21  1  0  0  0  0
  5  9  1  0  0  0  0
  5  6  1  0  0  0  0
  5 22  1  0  0  0  0
  6  7  1  0  0  0  0
  6 23  1  0  0  0  0
  6 24  1  0  0  0  0
  7  8  1  0  0  0  0
  7 25  1  0  0  0  0
  7 26  1  0  0  0  0
  8  9  1  0  0  0  0
  8 27  1  0  0  0  0
  8 28  1  0  0  0  0
  9 29  1  0  0  0  0
  9 30  1  0  0  0  0
 10 11  1  0  0  0  0
 10 31  1  0  0  0  0
 11 12  1  0  0  0  0
 11 32  1  0  0  0  0
 11 33  1  0  0  0  0
 12 13  1  0  0  0  0
 12 34  1  0  0  0  0
 12 35  1  0  0  0  0
 13 17  1  0  0  0  0
 13 14  1  0  0  0  0
 14 15  2  0  0  0  0
 14 36  1  0  0  0  0
 15 16  1  0  0  0  0
 15 37  1  0  0  0  0
 16 17  2  0  0  0  0
 16 39  1  0  0  0  0
 17 38  1  0  0  0  0
M  CHG  1  16   1
M  END
> <s_m_source_file>
AV-unprocessed.smi

> <i_m_source_file_index>
1842

> <i_lp_mmshare_version>
43012

> <i_f3d_flags>
0

> <s_epik_input>
W0NIMl0xW0NIMl1bQ0gyXVtDSDJdW0NIXTFbQ0gyXVtDSDJdQyg9TylbTkhdW0NIMl1bQ0gyXW4yW2NIXVtjSF1uW2NIXTI=

> <s_epik_cmdline>
J2VwaWtfcHl0aG9uJywgJy1waCcsICc3LjAnLCAnLXRuJywgJzgnLCAnLW1hJywgJzIwMCcsICctbWV0YWxfYmluZGluZycsICctaW1hZScsICc8aW5maWxlLm1hZT4nLCAnLW9tYWUnLCAnPG91dGZpbGUubWFlPic=

> <r_lp_tautomer_probability>
1

> <r_epik_Ionization_Penalty>
0.269886

> <r_epik_Ionization_Penalty_Charging>
0

> <r_epik_Ionization_Penalty_Neutral>
0.269886

> <r_epik_State_Penalty>
0.261983

> <r_epik_Charging_Adjusted_Penalty>
0.261983

> <i_epik_Tot_Q>
1

> <i_epik_Tot_abs_Q>
1

> <r_epik_Metal_State_Penalty>
0.546964

> <b_epik_Metal_Only>
0

> <s_lp_Force_Field>
OPLS_2005

> <r_lp_Energy>
23.3455

> <b_lp_Chiralities_Consistent>
1

> <s_lp_Variant>
AV-unprocessed.smi:1842-1

> <Gold.Version>
5.8.1

> <Gold.Id.Protein>
6NUR|6NUR_protein|mol2

> <Gold.PLP.Fitness>
48.7525

> <Gold.PLP.PLP>
-43.1659

> <Gold.PLP.part.hbond>
-2.0000

> <Gold.PLP.part.metal>
0.0000

> <Gold.PLP.part.buried>
-2.0047

> <Gold.PLP.part.nonpolar>
-39.5056

> <Gold.PLP.part.repulsive>
0.1673

> <Gold.PLP.ligand.clash>
0.0000

> <Gold.PLP.ligand.torsion>
0.2280

> <Gold.PLP.Chemscore.Hbond>
2.0000

> <Gold.PLP.Chemscore.CHOScore>
0.0000

> <Gold.PLP.Chemscore.Metal>
0.0000

> <Gold.Chemscore.Hbonds>
donor molecule, donor type, donor heavy atom, donor atom, acceptor molecule, acceptor atom, score
      L1  H    16    39       P1  7948  1.01

> <Gold.PLP.Chemscore.Internal.Correction>
0.0426

> <Gold.Rescore>
     Score         DG    S(hbond)    S(metal)    S(lipo)     H(rot)  DE(clash)    DE(int)     intcor
     15.22     -15.42       1.00        0.00     105.61       2.25       0.07       0.13       ----

> <Gold.Chemscore.Fitness>
15.2155

> <Gold.Chemscore.DG>
-15.4157

> <Gold.Chemscore.ZeroCoef>
-5.4800

> <Gold.Chemscore.Hbond>
0.9985

> <Gold.Chemscore.Metal>
0.0000

> <Gold.Chemscore.Lipo>
105.6146

> <Gold.Chemscore.Internal_Hbond>
0.0000

> <Gold.Chemscore.DEClash>
0.0659

> <Gold.Chemscore.DEInternal>
0.1343

> <Gold.Chemscore.Rot>
2.2485

> <Gold.Chemscore.Internal.Correction>
   9.000000E+99

> <Gold.Chemscore.Hbonds>
donor molecule, donor type, donor heavy atom, donor atom, acceptor molecule, acceptor atom, score
      L1  H    16    39       P1  7948  0.49

> <Gold.Chemscore.Hbond.Weighted>
-3.3351

> <Gold.Chemscore.Metal.Weighted>
-0.0000

> <Gold.Chemscore.Lipo.Weighted>
-12.3569

> <Gold.Chemscore.Internal_Hbond.Weighted>
0.0000

> <Gold.Chemscore.DEClash.Weighted>
0.0659

> <Gold.Chemscore.DEInternal.Weighted>
0.1343

> <Gold.Chemscore.Rot.Weighted>
5.7562

> <Gold.Chemscore.Internal.Correction.Weighted>
   9.000000E+99

> <Gold.Protein.RotatedTorsions>
[ 6907 6896 6895 6894 ] final  139.86 input  -60.11 | X-H torsion
[ 7974 7965 7964 7962 ] final  -46.45 input  175.53 | X-H torsion
[ 8008 7997 7996 7995 ] final   96.15 input   59.86 | X-H torsion
[ 10167 10162 10161 10158 ] final  154.40 input  -65.29 | X-H torsion
[ 10718 10713 10712 10709 ] final  -53.99 input   66.30 | X-H torsion
[ 10763 10752 10751 10750 ] final  -99.68 input  -60.55 | X-H torsion
[ 11005 11000 10999 10996 ] final   -6.41 input  -57.11 | X-H torsion

> <Gold.Protein.ActiveResidues>
 VAL166  LYS551  ARG553  GLY616  TRP617  ASP618  TYR619  PRO620  LYS621  CYS622 
 ASP623  PHE694  ASN695  SER759  ASP760  ASP761  ALA762  ILE779  LEU786  VAL792 
 PHE793  MET794  SER795  GLU796  ALA797  LYS798  CYS799  TRP800  GLU811  SER814 

> <Gold.Protein.RotatedAtoms>
  152.2499  133.5206  159.5318 H   0  0  0  0  0  0  0  0  0  0  0  0  # atno 6907 bound_to 6896
  150.7090  134.0974  159.3962 H   0  0  0  0  0  0  0  0  0  0  0  0  # atno 6908 bound_to 6896
  151.8894  135.0422  160.0547 H   0  0  0  0  0  0  0  0  0  0  0  0  # atno 6909 bound_to 6896
  145.9717  140.7376  142.9407 H   0  0  0  0  0  0  0  0  0  0  0  0  # atno 7974 bound_to 7965
  156.0766  140.3276  155.7641 H   0  0  0  0  0  0  0  0  0  0  0  0  # atno 8008 bound_to 7997
  155.5221  140.0586  157.2922 H   0  0  0  0  0  0  0  0  0  0  0  0  # atno 8009 bound_to 7997
  154.4558  140.1942  156.0400 H   0  0  0  0  0  0  0  0  0  0  0  0  # atno 8010 bound_to 7997
  139.4823  144.5190  151.7906 H   0  0  0  0  0  0  0  0  0  0  0  0  # atno 10167 bound_to 10162
  156.1488  130.4152  149.9979 H   0  0  0  0  0  0  0  0  0  0  0  0  # atno 10718 bound_to 10713
  154.7517  135.4963  153.9301 H   0  0  0  0  0  0  0  0  0  0  0  0  # atno 10763 bound_to 10752
  153.1151  135.6718  153.9440 H   0  0  0  0  0  0  0  0  0  0  0  0  # atno 10764 bound_to 10752
  153.9188  135.3090  155.3427 H   0  0  0  0  0  0  0  0  0  0  0  0  # atno 10765 bound_to 10752
  140.7017  133.8984  155.8688 H   0  0  0  0  0  0  0  0  0  0  0  0  # atno 11005 bound_to 11000
  144.6838  140.2760  143.7299 LP  0  0  0  0  0  0  0  0  0  0  0  0  # atno 17320 bound_to 7965
  145.7896  139.1922  143.2110 LP  0  0  0  0  0  0  0  0  0  0  0  0  # atno 17321 bound_to 7965
  140.4702  144.1598  150.5917 LP  0  0  0  0  0  0  0  0  0  0  0  0  # atno 17342 bound_to 10162
  140.4391  143.2534  151.9497 LP  0  0  0  0  0  0  0  0  0  0  0  0  # atno 17343 bound_to 10162
  156.7842  130.9232  151.3646 LP  0  0  0  0  0  0  0  0  0  0  0  0  # atno 17370 bound_to 10713
  157.6640  130.8991  149.9891 LP  0  0  0  0  0  0  0  0  0  0  0  0  # atno 17371 bound_to 10713
  141.0158  134.0957  157.4173 LP  0  0  0  0  0  0  0  0  0  0  0  0  # atno 17394 bound_to 11000
  139.8895  135.0105  156.6682 LP  0  0  0  0  0  0  0  0  0  0  0  0  # atno 17395 bound_to 11000

$$$$
