AV-unprocessed.smi:1855|AV-procd|sdf|7531|dock3
  -GOLD-   22720 9243D 1   1.00000     0.00000
 Structure written by MMmdl.
 43 45  0  0  0  0  0  0  0  0  1 V2000
  156.7069  139.7613  166.0532 C   0  0  0  0  0  0  0  0  0  0  0  0
  156.2723  139.7988  164.7024 O   0  0  0  0  0  0  0  0  0  0  0  0
  155.5416  138.7331  164.2181 C   0  0  0  0  0  0  0  0  0  0  0  0
  155.2768  137.5559  164.9627 C   0  0  0  0  0  0  0  0  0  0  0  0
  154.5234  136.5098  164.3990 C   0  0  0  0  0  0  0  0  0  0  0  0
  154.0276  136.6269  163.0892 C   0  0  0  0  0  0  0  0  0  0  0  0
  154.2849  137.7901  162.3413 C   0  0  0  0  0  0  0  0  0  0  0  0
  155.0429  138.8492  162.9004 C   0  0  0  0  0  0  0  0  0  0  0  0
  155.3340  140.0177  162.2313 O   0  0  0  0  0  0  0  0  0  0  0  0
  154.6628  140.2987  161.0116 C   0  0  0  0  0  0  0  0  0  0  0  0
  153.4154  141.1390  161.3202 C   0  0  0  0  0  0  0  0  0  0  0  0
  152.7859  141.6464  160.1083 N   0  0  0  0  0  0  0  0  0  0  0  0
  152.4875  140.9711  158.9695 C   0  0  0  0  0  0  0  0  0  0  0  0
  152.7808  139.5083  158.8031 C   0  0  0  0  0  0  0  0  0  0  0  0
  151.7830  138.9138  157.9192 N   0  0  0  0  0  0  0  0  0  0  0  0
  151.6958  139.1279  156.5985 C   0  0  0  0  0  0  0  0  0  0  0  0
  152.4567  139.8510  155.9577 O   0  0  0  0  0  0  0  0  0  0  0  0
  151.9192  141.6901  158.0008 N   0  0  0  0  0  0  0  0  0  0  0  0
  151.8417  142.9495  158.5618 C   0  0  0  0  0  0  0  0  0  0  0  0
  151.3380  144.1599  158.0339 C   0  0  0  0  0  0  0  0  0  0  0  0
  151.3736  145.3428  158.8012 C   0  0  0  0  0  0  0  0  0  0  0  0
  151.9103  145.3319  160.1047 C   0  0  0  0  0  0  0  0  0  0  0  0
  152.4117  144.1352  160.6515 C   0  0  0  0  0  0  0  0  0  0  0  0
  152.3760  142.9574  159.8811 C   0  0  0  0  0  0  0  0  0  0  0  0
  157.2725  140.6669  166.2718 H   0  0  0  0  0  0  0  0  0  0  0  0
  157.3636  138.9103  166.2377 H   0  0  0  0  0  0  0  0  0  0  0  0
  155.8626  139.7248  166.7428 H   0  0  0  0  0  0  0  0  0  0  0  0
  155.6409  137.4310  165.9710 H   0  0  0  0  0  0  0  0  0  0  0  0
  154.3252  135.6168  164.9733 H   0  0  0  0  0  0  0  0  0  0  0  0
  153.4483  135.8244  162.6568 H   0  0  0  0  0  0  0  0  0  0  0  0
  153.8872  137.8477  161.3397 H   0  0  0  0  0  0  0  0  0  0  0  0
  155.3181  140.8475  160.3336 H   0  0  0  0  0  0  0  0  0  0  0  0
  154.3678  139.3701  160.5213 H   0  0  0  0  0  0  0  0  0  0  0  0
  152.6953  140.5546  161.8919 H   0  0  0  0  0  0  0  0  0  0  0  0
  153.6851  141.9876  161.9497 H   0  0  0  0  0  0  0  0  0  0  0  0
  153.7874  139.3734  158.4032 H   0  0  0  0  0  0  0  0  0  0  0  0
  152.7576  139.0097  159.7721 H   0  0  0  0  0  0  0  0  0  0  0  0
  151.1039  138.3006  158.3457 H   0  0  0  0  0  0  0  0  0  0  0  0
  150.8516  138.5689  156.1662 H   0  0  0  0  0  0  0  0  0  0  0  0
  150.9272  144.1785  157.0353 H   0  0  0  0  0  0  0  0  0  0  0  0
  150.9891  146.2630  158.3866 H   0  0  0  0  0  0  0  0  0  0  0  0
  151.9386  146.2428  160.6846 H   0  0  0  0  0  0  0  0  0  0  0  0
  152.8281  144.1251  161.6478 H   0  0  0  0  0  0  0  0  0  0  0  0
  1  2  1  0  0  0  0
  1 25  1  0  0  0  0
  1 26  1  0  0  0  0
  1 27  1  0  0  0  0
  2  3  1  0  0  0  0
  3  8  1  0  0  0  0
  3  4  2  0  0  0  0
  4  5  1  0  0  0  0
  4 28  1  0  0  0  0
  5  6  2  0  0  0  0
  5 29  1  0  0  0  0
  6  7  1  0  0  0  0
  6 30  1  0  0  0  0
  7  8  2  0  0  0  0
  7 31  1  0  0  0  0
  8  9  1  0  0  0  0
  9 10  1  0  0  0  0
 10 11  1  0  0  0  0
 10 32  1  0  0  0  0
 10 33  1  0  0  0  0
 11 12  1  0  0  0  0
 11 34  1  0  0  0  0
 11 35  1  0  0  0  0
 12 24  1  0  0  0  0
 12 13  1  0  0  0  0
 13 14  1  0  0  0  0
 13 18  2  0  0  0  0
 14 15  1  0  0  0  0
 14 36  1  0  0  0  0
 14 37  1  0  0  0  0
 15 16  1  0  0  0  0
 15 38  1  0  0  0  0
 16 17  2  0  0  0  0
 16 39  1  0  0  0  0
 18 19  1  0  0  0  0
 19 24  2  0  0  0  0
 19 20  1  0  0  0  0
 20 21  2  0  0  0  0
 20 40  1  0  0  0  0
 21 22  1  0  0  0  0
 21 41  1  0  0  0  0
 22 23  2  0  0  0  0
 22 42  1  0  0  0  0
 23 24  1  0  0  0  0
 23 43  1  0  0  0  0
M  END
> <s_m_source_file>
AV-unprocessed.smi

> <i_m_source_file_index>
1855

> <i_lp_mmshare_version>
43012

> <i_f3d_flags>
0

> <s_epik_input>
W0NIM11PYzFbY0hdW2NIXVtjSF1bY0hdYzFPW0NIMl1bQ0gyXW4oYyhuMilbQ0gyXVtOSF1bQ0hdPU8pYyhjMjMpW2NIXVtjSF1bY0hdW2NIXTM=

> <s_epik_cmdline>
J2VwaWtfcHl0aG9uJywgJy1waCcsICc3LjAnLCAnLXRuJywgJzgnLCAnLW1hJywgJzIwMCcsICctbWV0YWxfYmluZGluZycsICctaW1hZScsICc8aW5maWxlLm1hZT4nLCAnLW9tYWUnLCAnPG91dGZpbGUubWFlPic=

> <r_lp_tautomer_probability>
1

> <r_epik_Ionization_Penalty>
0.0587233

> <r_epik_Ionization_Penalty_Charging>
0

> <r_epik_Ionization_Penalty_Neutral>
0.0587233

> <r_epik_State_Penalty>
0.0508012

> <r_epik_Charging_Adjusted_Penalty>
0.0508012

> <i_epik_Tot_Q>
0

> <i_epik_Tot_abs_Q>
0

> <r_epik_Metal_State_Penalty>
0.0461886

> <b_epik_Metal_Only>
0

> <s_lp_Force_Field>
OPLS_2005

> <r_lp_Energy>
14.9723

> <b_lp_Chiralities_Consistent>
1

> <s_lp_Variant>
AV-unprocessed.smi:1855-1

> <Gold.Version>
5.8.1

> <Gold.Id.Protein>
6NUR|6NUR_protein|mol2

> <Gold.PLP.Fitness>
53.9144

> <Gold.PLP.PLP>
-52.6311

> <Gold.PLP.part.hbond>
-1.0000

> <Gold.PLP.part.metal>
0.0000

> <Gold.PLP.part.buried>
-5.2801

> <Gold.PLP.part.nonpolar>
-46.2102

> <Gold.PLP.part.repulsive>
0.0637

> <Gold.PLP.ligand.clash>
0.0000

> <Gold.PLP.ligand.torsion>
0.9428

> <Gold.PLP.Chemscore.Hbond>
1.0000

> <Gold.PLP.Chemscore.CHOScore>
0.0000

> <Gold.PLP.Chemscore.Metal>
0.0000

> <Gold.Chemscore.Hbonds>
donor molecule, donor type, donor heavy atom, donor atom, acceptor molecule, acceptor atom, score
      P1  H  7997  8009       L1    17  1.00

> <Gold.PLP.Chemscore.Internal.Correction>
0.1690

> <Gold.Rescore>
     Score         DG    S(hbond)    S(metal)    S(lipo)     H(rot)  DE(clash)    DE(int)     intcor
     16.94     -18.90       1.00        0.00     146.06       2.74       0.10       1.86       ----

> <Gold.Chemscore.Fitness>
16.9400

> <Gold.Chemscore.DG>
-18.8984

> <Gold.Chemscore.ZeroCoef>
-5.4800

> <Gold.Chemscore.Hbond>
1.0000

> <Gold.Chemscore.Metal>
0.0000

> <Gold.Chemscore.Lipo>
146.0558

> <Gold.Chemscore.Internal_Hbond>
0.0000

> <Gold.Chemscore.DEClash>
0.0962

> <Gold.Chemscore.DEInternal>
1.8622

> <Gold.Chemscore.Rot>
2.7383

> <Gold.Chemscore.Internal.Correction>
   9.000000E+99

> <Gold.Chemscore.Hbonds>
donor molecule, donor type, donor heavy atom, donor atom, acceptor molecule, acceptor atom, score
      P1  H  7997  8009       L1    17  0.99

> <Gold.Chemscore.Hbond.Weighted>
-3.3400

> <Gold.Chemscore.Metal.Weighted>
-0.0000

> <Gold.Chemscore.Lipo.Weighted>
-17.0885

> <Gold.Chemscore.Internal_Hbond.Weighted>
0.0000

> <Gold.Chemscore.DEClash.Weighted>
0.0962

> <Gold.Chemscore.DEInternal.Weighted>
1.8622

> <Gold.Chemscore.Rot.Weighted>
7.0102

> <Gold.Chemscore.Internal.Correction.Weighted>
   9.000000E+99

> <Gold.Protein.RotatedTorsions>
[ 6907 6896 6895 6894 ] final    3.32 input  -60.11 | X-H torsion
[ 7974 7965 7964 7962 ] final  133.71 input  175.53 | X-H torsion
[ 8008 7997 7996 7995 ] final -158.62 input   59.86 | X-H torsion
[ 10167 10162 10161 10158 ] final -156.59 input  -65.29 | X-H torsion
[ 10718 10713 10712 10709 ] final -168.49 input   66.30 | X-H torsion
[ 10763 10752 10751 10750 ] final -131.04 input  -60.55 | X-H torsion
[ 11005 11000 10999 10996 ] final   47.92 input  -57.11 | X-H torsion

> <Gold.Protein.ActiveResidues>
 VAL166  LYS551  ARG553  GLY616  TRP617  ASP618  TYR619  PRO620  LYS621  CYS622 
 ASP623  PHE694  ASN695  SER759  ASP760  ASP761  ALA762  ILE779  LEU786  VAL792 
 PHE793  MET794  SER795  GLU796  ALA797  LYS798  CYS799  TRP800  GLU811  SER814 

> <Gold.Protein.RotatedAtoms>
  151.6232  135.1030  160.0105 H   0  0  0  0  0  0  0  0  0  0  0  0  # atno 6907 bound_to 6896
  152.4146  133.7014  159.6437 H   0  0  0  0  0  0  0  0  0  0  0  0  # atno 6908 bound_to 6896
  150.8035  133.8479  159.3238 H   0  0  0  0  0  0  0  0  0  0  0  0  # atno 6909 bound_to 6896
  144.9838  139.4477  143.5373 H   0  0  0  0  0  0  0  0  0  0  0  0  # atno 7974 bound_to 7965
  155.7502  140.0825  157.2204 H   0  0  0  0  0  0  0  0  0  0  0  0  # atno 8008 bound_to 7997
  154.4013  140.1562  156.2771 H   0  0  0  0  0  0  0  0  0  0  0  0  # atno 8009 bound_to 7997
  155.8937  140.3414  155.5978 H   0  0  0  0  0  0  0  0  0  0  0  0  # atno 8010 bound_to 7997
  139.6838  143.9536  152.2350 H   0  0  0  0  0  0  0  0  0  0  0  0  # atno 10167 bound_to 10162
  156.6977  130.9184  151.3076 H   0  0  0  0  0  0  0  0  0  0  0  0  # atno 10718 bound_to 10713
  154.8753  135.3843  154.4181 H   0  0  0  0  0  0  0  0  0  0  0  0  # atno 10763 bound_to 10752
  153.4887  135.7030  153.5901 H   0  0  0  0  0  0  0  0  0  0  0  0  # atno 10764 bound_to 10752
  153.4284  135.3884  155.2122 H   0  0  0  0  0  0  0  0  0  0  0  0  # atno 10765 bound_to 10752
  140.1236  134.4797  155.8577 H   0  0  0  0  0  0  0  0  0  0  0  0  # atno 11005 bound_to 11000
  146.3415  139.9127  142.8778 LP  0  0  0  0  0  0  0  0  0  0  0  0  # atno 17320 bound_to 7965
  145.2383  140.9999  143.3950 LP  0  0  0  0  0  0  0  0  0  0  0  0  # atno 17321 bound_to 7965
  139.9334  144.6727  150.8340 LP  0  0  0  0  0  0  0  0  0  0  0  0  # atno 17342 bound_to 10162
  140.7661  143.3293  151.2445 LP  0  0  0  0  0  0  0  0  0  0  0  0  # atno 17343 bound_to 10162
  157.6985  130.9307  150.0714 LP  0  0  0  0  0  0  0  0  0  0  0  0  # atno 17370 bound_to 10713
  156.1751  130.3648  149.9111 LP  0  0  0  0  0  0  0  0  0  0  0  0  # atno 17371 bound_to 10713
  141.2157  133.6770  156.6936 LP  0  0  0  0  0  0  0  0  0  0  0  0  # atno 17394 bound_to 11000
  140.2932  134.8223  157.4035 LP  0  0  0  0  0  0  0  0  0  0  0  0  # atno 17395 bound_to 11000

$$$$
