AV-unprocessed.smi:1101|AV-procd|sdf|4766|dock5
  -GOLD-   22720 3303D 1   1.00000     0.00000
 Structure written by MMmdl.
 41 42  0  0  0  0  0  0  0  0  1 V2000
  147.3118  140.0495  153.8077 C   0  0  0  0  0  0  0  0  0  0  0  0
  148.5689  140.7970  154.2691 C   0  0  0  0  0  0  0  0  0  0  0  0
  149.6220  139.8702  154.8966 C   0  0  1  0  0  0  0  0  0  0  0  0
  149.9542  138.6702  153.9855 C   0  0  0  0  0  0  0  0  0  0  0  0
  150.9917  137.8626  154.6435 N   0  0  0  0  0  0  0  0  0  0  0  0
  150.8347  136.6361  155.2009 C   0  0  0  0  0  0  0  0  0  0  0  0
  151.6323  136.1546  156.0068 O   0  0  0  0  0  0  0  0  0  0  0  0
  149.7492  135.9632  154.7827 N   0  0  0  0  0  0  0  0  0  0  0  0
  149.3640  134.6272  155.2223 C   0  0  0  0  0  0  0  0  0  0  0  0
  148.7986  133.7902  154.0633 C   0  0  0  0  0  0  0  0  0  0  0  0
  149.1660  132.3397  154.2019 C   0  0  0  0  0  0  0  0  0  0  0  0
  149.9786  131.7347  155.2029 C   0  0  0  0  0  0  0  0  0  0  0  0
  150.1060  130.4276  155.0416 N   0  0  0  0  0  0  0  0  0  0  0  0
  149.3826  130.1535  153.9364 N   0  0  0  0  0  0  0  0  0  0  0  0
  149.2990  128.7900  153.4584 C   0  0  0  0  0  0  0  0  0  0  0  0
  148.8052  131.2878  153.4076 C   0  0  0  0  0  0  0  0  0  0  0  0
  152.2071  138.6599  154.8264 C   0  0  0  0  0  0  0  0  0  0  0  0
  151.8635  139.8650  155.7189 C   0  0  0  0  0  0  0  0  0  0  0  0
  150.8160  140.6217  155.1164 O   0  0  0  0  0  0  0  0  0  0  0  0
  146.5981  140.7358  153.3516 H   0  0  0  0  0  0  0  0  0  0  0  0
  146.8123  139.5603  154.6444 H   0  0  0  0  0  0  0  0  0  0  0  0
  147.5569  139.2853  153.0697 H   0  0  0  0  0  0  0  0  0  0  0  0
  149.0042  141.3090  153.4101 H   0  0  0  0  0  0  0  0  0  0  0  0
  148.2906  141.5747  154.9812 H   0  0  0  0  0  0  0  0  0  0  0  0
  149.2460  139.5046  155.8542 H   0  0  0  0  0  0  0  0  0  0  0  0
  149.0437  138.1166  153.7567 H   0  0  0  0  0  0  0  0  0  0  0  0
  150.3321  139.0214  153.0239 H   0  0  0  0  0  0  0  0  0  0  0  0
  149.1452  136.4132  154.1105 H   0  0  0  0  0  0  0  0  0  0  0  0
  150.2486  134.1408  155.6343 H   0  0  0  0  0  0  0  0  0  0  0  0
  148.6399  134.6957  156.0361 H   0  0  0  0  0  0  0  0  0  0  0  0
  147.7144  133.9021  154.0263 H   0  0  0  0  0  0  0  0  0  0  0  0
  149.1689  134.1887  153.1180 H   0  0  0  0  0  0  0  0  0  0  0  0
  150.4762  132.2054  156.0381 H   0  0  0  0  0  0  0  0  0  0  0  0
  148.6000  128.7282  152.6239 H   0  0  0  0  0  0  0  0  0  0  0  0
  148.9518  128.1370  154.2595 H   0  0  0  0  0  0  0  0  0  0  0  0
  150.2817  128.4564  153.1237 H   0  0  0  0  0  0  0  0  0  0  0  0
  148.1903  131.2544  152.5202 H   0  0  0  0  0  0  0  0  0  0  0  0
  153.0266  138.0910  155.2677 H   0  0  0  0  0  0  0  0  0  0  0  0
  152.5675  139.0010  153.8549 H   0  0  0  0  0  0  0  0  0  0  0  0
  151.5627  139.5387  156.7158 H   0  0  0  0  0  0  0  0  0  0  0  0
  152.7366  140.5059  155.8416 H   0  0  0  0  0  0  0  0  0  0  0  0
  1  2  1  0  0  0  0
  1 20  1  0  0  0  0
  1 21  1  0  0  0  0
  1 22  1  0  0  0  0
  2  3  1  0  0  0  0
  2 23  1  0  0  0  0
  2 24  1  0  0  0  0
  3 19  1  0  0  0  0
  3  4  1  0  0  0  0
  3 25  1  0  0  0  0
  4  5  1  0  0  0  0
  4 26  1  0  0  0  0
  4 27  1  0  0  0  0
  5  6  1  0  0  0  0
  5 17  1  0  0  0  0
  6  7  2  0  0  0  0
  6  8  1  0  0  0  0
  8  9  1  0  0  0  0
  8 28  1  0  0  0  0
  9 10  1  0  0  0  0
  9 29  1  0  0  0  0
  9 30  1  0  0  0  0
 10 11  1  0  0  0  0
 10 31  1  0  0  0  0
 10 32  1  0  0  0  0
 11 16  2  0  0  0  0
 11 12  1  0  0  0  0
 12 13  2  0  0  0  0
 12 33  1  0  0  0  0
 13 14  1  0  0  0  0
 14 15  1  0  0  0  0
 14 16  1  0  0  0  0
 15 34  1  0  0  0  0
 15 35  1  0  0  0  0
 15 36  1  0  0  0  0
 16 37  1  0  0  0  0
 17 18  1  0  0  0  0
 17 38  1  0  0  0  0
 17 39  1  0  0  0  0
 18 19  1  0  0  0  0
 18 40  1  0  0  0  0
 18 41  1  0  0  0  0
M  END
> <s_m_source_file>
AV-unprocessed.smi

> <i_m_source_file_index>
1101

> <i_lp_mmshare_version>
43012

> <i_f3d_flags>
0

> <s_epik_input>
W0NIM11bQ0gyXVtDQEBIXTFbQ0gyXU4oW0NIMl1bQ0gyXU8xKUMoPU8pW05IXVtDSDJdW0NIMl1jMltjSF1ubihbQ0gzXSlbY0hdMg==

> <s_epik_cmdline>
J2VwaWtfcHl0aG9uJywgJy1waCcsICc3LjAnLCAnLXRuJywgJzgnLCAnLW1hJywgJzIwMCcsICctbWV0YWxfYmluZGluZycsICctaW1hZScsICc8aW5maWxlLm1hZT4nLCAnLW9tYWUnLCAnPG91dGZpbGUubWFlPic=

> <r_lp_tautomer_probability>
1

> <r_epik_Ionization_Penalty>
0.000536373

> <r_epik_Ionization_Penalty_Charging>
0

> <r_epik_Ionization_Penalty_Neutral>
0.000536373

> <r_epik_State_Penalty>
-0

> <r_epik_Charging_Adjusted_Penalty>
0

> <i_epik_Tot_Q>
0

> <i_epik_Tot_abs_Q>
0

> <r_epik_Metal_State_Penalty>
-0

> <b_epik_Metal_Only>
0

> <s_lp_Force_Field>
OPLS_2005

> <r_lp_Energy>
24.031

> <b_lp_Chiralities_Consistent>
1

> <s_lp_Variant>
AV-unprocessed.smi:1101-2

> <Gold.Version>
5.8.1

> <Gold.Id.Protein>
6NUR|6NUR_protein|mol2

> <Gold.PLP.Fitness>
47.9023

> <Gold.PLP.PLP>
-38.6474

> <Gold.PLP.part.hbond>
-3.0000

> <Gold.PLP.part.metal>
0.0000

> <Gold.PLP.part.buried>
0.3993

> <Gold.PLP.part.nonpolar>
-34.6742

> <Gold.PLP.part.repulsive>
0.1537

> <Gold.PLP.ligand.clash>
0.0000

> <Gold.PLP.ligand.torsion>
0.5205

> <Gold.PLP.Chemscore.Hbond>
2.4159

> <Gold.PLP.Chemscore.CHOScore>
1.0000

> <Gold.PLP.Chemscore.Metal>
0.0000

> <Gold.Chemscore.Hbonds>
donor molecule, donor type, donor heavy atom, donor atom, acceptor molecule, acceptor atom, score
      L1  H     8    28       P1  7948  0.28
      P1  H  7989  7998       L1    19  0.80
      P1  H 10752 10765       L1     7  1.00
      L1  C    16    37       P1 10747  0.90

> <Gold.PLP.Chemscore.Internal.Correction>
0.0481

> <Gold.Rescore>
     Score         DG    S(hbond)    S(metal)    S(lipo)     H(rot)  DE(clash)    DE(int)     intcor
     12.61     -13.28       0.96        0.00      72.15       1.51       0.17       0.49       ----

> <Gold.Chemscore.Fitness>
12.6142

> <Gold.Chemscore.DG>
-13.2753

> <Gold.Chemscore.ZeroCoef>
-5.4800

> <Gold.Chemscore.Hbond>
0.9608

> <Gold.Chemscore.Metal>
0.0000

> <Gold.Chemscore.Lipo>
72.1533

> <Gold.Chemscore.Internal_Hbond>
0.0000

> <Gold.Chemscore.DEClash>
0.1670

> <Gold.Chemscore.DEInternal>
0.4941

> <Gold.Chemscore.Rot>
1.5062

> <Gold.Chemscore.Internal.Correction>
   9.000000E+99

> <Gold.Chemscore.Hbonds>
donor molecule, donor type, donor heavy atom, donor atom, acceptor molecule, acceptor atom, score
      L1  H     8    28       P1  7948  0.28
      P1  H  7989  7998       L1    19  0.09
      P1  H 10752 10765       L1     7  0.60

> <Gold.Chemscore.Hbond.Weighted>
-3.2092

> <Gold.Chemscore.Metal.Weighted>
-0.0000

> <Gold.Chemscore.Lipo.Weighted>
-8.4419

> <Gold.Chemscore.Internal_Hbond.Weighted>
0.0000

> <Gold.Chemscore.DEClash.Weighted>
0.1670

> <Gold.Chemscore.DEInternal.Weighted>
0.4941

> <Gold.Chemscore.Rot.Weighted>
3.8558

> <Gold.Chemscore.Internal.Correction.Weighted>
   9.000000E+99

> <Gold.Protein.RotatedTorsions>
[ 6907 6896 6895 6894 ] final   34.87 input  -60.11 | X-H torsion
[ 7974 7965 7964 7962 ] final  164.86 input  175.53 | X-H torsion
[ 8008 7997 7996 7995 ] final  124.53 input   59.86 | X-H torsion
[ 10167 10162 10161 10158 ] final   39.80 input  -65.29 | X-H torsion
[ 10718 10713 10712 10709 ] final  -23.95 input   66.30 | X-H torsion
[ 10763 10752 10751 10750 ] final -152.86 input  -60.55 | X-H torsion
[ 11005 11000 10999 10996 ] final  -52.35 input  -57.11 | X-H torsion

> <Gold.Protein.ActiveResidues>
 VAL166  LYS551  ARG553  GLY616  TRP617  ASP618  TYR619  PRO620  LYS621  CYS622 
 ASP623  PHE694  ASN695  SER759  ASP760  ASP761  ALA762  ILE779  LEU786  VAL792 
 PHE793  MET794  SER795  GLU796  ALA797  LYS798  CYS799  TRP800  GLU811  SER814 

> <Gold.Protein.RotatedAtoms>
  152.1084  134.9292  160.0567 H   0  0  0  0  0  0  0  0  0  0  0  0  # atno 6907 bound_to 6896
  152.0479  133.4001  159.4373 H   0  0  0  0  0  0  0  0  0  0  0  0  # atno 6908 bound_to 6896
  150.6842  134.3261  159.4851 H   0  0  0  0  0  0  0  0  0  0  0  0  # atno 6909 bound_to 6896
  144.7527  139.8386  143.6360 H   0  0  0  0  0  0  0  0  0  0  0  0  # atno 7974 bound_to 7965
  156.2804  140.2737  156.1803 H   0  0  0  0  0  0  0  0  0  0  0  0  # atno 8008 bound_to 7997
  155.0564  140.0386  157.2579 H   0  0  0  0  0  0  0  0  0  0  0  0  # atno 8009 bound_to 7997
  154.7153  140.2677  155.6596 H   0  0  0  0  0  0  0  0  0  0  0  0  # atno 8010 bound_to 7997
  140.3804  144.1986  150.6131 H   0  0  0  0  0  0  0  0  0  0  0  0  # atno 10167 bound_to 10162
  156.4842  130.4552  149.6794 H   0  0  0  0  0  0  0  0  0  0  0  0  # atno 10718 bound_to 10713
  154.7966  135.3226  154.7651 H   0  0  0  0  0  0  0  0  0  0  0  0  # atno 10763 bound_to 10752
  153.8328  135.6878  153.4816 H   0  0  0  0  0  0  0  0  0  0  0  0  # atno 10764 bound_to 10752
  153.1661  135.4641  154.9781 H   0  0  0  0  0  0  0  0  0  0  0  0  # atno 10765 bound_to 10752
  141.0919  133.6631  156.4011 H   0  0  0  0  0  0  0  0  0  0  0  0  # atno 11005 bound_to 11000
  146.1498  139.4578  143.0056 LP  0  0  0  0  0  0  0  0  0  0  0  0  # atno 17320 bound_to 7965
  145.6887  141.0170  143.1567 LP  0  0  0  0  0  0  0  0  0  0  0  0  # atno 17321 bound_to 7965
  140.4943  143.2337  151.8773 LP  0  0  0  0  0  0  0  0  0  0  0  0  # atno 17342 bound_to 10162
  139.4796  144.5131  151.8905 LP  0  0  0  0  0  0  0  0  0  0  0  0  # atno 17343 bound_to 10162
  156.3491  130.7422  151.2379 LP  0  0  0  0  0  0  0  0  0  0  0  0  # atno 17370 bound_to 10713
  157.7480  131.0382  150.4492 LP  0  0  0  0  0  0  0  0  0  0  0  0  # atno 17371 bound_to 10713
  140.5231  134.6285  157.5325 LP  0  0  0  0  0  0  0  0  0  0  0  0  # atno 17394 bound_to 11000
  139.9747  134.7235  155.9973 LP  0  0  0  0  0  0  0  0  0  0  0  0  # atno 17395 bound_to 11000

$$$$
