#       Name:                AV-unprocessed.smi:2725
#       Creating user name   scv26
#       Creation time:       Fri Mar 27 14:55:49 2020


#       File generated by GOLD software.
#

@<TRIPOS>MOLECULE
AV-unprocessed.smi:2725
    49    50     1
SMALL
NO_CHARGES


@<TRIPOS>ATOM
      1 ****         0.3105   1.3157  -0.5512 O.2            1 S1                 0.0000
      2 ****        -0.1746   0.1838  -0.5451 C.2            1 S1                 0.0000
      3 ****        -1.6928  -0.0194  -0.5570 C.3            1 S1                 0.0000
      4 ****        -2.4698   1.1595   0.0601 C.3            1 S1                 0.0000
      5 ****        -3.9816   0.8935   0.1706 C.3            1 S1                 0.0000
      6 ****        -4.7053   0.7630  -1.1739 C.3            1 S1                 0.0000
      7 ****        -6.1810   1.0558  -0.8742 C.3            1 S1                 0.0000
      8 ****        -6.2125   1.7908   0.4743 C.3            1 S1                 0.0000
      9 ****        -4.7502   2.0178   0.8677 C.3            1 S1                 0.0000
     10 ****         0.5693  -0.9331  -0.5287 N.am           1 S1                 0.0000
     11 ****         2.0303  -0.9763  -0.5388 C.3            1 S1                 0.0000
     12 ****         2.4764  -2.3178  -1.1565 C.3            1 S1                 0.0000
     13 ****         2.4386  -2.2389  -2.5654 O.3            1 S1                 0.0000
     14 ****         2.5507  -0.7746   0.9033 C.3            1 S1                 0.0000
     15 ****         4.0497  -0.5443   0.9812 C.ar           1 S1                 0.0000
     16 ****         4.6177   0.7310   0.7708 C.ar           1 S1                 0.0000
     17 ****         6.0178   0.8837   0.8446 C.ar           1 S1                 0.0000
     18 ****         6.8205  -0.2414   1.1259 C.ar           1 S1                 0.0000
     19 ****         6.2016  -1.4919   1.3269 C.ar           1 S1                 0.0000
     20 ****         4.8567  -1.5972   1.2482 N.pl3          1 S1                 1.0000
     21 ****        -2.0071  -0.1779  -1.5889 H              1 S1                 0.0000
     22 ****        -1.9302  -0.9348  -0.0128 H              1 S1                 0.0000
     23 ****        -2.0777   1.3648   1.0574 H              1 S1                 0.0000
     24 ****        -2.3006   2.0641  -0.5259 H              1 S1                 0.0000
     25 ****        -4.1412  -0.0241   0.7394 H              1 S1                 0.0000
     26 ****        -4.3253   1.5079  -1.8744 H              1 S1                 0.0000
     27 ****        -4.5643  -0.2176  -1.6296 H              1 S1                 0.0000
     28 ****        -6.6294   1.6528  -1.6689 H              1 S1                 0.0000
     29 ****        -6.7490   0.1273  -0.8051 H              1 S1                 0.0000
     30 ****        -6.7669   2.7282   0.4203 H              1 S1                 0.0000
     31 ****        -6.7028   1.1640   1.2201 H              1 S1                 0.0000
     32 ****        -4.6053   2.0178   1.9485 H              1 S1                 0.0000
     33 ****        -4.4186   2.9861   0.4896 H              1 S1                 0.0000
     34 ****         0.0873  -1.8204  -0.5341 H              1 S1                 0.0000
     35 ****         2.4100  -0.1571  -1.1535 H              1 S1                 0.0000
     36 ****         3.5051  -2.5529  -0.8881 H              1 S1                 0.0000
     37 ****         1.8611  -3.1481  -0.8075 H              1 S1                 0.0000
     38 ****         2.7136  -3.0695  -2.9233 H              1 S1                 0.0000
     39 ****         2.0677   0.0902   1.3605 H              1 S1                 0.0000
     40 ****         2.2794  -1.6304   1.5233 H              1 S1                 0.0000
     41 ****         3.9885   1.5820   0.5523 H              1 S1                 0.0000
     42 ****         6.4706   1.8516   0.6861 H              1 S1                 0.0000
     43 ****         7.8949  -0.1461   1.1862 H              1 S1                 0.0000
     44 ****         6.7371  -2.4041   1.5462 H              1 S1                 0.0000
     45 ****         4.4308  -2.5121   1.3973 H              1 S1                 0.0000
     46 ****        -0.2885   2.1163  -0.5640 LP             1 S1                 0.0000
     47 ****         1.3034   1.4342  -0.5432 LP             1 S1                 0.0000
     48 ****         3.0555  -1.5169  -2.8785 LP             1 S1                 0.0000
     49 ****         1.5069  -2.0350  -2.8660 LP             1 S1                 0.0000
@<TRIPOS>BOND
    1    1    2 2     
    2    2    3 1     
    3    2   10 am    
    4    3    4 1     
    5    3   21 1     
    6    3   22 1     
    7    4    5 1     
    8    4   23 1     
    9    4   24 1     
   10    5    9 1     
   11    5    6 1     
   12    5   25 1     
   13    6    7 1     
   14    6   26 1     
   15    6   27 1     
   16    7    8 1     
   17    7   28 1     
   18    7   29 1     
   19    8    9 1     
   20    8   30 1     
   21    8   31 1     
   22    9   32 1     
   23    9   33 1     
   24   10   11 1     
   25   10   34 1     
   26   11   12 1     
   27   11   14 1     
   28   11   35 1     
   29   12   13 1     
   30   12   36 1     
   31   12   37 1     
   32   13   38 1     
   33   14   15 1     
   34   14   39 1     
   35   14   40 1     
   36   15   20 ar    
   37   15   16 ar    
   38   16   17 ar    
   39   16   41 1     
   40   17   18 ar    
   41   17   42 1     
   42   18   19 ar    
   43   18   43 1     
   44   19   20 ar    
   45   19   44 1     
   46   20   45 1     
   47    1   46 1     
   48    1   47 1     
   49   13   48 1     
   50   13   49 1     
@<TRIPOS>SUBSTRUCTURE
      1 S1             1
@<TRIPOS>SET
LONE_PAIRS      STATIC     ATOMS    <user>   **** ""
4 46 47 48 49
DONOR_HYDROGENS      STATIC     ATOMS    <user>   **** ""
3 34 38 45
ATOM$BLUE        STATIC     ATOMS    COLORGROUP SYSTEM
4 46 47 48 49
ATOM$RED        STATIC     ATOMS    COLORGROUP SYSTEM
3 34 38 45
