AV-unprocessed.smi:363|AV-procd|sdf|2423|dock5
  -GOLD-   2262022363D 1   1.00000     0.00000
 Structure written by MMmdl.
 39 40  0  0  0  0  0  0  0  0  1 V2000
  143.9999  144.9494  159.1631 C   0  0  0  0  0  0  0  0  0  0  0  0
  145.3004  144.1894  158.9325 C   0  0  0  0  0  0  0  0  0  0  0  0
  145.4296  143.4219  157.7157 C   0  0  0  0  0  0  0  0  0  0  0  0
  146.5280  142.6904  157.4688 C   0  0  0  0  0  0  0  0  0  0  0  0
  146.6443  141.8712  156.1876 C   0  0  0  0  0  0  0  0  0  0  0  0
  147.6062  142.6721  158.3962 N   0  0  0  0  0  0  0  0  0  0  0  0
  148.8091  141.8577  158.1025 C   0  0  0  0  0  0  0  0  0  0  0  0
  150.0665  142.7312  157.8807 C   0  0  2  0  0  0  0  0  0  0  0  0
  150.3401  142.8072  156.4957 O   0  0  0  0  0  0  0  0  0  0  0  0
  151.2621  142.1725  158.6377 C   0  0  0  0  0  0  0  0  0  0  0  0
  151.6956  140.8506  158.3981 C   0  0  0  0  0  0  0  0  0  0  0  0
  152.8046  140.3298  159.0930 C   0  0  0  0  0  0  0  0  0  0  0  0
  153.4881  141.1280  160.0304 C   0  0  0  0  0  0  0  0  0  0  0  0
  154.8457  140.4888  160.8821 Cl  0  0  0  0  0  0  0  0  0  0  0  0
  153.0623  142.4485  160.2714 C   0  0  0  0  0  0  0  0  0  0  0  0
  151.9534  142.9695  159.5767 C   0  0  0  0  0  0  0  0  0  0  0  0
  147.5798  143.3999  159.5589 C   0  0  0  0  0  0  0  0  0  0  0  0
  148.5608  143.4118  160.3095 O   0  0  0  0  0  0  0  0  0  0  0  0
  146.3293  144.1641  159.8219 C   0  0  0  0  0  0  0  0  0  0  0  0
  146.2721  144.9212  161.0875 C   0  0  0  0  0  0  0  0  0  0  0  0
  146.0372  146.2340  160.9556 N   0  0  0  0  0  0  0  0  0  0  0  0
  146.4969  144.4473  162.2001 O   0  0  0  0  0  0  0  0  0  0  0  0
  143.2448  144.6692  158.4284 H   0  0  0  0  0  0  0  0  0  0  0  0
  144.1643  146.0238  159.0766 H   0  0  0  0  0  0  0  0  0  0  0  0
  143.5882  144.7354  160.1499 H   0  0  0  0  0  0  0  0  0  0  0  0
  144.6226  143.4291  156.9972 H   0  0  0  0  0  0  0  0  0  0  0  0
  145.6749  141.7874  155.6952 H   0  0  0  0  0  0  0  0  0  0  0  0
  146.9881  140.8550  156.3720 H   0  0  0  0  0  0  0  0  0  0  0  0
  147.3253  142.3545  155.4865 H   0  0  0  0  0  0  0  0  0  0  0  0
  148.9834  141.1664  158.9256 H   0  0  0  0  0  0  0  0  0  0  0  0
  148.6675  141.1771  157.2608 H   0  0  0  0  0  0  0  0  0  0  0  0
  149.8824  143.7481  158.2288 H   0  0  0  0  0  0  0  0  0  0  0  0
  149.7411  143.4254  156.1058 H   0  0  0  0  0  0  0  0  0  0  0  0
  151.1800  140.2294  157.6802 H   0  0  0  0  0  0  0  0  0  0  0  0
  153.1297  139.3170  158.9056 H   0  0  0  0  0  0  0  0  0  0  0  0
  153.5853  143.0640  160.9885 H   0  0  0  0  0  0  0  0  0  0  0  0
  151.6353  143.9843  159.7664 H   0  0  0  0  0  0  0  0  0  0  0  0
  145.9995  146.8247  161.7737 H   0  0  0  0  0  0  0  0  0  0  0  0
  145.9148  146.6308  160.0352 H   0  0  0  0  0  0  0  0  0  0  0  0
  1  2  1  0  0  0  0
  1 23  1  0  0  0  0
  1 24  1  0  0  0  0
  1 25  1  0  0  0  0
  2 19  2  0  0  0  0
  2  3  1  0  0  0  0
  3  4  2  0  0  0  0
  3 26  1  0  0  0  0
  4  5  1  0  0  0  0
  4  6  1  0  0  0  0
  5 27  1  0  0  0  0
  5 28  1  0  0  0  0
  5 29  1  0  0  0  0
  6  7  1  0  0  0  0
  6 17  1  0  0  0  0
  7  8  1  0  0  0  0
  7 30  1  0  0  0  0
  7 31  1  0  0  0  0
  8  9  1  0  0  0  0
  8 10  1  0  0  0  0
  8 32  1  0  0  0  0
  9 33  1  0  0  0  0
 10 16  1  0  0  0  0
 10 11  2  0  0  0  0
 11 12  1  0  0  0  0
 11 34  1  0  0  0  0
 12 13  2  0  0  0  0
 12 35  1  0  0  0  0
 13 14  1  0  0  0  0
 13 15  1  0  0  0  0
 15 16  2  0  0  0  0
 15 36  1  0  0  0  0
 16 37  1  0  0  0  0
 17 18  2  0  0  0  0
 17 19  1  0  0  0  0
 19 20  1  0  0  0  0
 20 21  1  0  0  0  0
 20 22  2  0  0  0  0
 21 38  1  0  0  0  0
 21 39  1  0  0  0  0
M  END
> <s_m_source_file>
AV-unprocessed.smi

> <i_m_source_file_index>
363

> <i_lp_mmshare_version>
43012

> <i_f3d_flags>
0

> <s_epik_input>
W0NIM11jMVtjSF1jKFtDSDNdKW4oYyg9TyljMUMoPU8pW05IMl0pW0NIMl1bQ0BIXShbT0hdKWMyW2NIXVtjSF1jKENsKVtjSF1bY0hdMg==

> <s_epik_cmdline>
J2VwaWtfcHl0aG9uJywgJy1waCcsICc3LjAnLCAnLXRuJywgJzgnLCAnLW1hJywgJzIwMCcsICctbWV0YWxfYmluZGluZycsICctaW1hZScsICc8aW5maWxlLm1hZT4nLCAnLW9tYWUnLCAnPG91dGZpbGUubWFlPic=

> <r_lp_tautomer_probability>
1

> <r_epik_Ionization_Penalty>
3.91973e-07

> <r_epik_Ionization_Penalty_Charging>
1.35363e-07

> <r_epik_Ionization_Penalty_Neutral>
2.5661e-07

> <r_epik_State_Penalty>
-0

> <r_epik_Charging_Adjusted_Penalty>
1.35363e-07

> <i_epik_Tot_Q>
0

> <i_epik_Tot_abs_Q>
0

> <r_epik_Metal_State_Penalty>
-0

> <b_epik_Metal_Only>
0

> <s_lp_Force_Field>
OPLS_2005

> <r_lp_Energy>
39.7948

> <b_lp_Chiralities_Consistent>
1

> <s_lp_Variant>
AV-unprocessed.smi:363-1

> <Gold.Version>
5.8.1

> <Gold.Id.Protein>
6NUR|6NUR_protein|mol2

> <Gold.PLP.Fitness>
39.4898

> <Gold.PLP.PLP>
-36.8922

> <Gold.PLP.part.hbond>
-4.0000

> <Gold.PLP.part.metal>
0.0000

> <Gold.PLP.part.buried>
-5.2699

> <Gold.PLP.part.nonpolar>
-28.0520

> <Gold.PLP.part.repulsive>
0.3367

> <Gold.PLP.ligand.clash>
0.0000

> <Gold.PLP.ligand.torsion>
1.6736

> <Gold.PLP.Chemscore.Hbond>
1.8640

> <Gold.PLP.Chemscore.CHOScore>
0.0000

> <Gold.PLP.Chemscore.Metal>
0.0000

> <Gold.Chemscore.Hbonds>
donor molecule, donor type, donor heavy atom, donor atom, acceptor molecule, acceptor atom, score
      L1  H     9    33       P1  8028  1.00
      P1  H  6933  6944       L1    18  0.77

> <Gold.PLP.Chemscore.Internal.Correction>
0.3528

> <Gold.Rescore>
     Score         DG    S(hbond)    S(metal)    S(lipo)     H(rot)  DE(clash)    DE(int)     intcor
     14.90     -16.90       1.89        0.00      86.33       1.95       0.07       1.93       ----

> <Gold.Chemscore.Fitness>
14.8964

> <Gold.Chemscore.DG>
-16.8997

> <Gold.Chemscore.ZeroCoef>
-5.4800

> <Gold.Chemscore.Hbond>
1.8891

> <Gold.Chemscore.Metal>
0.0000

> <Gold.Chemscore.Lipo>
86.3320

> <Gold.Chemscore.Internal_Hbond>
0.0000

> <Gold.Chemscore.DEClash>
0.0708

> <Gold.Chemscore.DEInternal>
1.9325

> <Gold.Chemscore.Rot>
1.9495

> <Gold.Chemscore.Internal.Correction>
   9.000000E+99

> <Gold.Chemscore.Hbonds>
donor molecule, donor type, donor heavy atom, donor atom, acceptor molecule, acceptor atom, score
      L1  H     9    33       P1  8028  0.99
      P1  H  6933  6944       L1    18  0.64

> <Gold.Chemscore.Hbond.Weighted>
-6.3097

> <Gold.Chemscore.Metal.Weighted>
-0.0000

> <Gold.Chemscore.Lipo.Weighted>
-10.1008

> <Gold.Chemscore.Internal_Hbond.Weighted>
0.0000

> <Gold.Chemscore.DEClash.Weighted>
0.0708

> <Gold.Chemscore.DEInternal.Weighted>
1.9325

> <Gold.Chemscore.Rot.Weighted>
4.9908

> <Gold.Chemscore.Internal.Correction.Weighted>
   9.000000E+99

> <Gold.Protein.RotatedTorsions>
[ 6907 6896 6895 6894 ] final   66.11 input  -60.11 | X-H torsion
[ 7974 7965 7964 7962 ] final -102.14 input  175.53 | X-H torsion
[ 8008 7997 7996 7995 ] final  144.95 input   59.86 | X-H torsion
[ 10167 10162 10161 10158 ] final  -10.63 input  -65.29 | X-H torsion
[ 10718 10713 10712 10709 ] final -158.90 input   66.30 | X-H torsion
[ 10763 10752 10751 10750 ] final  -38.21 input  -60.55 | X-H torsion
[ 11005 11000 10999 10996 ] final  -86.11 input  -57.11 | X-H torsion

> <Gold.Protein.ActiveResidues>
 VAL166  LYS551  ARG553  GLY616  TRP617  ASP618  TYR619  PRO620  LYS621  CYS622 
 ASP623  PHE694  ASN695  SER759  ASP760  ASP761  ALA762  ILE779  LEU786  VAL792 
 PHE793  MET794  SER795  GLU796  ALA797  LYS798  CYS799  TRP800  GLU811  SER814 

> <Gold.Protein.RotatedAtoms>
  152.4457  134.5499  159.9863 H   0  0  0  0  0  0  0  0  0  0  0  0  # atno 6907 bound_to 6896
  151.5585  133.3401  159.2974 H   0  0  0  0  0  0  0  0  0  0  0  0  # atno 6908 bound_to 6896
  150.8373  134.7684  159.6967 H   0  0  0  0  0  0  0  0  0  0  0  0  # atno 6909 bound_to 6896
  145.2725  140.9303  143.2978 H   0  0  0  0  0  0  0  0  0  0  0  0  # atno 7974 bound_to 7965
  156.2895  140.2222  156.5136 H   0  0  0  0  0  0  0  0  0  0  0  0  # atno 8008 bound_to 7997
  154.7588  140.0475  157.0977 H   0  0  0  0  0  0  0  0  0  0  0  0  # atno 8009 bound_to 7997
  155.0017  140.3102  155.4868 H   0  0  0  0  0  0  0  0  0  0  0  0  # atno 8010 bound_to 7997
  140.7119  143.5727  150.9075 H   0  0  0  0  0  0  0  0  0  0  0  0  # atno 10167 bound_to 10162
  156.5605  130.8645  151.2808 H   0  0  0  0  0  0  0  0  0  0  0  0  # atno 10718 bound_to 10713
  153.9091  135.6794  153.4752 H   0  0  0  0  0  0  0  0  0  0  0  0  # atno 10763 bound_to 10752
  153.1088  135.4793  154.8995 H   0  0  0  0  0  0  0  0  0  0  0  0  # atno 10764 bound_to 10752
  154.7536  135.3191  154.8467 H   0  0  0  0  0  0  0  0  0  0  0  0  # atno 10765 bound_to 10752
  141.1634  133.7436  156.9114 H   0  0  0  0  0  0  0  0  0  0  0  0  # atno 11005 bound_to 11000
  144.9323  139.4285  143.6489 LP  0  0  0  0  0  0  0  0  0  0  0  0  # atno 17320 bound_to 7965
  146.3242  139.8240  142.8921 LP  0  0  0  0  0  0  0  0  0  0  0  0  # atno 17321 bound_to 7965
  139.9453  143.6335  152.3043 LP  0  0  0  0  0  0  0  0  0  0  0  0  # atno 17342 bound_to 10162
  139.6834  144.7653  151.1568 LP  0  0  0  0  0  0  0  0  0  0  0  0  # atno 17343 bound_to 10162
  157.7369  130.9787  150.2164 LP  0  0  0  0  0  0  0  0  0  0  0  0  # atno 17370 bound_to 10713
  156.2803  130.3732  149.7942 LP  0  0  0  0  0  0  0  0  0  0  0  0  # atno 17371 bound_to 10713
  140.1514  134.9227  157.2597 LP  0  0  0  0  0  0  0  0  0  0  0  0  # atno 17394 bound_to 11000
  140.2718  134.3451  155.7371 LP  0  0  0  0  0  0  0  0  0  0  0  0  # atno 17395 bound_to 11000

$$$$
