AV-unprocessed.smi:679|AV-procd|sdf|3319|dock3
  -GOLD-   22720 0283D 1   1.00000     0.00000
 Structure written by MMmdl.
 41 43  0  0  0  0  0  0  0  0  1 V2000
  145.3919  132.0055  151.1493 C   0  0  0  0  0  0  0  0  0  0  0  0
  145.5726  133.4847  151.4968 C   0  0  0  0  0  0  0  0  0  0  0  0
  146.0577  133.5861  152.8246 O   0  0  0  0  0  0  0  0  0  0  0  0
  146.7177  134.8159  153.0806 C   0  0  2  0  0  0  0  0  0  0  0  0
  147.2829  134.9563  154.4975 C   0  0  0  0  0  0  0  0  0  0  0  0
  146.7743  136.4025  154.4840 C   0  0  1  0  0  0  0  0  0  0  0  0
  147.8038  137.3190  153.9942 N   0  0  0  0  0  0  0  0  0  0  0  0
  148.1554  138.4666  154.5946 C   0  0  0  0  0  0  0  0  0  0  0  0
  147.6323  138.8751  155.6305 O   0  0  0  0  0  0  0  0  0  0  0  0
  149.2493  139.2927  153.9146 C   0  0  0  0  0  0  0  0  0  0  0  0
  150.5253  139.1557  154.5930 N   0  0  0  0  0  0  0  0  0  0  0  0
  151.2792  138.0811  154.8333 C   0  0  0  0  0  0  0  0  0  0  0  0
  152.3789  138.3945  155.5007 N   0  0  0  0  0  0  0  0  0  0  0  0
  152.2664  139.7649  155.6666 N   0  0  0  0  0  0  0  0  0  0  0  0
  151.1685  140.2222  155.1301 N   0  0  0  0  0  0  0  0  0  0  0  0
  145.7520  135.9846  153.3942 C   0  0  0  0  0  0  0  0  0  0  0  0
  144.3499  135.6138  153.8848 C   0  0  0  0  0  0  0  0  0  0  0  0
  143.4291  135.5939  152.6599 C   0  0  0  0  0  0  0  0  0  0  0  0
  144.1539  136.4028  151.5797 C   0  0  0  0  0  0  0  0  0  0  0  0
  145.4204  136.9397  152.2493 C   0  0  0  0  0  0  0  0  0  0  0  0
  145.0135  131.8871  150.1339 H   0  0  0  0  0  0  0  0  0  0  0  0
  144.6855  131.5268  151.8281 H   0  0  0  0  0  0  0  0  0  0  0  0
  146.3385  131.4692  151.2179 H   0  0  0  0  0  0  0  0  0  0  0  0
  146.2731  133.9461  150.7993 H   0  0  0  0  0  0  0  0  0  0  0  0
  144.6201  134.0086  151.4049 H   0  0  0  0  0  0  0  0  0  0  0  0
  147.4457  135.0787  152.3096 H   0  0  0  0  0  0  0  0  0  0  0  0
  146.7619  134.3333  155.2264 H   0  0  0  0  0  0  0  0  0  0  0  0
  148.3648  134.8399  154.5720 H   0  0  0  0  0  0  0  0  0  0  0  0
  146.3207  136.6996  155.4313 H   0  0  0  0  0  0  0  0  0  0  0  0
  148.2786  137.0601  153.1417 H   0  0  0  0  0  0  0  0  0  0  0  0
  149.3621  138.9687  152.8794 H   0  0  0  0  0  0  0  0  0  0  0  0
  148.9689  140.3470  153.8942 H   0  0  0  0  0  0  0  0  0  0  0  0
  151.0221  137.0782  154.5259 H   0  0  0  0  0  0  0  0  0  0  0  0
  144.3233  134.6630  154.4185 H   0  0  0  0  0  0  0  0  0  0  0  0
  143.9939  136.3701  154.5856 H   0  0  0  0  0  0  0  0  0  0  0  0
  143.2714  134.5709  152.3165 H   0  0  0  0  0  0  0  0  0  0  0  0
  142.4518  136.0160  152.8959 H   0  0  0  0  0  0  0  0  0  0  0  0
  144.4213  135.7484  150.7490 H   0  0  0  0  0  0  0  0  0  0  0  0
  143.5357  137.2068  151.1794 H   0  0  0  0  0  0  0  0  0  0  0  0
  145.2225  137.9379  152.6424 H   0  0  0  0  0  0  0  0  0  0  0  0
  146.2369  137.0377  151.5331 H   0  0  0  0  0  0  0  0  0  0  0  0
  1  2  1  0  0  0  0
  1 21  1  0  0  0  0
  1 22  1  0  0  0  0
  1 23  1  0  0  0  0
  2  3  1  0  0  0  0
  2 24  1  0  0  0  0
  2 25  1  0  0  0  0
  3  4  1  0  0  0  0
  4 16  1  0  0  0  0
  4  5  1  0  0  0  0
  4 26  1  0  0  0  0
  5  6  1  0  0  0  0
  5 27  1  0  0  0  0
  5 28  1  0  0  0  0
  6  7  1  0  0  0  0
  6 16  1  0  0  0  0
  6 29  1  0  0  0  0
  7  8  1  0  0  0  0
  7 30  1  0  0  0  0
  8  9  2  0  0  0  0
  8 10  1  0  0  0  0
 10 11  1  0  0  0  0
 10 31  1  0  0  0  0
 10 32  1  0  0  0  0
 11 15  1  0  0  0  0
 11 12  1  0  0  0  0
 12 13  2  0  0  0  0
 12 33  1  0  0  0  0
 13 14  1  0  0  0  0
 14 15  2  0  0  0  0
 16 20  1  0  0  0  0
 16 17  1  0  0  0  0
 17 18  1  0  0  0  0
 17 34  1  0  0  0  0
 17 35  1  0  0  0  0
 18 19  1  0  0  0  0
 18 36  1  0  0  0  0
 18 37  1  0  0  0  0
 19 20  1  0  0  0  0
 19 38  1  0  0  0  0
 19 39  1  0  0  0  0
 20 40  1  0  0  0  0
 20 41  1  0  0  0  0
M  END
> <s_m_source_file>
AV-unprocessed.smi

> <i_m_source_file_index>
679

> <i_lp_mmshare_version>
43012

> <i_f3d_flags>
0

> <s_epik_input>
W0NIMl0xW0NIMl1bQ0gyXVtDSDJdQzEyW0NASF0oT1tDSDJdW0NIM10pW0NIMl1bQ0BIXTJbTkhdQyg9TylbQ0gyXW4zW2NIXW5ubjM=

> <s_epik_cmdline>
J2VwaWtfcHl0aG9uJywgJy1waCcsICc3LjAnLCAnLXRuJywgJzgnLCAnLW1hJywgJzIwMCcsICctbWV0YWxfYmluZGluZycsICctaW1hZScsICc8aW5maWxlLm1hZT4nLCAnLW9tYWUnLCAnPG91dGZpbGUubWFlPic=

> <r_lp_tautomer_probability>
1

> <r_epik_Ionization_Penalty>
7.96741e-07

> <r_epik_Ionization_Penalty_Charging>
0

> <r_epik_Ionization_Penalty_Neutral>
7.96741e-07

> <r_epik_State_Penalty>
-0

> <r_epik_Charging_Adjusted_Penalty>
0

> <i_epik_Tot_Q>
0

> <i_epik_Tot_abs_Q>
0

> <r_epik_Metal_State_Penalty>
-0

> <b_epik_Metal_Only>
0

> <s_lp_Force_Field>
OPLS_2005

> <r_lp_Energy>
39.8699

> <b_lp_Chiralities_Consistent>
1

> <s_lp_Variant>
AV-unprocessed.smi:679-1

> <Gold.Version>
5.8.1

> <Gold.Id.Protein>
6NUR|6NUR_protein|mol2

> <Gold.PLP.Fitness>
36.2754

> <Gold.PLP.PLP>
-25.3452

> <Gold.PLP.part.hbond>
-4.4770

> <Gold.PLP.part.metal>
0.0000

> <Gold.PLP.part.buried>
-3.1516

> <Gold.PLP.part.nonpolar>
-17.6379

> <Gold.PLP.part.repulsive>
0.2099

> <Gold.PLP.ligand.clash>
0.0000

> <Gold.PLP.ligand.torsion>
0.5606

> <Gold.PLP.Chemscore.Hbond>
2.9000

> <Gold.PLP.Chemscore.CHOScore>
1.0000

> <Gold.PLP.Chemscore.Metal>
0.0000

> <Gold.Chemscore.Hbonds>
donor molecule, donor type, donor heavy atom, donor atom, acceptor molecule, acceptor atom, score
      L1  H     7    30       P1  7948  1.00
      P1  H  7989  7998       L1    15  0.65
      P1  H  7997  8008       L1    14  0.52

> <Gold.PLP.Chemscore.Internal.Correction>
0.3514

> <Gold.Rescore>
     Score         DG    S(hbond)    S(metal)    S(lipo)     H(rot)  DE(clash)    DE(int)     intcor
     11.35     -12.13       2.60        0.00      35.41       2.41       0.23       0.56       ----

> <Gold.Chemscore.Fitness>
11.3456

> <Gold.Chemscore.DG>
-12.1306

> <Gold.Chemscore.ZeroCoef>
-5.4800

> <Gold.Chemscore.Hbond>
2.5970

> <Gold.Chemscore.Metal>
0.0000

> <Gold.Chemscore.Lipo>
35.4144

> <Gold.Chemscore.Internal_Hbond>
0.0000

> <Gold.Chemscore.DEClash>
0.2292

> <Gold.Chemscore.DEInternal>
0.5558

> <Gold.Chemscore.Rot>
2.4089

> <Gold.Chemscore.Internal.Correction>
   9.000000E+99

> <Gold.Chemscore.Hbonds>
donor molecule, donor type, donor heavy atom, donor atom, acceptor molecule, acceptor atom, score
      L1  H     7    30       P1  7948  1.00
      P1  H  7989  7998       L1    15  0.03
      P1  H  7997  8008       L1    14  0.09

> <Gold.Chemscore.Hbond.Weighted>
-8.6739

> <Gold.Chemscore.Metal.Weighted>
-0.0000

> <Gold.Chemscore.Lipo.Weighted>
-4.1435

> <Gold.Chemscore.Internal_Hbond.Weighted>
0.0000

> <Gold.Chemscore.DEClash.Weighted>
0.2292

> <Gold.Chemscore.DEInternal.Weighted>
0.5558

> <Gold.Chemscore.Rot.Weighted>
6.1668

> <Gold.Chemscore.Internal.Correction.Weighted>
   9.000000E+99

> <Gold.Protein.RotatedTorsions>
[ 6907 6896 6895 6894 ] final   95.16 input  -60.11 | X-H torsion
[ 7974 7965 7964 7962 ] final   79.13 input  175.53 | X-H torsion
[ 8008 7997 7996 7995 ] final  -26.47 input   59.86 | X-H torsion
[ 10167 10162 10161 10158 ] final   34.36 input  -65.29 | X-H torsion
[ 10718 10713 10712 10709 ] final   99.20 input   66.30 | X-H torsion
[ 10763 10752 10751 10750 ] final   62.83 input  -60.55 | X-H torsion
[ 11005 11000 10999 10996 ] final   36.79 input  -57.11 | X-H torsion

> <Gold.Protein.ActiveResidues>
 VAL166  LYS551  ARG553  GLY616  TRP617  ASP618  TYR619  PRO620  LYS621  CYS622 
 ASP623  PHE694  ASN695  SER759  ASP760  ASP761  ALA762  ILE779  LEU786  VAL792 
 PHE793  MET794  SER795  GLU796  ALA797  LYS798  CYS799  TRP800  GLU811  SER814 

> <Gold.Protein.RotatedAtoms>
  152.5445  134.1082  159.8346 H   0  0  0  0  0  0  0  0  0  0  0  0  # atno 6907 bound_to 6896
  151.1152  133.5137  159.2611 H   0  0  0  0  0  0  0  0  0  0  0  0  # atno 6908 bound_to 6896
  151.1840  135.0383  159.8859 H   0  0  0  0  0  0  0  0  0  0  0  0  # atno 6909 bound_to 6896
  145.6682  139.2489  143.1884 H   0  0  0  0  0  0  0  0  0  0  0  0  # atno 7974 bound_to 7965
  154.4424  140.1898  156.0780 H   0  0  0  0  0  0  0  0  0  0  0  0  # atno 8008 bound_to 7997
  156.0461  140.3314  155.7271 H   0  0  0  0  0  0  0  0  0  0  0  0  # atno 8009 bound_to 7997
  155.5628  140.0605  157.2816 H   0  0  0  0  0  0  0  0  0  0  0  0  # atno 8010 bound_to 7997
  140.4322  144.1308  150.6161 H   0  0  0  0  0  0  0  0  0  0  0  0  # atno 10167 bound_to 10162
  157.6881  131.0662  150.4911 H   0  0  0  0  0  0  0  0  0  0  0  0  # atno 10718 bound_to 10713
  152.9996  135.5451  154.6255 H   0  0  0  0  0  0  0  0  0  0  0  0  # atno 10763 bound_to 10752
  154.5544  135.2829  155.0980 H   0  0  0  0  0  0  0  0  0  0  0  0  # atno 10764 bound_to 10752
  154.2207  135.6451  153.5196 H   0  0  0  0  0  0  0  0  0  0  0  0  # atno 10765 bound_to 10752
  140.2290  134.3550  155.7972 H   0  0  0  0  0  0  0  0  0  0  0  0  # atno 11005 bound_to 11000
  146.1068  140.7477  142.9522 LP  0  0  0  0  0  0  0  0  0  0  0  0  # atno 17320 bound_to 7965
  144.7066  140.3875  143.7113 LP  0  0  0  0  0  0  0  0  0  0  0  0  # atno 17321 bound_to 7965
  140.4414  143.2525  151.9468 LP  0  0  0  0  0  0  0  0  0  0  0  0  # atno 17342 bound_to 10162
  139.4785  144.5651  151.8178 LP  0  0  0  0  0  0  0  0  0  0  0  0  # atno 17343 bound_to 10162
  156.5238  130.4168  149.6237 LP  0  0  0  0  0  0  0  0  0  0  0  0  # atno 17370 bound_to 10713
  156.3130  130.7239  151.2136 LP  0  0  0  0  0  0  0  0  0  0  0  0  # atno 17371 bound_to 10713
  141.2219  133.7235  156.8700 LP  0  0  0  0  0  0  0  0  0  0  0  0  # atno 17394 bound_to 11000
  140.1770  134.9060  157.2903 LP  0  0  0  0  0  0  0  0  0  0  0  0  # atno 17395 bound_to 11000

$$$$
