AV-unprocessed.smi:2628|AV-procd|sdf|10243|dock2
  -GOLD-   2272014253D 1   1.00000     0.00000
 Structure written by MMmdl.
 38 38  0  0  0  0  0  0  0  0  1 V2000
  150.6320  145.0971  160.1239 C   0  0  0  0  0  0  0  0  0  0  0  0
  152.1484  144.9064  160.2340 C   0  0  0  0  0  0  0  0  0  0  0  0
  152.6896  143.8885  159.2168 C   0  0  0  0  0  0  0  0  0  0  0  0
  152.1665  142.4502  159.4104 C   0  0  0  0  0  0  0  0  0  0  0  0
  151.8011  141.7812  158.1736 N   0  0  0  0  0  0  0  0  0  0  0  0
  150.7731  142.2277  157.3384 C   0  0  0  0  0  0  0  0  0  0  0  0
  150.0720  143.3616  157.7238 N   0  0  0  0  0  0  0  0  0  0  0  0
  150.4394  141.5875  156.1793 C   0  0  0  0  0  0  0  0  0  0  0  0
  149.4018  142.0673  155.3783 N   0  0  0  0  0  0  0  0  0  0  0  0
  148.8616  141.5755  154.1197 C   0  0  0  0  0  0  0  0  0  0  0  0
  147.3693  141.2504  154.2447 C   0  0  0  0  0  0  0  0  0  0  0  0
  146.8981  140.7316  153.0116 O   0  0  0  0  0  0  0  0  0  0  0  0
  146.8198  139.3171  153.0126 C   0  0  0  0  0  0  0  0  0  0  0  0
  151.1725  140.3746  155.7759 C   0  0  0  0  0  0  0  0  0  0  0  0
  150.9788  139.6983  154.7669 O   0  0  0  0  0  0  0  0  0  0  0  0
  152.1781  139.9759  156.6529 N   0  0  0  0  0  0  0  0  0  0  0  0
  152.5276  140.6149  157.8355 C   0  0  0  0  0  0  0  0  0  0  0  0
  153.4301  140.1444  158.5289 O   0  0  0  0  0  0  0  0  0  0  0  0
  152.6957  139.1441  156.4092 H   0  0  0  0  0  0  0  0  0  0  0  0
  150.2784  145.8228  160.8566 H   0  0  0  0  0  0  0  0  0  0  0  0
  150.1035  144.1602  160.3022 H   0  0  0  0  0  0  0  0  0  0  0  0
  150.3506  145.4585  159.1345 H   0  0  0  0  0  0  0  0  0  0  0  0
  152.6436  145.8671  160.0890 H   0  0  0  0  0  0  0  0  0  0  0  0
  152.3883  144.5831  161.2470 H   0  0  0  0  0  0  0  0  0  0  0  0
  152.4593  144.2311  158.2076 H   0  0  0  0  0  0  0  0  0  0  0  0
  153.7778  143.8685  159.2838 H   0  0  0  0  0  0  0  0  0  0  0  0
  152.9268  141.8214  159.8743 H   0  0  0  0  0  0  0  0  0  0  0  0
  151.3224  142.4170  160.1003 H   0  0  0  0  0  0  0  0  0  0  0  0
  150.2881  143.8563  158.5770 H   0  0  0  0  0  0  0  0  0  0  0  0
  149.3779  143.7851  157.1250 H   0  0  0  0  0  0  0  0  0  0  0  0
  148.9445  142.9028  155.7126 H   0  0  0  0  0  0  0  0  0  0  0  0
  148.9904  142.3441  153.3572 H   0  0  0  0  0  0  0  0  0  0  0  0
  149.4159  140.6942  153.7953 H   0  0  0  0  0  0  0  0  0  0  0  0
  147.2001  140.5391  155.0549 H   0  0  0  0  0  0  0  0  0  0  0  0
  146.8177  142.1597  154.4881 H   0  0  0  0  0  0  0  0  0  0  0  0
  146.4585  138.9690  152.0449 H   0  0  0  0  0  0  0  0  0  0  0  0
  146.1291  138.9614  153.7782 H   0  0  0  0  0  0  0  0  0  0  0  0
  147.7985  138.8683  153.1875 H   0  0  0  0  0  0  0  0  0  0  0  0
  1  2  1  0  0  0  0
  1 20  1  0  0  0  0
  1 21  1  0  0  0  0
  1 22  1  0  0  0  0
  2  3  1  0  0  0  0
  2 23  1  0  0  0  0
  2 24  1  0  0  0  0
  3  4  1  0  0  0  0
  3 25  1  0  0  0  0
  3 26  1  0  0  0  0
  4  5  1  0  0  0  0
  4 27  1  0  0  0  0
  4 28  1  0  0  0  0
  5 17  1  0  0  0  0
  5  6  1  0  0  0  0
  6  7  1  0  0  0  0
  6  8  2  0  0  0  0
  7 29  1  0  0  0  0
  7 30  1  0  0  0  0
  8  9  1  0  0  0  0
  8 14  1  0  0  0  0
  9 10  1  0  0  0  0
  9 31  1  0  0  0  0
 10 11  1  0  0  0  0
 10 32  1  0  0  0  0
 10 33  1  0  0  0  0
 11 12  1  0  0  0  0
 11 34  1  0  0  0  0
 11 35  1  0  0  0  0
 12 13  1  0  0  0  0
 13 36  1  0  0  0  0
 13 37  1  0  0  0  0
 13 38  1  0  0  0  0
 14 15  2  0  0  0  0
 14 16  1  0  0  0  0
 16 19  1  0  0  0  0
 16 17  1  0  0  0  0
 17 18  2  0  0  0  0
M  END
> <s_m_source_file>
AV-unprocessed.smi

> <i_m_source_file_index>
2628

> <i_lp_mmshare_version>
43012

> <i_f3d_flags>
0

> <s_epik_input>
W0NIM11bQ0gyXVtDSDJdW0NIMl1uMWMoW05IMl0pYyhjKD1PKVtuSF1jMT1PKVtOSF1bQ0gyXVtDSDJdT1tDSDNd

> <s_epik_cmdline>
J2VwaWtfcHl0aG9uJywgJy1waCcsICc3LjAnLCAnLXRuJywgJzgnLCAnLW1hJywgJzIwMCcsICctbWV0YWxfYmluZGluZycsICctaW1hZScsICc8aW5maWxlLm1hZT4nLCAnLW9tYWUnLCAnPG91dGZpbGUubWFlPic=

> <r_lp_tautomer_probability>
1

> <r_epik_Ionization_Penalty>
1.09794e-05

> <r_epik_Ionization_Penalty_Charging>
2.75876e-06

> <r_epik_Ionization_Penalty_Neutral>
8.2206e-06

> <r_epik_State_Penalty>
-0

> <r_epik_Charging_Adjusted_Penalty>
2.75876e-06

> <i_epik_Tot_Q>
0

> <i_epik_Tot_abs_Q>
0

> <r_epik_Metal_State_Penalty>
-0

> <b_epik_Metal_Only>
0

> <s_epik_Chemistry_Notes>
This compound has an imine and may undergo hydrolysis.

> <s_lp_Force_Field>
OPLS_2005

> <r_lp_Energy>
18.1798

> <b_lp_Chiralities_Consistent>
1

> <s_lp_Variant>
AV-unprocessed.smi:2628-1

> <Gold.Version>
5.8.1

> <Gold.Id.Protein>
6NUR|6NUR_protein|mol2

> <Gold.PLP.Fitness>
47.8514

> <Gold.PLP.PLP>
-37.6427

> <Gold.PLP.part.hbond>
-4.2082

> <Gold.PLP.part.metal>
0.0000

> <Gold.PLP.part.buried>
-2.8596

> <Gold.PLP.part.nonpolar>
-31.2988

> <Gold.PLP.part.repulsive>
0.6210

> <Gold.PLP.ligand.clash>
0.0000

> <Gold.PLP.ligand.torsion>
0.5902

> <Gold.PLP.Chemscore.Hbond>
3.7718

> <Gold.PLP.Chemscore.CHOScore>
0.0000

> <Gold.PLP.Chemscore.Metal>
0.0000

> <Gold.Chemscore.Hbonds>
donor molecule, donor type, donor heavy atom, donor atom, acceptor molecule, acceptor atom, score
      L1  H     7    30       P1  8028  1.00
      L1  H     9    31       P1  8028  0.93
      P1  H  7989  7998       L1    15  0.95
      P1  H  7997  8010       L1    18  0.85

> <Gold.PLP.Chemscore.Internal.Correction>
0.0738

> <Gold.Rescore>
     Score         DG    S(hbond)    S(metal)    S(lipo)     H(rot)  DE(clash)    DE(int)     intcor
     11.98     -14.78       1.96        0.00      75.03       2.35       1.00       1.80       ----

> <Gold.Chemscore.Fitness>
11.9833

> <Gold.Chemscore.DG>
-14.7811

> <Gold.Chemscore.ZeroCoef>
-5.4800

> <Gold.Chemscore.Hbond>
1.9564

> <Gold.Chemscore.Metal>
0.0000

> <Gold.Chemscore.Lipo>
75.0332

> <Gold.Chemscore.Internal_Hbond>
0.0000

> <Gold.Chemscore.DEClash>
0.9989

> <Gold.Chemscore.DEInternal>
1.7989

> <Gold.Chemscore.Rot>
2.3484

> <Gold.Chemscore.Internal.Correction>
   9.000000E+99

> <Gold.Chemscore.Hbonds>
donor molecule, donor type, donor heavy atom, donor atom, acceptor molecule, acceptor atom, score
      L1  H     7    30       P1  8028  0.63
      L1  H     9    31       P1  8028  0.90
      P1  H  7989  7998       L1    15  0.22
      P1  H  7997  8010       L1    18  0.16

> <Gold.Chemscore.Hbond.Weighted>
-6.5343

> <Gold.Chemscore.Metal.Weighted>
-0.0000

> <Gold.Chemscore.Lipo.Weighted>
-8.7789

> <Gold.Chemscore.Internal_Hbond.Weighted>
0.0000

> <Gold.Chemscore.DEClash.Weighted>
0.9989

> <Gold.Chemscore.DEInternal.Weighted>
1.7989

> <Gold.Chemscore.Rot.Weighted>
6.0120

> <Gold.Chemscore.Internal.Correction.Weighted>
   9.000000E+99

> <Gold.Protein.RotatedTorsions>
[ 6907 6896 6895 6894 ] final  160.63 input  -60.11 | X-H torsion
[ 7974 7965 7964 7962 ] final  130.98 input  175.53 | X-H torsion
[ 8008 7997 7996 7995 ] final   20.71 input   59.86 | X-H torsion
[ 10167 10162 10161 10158 ] final -102.40 input  -65.29 | X-H torsion
[ 10718 10713 10712 10709 ] final   73.50 input   66.30 | X-H torsion
[ 10763 10752 10751 10750 ] final   69.72 input  -60.55 | X-H torsion
[ 11005 11000 10999 10996 ] final  137.10 input  -57.11 | X-H torsion

> <Gold.Protein.ActiveResidues>
 VAL166  LYS551  ARG553  GLY616  TRP617  ASP618  TYR619  PRO620  LYS621  CYS622 
 ASP623  PHE694  ASN695  SER759  ASP760  ASP761  ALA762  ILE779  LEU786  VAL792 
 PHE793  MET794  SER795  GLU796  ALA797  LYS798  CYS799  TRP800  GLU811  SER814 

> <Gold.Protein.RotatedAtoms>
  151.9677  133.3716  159.4059 H   0  0  0  0  0  0  0  0  0  0  0  0  # atno 6907 bound_to 6896
  150.6954  134.4173  159.5198 H   0  0  0  0  0  0  0  0  0  0  0  0  # atno 6908 bound_to 6896
  152.1872  134.8703  160.0572 H   0  0  0  0  0  0  0  0  0  0  0  0  # atno 6909 bound_to 6896
  145.0121  139.4210  143.5239 H   0  0  0  0  0  0  0  0  0  0  0  0  # atno 7974 bound_to 7965
  154.9397  140.3051  155.5127 H   0  0  0  0  0  0  0  0  0  0  0  0  # atno 8008 bound_to 7997
  156.2997  140.2338  156.4402 H   0  0  0  0  0  0  0  0  0  0  0  0  # atno 8009 bound_to 7997
  154.8157  140.0426  157.1363 H   0  0  0  0  0  0  0  0  0  0  0  0  # atno 8010 bound_to 7997
  140.2310  143.3606  152.0886 H   0  0  0  0  0  0  0  0  0  0  0  0  # atno 10167 bound_to 10162
  157.6550  130.9631  150.1078 H   0  0  0  0  0  0  0  0  0  0  0  0  # atno 10718 bound_to 10713
  153.0302  135.5200  154.7331 H   0  0  0  0  0  0  0  0  0  0  0  0  # atno 10763 bound_to 10752
  154.6353  135.2905  155.0171 H   0  0  0  0  0  0  0  0  0  0  0  0  # atno 10764 bound_to 10752
  154.1108  135.6622  153.4937 H   0  0  0  0  0  0  0  0  0  0  0  0  # atno 10765 bound_to 10752
  140.0091  134.9447  157.0238 H   0  0  0  0  0  0  0  0  0  0  0  0  # atno 11005 bound_to 11000
  146.3471  139.9571  142.8722 LP  0  0  0  0  0  0  0  0  0  0  0  0  # atno 17320 bound_to 7965
  145.2009  140.9854  143.4156 LP  0  0  0  0  0  0  0  0  0  0  0  0  # atno 17321 bound_to 7965
  139.5110  144.6893  151.5803 LP  0  0  0  0  0  0  0  0  0  0  0  0  # atno 17342 bound_to 10162
  140.6185  143.9304  150.6507 LP  0  0  0  0  0  0  0  0  0  0  0  0  # atno 17343 bound_to 10162
  156.1983  130.3658  149.8821 LP  0  0  0  0  0  0  0  0  0  0  0  0  # atno 17370 bound_to 10713
  156.6732  130.8828  151.3565 LP  0  0  0  0  0  0  0  0  0  0  0  0  # atno 17371 bound_to 10713
  140.4588  134.1506  155.7189 LP  0  0  0  0  0  0  0  0  0  0  0  0  # atno 17394 bound_to 11000
  141.1698  133.8631  157.1606 LP  0  0  0  0  0  0  0  0  0  0  0  0  # atno 17395 bound_to 11000

$$$$
