#       Name:                AV-unprocessed.smi:276
#       Creating user name   scv26
#       Creation time:       Thu Mar 26 21:32:55 2020


#       File generated by GOLD software.
#

@<TRIPOS>MOLECULE
AV-unprocessed.smi:276
    67    71     1
SMALL
NO_CHARGES


@<TRIPOS>ATOM
      1 ****        -4.6670   1.9174   4.0939 C.3            1 S1                 0.0000
      2 ****        -3.6115   1.3823   3.3150 O.3            1 S1                 0.0000
      3 ****        -4.0303   0.3159   2.4743 C.3            1 S1                 0.0000
      4 ****        -4.6141   0.8056   1.1402 C.3            1 S1                 0.0000
      5 ****        -3.2047   0.7233   0.5209 C.3            1 S1                 0.0000
      6 ****        -2.5204   2.0236   0.5620 N.3            1 S1                 0.0000
      7 ****        -3.0829   3.0735  -0.2813 C.3            1 S1                 0.0000
      8 ****        -1.1772   1.9897   0.4188 C.ar           1 S1                 0.0000
      9 ****        -0.4451   2.7147   1.3008 N.ar           1 S1                 0.0000
     10 ****         0.8890   2.7092   1.2254 C.ar           1 S1                 0.0000
     11 ****         1.6743   2.0647   0.3594 N.ar           1 S1                 0.0000
     12 ****         0.9385   1.3493  -0.5394 C.ar           1 S1                 0.0000
     13 ****        -0.4811   1.2614  -0.5880 C.ar           1 S1                 0.0000
     14 ****        -0.8689   0.4469  -1.6456 N.2            1 S1                 0.0000
     15 ****         0.2569   0.0620  -2.1811 C.2            1 S1                 0.0000
     16 ****         1.3909   0.5541  -1.5771 N.pl3          1 S1                 0.0000
     17 ****         2.7650   0.2790  -1.9606 C.3            1 S1                 0.0000
     18 ****         3.2481  -1.1071  -1.4749 C.3            1 S1                 0.0000
     19 ****         3.0373  -1.1709  -0.0760 O.3            1 S1                 0.0000
     20 ****         4.7506  -1.3776  -1.7237 C.3            1 S1                 0.0000
     21 ****         5.2130  -1.2443  -3.1863 C.3            1 S1                 0.0000
     22 ****         5.1302  -2.6582  -3.7138 C.3            1 S1                 0.0000
     23 ****         5.5695  -3.4475  -2.4924 C.3            1 S1                 0.0000
     24 ****         4.9912  -2.7503  -1.3972 O.3            1 S1                 0.0000
     25 ****        -2.8554  -0.2635   1.6677 C.3            1 S1                 0.0000
     26 ****        -2.8500  -1.7758   1.3833 C.3            1 S1                 0.0000
     27 ****        -1.8411  -1.9371   2.5227 C.3            1 S1                 0.0000
     28 ****        -1.4644  -0.4714   2.3025 C.3            1 S1                 0.0000
     29 ****        -4.2853   2.7226   4.7213 H              1 S1                 0.0000
     30 ****        -5.0963   1.1574   4.7477 H              1 S1                 0.0000
     31 ****        -5.4595   2.3275   3.4675 H              1 S1                 0.0000
     32 ****        -4.6275  -0.4398   2.9871 H              1 S1                 0.0000
     33 ****        -5.2982   0.0783   0.7001 H              1 S1                 0.0000
     34 ****        -5.0719   1.7934   1.1741 H              1 S1                 0.0000
     35 ****        -3.2178   0.2591  -0.4652 H              1 S1                 0.0000
     36 ****        -2.3929   3.9086  -0.4147 H              1 S1                 0.0000
     37 ****        -3.9913   3.4760   0.1657 H              1 S1                 0.0000
     38 ****        -3.3325   2.6814  -1.2678 H              1 S1                 0.0000
     39 ****         1.4006   3.3041   1.9675 H              1 S1                 0.0000
     40 ****         0.2914  -0.5997  -3.0343 H              1 S1                 0.0000
     41 ****         2.8159   0.3552  -3.0457 H              1 S1                 0.0000
     42 ****         3.4050   1.0670  -1.5614 H              1 S1                 0.0000
     43 ****         2.6483  -1.8841  -1.9508 H              1 S1                 0.0000
     44 ****         3.5441  -0.4878   0.3359 H              1 S1                 0.0000
     45 ****         5.3588  -0.7303  -1.0896 H              1 S1                 0.0000
     46 ****         4.6481  -0.5373  -3.7899 H              1 S1                 0.0000
     47 ****         6.2538  -0.9174  -3.2057 H              1 S1                 0.0000
     48 ****         4.1012  -2.9059  -3.9779 H              1 S1                 0.0000
     49 ****         5.7633  -2.8306  -4.5846 H              1 S1                 0.0000
     50 ****         5.2453  -4.4880  -2.5219 H              1 S1                 0.0000
     51 ****         6.6556  -3.4285  -2.3923 H              1 S1                 0.0000
     52 ****        -3.8030  -2.2817   1.5417 H              1 S1                 0.0000
     53 ****        -2.4246  -2.0192   0.4081 H              1 S1                 0.0000
     54 ****        -2.3166  -2.1112   3.4893 H              1 S1                 0.0000
     55 ****        -1.0398  -2.6502   2.3275 H              1 S1                 0.0000
     56 ****        -0.6356  -0.3817   1.6008 H              1 S1                 0.0000
     57 ****        -1.2794   0.0954   3.2152 H              1 S1                 0.0000
     58 ****        -2.9008   1.0427   3.9311 LP             1 S1                 0.0000
     59 ****        -3.2360   2.1113   2.7427 LP             1 S1                 0.0000
     60 ****        -2.7110   2.2771   1.5104 LP             1 S1                 0.0000
     61 ****        -0.9037   3.2533   2.0076 LP             1 S1                 0.0000
     62 ****         2.6736   2.1015   0.3684 LP             1 S1                 0.0000
     63 ****        -1.7977   0.2102  -1.9306 LP             1 S1                 0.0000
     64 ****         3.3304  -2.0627   0.2688 LP             1 S1                 0.0000
     65 ****         2.0667  -1.0385   0.1251 LP             1 S1                 0.0000
     66 ****         4.1234  -3.1848  -1.1560 LP             1 S1                 0.0000
     67 ****         5.6147  -2.7951  -0.6166 LP             1 S1                 0.0000
@<TRIPOS>BOND
    1    1    2 1     
    2    1   29 1     
    3    1   30 1     
    4    1   31 1     
    5    2    3 1     
    6    3   25 1     
    7    3    4 1     
    8    3   32 1     
    9    4    5 1     
   10    4   33 1     
   11    4   34 1     
   12    5    6 1     
   13    5   25 1     
   14    5   35 1     
   15    6    7 1     
   16    6    8 1     
   17    7   36 1     
   18    7   37 1     
   19    7   38 1     
   20    8   13 ar    
   21    8    9 ar    
   22    9   10 ar    
   23   10   11 ar    
   24   10   39 1     
   25   11   12 ar    
   26   12   16 1     
   27   12   13 ar    
   28   13   14 1     
   29   14   15 2     
   30   15   16 1     
   31   15   40 1     
   32   16   17 1     
   33   17   18 1     
   34   17   41 1     
   35   17   42 1     
   36   18   19 1     
   37   18   20 1     
   38   18   43 1     
   39   19   44 1     
   40   20   24 1     
   41   20   21 1     
   42   20   45 1     
   43   21   22 1     
   44   21   46 1     
   45   21   47 1     
   46   22   23 1     
   47   22   48 1     
   48   22   49 1     
   49   23   24 1     
   50   23   50 1     
   51   23   51 1     
   52   25   28 1     
   53   25   26 1     
   54   26   27 1     
   55   26   52 1     
   56   26   53 1     
   57   27   28 1     
   58   27   54 1     
   59   27   55 1     
   60   28   56 1     
   61   28   57 1     
   62    2   58 1     
   63    2   59 1     
   64    6   60 1     
   65    9   61 1     
   66   11   62 1     
   67   14   63 1     
   68   19   64 1     
   69   19   65 1     
   70   24   66 1     
   71   24   67 1     
@<TRIPOS>SUBSTRUCTURE
      1 S1             1
@<TRIPOS>SET
LONE_PAIRS      STATIC     ATOMS    <user>   **** ""
10 58 59 60 61 62 63 64 65 66 67
DONOR_HYDROGENS      STATIC     ATOMS    <user>   **** ""
1 44
ATOM$BLUE        STATIC     ATOMS    COLORGROUP SYSTEM
10 58 59 60 61 62 63 64 65 66 67
ATOM$RED        STATIC     ATOMS    COLORGROUP SYSTEM
1 44
