AV-unprocessed.smi:1878|AV-procd|sdf|7630|dock4
  -GOLD-   22720 9353D 1   1.00000     0.00000
 Structure written by MMmdl.
 35 36  0  0  0  0  0  0  0  0  3 V2000
  146.8422  140.2783  153.5496 O   0  0  0  0  0  0  0  0  0  0  0  0
  147.6755  139.3733  153.4990 C   0  0  0  0  0  0  0  0  0  0  0  0
  147.3875  138.2598  152.8130 N   0  0  0  0  0  0  0  0  0  0  0  0
  146.1397  138.0091  152.1011 C   0  0  0  0  0  0  0  0  0  0  0  0
  145.4965  136.6913  152.5564 C   0  0  0  0  0  0  0  0  0  0  0  0
  145.6068  135.7876  151.5833 F   0  0  0  0  0  0  0  0  0  0  0  0
  146.1111  136.2259  153.6442 F   0  0  0  0  0  0  0  0  0  0  0  0
  144.2036  136.8738  152.8261 F   0  0  0  0  0  0  0  0  0  0  0  0
  148.9073  139.3404  154.0683 N   0  5  0  0  0  0  0  0  0  0  0  0
  149.3991  140.1909  154.9951 C   0  0  0  0  0  0  0  0  0  0  0  0
  150.3698  139.6768  155.8871 C   0  0  0  0  0  0  0  0  0  0  0  0
  150.9412  140.4844  156.8904 C   0  0  0  0  0  0  0  0  0  0  0  0
  150.5374  141.8315  157.0026 C   0  0  0  0  0  0  0  0  0  0  0  0
  151.0379  142.7226  157.9621 N   0  0  0  0  0  0  0  0  0  0  0  0
  151.5818  143.9611  157.4300 C   0  0  0  0  0  0  0  0  0  0  0  0
  152.4256  144.5566  158.5599 C   0  0  0  0  0  0  0  0  0  0  0  0
  152.7572  143.3694  159.4719 C   0  0  0  0  0  0  0  0  0  0  0  0
  152.0721  142.1664  158.8182 C   0  0  0  0  0  0  0  0  0  0  0  0
  149.6101  142.3044  156.1465 N   0  3  0  0  0  0  0  0  0  0  0  0
  149.0429  141.5556  155.1759 C   0  0  0  0  0  0  0  0  0  0  0  0
  148.0856  137.5311  152.7833 H   0  0  0  0  0  0  0  0  0  0  0  0
  145.4519  138.8379  152.2765 H   0  0  0  0  0  0  0  0  0  0  0  0
  146.3360  137.9753  151.0284 H   0  0  0  0  0  0  0  0  0  0  0  0
  150.6833  138.6457  155.8051 H   0  0  0  0  0  0  0  0  0  0  0  0
  151.6768  140.0658  157.5610 H   0  0  0  0  0  0  0  0  0  0  0  0
  152.2083  143.7669  156.5586 H   0  0  0  0  0  0  0  0  0  0  0  0
  150.7846  144.6400  157.1256 H   0  0  0  0  0  0  0  0  0  0  0  0
  153.3196  145.0496  158.1770 H   0  0  0  0  0  0  0  0  0  0  0  0
  151.8484  145.2987  159.1129 H   0  0  0  0  0  0  0  0  0  0  0  0
  153.8314  143.2118  159.5739 H   0  0  0  0  0  0  0  0  0  0  0  0
  152.3509  143.5423  160.4691 H   0  0  0  0  0  0  0  0  0  0  0  0
  151.6443  141.4954  159.5638 H   0  0  0  0  0  0  0  0  0  0  0  0
  152.7930  141.5981  158.2285 H   0  0  0  0  0  0  0  0  0  0  0  0
  148.3209  142.0949  154.5840 H   0  0  0  0  0  0  0  0  0  0  0  0
  149.3206  143.2785  156.2344 H   0  0  0  0  0  0  0  0  0  0  0  0
  1  2  2  0  0  0  0
  2  3  1  0  0  0  0
  2  9  1  0  0  0  0
  3  4  1  0  0  0  0
  3 21  1  0  0  0  0
  4  5  1  0  0  0  0
  4 22  1  0  0  0  0
  4 23  1  0  0  0  0
  5  6  1  0  0  0  0
  5  7  1  0  0  0  0
  5  8  1  0  0  0  0
  9 10  1  0  0  0  0
 10 20  1  0  0  0  0
 10 11  2  0  0  0  0
 11 12  1  0  0  0  0
 11 24  1  0  0  0  0
 12 13  2  0  0  0  0
 12 25  1  0  0  0  0
 13 14  1  0  0  0  0
 13 19  1  0  0  0  0
 14 18  1  0  0  0  0
 14 15  1  0  0  0  0
 15 16  1  0  0  0  0
 15 26  1  0  0  0  0
 15 27  1  0  0  0  0
 16 17  1  0  0  0  0
 16 28  1  0  0  0  0
 16 29  1  0  0  0  0
 17 18  1  0  0  0  0
 17 30  1  0  0  0  0
 17 31  1  0  0  0  0
 18 32  1  0  0  0  0
 18 33  1  0  0  0  0
 19 20  2  0  0  0  0
 19 35  1  0  0  0  0
 20 34  1  0  0  0  0
M  CHG  1   9  -1
M  CHG  1  19   1
M  END
> <s_m_source_file>
AV-unprocessed.smi

> <i_m_source_file_index>
1878

> <i_lp_mmshare_version>
43012

> <i_f3d_flags>
0

> <s_epik_input>
RkMoRikoRilbQ0gyXVtOSF1DKD1PKVtOSF1jMVtjSF1bY0hdYyhuW2NIXTEpTjJbQ0gyXVtDSDJdW0NIMl1bQ0gyXTI=

> <s_epik_cmdline>
J2VwaWtfcHl0aG9uJywgJy1waCcsICc3LjAnLCAnLXRuJywgJzgnLCAnLW1hJywgJzIwMCcsICctbWV0YWxfYmluZGluZycsICctaW1hZScsICc8aW5maWxlLm1hZT4nLCAnLW9tYWUnLCAnPG91dGZpbGUubWFlPic=

> <r_lp_tautomer_probability>
0.999994

> <r_epik_Ionization_Penalty>
6.00991

> <r_epik_Ionization_Penalty_Charging>
6.00991

> <r_epik_Ionization_Penalty_Neutral>
1.33916e-07

> <r_epik_State_Penalty>
7.27363

> <r_epik_Charging_Adjusted_Penalty>
13.2835

> <i_epik_Tot_Q>
0

> <i_epik_Tot_abs_Q>
2

> <r_epik_Metal_State_Penalty>
3.28277

> <b_epik_Metal_Only>
1

> <s_lp_Force_Field>
OPLS_2005

> <r_lp_Energy>
31.9355

> <b_lp_Chiralities_Consistent>
1

> <s_lp_Variant>
AV-unprocessed.smi:1878-5

> <Gold.Version>
5.8.1

> <Gold.Id.Protein>
6NUR|6NUR_protein|mol2

> <Gold.PLP.Fitness>
44.9652

> <Gold.PLP.PLP>
-38.4754

> <Gold.PLP.part.hbond>
-2.6995

> <Gold.PLP.part.metal>
0.0000

> <Gold.PLP.part.buried>
-1.7143

> <Gold.PLP.part.nonpolar>
-37.3924

> <Gold.PLP.part.repulsive>
1.9644

> <Gold.PLP.ligand.clash>
0.0000

> <Gold.PLP.ligand.torsion>
1.2928

> <Gold.PLP.Chemscore.Hbond>
3.0000

> <Gold.PLP.Chemscore.CHOScore>
0.0000

> <Gold.PLP.Chemscore.Metal>
0.0000

> <Gold.Chemscore.Hbonds>
donor molecule, donor type, donor heavy atom, donor atom, acceptor molecule, acceptor atom, score
      L1  H     3    21       P1  7948  0.98
      L1  H    19    35       P1  8028  2.00

> <Gold.PLP.Chemscore.Internal.Correction>
0.0755

> <Gold.Rescore>
     Score         DG    S(hbond)    S(metal)    S(lipo)     H(rot)  DE(clash)    DE(int)     intcor
     16.61     -18.26       1.98        0.00      81.96       1.33       0.54       1.11       ----

> <Gold.Chemscore.Fitness>
16.6087

> <Gold.Chemscore.DG>
-18.2608

> <Gold.Chemscore.ZeroCoef>
-5.4800

> <Gold.Chemscore.Hbond>
1.9763

> <Gold.Chemscore.Metal>
0.0000

> <Gold.Chemscore.Lipo>
81.9599

> <Gold.Chemscore.Internal_Hbond>
0.0000

> <Gold.Chemscore.DEClash>
0.5424

> <Gold.Chemscore.DEInternal>
1.1098

> <Gold.Chemscore.Rot>
1.3317

> <Gold.Chemscore.Internal.Correction>
   9.000000E+99

> <Gold.Chemscore.Hbonds>
donor molecule, donor type, donor heavy atom, donor atom, acceptor molecule, acceptor atom, score
      L1  H     3    21       P1  7948  0.93
      L1  H    19    35       P1  8028  0.97

> <Gold.Chemscore.Hbond.Weighted>
-6.6007

> <Gold.Chemscore.Metal.Weighted>
-0.0000

> <Gold.Chemscore.Lipo.Weighted>
-9.5893

> <Gold.Chemscore.Internal_Hbond.Weighted>
0.0000

> <Gold.Chemscore.DEClash.Weighted>
0.5424

> <Gold.Chemscore.DEInternal.Weighted>
1.1098

> <Gold.Chemscore.Rot.Weighted>
3.4092

> <Gold.Chemscore.Internal.Correction.Weighted>
   9.000000E+99

> <Gold.Protein.RotatedTorsions>
[ 6907 6896 6895 6894 ] final  138.60 input  -60.11 | X-H torsion
[ 7974 7965 7964 7962 ] final   -8.41 input  175.53 | X-H torsion
[ 8008 7997 7996 7995 ] final  174.92 input   59.86 | X-H torsion
[ 10167 10162 10161 10158 ] final   71.50 input  -65.29 | X-H torsion
[ 10718 10713 10712 10709 ] final -156.08 input   66.30 | X-H torsion
[ 10763 10752 10751 10750 ] final -142.81 input  -60.55 | X-H torsion
[ 11005 11000 10999 10996 ] final  120.94 input  -57.11 | X-H torsion

> <Gold.Protein.ActiveResidues>
 VAL166  LYS551  ARG553  GLY616  TRP617  ASP618  TYR619  PRO620  LYS621  CYS622 
 ASP623  PHE694  ASN695  SER759  ASP760  ASP761  ALA762  ILE779  LEU786  VAL792 
 PHE793  MET794  SER795  GLU796  ALA797  LYS798  CYS799  TRP800  GLU811  SER814 

> <Gold.Protein.RotatedAtoms>
  152.2647  133.5329  159.5402 H   0  0  0  0  0  0  0  0  0  0  0  0  # atno 6907 bound_to 6896
  150.7138  134.0780  159.3897 H   0  0  0  0  0  0  0  0  0  0  0  0  # atno 6908 bound_to 6896
  151.8697  135.0494  160.0529 H   0  0  0  0  0  0  0  0  0  0  0  0  # atno 6909 bound_to 6896
  146.2281  140.2463  142.8345 H   0  0  0  0  0  0  0  0  0  0  0  0  # atno 7974 bound_to 7965
  156.0924  140.1422  156.9574 H   0  0  0  0  0  0  0  0  0  0  0  0  # atno 8008 bound_to 7997
  154.4650  140.0929  156.7043 H   0  0  0  0  0  0  0  0  0  0  0  0  # atno 8009 bound_to 7997
  155.4897  140.3447  155.4355 H   0  0  0  0  0  0  0  0  0  0  0  0  # atno 8010 bound_to 7997
  140.0454  144.5355  150.7402 H   0  0  0  0  0  0  0  0  0  0  0  0  # atno 10167 bound_to 10162
  156.5217  130.8481  151.2684 H   0  0  0  0  0  0  0  0  0  0  0  0  # atno 10718 bound_to 10713
  154.8494  135.3485  154.6088 H   0  0  0  0  0  0  0  0  0  0  0  0  # atno 10763 bound_to 10752
  153.6696  135.6985  153.5156 H   0  0  0  0  0  0  0  0  0  0  0  0  # atno 10764 bound_to 10752
  153.2752  135.4280  155.0983 H   0  0  0  0  0  0  0  0  0  0  0  0  # atno 10765 bound_to 10752
  139.9205  134.9637  156.7883 H   0  0  0  0  0  0  0  0  0  0  0  0  # atno 11005 bound_to 11000
  144.9445  140.8114  143.5610 LP  0  0  0  0  0  0  0  0  0  0  0  0  # atno 17320 bound_to 7965
  145.2418  139.2069  143.4988 LP  0  0  0  0  0  0  0  0  0  0  0  0  # atno 17321 bound_to 7965
  140.7241  143.2618  151.4180 LP  0  0  0  0  0  0  0  0  0  0  0  0  # atno 17342 bound_to 10162
  139.5987  144.1342  152.2173 LP  0  0  0  0  0  0  0  0  0  0  0  0  # atno 17343 bound_to 10162
  157.7436  130.9915  150.2603 LP  0  0  0  0  0  0  0  0  0  0  0  0  # atno 17370 bound_to 10713
  156.3143  130.3776  149.7632 LP  0  0  0  0  0  0  0  0  0  0  0  0  # atno 17371 bound_to 10713
  140.6488  133.9751  155.7744 LP  0  0  0  0  0  0  0  0  0  0  0  0  # atno 17394 bound_to 11000
  141.0722  134.0188  157.3509 LP  0  0  0  0  0  0  0  0  0  0  0  0  # atno 17395 bound_to 11000

$$$$
