AV-unprocessed.smi:226|AV-procd|sdf|1726|dock9
  -GOLD-   2262020213D 1   1.00000     0.00000
 Structure written by MMmdl.
 54 58  0  0  0  0  0  0  0  0  1 V2000
  152.8153  142.4040  161.2462 O   0  0  0  0  0  0  0  0  0  0  0  0
  153.1577  142.3025  160.0682 C   0  0  0  0  0  0  0  0  0  0  0  0
  152.9397  143.2692  159.1613 N   0  0  0  0  0  0  0  0  0  0  0  0
  152.3043  144.5211  159.4097 C   0  0  0  0  0  0  0  0  0  0  0  0
  150.8169  144.5081  159.6878 C   0  0  0  0  0  0  0  0  0  0  0  0
  151.3265  145.0257  158.3709 C   0  0  0  0  0  0  0  0  0  0  0  0
  153.8846  141.0215  159.6035 C   0  0  1  0  0  0  0  0  0  0  0  0
  155.1788  140.7760  160.3985 C   0  0  0  0  0  0  0  0  0  0  0  0
  154.7417  139.8841  161.5594 C   0  0  0  0  0  0  0  0  0  0  0  0
  153.6529  139.0092  160.9372 C   0  0  0  0  0  0  0  0  0  0  0  0
  153.1229  139.7865  159.8249 N   0  0  0  0  0  0  0  0  0  0  0  0
  152.1298  139.3476  159.0031 C   0  0  0  0  0  0  0  0  0  0  0  0
  151.5588  138.1433  159.2708 N   0  0  0  0  0  0  0  0  0  0  0  0
  150.5881  137.6587  158.4931 C   0  0  0  0  0  0  0  0  0  0  0  0
  150.0448  138.2026  157.4046 N   0  0  0  0  0  0  0  0  0  0  0  0
  150.6102  139.4102  157.1208 C   0  0  0  0  0  0  0  0  0  0  0  0
  151.6424  140.0560  157.8630 C   0  0  0  0  0  0  0  0  0  0  0  0
  151.9392  141.2791  157.2701 N   0  0  0  0  0  0  0  0  0  0  0  0
  151.1317  141.3526  156.2485 C   0  0  0  0  0  0  0  0  0  0  0  0
  150.3214  140.2569  156.0642 N   0  0  0  0  0  0  0  0  0  0  0  0
  149.3226  140.0904  155.0485 C   0  0  0  0  0  0  0  0  0  0  0  0
  148.9961  141.2208  154.0680 C   0  0  0  0  0  0  0  0  0  0  0  0
  147.5021  140.8300  154.0921 C   0  0  0  0  0  0  0  0  0  0  0  0
  146.5243  142.0025  154.2642 C   0  0  0  0  0  0  0  0  0  0  0  0
  145.2294  141.5488  154.6030 O   0  0  0  0  0  0  0  0  0  0  0  0
  146.9787  139.9714  152.9191 C   0  0  0  0  0  0  0  0  0  0  0  0
  147.8060  138.8650  152.6226 O   0  0  0  0  0  0  0  0  0  0  0  0
  147.8312  140.0753  155.3999 C   0  0  0  0  0  0  0  0  0  0  0  0
  153.2585  143.1025  158.2180 H   0  0  0  0  0  0  0  0  0  0  0  0
  152.8811  145.2808  159.9354 H   0  0  0  0  0  0  0  0  0  0  0  0
  150.3074  143.5461  159.6874 H   0  0  0  0  0  0  0  0  0  0  0  0
  150.4336  145.2369  160.3993 H   0  0  0  0  0  0  0  0  0  0  0  0
  151.2847  146.0999  158.2026 H   0  0  0  0  0  0  0  0  0  0  0  0
  151.1603  144.4099  157.4888 H   0  0  0  0  0  0  0  0  0  0  0  0
  154.1360  141.1384  158.5483 H   0  0  0  0  0  0  0  0  0  0  0  0
  155.8934  140.2376  159.7744 H   0  0  0  0  0  0  0  0  0  0  0  0
  155.6695  141.6897  160.7366 H   0  0  0  0  0  0  0  0  0  0  0  0
  155.5608  139.3041  161.9853 H   0  0  0  0  0  0  0  0  0  0  0  0
  154.3158  140.4987  162.3536 H   0  0  0  0  0  0  0  0  0  0  0  0
  154.0786  138.0791  160.5581 H   0  0  0  0  0  0  0  0  0  0  0  0
  152.8820  138.7691  161.6698 H   0  0  0  0  0  0  0  0  0  0  0  0
  150.1929  136.6964  158.7834 H   0  0  0  0  0  0  0  0  0  0  0  0
  151.1124  142.2112  155.5930 H   0  0  0  0  0  0  0  0  0  0  0  0
  149.6001  139.1842  154.5088 H   0  0  0  0  0  0  0  0  0  0  0  0
  149.1829  142.2065  154.4979 H   0  0  0  0  0  0  0  0  0  0  0  0
  149.4793  141.1233  153.0953 H   0  0  0  0  0  0  0  0  0  0  0  0
  146.8690  142.6949  155.0331 H   0  0  0  0  0  0  0  0  0  0  0  0
  146.4421  142.5808  153.3433 H   0  0  0  0  0  0  0  0  0  0  0  0
  144.6897  141.5764  153.8274 H   0  0  0  0  0  0  0  0  0  0  0  0
  145.9811  139.5883  153.1363 H   0  0  0  0  0  0  0  0  0  0  0  0
  146.8928  140.5650  152.0086 H   0  0  0  0  0  0  0  0  0  0  0  0
  148.5153  139.1598  152.0721 H   0  0  0  0  0  0  0  0  0  0  0  0
  147.3985  139.0772  155.4757 H   0  0  0  0  0  0  0  0  0  0  0  0
  147.6102  140.6613  156.2936 H   0  0  0  0  0  0  0  0  0  0  0  0
  1  2  2  0  0  0  0
  2  3  1  0  0  0  0
  2  7  1  0  0  0  0
  3  4  1  0  0  0  0
  3 29  1  0  0  0  0
  4  6  1  0  0  0  0
  4  5  1  0  0  0  0
  4 30  1  0  0  0  0
  5  6  1  0  0  0  0
  5 31  1  0  0  0  0
  5 32  1  0  0  0  0
  6 33  1  0  0  0  0
  6 34  1  0  0  0  0
  7 11  1  0  0  0  0
  7  8  1  0  0  0  0
  7 35  1  0  0  0  0
  8  9  1  0  0  0  0
  8 36  1  0  0  0  0
  8 37  1  0  0  0  0
  9 10  1  0  0  0  0
  9 38  1  0  0  0  0
  9 39  1  0  0  0  0
 10 11  1  0  0  0  0
 10 40  1  0  0  0  0
 10 41  1  0  0  0  0
 11 12  1  0  0  0  0
 12 17  1  0  0  0  0
 12 13  2  0  0  0  0
 13 14  1  0  0  0  0
 14 15  2  0  0  0  0
 14 42  1  0  0  0  0
 15 16  1  0  0  0  0
 16 20  1  0  0  0  0
 16 17  2  0  0  0  0
 17 18  1  0  0  0  0
 18 19  2  0  0  0  0
 19 20  1  0  0  0  0
 19 43  1  0  0  0  0
 20 21  1  0  0  0  0
 21 28  1  0  0  0  0
 21 22  1  0  0  0  0
 21 44  1  0  0  0  0
 22 23  1  0  0  0  0
 22 45  1  0  0  0  0
 22 46  1  0  0  0  0
 23 24  1  0  0  0  0
 23 26  1  0  0  0  0
 23 28  1  0  0  0  0
 24 25  1  0  0  0  0
 24 47  1  0  0  0  0
 24 48  1  0  0  0  0
 25 49  1  0  0  0  0
 26 27  1  0  0  0  0
 26 50  1  0  0  0  0
 26 51  1  0  0  0  0
 27 52  1  0  0  0  0
 28 53  1  0  0  0  0
 28 54  1  0  0  0  0
M  END
> <s_m_source_file>
AV-unprocessed.smi

> <i_m_source_file_index>
226

> <i_lp_mmshare_version>
43012

> <i_f3d_flags>
0

> <s_epik_input>
W0NIMl0xW0NIMl1bQ0hdMVtOSF1DKD1PKVtDQEBIXTJbQ0gyXVtDSDJdW0NIMl1OMmMobltjSF1uMyljKGMzNCluW2NIXW40W0NIXShbQ0gyXTUpW0NIMl1DNShbQ0gyXVtPSF0pW0NIMl1bT0hd

> <s_epik_cmdline>
J2VwaWtfcHl0aG9uJywgJy1waCcsICc3LjAnLCAnLXRuJywgJzgnLCAnLW1hJywgJzIwMCcsICctbWV0YWxfYmluZGluZycsICctaW1hZScsICc8aW5maWxlLm1hZT4nLCAnLW9tYWUnLCAnPG91dGZpbGUubWFlPic=

> <r_lp_tautomer_probability>
1

> <r_epik_Ionization_Penalty>
0.000818715

> <r_epik_Ionization_Penalty_Charging>
0

> <r_epik_Ionization_Penalty_Neutral>
0.000818715

> <r_epik_State_Penalty>
0.000426447

> <r_epik_Charging_Adjusted_Penalty>
0.000426447

> <i_epik_Tot_Q>
0

> <i_epik_Tot_abs_Q>
0

> <r_epik_Metal_State_Penalty>
-0

> <b_epik_Metal_Only>
0

> <s_lp_Force_Field>
OPLS_2005

> <r_lp_Energy>
62.928

> <b_lp_Chiralities_Consistent>
1

> <s_lp_Variant>
AV-unprocessed.smi:226-2

> <Gold.Version>
5.8.1

> <Gold.Id.Protein>
6NUR|6NUR_protein|mol2

> <Gold.PLP.Fitness>
56.2356

> <Gold.PLP.PLP>
-50.5126

> <Gold.PLP.part.hbond>
-3.0000

> <Gold.PLP.part.metal>
0.0000

> <Gold.PLP.part.buried>
-5.6663

> <Gold.PLP.part.nonpolar>
-42.3583

> <Gold.PLP.part.repulsive>
0.0699

> <Gold.PLP.ligand.clash>
0.0000

> <Gold.PLP.ligand.torsion>
0.4112

> <Gold.PLP.Chemscore.Hbond>
1.9920

> <Gold.PLP.Chemscore.CHOScore>
0.0000

> <Gold.PLP.Chemscore.Metal>
0.0000

> <Gold.Chemscore.Hbonds>
donor molecule, donor type, donor heavy atom, donor atom, acceptor molecule, acceptor atom, score
      L1  H    25    49       P1 10175  0.74
      L1  H    27    52       P1  7957  1.00

> <Gold.PLP.Chemscore.Internal.Correction>
0.5695

> <Gold.Rescore>
     Score         DG    S(hbond)    S(metal)    S(lipo)     H(rot)  DE(clash)    DE(int)     intcor
     13.11     -15.09       1.93        0.00     104.01       3.52       0.41       1.57       ----

> <Gold.Chemscore.Fitness>
13.1063

> <Gold.Chemscore.DG>
-15.0877

> <Gold.Chemscore.ZeroCoef>
-5.4800

> <Gold.Chemscore.Hbond>
1.9345

> <Gold.Chemscore.Metal>
0.0000

> <Gold.Chemscore.Lipo>
104.0095

> <Gold.Chemscore.Internal_Hbond>
0.0000

> <Gold.Chemscore.DEClash>
0.4110

> <Gold.Chemscore.DEInternal>
1.5704

> <Gold.Chemscore.Rot>
3.5244

> <Gold.Chemscore.Internal.Correction>
   9.000000E+99

> <Gold.Chemscore.Hbonds>
donor molecule, donor type, donor heavy atom, donor atom, acceptor molecule, acceptor atom, score
      L1  H    25    49       P1 10175  0.10
      L1  H    27    52       P1  7957  0.99

> <Gold.Chemscore.Hbond.Weighted>
-6.4611

> <Gold.Chemscore.Metal.Weighted>
-0.0000

> <Gold.Chemscore.Lipo.Weighted>
-12.1691

> <Gold.Chemscore.Internal_Hbond.Weighted>
0.0000

> <Gold.Chemscore.DEClash.Weighted>
0.4110

> <Gold.Chemscore.DEInternal.Weighted>
1.5704

> <Gold.Chemscore.Rot.Weighted>
9.0225

> <Gold.Chemscore.Internal.Correction.Weighted>
   9.000000E+99

> <Gold.Protein.RotatedTorsions>
[ 6907 6896 6895 6894 ] final  160.68 input  -60.11 | X-H torsion
[ 7974 7965 7964 7962 ] final   52.80 input  175.53 | X-H torsion
[ 8008 7997 7996 7995 ] final  -46.45 input   59.86 | X-H torsion
[ 10167 10162 10161 10158 ] final  -26.41 input  -65.29 | X-H torsion
[ 10718 10713 10712 10709 ] final  -23.55 input   66.30 | X-H torsion
[ 10763 10752 10751 10750 ] final   43.07 input  -60.55 | X-H torsion
[ 11005 11000 10999 10996 ] final  121.02 input  -57.11 | X-H torsion

> <Gold.Protein.ActiveResidues>
 VAL166  LYS551  ARG553  GLY616  TRP617  ASP618  TYR619  PRO620  LYS621  CYS622 
 ASP623  PHE694  ASN695  SER759  ASP760  ASP761  ALA762  ILE779  LEU786  VAL792 
 PHE793  MET794  SER795  GLU796  ALA797  LYS798  CYS799  TRP800  GLU811  SER814 

> <Gold.Protein.RotatedAtoms>
  151.9670  133.3713  159.4056 H   0  0  0  0  0  0  0  0  0  0  0  0  # atno 6907 bound_to 6896
  150.6955  134.4180  159.5201 H   0  0  0  0  0  0  0  0  0  0  0  0  # atno 6908 bound_to 6896
  152.1878  134.8698  160.0571 H   0  0  0  0  0  0  0  0  0  0  0  0  # atno 6909 bound_to 6896
  145.9776  139.4210  143.0151 H   0  0  0  0  0  0  0  0  0  0  0  0  # atno 7974 bound_to 7965
  154.4007  140.1371  156.4013 H   0  0  0  0  0  0  0  0  0  0  0  0  # atno 8008 bound_to 7997
  155.7821  140.3481  155.5283 H   0  0  0  0  0  0  0  0  0  0  0  0  # atno 8009 bound_to 7997
  155.8663  140.0964  157.1570 H   0  0  0  0  0  0  0  0  0  0  0  0  # atno 8010 bound_to 7997
  140.7283  143.4180  151.0997 H   0  0  0  0  0  0  0  0  0  0  0  0  # atno 10167 bound_to 10162
  156.4896  130.4563  149.6763 H   0  0  0  0  0  0  0  0  0  0  0  0  # atno 10718 bound_to 10713
  152.9868  135.6112  154.3052 H   0  0  0  0  0  0  0  0  0  0  0  0  # atno 10763 bound_to 10752
  154.2771  135.2778  155.2715 H   0  0  0  0  0  0  0  0  0  0  0  0  # atno 10764 bound_to 10752
  154.5071  135.5851  153.6632 H   0  0  0  0  0  0  0  0  0  0  0  0  # atno 10765 bound_to 10752
  139.9208  134.9637  156.7894 H   0  0  0  0  0  0  0  0  0  0  0  0  # atno 11005 bound_to 11000
  145.7816  140.9854  143.1096 LP  0  0  0  0  0  0  0  0  0  0  0  0  # atno 17320 bound_to 7965
  144.6853  139.9571  143.7479 LP  0  0  0  0  0  0  0  0  0  0  0  0  # atno 17321 bound_to 7965
  139.7822  143.8339  152.3139 LP  0  0  0  0  0  0  0  0  0  0  0  0  # atno 17342 bound_to 10162
  139.8294  144.7261  150.9470 LP  0  0  0  0  0  0  0  0  0  0  0  0  # atno 17343 bound_to 10162
  156.3440  130.7397  151.2346 LP  0  0  0  0  0  0  0  0  0  0  0  0  # atno 17370 bound_to 10713
  157.7475  131.0396  150.4556 LP  0  0  0  0  0  0  0  0  0  0  0  0  # atno 17371 bound_to 10713
  140.6479  133.9758  155.7740 LP  0  0  0  0  0  0  0  0  0  0  0  0  # atno 17394 bound_to 11000
  141.0728  134.0180  157.3502 LP  0  0  0  0  0  0  0  0  0  0  0  0  # atno 17395 bound_to 11000

$$$$
