#       Name:                AV-unprocessed.smi:54
#       Creating user name   scv26
#       Creation time:       Thu Mar 26 16:45:38 2020


#       File generated by GOLD software.
#

@<TRIPOS>MOLECULE
AV-unprocessed.smi:54
    58    60     1
SMALL
NO_CHARGES


@<TRIPOS>ATOM
      1 ****        -0.6627   5.5232  -1.8291 C.3            1 S1                 0.0000
      2 ****        -1.3037   4.9382  -0.5595 C.3            1 S1                 0.0000
      3 ****        -0.7800   5.6410   0.7038 C.3            1 S1                 0.0000
      4 ****        -1.0638   3.4241  -0.4769 C.2            1 S1                 0.0000
      5 ****         0.0939   3.0020  -0.4204 O.2            1 S1                 0.0000
      6 ****        -2.1796   2.6604  -0.4708 N.am           1 S1                 0.0000
      7 ****        -2.2958   1.2669  -0.4037 C.2            1 S1                 0.0000
      8 ****        -1.2214   0.5096  -0.4060 N.2            1 S1                 0.0000
      9 ****        -1.5258  -0.8353  -0.3382 C.2            1 S1                 0.0000
     10 ****        -2.7630  -1.4138  -0.2748 C.2            1 S1                 0.0000
     11 ****        -2.6726  -2.7993  -0.2161 N.2            1 S1                 0.0000
     12 ****        -1.3549  -2.9939  -0.2455 C.2            1 S1                 0.0000
     13 ****        -0.6040  -1.8741  -0.3109 N.pl3          1 S1                 0.0000
     14 ****         0.8904  -1.7492  -0.3551 C.3            1 S1                 0.0000
     15 ****         1.4287  -2.9756  -0.7528 O.3            1 S1                 0.0000
     16 ****         1.9758  -3.6460   0.3749 C.3            1 S1                 0.0000
     17 ****         2.9625  -4.7436  -0.0579 C.3            1 S1                 0.0000
     18 ****         3.4260  -5.4551   1.0696 O.3            1 S1                 0.0000
     19 ****         2.5367  -2.4989   1.2251 C.3            1 S1                 0.0000
     20 ****         3.8045  -2.0824   0.7526 O.3            1 S1                 0.0000
     21 ****         1.5028  -1.3971   1.0245 C.3            1 S1                 0.0000
     22 ****         0.5734  -1.4121   2.0950 O.3            1 S1                 0.0000
     23 ****        -3.9287  -0.4985  -0.2794 C.2            1 S1                 0.0000
     24 ****        -5.0620  -0.9723  -0.2248 O.2            1 S1                 0.0000
     25 ****        -3.6301   0.8344  -0.3462 N.pl3          1 S1                -1.0000
     26 ****         1.0778  -0.9947  -1.1199 H              1 S1                 0.0000
     27 ****         1.1481  -4.1077   0.9160 H              1 S1                 0.0000
     28 ****         2.6475  -2.7870   2.2715 H              1 S1                 0.0000
     29 ****         1.9580  -0.4067   0.9813 H              1 S1                 0.0000
     30 ****        -1.0390   5.0296  -2.7260 H              1 S1                 0.0000
     31 ****         0.4225   5.4145  -1.8188 H              1 S1                 0.0000
     32 ****        -0.8862   6.5862  -1.9231 H              1 S1                 0.0000
     33 ****        -2.3792   5.1145  -0.6179 H              1 S1                 0.0000
     34 ****        -1.2268   5.2199   1.6054 H              1 S1                 0.0000
     35 ****        -1.0212   6.7040   0.6860 H              1 S1                 0.0000
     36 ****         0.3031   5.5501   0.7948 H              1 S1                 0.0000
     37 ****        -3.0482   3.1730  -0.5095 H              1 S1                 0.0000
     38 ****        -0.9279  -3.9851  -0.2179 H              1 S1                 0.0000
     39 ****         2.4639  -5.4462  -0.7258 H              1 S1                 0.0000
     40 ****         3.8088  -4.3314  -0.6077 H              1 S1                 0.0000
     41 ****         4.0091  -6.1379   0.7748 H              1 S1                 0.0000
     42 ****         4.4110  -2.7993   0.8572 H              1 S1                 0.0000
     43 ****         0.1333  -2.2480   2.1004 H              1 S1                 0.0000
     44 ****         0.8609   3.6435  -0.4287 LP             1 S1                 0.0000
     45 ****         0.2653   2.0183  -0.3662 LP             1 S1                 0.0000
     46 ****        -0.2887   0.8673  -0.4517 LP             1 S1                 0.0000
     47 ****        -3.4073  -3.4759  -0.1649 LP             1 S1                 0.0000
     48 ****         2.1491  -2.8191  -1.4284 LP             1 S1                 0.0000
     49 ****         0.7087  -3.5392  -1.1577 LP             1 S1                 0.0000
     50 ****         2.6510  -5.8598   1.5551 LP             1 S1                 0.0000
     51 ****         3.9157  -4.8346   1.6821 LP             1 S1                 0.0000
     52 ****         4.1194  -1.2936   1.2804 LP             1 S1                 0.0000
     53 ****         3.7397  -1.8327  -0.2135 LP             1 S1                 0.0000
     54 ****        -0.0960  -0.6798   1.9703 LP             1 S1                 0.0000
     55 ****         1.0551  -1.2794   2.9613 LP             1 S1                 0.0000
     56 ****        -5.1880  -1.9632  -0.1780 LP             1 S1                 0.0000
     57 ****        -5.8578  -0.3667  -0.2271 LP             1 S1                 0.0000
     58 ****        -4.3695   1.5076  -0.3541 LP             1 S1                 0.0000
@<TRIPOS>BOND
    1    1    2 1     
    2    1   30 1     
    3    1   31 1     
    4    1   32 1     
    5    2    3 1     
    6    2    4 1     
    7    2   33 1     
    8    3   34 1     
    9    3   35 1     
   10    3   36 1     
   11    4    5 2     
   12    4    6 am    
   13    6   37 1     
   14    6    7 1     
   15    7   25 1     
   16    7    8 2     
   17    8    9 1     
   18    9   13 1     
   19    9   10 2     
   20   10   11 1     
   21   10   23 1     
   22   11   12 2     
   23   12   13 1     
   24   12   38 1     
   25   13   14 1     
   26   14   26 1     
   27   14   21 1     
   28   14   15 1     
   29   15   16 1     
   30   16   27 1     
   31   16   17 1     
   32   16   19 1     
   33   17   18 1     
   34   17   39 1     
   35   17   40 1     
   36   18   41 1     
   37   19   28 1     
   38   19   20 1     
   39   19   21 1     
   40   20   42 1     
   41   21   29 1     
   42   21   22 1     
   43   22   43 1     
   44   23   24 2     
   45   23   25 1     
   46    5   44 1     
   47    5   45 1     
   48    8   46 1     
   49   11   47 1     
   50   15   48 1     
   51   15   49 1     
   52   18   50 1     
   53   18   51 1     
   54   20   52 1     
   55   20   53 1     
   56   22   54 1     
   57   22   55 1     
   58   24   56 1     
   59   24   57 1     
   60   25   58 1     
@<TRIPOS>SUBSTRUCTURE
      1 S1             1
@<TRIPOS>SET
LONE_PAIRS      STATIC     ATOMS    <user>   **** ""
15 44 45 46 47 48 49 50 51 52 53 54 55 56 57 58
DONOR_HYDROGENS      STATIC     ATOMS    <user>   **** ""
4 37 41 42 43
ATOM$BLUE        STATIC     ATOMS    COLORGROUP SYSTEM
15 44 45 46 47 48 49 50 51 52 53 54 55 56 57 58
ATOM$RED        STATIC     ATOMS    COLORGROUP SYSTEM
4 37 41 42 43
