AV-unprocessed.smi:3232|AV-procd|sdf|12343|dock7
  -GOLD-   2272018203D 1   1.00000     0.00000
 Structure written by MMmdl.
 40 41  0  0  0  0  0  0  0  0  2 V2000
  146.5404  135.1954  153.8896 C   0  0  0  0  0  0  0  0  0  0  0  0
  147.8575  135.2443  154.6754 C   0  0  0  0  0  0  0  0  0  0  0  0
  148.9670  134.5774  153.9520 N   0  3  2  0  0  0  0  0  0  0  0  0
  148.6742  133.1995  153.5031 C   0  0  0  0  0  0  0  0  0  0  0  0
  150.0364  132.5345  153.3526 C   0  0  0  0  0  0  0  0  0  0  0  0
  150.8325  133.1320  154.5063 C   0  0  0  0  0  0  0  0  0  0  0  0
  150.2507  134.5474  154.6979 C   0  0  1  0  0  0  0  0  0  0  0  0
  151.1833  135.6729  154.2021 C   0  0  0  0  0  0  0  0  0  0  0  0
  150.5740  136.9892  154.3483 N   0  0  0  0  0  0  0  0  0  0  0  0
  151.1677  138.1514  154.0329 C   0  0  0  0  0  0  0  0  0  0  0  0
  152.3412  138.2235  153.6657 O   0  0  0  0  0  0  0  0  0  0  0  0
  150.2886  139.4096  154.1296 C   0  0  1  0  0  0  0  0  0  0  0  0
  148.7982  139.0895  154.3638 C   0  0  0  0  0  0  0  0  0  0  0  0
  150.8155  140.3121  155.1471 N   0  0  0  0  0  0  0  0  0  0  0  0
  150.4408  141.5510  155.4738 C   0  0  0  0  0  0  0  0  0  0  0  0
  151.1842  142.1066  156.4201 N   0  0  0  0  0  0  0  0  0  0  0  0
  152.0636  141.0866  156.6483 C   0  0  0  0  0  0  0  0  0  0  0  0
  151.8953  139.9936  155.9043 N   0  0  0  0  0  0  0  0  0  0  0  0
  145.7573  135.7395  154.4180 H   0  0  0  0  0  0  0  0  0  0  0  0
  146.1905  134.1723  153.7519 H   0  0  0  0  0  0  0  0  0  0  0  0
  146.6518  135.6498  152.9046 H   0  0  0  0  0  0  0  0  0  0  0  0
  148.1256  136.2889  154.8393 H   0  0  0  0  0  0  0  0  0  0  0  0
  147.7300  134.7953  155.6616 H   0  0  0  0  0  0  0  0  0  0  0  0
  148.0944  132.6751  154.2645 H   0  0  0  0  0  0  0  0  0  0  0  0
  148.1023  133.1894  152.5748 H   0  0  0  0  0  0  0  0  0  0  0  0
  149.9852  131.4459  153.3897 H   0  0  0  0  0  0  0  0  0  0  0  0
  150.4882  132.8204  152.4018 H   0  0  0  0  0  0  0  0  0  0  0  0
  150.6577  132.5439  155.4085 H   0  0  0  0  0  0  0  0  0  0  0  0
  151.9064  133.1163  154.3168 H   0  0  0  0  0  0  0  0  0  0  0  0
  150.0531  134.6879  155.7624 H   0  0  0  0  0  0  0  0  0  0  0  0
  152.1139  135.6654  154.7703 H   0  0  0  0  0  0  0  0  0  0  0  0
  151.4575  135.5114  153.1580 H   0  0  0  0  0  0  0  0  0  0  0  0
  149.6115  137.0161  154.6529 H   0  0  0  0  0  0  0  0  0  0  0  0
  150.3640  139.9253  153.1709 H   0  0  0  0  0  0  0  0  0  0  0  0
  148.3977  138.4693  153.5611 H   0  0  0  0  0  0  0  0  0  0  0  0
  148.2051  140.0041  154.3941 H   0  0  0  0  0  0  0  0  0  0  0  0
  148.6358  138.5604  155.3040 H   0  0  0  0  0  0  0  0  0  0  0  0
  149.6139  142.0617  155.0019 H   0  0  0  0  0  0  0  0  0  0  0  0
  152.8579  141.1550  157.3769 H   0  0  0  0  0  0  0  0  0  0  0  0
  149.1487  135.1156  153.1168 H   0  0  0  0  0  0  0  0  0  0  0  0
  1  2  1  0  0  0  0
  1 19  1  0  0  0  0
  1 20  1  0  0  0  0
  1 21  1  0  0  0  0
  2  3  1  0  0  0  0
  2 22  1  0  0  0  0
  2 23  1  0  0  0  0
  3  7  1  0  0  0  0
  3  4  1  0  0  0  0
  3 40  1  0  0  0  0
  4  5  1  0  0  0  0
  4 24  1  0  0  0  0
  4 25  1  0  0  0  0
  5  6  1  0  0  0  0
  5 26  1  0  0  0  0
  5 27  1  0  0  0  0
  6  7  1  0  0  0  0
  6 28  1  0  0  0  0
  6 29  1  0  0  0  0
  7  8  1  0  0  0  0
  7 30  1  0  0  0  0
  8  9  1  0  0  0  0
  8 31  1  0  0  0  0
  8 32  1  0  0  0  0
  9 10  1  0  0  0  0
  9 33  1  0  0  0  0
 10 11  2  0  0  0  0
 10 12  1  0  0  0  0
 12 13  1  0  0  0  0
 12 14  1  0  0  0  0
 12 34  1  0  0  0  0
 13 35  1  0  0  0  0
 13 36  1  0  0  0  0
 13 37  1  0  0  0  0
 14 18  1  0  0  0  0
 14 15  1  0  0  0  0
 15 16  2  0  0  0  0
 15 38  1  0  0  0  0
 16 17  1  0  0  0  0
 17 18  2  0  0  0  0
 17 39  1  0  0  0  0
M  CHG  1   3   1
M  END
> <s_m_source_file>
AV-unprocessed.smi

> <i_m_source_file_index>
3232

> <i_lp_mmshare_version>
43012

> <i_f3d_flags>
0

> <s_epik_input>
W0NIM11bQ0gyXU4xW0NIMl1bQ0gyXVtDSDJdW0NASF0xW0NIMl1bTkhdQyg9TylbQ0BIXShbQ0gzXSluMltjSF1uW2NIXW4y

> <s_epik_cmdline>
J2VwaWtfcHl0aG9uJywgJy1waCcsICc3LjAnLCAnLXRuJywgJzgnLCAnLW1hJywgJzIwMCcsICctbWV0YWxfYmluZGluZycsICctaW1hZScsICc8aW5maWxlLm1hZT4nLCAnLW9tYWUnLCAnPG91dGZpbGUubWFlPic=

> <r_lp_tautomer_probability>
1

> <r_epik_Ionization_Penalty>
0.00177695

> <r_epik_Ionization_Penalty_Charging>
0.00176881

> <r_epik_Ionization_Penalty_Neutral>
8.13528e-06

> <r_epik_State_Penalty>
0.00119827

> <r_epik_Charging_Adjusted_Penalty>
0.00296709

> <i_epik_Tot_Q>
1

> <i_epik_Tot_abs_Q>
1

> <r_epik_Metal_State_Penalty>
-0

> <b_epik_Metal_Only>
0

> <s_lp_Force_Field>
OPLS_2005

> <r_lp_Energy>
32.1761

> <b_lp_Chiralities_Consistent>
1

> <s_lp_Variant>
AV-unprocessed.smi:3232-5

> <Gold.Version>
5.8.1

> <Gold.Id.Protein>
6NUR|6NUR_protein|mol2

> <Gold.PLP.Fitness>
38.3339

> <Gold.PLP.PLP>
-29.9634

> <Gold.PLP.part.hbond>
-1.4745

> <Gold.PLP.part.metal>
0.0000

> <Gold.PLP.part.buried>
-2.2440

> <Gold.PLP.part.nonpolar>
-25.4397

> <Gold.PLP.part.repulsive>
0.2423

> <Gold.PLP.ligand.clash>
0.0000

> <Gold.PLP.ligand.torsion>
0.1580

> <Gold.PLP.Chemscore.Hbond>
2.0000

> <Gold.PLP.Chemscore.CHOScore>
0.8568

> <Gold.PLP.Chemscore.Metal>
0.0000

> <Gold.Chemscore.Hbonds>
donor molecule, donor type, donor heavy atom, donor atom, acceptor molecule, acceptor atom, score
      L1  H     3    40       P1  7948  1.50
      L1  C    15    38       P1  8028  0.22

> <Gold.PLP.Chemscore.Internal.Correction>
0.1161

> <Gold.Rescore>
     Score         DG    S(hbond)    S(metal)    S(lipo)     H(rot)  DE(clash)    DE(int)     intcor
      6.72      -7.43       0.97        0.00      43.44       2.49       0.00       0.71       ----

> <Gold.Chemscore.Fitness>
6.7190

> <Gold.Chemscore.DG>
-7.4304

> <Gold.Chemscore.ZeroCoef>
-5.4800

> <Gold.Chemscore.Hbond>
0.9693

> <Gold.Chemscore.Metal>
0.0000

> <Gold.Chemscore.Lipo>
43.4407

> <Gold.Chemscore.Internal_Hbond>
0.0000

> <Gold.Chemscore.DEClash>
0.0019

> <Gold.Chemscore.DEInternal>
0.7095

> <Gold.Chemscore.Rot>
2.4882

> <Gold.Chemscore.Internal.Correction>
   9.000000E+99

> <Gold.Chemscore.Hbonds>
donor molecule, donor type, donor heavy atom, donor atom, acceptor molecule, acceptor atom, score
      L1  H     3    40       P1  7948  0.09

> <Gold.Chemscore.Hbond.Weighted>
-3.2376

> <Gold.Chemscore.Metal.Weighted>
-0.0000

> <Gold.Chemscore.Lipo.Weighted>
-5.0826

> <Gold.Chemscore.Internal_Hbond.Weighted>
0.0000

> <Gold.Chemscore.DEClash.Weighted>
0.0019

> <Gold.Chemscore.DEInternal.Weighted>
0.7095

> <Gold.Chemscore.Rot.Weighted>
6.3697

> <Gold.Chemscore.Internal.Correction.Weighted>
   9.000000E+99

> <Gold.Protein.RotatedTorsions>
[ 6907 6896 6895 6894 ] final -168.43 input  -60.11 | X-H torsion
[ 7974 7965 7964 7962 ] final  -10.86 input  175.53 | X-H torsion
[ 8008 7997 7996 7995 ] final  149.31 input   59.86 | X-H torsion
[ 10167 10162 10161 10158 ] final  177.53 input  -65.29 | X-H torsion
[ 10718 10713 10712 10709 ] final  -17.79 input   66.30 | X-H torsion
[ 10763 10752 10751 10750 ] final  -12.29 input  -60.55 | X-H torsion
[ 11005 11000 10999 10996 ] final  -14.77 input  -57.11 | X-H torsion

> <Gold.Protein.ActiveResidues>
 VAL166  LYS551  ARG553  GLY616  TRP617  ASP618  TYR619  PRO620  LYS621  CYS622 
 ASP623  PHE694  ASN695  SER759  ASP760  ASP761  ALA762  ILE779  LEU786  VAL792 
 PHE793  MET794  SER795  GLU796  ALA797  LYS798  CYS799  TRP800  GLU811  SER814 

> <Gold.Protein.RotatedAtoms>
  151.4754  133.3559  159.2829 H   0  0  0  0  0  0  0  0  0  0  0  0  # atno 6907 bound_to 6896
  150.8933  134.8340  159.7319 H   0  0  0  0  0  0  0  0  0  0  0  0  # atno 6908 bound_to 6896
  152.4836  134.4666  159.9674 H   0  0  0  0  0  0  0  0  0  0  0  0  # atno 6909 bound_to 6896
  146.2207  140.2826  142.8363 H   0  0  0  0  0  0  0  0  0  0  0  0  # atno 7974 bound_to 7965
  156.2760  140.2105  156.5837 H   0  0  0  0  0  0  0  0  0  0  0  0  # atno 8008 bound_to 7997
  154.7038  140.0518  157.0507 H   0  0  0  0  0  0  0  0  0  0  0  0  # atno 8009 bound_to 7997
  155.0699  140.3175  155.4637 H   0  0  0  0  0  0  0  0  0  0  0  0  # atno 8010 bound_to 7997
  139.5257  144.2787  152.0566 H   0  0  0  0  0  0  0  0  0  0  0  0  # atno 10167 bound_to 10162
  156.5686  130.4744  149.6373 H   0  0  0  0  0  0  0  0  0  0  0  0  # atno 10718 bound_to 10713
  153.4963  135.7017  153.5856 H   0  0  0  0  0  0  0  0  0  0  0  0  # atno 10763 bound_to 10752
  153.4006  135.3873  155.1985 H   0  0  0  0  0  0  0  0  0  0  0  0  # atno 10764 bound_to 10752
  154.8713  135.3880  154.4429 H   0  0  0  0  0  0  0  0  0  0  0  0  # atno 10765 bound_to 10752
  140.7898  133.8296  155.9369 H   0  0  0  0  0  0  0  0  0  0  0  0  # atno 11005 bound_to 11000
  144.9186  140.7842  143.5762 LP  0  0  0  0  0  0  0  0  0  0  0  0  # atno 17320 bound_to 7965
  145.2761  139.1936  143.4816 LP  0  0  0  0  0  0  0  0  0  0  0  0  # atno 17321 bound_to 7965
  140.2243  144.4434  150.6328 LP  0  0  0  0  0  0  0  0  0  0  0  0  # atno 17342 bound_to 10162
  140.6398  143.2201  151.6316 LP  0  0  0  0  0  0  0  0  0  0  0  0  # atno 17343 bound_to 10162
  156.2735  130.7030  151.1834 LP  0  0  0  0  0  0  0  0  0  0  0  0  # atno 17370 bound_to 10713
  157.7353  131.0573  150.5477 LP  0  0  0  0  0  0  0  0  0  0  0  0  # atno 17371 bound_to 10713
  140.9400  134.1913  157.4804 LP  0  0  0  0  0  0  0  0  0  0  0  0  # atno 17394 bound_to 11000
  139.8732  134.9868  156.5340 LP  0  0  0  0  0  0  0  0  0  0  0  0  # atno 17395 bound_to 11000

$$$$
