AV-unprocessed.smi:1748|AV-procd|sdf|7039|dock5
  -GOLD-   22720 8253D 1   1.00000     0.00000
 Structure written by MMmdl.
 40 41  0  0  0  0  0  0  0  0  2 V2000
  143.4478  133.3268  148.4237 C   0  0  0  0  0  0  0  0  0  0  0  0
  143.9904  133.0441  149.7700 N   0  3  2  0  0  0  0  0  0  0  0  0
  144.3998  134.2792  150.4844 C   0  0  0  0  0  0  0  0  0  0  0  0
  144.8434  133.9642  151.9228 C   0  0  0  0  0  0  0  0  0  0  0  0
  145.9658  132.9173  151.9376 C   0  0  0  0  0  0  0  0  0  0  0  0
  145.5258  131.6601  151.1701 C   0  0  2  0  0  0  0  0  0  0  0  0
  146.6160  130.6896  151.1367 N   0  0  0  0  0  0  0  0  0  0  0  0
  146.5328  129.4221  151.5663 C   0  0  0  0  0  0  0  0  0  0  0  0
  145.5015  128.9360  152.0304 O   0  0  0  0  0  0  0  0  0  0  0  0
  147.7018  128.7775  151.3972 N   0  0  0  0  0  0  0  0  0  0  0  0
  148.0430  127.4572  151.7362 C   0  0  0  0  0  0  0  0  0  0  0  0
  148.3126  126.4716  150.8406 C   0  0  0  0  0  0  0  0  0  0  0  0
  148.6439  125.1197  151.2577 C   0  0  0  0  0  0  0  0  0  0  0  0
  149.0153  124.0482  150.2444 C   0  0  0  0  0  0  0  0  0  0  0  0
  150.2455  123.5793  150.4580 F   0  0  0  0  0  0  0  0  0  0  0  0
  148.1608  123.0293  150.3298 F   0  0  0  0  0  0  0  0  0  0  0  0
  148.9604  124.5309  149.0029 F   0  0  0  0  0  0  0  0  0  0  0  0
  148.6790  124.8921  152.5838 C   0  0  0  0  0  0  0  0  0  0  0  0
  148.3826  125.8944  153.5105 N   0  0  0  0  0  0  0  0  0  0  0  0
  148.0628  127.1654  153.1791 C   0  0  0  0  0  0  0  0  0  0  0  0
  147.8136  127.9927  154.0555 O   0  0  0  0  0  0  0  0  0  0  0  0
  145.0755  132.0317  149.7411 C   0  0  0  0  0  0  0  0  0  0  0  0
  148.4146  125.6402  154.4873 H   0  0  0  0  0  0  0  0  0  0  0  0
  144.2093  133.7689  147.7799 H   0  0  0  0  0  0  0  0  0  0  0  0
  142.6071  134.0185  148.4846 H   0  0  0  0  0  0  0  0  0  0  0  0
  143.0901  132.4109  147.9521 H   0  0  0  0  0  0  0  0  0  0  0  0
  145.2105  134.7654  149.9391 H   0  0  0  0  0  0  0  0  0  0  0  0
  143.5662  134.9823  150.5066 H   0  0  0  0  0  0  0  0  0  0  0  0
  145.1778  134.8761  152.4183 H   0  0  0  0  0  0  0  0  0  0  0  0
  143.9917  133.5954  152.4963 H   0  0  0  0  0  0  0  0  0  0  0  0
  146.8642  133.3383  151.4833 H   0  0  0  0  0  0  0  0  0  0  0  0
  146.2245  132.6639  152.9664 H   0  0  0  0  0  0  0  0  0  0  0  0
  144.6810  131.2180  151.7026 H   0  0  0  0  0  0  0  0  0  0  0  0
  147.4994  131.0079  150.7645 H   0  0  0  0  0  0  0  0  0  0  0  0
  148.4357  129.2913  150.9312 H   0  0  0  0  0  0  0  0  0  0  0  0
  148.2658  126.6565  149.7797 H   0  0  0  0  0  0  0  0  0  0  0  0
  148.9357  123.9439  153.0330 H   0  0  0  0  0  0  0  0  0  0  0  0
  144.7176  131.1415  149.2219 H   0  0  0  0  0  0  0  0  0  0  0  0
  145.9182  132.4174  149.1644 H   0  0  0  0  0  0  0  0  0  0  0  0
  143.2345  132.6388  150.3037 H   0  0  0  0  0  0  0  0  0  0  0  0
  1  2  1  0  0  0  0
  1 24  1  0  0  0  0
  1 25  1  0  0  0  0
  1 26  1  0  0  0  0
  2 22  1  0  0  0  0
  2  3  1  0  0  0  0
  2 40  1  0  0  0  0
  3  4  1  0  0  0  0
  3 27  1  0  0  0  0
  3 28  1  0  0  0  0
  4  5  1  0  0  0  0
  4 29  1  0  0  0  0
  4 30  1  0  0  0  0
  5  6  1  0  0  0  0
  5 31  1  0  0  0  0
  5 32  1  0  0  0  0
  6  7  1  0  0  0  0
  6 22  1  0  0  0  0
  6 33  1  0  0  0  0
  7  8  1  0  0  0  0
  7 34  1  0  0  0  0
  8  9  2  0  0  0  0
  8 10  1  0  0  0  0
 10 11  1  0  0  0  0
 10 35  1  0  0  0  0
 11 20  1  0  0  0  0
 11 12  2  0  0  0  0
 12 13  1  0  0  0  0
 12 36  1  0  0  0  0
 13 14  1  0  0  0  0
 13 18  2  0  0  0  0
 14 15  1  0  0  0  0
 14 16  1  0  0  0  0
 14 17  1  0  0  0  0
 18 19  1  0  0  0  0
 18 37  1  0  0  0  0
 19 23  1  0  0  0  0
 19 20  1  0  0  0  0
 20 21  2  0  0  0  0
 22 38  1  0  0  0  0
 22 39  1  0  0  0  0
M  CHG  1   2   1
M  END
> <s_m_source_file>
AV-unprocessed.smi

> <i_m_source_file_index>
1748

> <i_lp_mmshare_version>
43012

> <i_f3d_flags>
0

> <s_epik_input>
W0NIM11OMVtDSDJdW0NIMl1bQ0gyXVtDQEhdKFtDSDJdMSlbTkhdQyg9TylbTkhdYzJbY0hdYyhDKEYpKEYpRilbY0hdW25IXWMyPU8=

> <s_epik_cmdline>
J2VwaWtfcHl0aG9uJywgJy1waCcsICc3LjAnLCAnLXRuJywgJzgnLCAnLW1hJywgJzIwMCcsICctbWV0YWxfYmluZGluZycsICctaW1hZScsICc8aW5maWxlLm1hZT4nLCAnLW9tYWUnLCAnPG91dGZpbGUubWFlPic=

> <r_lp_tautomer_probability>
1

> <r_epik_Ionization_Penalty>
0.00746315

> <r_epik_Ionization_Penalty_Charging>
0.00744398

> <r_epik_Ionization_Penalty_Neutral>
1.91704e-05

> <r_epik_State_Penalty>
-0

> <r_epik_Charging_Adjusted_Penalty>
0.00744398

> <i_epik_Tot_Q>
1

> <i_epik_Tot_abs_Q>
1

> <r_epik_Metal_State_Penalty>
0.379332

> <b_epik_Metal_Only>
0

> <s_lp_Force_Field>
OPLS_2005

> <r_lp_Energy>
25.4307

> <b_lp_Chiralities_Consistent>
1

> <s_lp_Variant>
AV-unprocessed.smi:1748-4

> <Gold.Version>
5.8.1

> <Gold.Id.Protein>
6NUR|6NUR_protein|mol2

> <Gold.PLP.Fitness>
42.4158

> <Gold.PLP.PLP>
-38.5217

> <Gold.PLP.part.hbond>
-2.1792

> <Gold.PLP.part.metal>
0.0000

> <Gold.PLP.part.buried>
-3.6683

> <Gold.PLP.part.nonpolar>
-32.8613

> <Gold.PLP.part.repulsive>
0.4577

> <Gold.PLP.ligand.clash>
0.0000

> <Gold.PLP.ligand.torsion>
0.6838

> <Gold.PLP.Chemscore.Hbond>
1.7440

> <Gold.PLP.Chemscore.CHOScore>
0.0000

> <Gold.PLP.Chemscore.Metal>
0.0000

> <Gold.Chemscore.Hbonds>
donor molecule, donor type, donor heavy atom, donor atom, acceptor molecule, acceptor atom, score
      L1  H     7    34       P1 10747  1.00
      L1  H    10    35       P1 10747  0.68

> <Gold.PLP.Chemscore.Internal.Correction>
0.0298

> <Gold.Rescore>
     Score         DG    S(hbond)    S(metal)    S(lipo)     H(rot)  DE(clash)    DE(int)     intcor
     15.56     -17.85       1.59        0.00      82.14       1.00       1.61       0.67       ----

> <Gold.Chemscore.Fitness>
15.5649

> <Gold.Chemscore.DG>
-17.8487

> <Gold.Chemscore.ZeroCoef>
-5.4800

> <Gold.Chemscore.Hbond>
1.5922

> <Gold.Chemscore.Metal>
0.0000

> <Gold.Chemscore.Lipo>
82.1428

> <Gold.Chemscore.Internal_Hbond>
0.0000

> <Gold.Chemscore.DEClash>
1.6143

> <Gold.Chemscore.DEInternal>
0.6694

> <Gold.Chemscore.Rot>
1.0000

> <Gold.Chemscore.Internal.Correction>
   9.000000E+99

> <Gold.Chemscore.Hbonds>
donor molecule, donor type, donor heavy atom, donor atom, acceptor molecule, acceptor atom, score
      L1  H     7    34       P1 10747  0.94
      L1  H    10    35       P1 10747  0.07

> <Gold.Chemscore.Hbond.Weighted>
-5.3179

> <Gold.Chemscore.Metal.Weighted>
-0.0000

> <Gold.Chemscore.Lipo.Weighted>
-9.6107

> <Gold.Chemscore.Internal_Hbond.Weighted>
0.0000

> <Gold.Chemscore.DEClash.Weighted>
1.6143

> <Gold.Chemscore.DEInternal.Weighted>
0.6694

> <Gold.Chemscore.Rot.Weighted>
2.5600

> <Gold.Chemscore.Internal.Correction.Weighted>
   9.000000E+99

> <Gold.Protein.RotatedTorsions>
[ 6907 6896 6895 6894 ] final  -52.68 input  -60.11 | X-H torsion
[ 7974 7965 7964 7962 ] final  -16.57 input  175.53 | X-H torsion
[ 8008 7997 7996 7995 ] final  145.16 input   59.86 | X-H torsion
[ 10167 10162 10161 10158 ] final   23.46 input  -65.29 | X-H torsion
[ 10718 10713 10712 10709 ] final  -71.97 input   66.30 | X-H torsion
[ 10763 10752 10751 10750 ] final -114.86 input  -60.55 | X-H torsion
[ 11005 11000 10999 10996 ] final   62.56 input  -57.11 | X-H torsion

> <Gold.Protein.ActiveResidues>
 VAL166  LYS551  ARG553  GLY616  TRP617  ASP618  TYR619  PRO620  LYS621  CYS622 
 ASP623  PHE694  ASN695  SER759  ASP760  ASP761  ALA762  ILE779  LEU786  VAL792 
 PHE793  MET794  SER795  GLU796  ALA797  LYS798  CYS799  TRP800  GLU811  SER814 

> <Gold.Protein.RotatedAtoms>
  150.8495  134.7815  159.6997 H   0  0  0  0  0  0  0  0  0  0  0  0  # atno 6907 bound_to 6896
  152.4563  134.5280  159.9812 H   0  0  0  0  0  0  0  0  0  0  0  0  # atno 6908 bound_to 6896
  151.5403  133.3396  159.2970 H   0  0  0  0  0  0  0  0  0  0  0  0  # atno 6909 bound_to 6896
  146.1981  140.3655  142.8433 H   0  0  0  0  0  0  0  0  0  0  0  0  # atno 7974 bound_to 7965
  156.2890  140.2216  156.5170 H   0  0  0  0  0  0  0  0  0  0  0  0  # atno 8008 bound_to 7997
  154.7560  140.0477  157.0955 H   0  0  0  0  0  0  0  0  0  0  0  0  # atno 8009 bound_to 7997
  155.0050  140.3106  155.4855 H   0  0  0  0  0  0  0  0  0  0  0  0  # atno 8010 bound_to 7997
  140.5267  143.9911  150.6444 H   0  0  0  0  0  0  0  0  0  0  0  0  # atno 10167 bound_to 10162
  156.0340  130.4362  150.2523 H   0  0  0  0  0  0  0  0  0  0  0  0  # atno 10718 bound_to 10713
  154.8457  135.4403  154.1571 H   0  0  0  0  0  0  0  0  0  0  0  0  # atno 10763 bound_to 10752
  153.2717  135.6946  153.7479 H   0  0  0  0  0  0  0  0  0  0  0  0  # atno 10764 bound_to 10752
  153.6717  135.3417  155.3130 H   0  0  0  0  0  0  0  0  0  0  0  0  # atno 10765 bound_to 10752
  140.0084  134.6334  155.9819 H   0  0  0  0  0  0  0  0  0  0  0  0  # atno 11005 bound_to 11000
  144.8624  140.7158  143.6099 LP  0  0  0  0  0  0  0  0  0  0  0  0  # atno 17320 bound_to 7965
  145.3575  139.1690  143.4401 LP  0  0  0  0  0  0  0  0  0  0  0  0  # atno 17321 bound_to 7965
  140.3275  143.3098  152.0721 LP  0  0  0  0  0  0  0  0  0  0  0  0  # atno 17342 bound_to 10162
  139.4940  144.6532  151.6630 LP  0  0  0  0  0  0  0  0  0  0  0  0  # atno 17343 bound_to 10162
  157.0623  131.0093  151.3218 LP  0  0  0  0  0  0  0  0  0  0  0  0  # atno 17370 bound_to 10713
  157.5061  130.7910  149.7655 LP  0  0  0  0  0  0  0  0  0  0  0  0  # atno 17371 bound_to 10713
  141.1693  133.6537  156.4594 LP  0  0  0  0  0  0  0  0  0  0  0  0  # atno 17394 bound_to 11000
  140.4599  134.6851  157.5080 LP  0  0  0  0  0  0  0  0  0  0  0  0  # atno 17395 bound_to 11000

$$$$
