AV-unprocessed.smi:3253|AV-procd|sdf|12450|dock6
  -GOLD-   2272018343D 1   1.00000     0.00000
 Structure written by MMmdl.
 36 37  0  0  0  0  0  0  0  0  1 V2000
  148.2767  141.6117  157.3760 C   0  0  0  0  0  0  0  0  0  0  0  0
  149.5965  140.8907  157.0701 C   0  0  1  0  0  0  0  0  0  0  0  0
  149.7840  140.6807  155.5523 C   0  0  0  0  0  0  0  0  0  0  0  0
  150.7406  139.6328  155.2452 N   0  0  0  0  0  0  0  0  0  0  0  0
  150.6820  138.7237  154.1966 C   0  0  0  0  0  0  0  0  0  0  0  0
  151.8049  137.9341  154.2977 C   0  0  0  0  0  0  0  0  0  0  0  0
  152.5597  138.3316  155.3987 N   0  0  0  0  0  0  0  0  0  0  0  0
  151.8662  139.3400  155.9107 C   0  0  0  0  0  0  0  0  0  0  0  0
  150.7032  141.6685  157.6260 N   0  0  0  0  0  0  0  0  0  0  0  0
  151.6426  141.2044  158.4655 C   0  0  0  0  0  0  0  0  0  0  0  0
  151.6525  140.0529  158.9019 O   0  0  0  0  0  0  0  0  0  0  0  0
  152.7556  142.1881  158.8563 C   0  0  2  0  0  0  0  0  0  0  0  0
  152.9839  142.1925  160.3818 C   0  0  0  0  0  0  0  0  0  0  0  0
  152.5223  143.5724  160.8190 C   0  0  0  0  0  0  0  0  0  0  0  0
  152.4634  143.9145  161.9990 O   0  0  0  0  0  0  0  0  0  0  0  0
  152.1953  144.3236  159.7639 N   0  0  0  0  0  0  0  0  0  0  0  0
  151.7001  145.6925  159.8126 C   0  0  0  0  0  0  0  0  0  0  0  0
  152.4096  143.6494  158.4950 C   0  0  0  0  0  0  0  0  0  0  0  0
  147.4243  141.0453  157.0000 H   0  0  0  0  0  0  0  0  0  0  0  0
  148.2472  142.6007  156.9170 H   0  0  0  0  0  0  0  0  0  0  0  0
  148.1383  141.7380  158.4504 H   0  0  0  0  0  0  0  0  0  0  0  0
  149.5478  139.9138  157.5551 H   0  0  0  0  0  0  0  0  0  0  0  0
  148.8335  140.4096  155.0910 H   0  0  0  0  0  0  0  0  0  0  0  0
  150.1099  141.6056  155.0739 H   0  0  0  0  0  0  0  0  0  0  0  0
  149.8737  138.7192  153.4806 H   0  0  0  0  0  0  0  0  0  0  0  0
  152.1252  137.1170  153.6682 H   0  0  0  0  0  0  0  0  0  0  0  0
  152.1881  139.8835  156.7870 H   0  0  0  0  0  0  0  0  0  0  0  0
  150.7769  142.6291  157.3240 H   0  0  0  0  0  0  0  0  0  0  0  0
  153.6776  141.9009  158.3478 H   0  0  0  0  0  0  0  0  0  0  0  0
  152.4259  141.4190  160.9125 H   0  0  0  0  0  0  0  0  0  0  0  0
  154.0403  142.0689  160.6220 H   0  0  0  0  0  0  0  0  0  0  0  0
  152.3538  146.3185  160.4211 H   0  0  0  0  0  0  0  0  0  0  0  0
  150.6990  145.7185  160.2439 H   0  0  0  0  0  0  0  0  0  0  0  0
  151.6512  146.1277  158.8141 H   0  0  0  0  0  0  0  0  0  0  0  0
  153.2387  144.1247  157.9692 H   0  0  0  0  0  0  0  0  0  0  0  0
  151.5249  143.7372  157.8616 H   0  0  0  0  0  0  0  0  0  0  0  0
  1  2  1  0  0  0  0
  1 19  1  0  0  0  0
  1 20  1  0  0  0  0
  1 21  1  0  0  0  0
  2  3  1  0  0  0  0
  2  9  1  0  0  0  0
  2 22  1  0  0  0  0
  3  4  1  0  0  0  0
  3 23  1  0  0  0  0
  3 24  1  0  0  0  0
  4  8  1  0  0  0  0
  4  5  1  0  0  0  0
  5  6  2  0  0  0  0
  5 25  1  0  0  0  0
  6  7  1  0  0  0  0
  6 26  1  0  0  0  0
  7  8  2  0  0  0  0
  8 27  1  0  0  0  0
  9 10  1  0  0  0  0
  9 28  1  0  0  0  0
 10 11  2  0  0  0  0
 10 12  1  0  0  0  0
 12 18  1  0  0  0  0
 12 13  1  0  0  0  0
 12 29  1  0  0  0  0
 13 14  1  0  0  0  0
 13 30  1  0  0  0  0
 13 31  1  0  0  0  0
 14 15  2  0  0  0  0
 14 16  1  0  0  0  0
 16 17  1  0  0  0  0
 16 18  1  0  0  0  0
 17 32  1  0  0  0  0
 17 33  1  0  0  0  0
 17 34  1  0  0  0  0
 18 35  1  0  0  0  0
 18 36  1  0  0  0  0
M  END
> <s_m_source_file>
AV-unprocessed.smi

> <i_m_source_file_index>
3253

> <i_lp_mmshare_version>
43012

> <i_f3d_flags>
0

> <s_epik_input>
W2NIXTFuW2NIXVtjSF1uMVtDSDJdW0NAQEhdKFtDSDNdKVtOSF1DKD1PKVtDQEBIXTJbQ0gyXUMoPU8pTihbQ0gzXSlbQ0gyXTI=

> <s_epik_cmdline>
J2VwaWtfcHl0aG9uJywgJy1waCcsICc3LjAnLCAnLXRuJywgJzgnLCAnLW1hJywgJzIwMCcsICctbWV0YWxfYmluZGluZycsICctaW1hZScsICc8aW5maWxlLm1hZT4nLCAnLW9tYWUnLCAnPG91dGZpbGUubWFlPic=

> <r_lp_tautomer_probability>
1

> <r_epik_Ionization_Penalty>
0.628884

> <r_epik_Ionization_Penalty_Charging>
0.628884

> <r_epik_Ionization_Penalty_Neutral>
2.35084e-08

> <r_epik_State_Penalty>
0.64556

> <r_epik_Charging_Adjusted_Penalty>
1.27444

> <i_epik_Tot_Q>
0

> <i_epik_Tot_abs_Q>
0

> <r_epik_Metal_State_Penalty>
0.308736

> <b_epik_Metal_Only>
0

> <s_lp_Force_Field>
OPLS_2005

> <r_lp_Energy>
12.6473

> <b_lp_Chiralities_Consistent>
1

> <s_lp_Variant>
AV-unprocessed.smi:3253-6

> <Gold.Version>
5.8.1

> <Gold.Id.Protein>
6NUR|6NUR_protein|mol2

> <Gold.PLP.Fitness>
46.8200

> <Gold.PLP.PLP>
-42.5480

> <Gold.PLP.part.hbond>
0.0000

> <Gold.PLP.part.metal>
0.0000

> <Gold.PLP.part.buried>
-6.1748

> <Gold.PLP.part.nonpolar>
-35.6388

> <Gold.PLP.part.repulsive>
0.2157

> <Gold.PLP.ligand.clash>
0.0000

> <Gold.PLP.ligand.torsion>
0.8488

> <Gold.PLP.Chemscore.Hbond>
0.0000

> <Gold.PLP.Chemscore.CHOScore>
1.9830

> <Gold.PLP.Chemscore.Metal>
0.0000

> <Gold.Chemscore.Hbonds>
donor molecule, donor type, donor heavy atom, donor atom, acceptor molecule, acceptor atom, score
      L1  C     5    25       P1  7957  0.65
      L1  C     6    26       P1  7949  0.76

> <Gold.PLP.Chemscore.Internal.Correction>
0.0207

> <Gold.Rescore>
     Score         DG    S(hbond)    S(metal)    S(lipo)     H(rot)  DE(clash)    DE(int)     intcor
      8.59      -9.26       0.00        0.00      75.36       1.97       0.10       0.58       ----

> <Gold.Chemscore.Fitness>
8.5861

> <Gold.Chemscore.DG>
-9.2624

> <Gold.Chemscore.ZeroCoef>
-5.4800

> <Gold.Chemscore.Hbond>
0.0000

> <Gold.Chemscore.Metal>
0.0000

> <Gold.Chemscore.Lipo>
75.3636

> <Gold.Chemscore.Internal_Hbond>
0.0000

> <Gold.Chemscore.DEClash>
0.0981

> <Gold.Chemscore.DEInternal>
0.5782

> <Gold.Chemscore.Rot>
1.9669

> <Gold.Chemscore.Internal.Correction>
   9.000000E+99

> <Gold.Chemscore.Hbond.Weighted>
-0.0000

> <Gold.Chemscore.Metal.Weighted>
-0.0000

> <Gold.Chemscore.Lipo.Weighted>
-8.8175

> <Gold.Chemscore.Internal_Hbond.Weighted>
0.0000

> <Gold.Chemscore.DEClash.Weighted>
0.0981

> <Gold.Chemscore.DEInternal.Weighted>
0.5782

> <Gold.Chemscore.Rot.Weighted>
5.0352

> <Gold.Chemscore.Internal.Correction.Weighted>
   9.000000E+99

> <Gold.Protein.RotatedTorsions>
[ 6907 6896 6895 6894 ] final  -31.31 input  -60.11 | X-H torsion
[ 7974 7965 7964 7962 ] final   83.90 input  175.53 | X-H torsion
[ 8008 7997 7996 7995 ] final  -60.54 input   59.86 | X-H torsion
[ 10167 10162 10161 10158 ] final  -32.96 input  -65.29 | X-H torsion
[ 10718 10713 10712 10709 ] final  -10.47 input   66.30 | X-H torsion
[ 10763 10752 10751 10750 ] final   66.62 input  -60.55 | X-H torsion
[ 11005 11000 10999 10996 ] final   36.55 input  -57.11 | X-H torsion

> <Gold.Protein.ActiveResidues>
 VAL166  LYS551  ARG553  GLY616  TRP617  ASP618  TYR619  PRO620  LYS621  CYS622 
 ASP623  PHE694  ASN695  SER759  ASP760  ASP761  ALA762  ILE779  LEU786  VAL792 
 PHE793  MET794  SER795  GLU796  ALA797  LYS798  CYS799  TRP800  GLU811  SER814 

> <Gold.Protein.RotatedAtoms>
  151.0938  134.9932  159.8415 H   0  0  0  0  0  0  0  0  0  0  0  0  # atno 6907 bound_to 6896
  152.5431  134.2033  159.8731 H   0  0  0  0  0  0  0  0  0  0  0  0  # atno 6908 bound_to 6896
  151.2071  133.4533  159.2631 H   0  0  0  0  0  0  0  0  0  0  0  0  # atno 6909 bound_to 6896
  145.6058  139.2360  143.2220 H   0  0  0  0  0  0  0  0  0  0  0  0  # atno 7974 bound_to 7965
  154.4403  140.1037  156.6289 H   0  0  0  0  0  0  0  0  0  0  0  0  # atno 8008 bound_to 7997
  155.5626  140.3488  155.4476 H   0  0  0  0  0  0  0  0  0  0  0  0  # atno 8009 bound_to 7997
  156.0448  140.1290  157.0105 H   0  0  0  0  0  0  0  0  0  0  0  0  # atno 8010 bound_to 7997
  140.7212  143.3655  151.1878 H   0  0  0  0  0  0  0  0  0  0  0  0  # atno 10167 bound_to 10162
  156.6731  130.5015  149.5994 H   0  0  0  0  0  0  0  0  0  0  0  0  # atno 10718 bound_to 10713
  153.0148  135.5314  154.6852 H   0  0  0  0  0  0  0  0  0  0  0  0  # atno 10763 bound_to 10752
  154.6001  135.2867  155.0546 H   0  0  0  0  0  0  0  0  0  0  0  0  # atno 10764 bound_to 10752
  154.1607  135.6548  153.5037 H   0  0  0  0  0  0  0  0  0  0  0  0  # atno 10765 bound_to 10752
  140.2314  134.3523  155.7962 H   0  0  0  0  0  0  0  0  0  0  0  0  # atno 11005 bound_to 11000
  146.1541  140.6883  142.9308 LP  0  0  0  0  0  0  0  0  0  0  0  0  # atno 17320 bound_to 7965
  144.7290  140.4615  143.6951 LP  0  0  0  0  0  0  0  0  0  0  0  0  # atno 17321 bound_to 7965
  139.7216  143.9214  152.2987 LP  0  0  0  0  0  0  0  0  0  0  0  0  # atno 17342 bound_to 10162
  139.8973  144.6932  150.8704 LP  0  0  0  0  0  0  0  0  0  0  0  0  # atno 17343 bound_to 10162
  156.1924  130.6568  151.1076 LP  0  0  0  0  0  0  0  0  0  0  0  0  # atno 17370 bound_to 10713
  157.7070  131.0752  150.6632 LP  0  0  0  0  0  0  0  0  0  0  0  0  # atno 17371 bound_to 10713
  141.2217  133.7248  156.8738 LP  0  0  0  0  0  0  0  0  0  0  0  0  # atno 17394 bound_to 11000
  140.1746  134.9076  157.2875 LP  0  0  0  0  0  0  0  0  0  0  0  0  # atno 17395 bound_to 11000

$$$$
