#       Name:                AV-unprocessed.smi:198
#       Creating user name   scv26
#       Creation time:       Thu Mar 26 19:42:33 2020


#       File generated by GOLD software.
#

@<TRIPOS>MOLECULE
AV-unprocessed.smi:198
    67    71     1
SMALL
NO_CHARGES


@<TRIPOS>ATOM
      1 ****        -5.1736   0.7455  -3.3700 C.3            1 S1                 0.0000
      2 ****        -4.5480   0.8160  -2.0322 N.4            1 S1                 1.0000
      3 ****        -3.1737   1.3718  -2.0806 C.3            1 S1                 0.0000
      4 ****        -2.6141   1.5740  -0.6650 C.3            1 S1                 0.0000
      5 ****        -2.6391   0.2519   0.1318 C.3            1 S1                 0.0000
      6 ****        -4.0567  -0.3681   0.1236 C.3            1 S1                 0.0000
      7 ****        -5.0192   0.3869   1.0639 C.3            1 S1                 0.0000
      8 ****        -4.4217   0.4832   2.4746 C.3            1 S1                 0.0000
      9 ****        -3.0240   1.1202   2.4420 C.3            1 S1                 0.0000
     10 ****        -2.1473   0.4102   1.5065 N.3            1 S1                 0.0000
     11 ****        -0.8083   0.6062   1.6303 C.ar           1 S1                 0.0000
     12 ****        -0.3448   1.7505   2.2010 N.ar           1 S1                 0.0000
     13 ****         0.9690   1.9667   2.3121 C.ar           1 S1                 0.0000
     14 ****         1.9782   1.1867   1.9219 N.ar           1 S1                 0.0000
     15 ****         1.5222   0.0352   1.3511 C.ar           1 S1                 0.0000
     16 ****         0.1585  -0.3343   1.1736 C.ar           1 S1                 0.0000
     17 ****         0.0839  -1.5908   0.5838 N.2            1 S1                 0.0000
     18 ****         1.3301  -1.9413   0.4193 C.2            1 S1                 0.0000
     19 ****         2.2601  -1.0101   0.8229 N.pl3          1 S1                 0.0000
     20 ****         3.6867  -1.1524   0.7927 C.3            1 S1                 0.0000
     21 ****         4.5870   0.0092   0.3563 C.3            1 S1                 0.0000
     22 ****         5.5394  -0.9829  -0.3498 C.3            1 S1                 0.0000
     23 ****         6.0205  -0.5842  -1.7576 C.3            1 S1                 0.0000
     24 ****         4.9612  -0.1966  -2.6102 O.3            1 S1                 0.0000
     25 ****         6.8217  -1.3635   0.4198 C.3            1 S1                 0.0000
     26 ****         6.5801  -1.7652   1.7531 O.3            1 S1                 0.0000
     27 ****         4.3762  -1.9989  -0.2844 C.3            1 S1                 0.0000
     28 ****        -4.6003  -0.4835  -1.3155 C.3            1 S1                 0.0000
     29 ****        -4.6273   0.0626  -4.0222 H              1 S1                 0.0000
     30 ****        -5.1893   1.7292  -3.8402 H              1 S1                 0.0000
     31 ****        -6.2042   0.3970  -3.2955 H              1 S1                 0.0000
     32 ****        -2.5266   0.7028  -2.6501 H              1 S1                 0.0000
     33 ****        -3.1833   2.3277  -2.6059 H              1 S1                 0.0000
     34 ****        -1.5938   1.9534  -0.7312 H              1 S1                 0.0000
     35 ****        -3.1927   2.3448  -0.1558 H              1 S1                 0.0000
     36 ****        -1.9933  -0.4499  -0.3939 H              1 S1                 0.0000
     37 ****        -3.9704  -1.3834   0.5145 H              1 S1                 0.0000
     38 ****        -5.2201   1.3889   0.6840 H              1 S1                 0.0000
     39 ****        -5.9814  -0.1245   1.1069 H              1 S1                 0.0000
     40 ****        -5.0804   1.0621   3.1226 H              1 S1                 0.0000
     41 ****        -4.3557  -0.5142   2.9113 H              1 S1                 0.0000
     42 ****        -3.0958   2.1699   2.1558 H              1 S1                 0.0000
     43 ****        -2.5979   1.0928   3.4460 H              1 S1                 0.0000
     44 ****         1.2525   2.8995   2.7767 H              1 S1                 0.0000
     45 ****         1.6052  -2.8942  -0.0092 H              1 S1                 0.0000
     46 ****         3.9674  -1.4989   1.7880 H              1 S1                 0.0000
     47 ****         4.0768   0.6890  -0.3273 H              1 S1                 0.0000
     48 ****         5.0335   0.5617   1.1835 H              1 S1                 0.0000
     49 ****         6.7251   0.2465  -1.7053 H              1 S1                 0.0000
     50 ****         6.5453  -1.4117  -2.2363 H              1 S1                 0.0000
     51 ****         5.3237   0.0500  -3.4472 H              1 S1                 0.0000
     52 ****         7.3426  -2.1810  -0.0798 H              1 S1                 0.0000
     53 ****         7.5167  -0.5236   0.4505 H              1 S1                 0.0000
     54 ****         7.4070  -1.9802   2.1572 H              1 S1                 0.0000
     55 ****         4.6603  -2.9978   0.0481 H              1 S1                 0.0000
     56 ****         3.7942  -2.0524  -1.2054 H              1 S1                 0.0000
     57 ****        -5.6263  -0.8537  -1.2948 H              1 S1                 0.0000
     58 ****        -4.0155  -1.2185  -1.8713 H              1 S1                 0.0000
     59 ****        -5.1019   1.4649  -1.4914 H              1 S1                 0.0000
     60 ****        -2.2401  -0.5153   1.8737 LP             1 S1                 0.0000
     61 ****        -0.9913   2.4342   2.5396 LP             1 S1                 0.0000
     62 ****         2.9450   1.4167   2.0336 LP             1 S1                 0.0000
     63 ****        -0.7369  -2.1079   0.3411 LP             1 S1                 0.0000
     64 ****         4.4747   0.5807  -2.2113 LP             1 S1                 0.0000
     65 ****         4.3275  -0.9609  -2.7293 LP             1 S1                 0.0000
     66 ****         5.9828  -2.5672   1.7606 LP             1 S1                 0.0000
     67 ****         6.1431  -1.0194   2.2559 LP             1 S1                 0.0000
@<TRIPOS>BOND
    1    1    2 1     
    2    1   29 1     
    3    1   30 1     
    4    1   31 1     
    5    2   28 1     
    6    2    3 1     
    7    2   59 1     
    8    3    4 1     
    9    3   32 1     
   10    3   33 1     
   11    4    5 1     
   12    4   34 1     
   13    4   35 1     
   14    5   10 1     
   15    5    6 1     
   16    5   36 1     
   17    6    7 1     
   18    6   28 1     
   19    6   37 1     
   20    7    8 1     
   21    7   38 1     
   22    7   39 1     
   23    8    9 1     
   24    8   40 1     
   25    8   41 1     
   26    9   10 1     
   27    9   42 1     
   28    9   43 1     
   29   10   11 1     
   30   11   16 ar    
   31   11   12 ar    
   32   12   13 ar    
   33   13   14 ar    
   34   13   44 1     
   35   14   15 ar    
   36   15   19 1     
   37   15   16 ar    
   38   16   17 1     
   39   17   18 2     
   40   18   19 1     
   41   18   45 1     
   42   19   20 1     
   43   20   27 1     
   44   20   21 1     
   45   20   46 1     
   46   21   22 1     
   47   21   47 1     
   48   21   48 1     
   49   22   23 1     
   50   22   25 1     
   51   22   27 1     
   52   23   24 1     
   53   23   49 1     
   54   23   50 1     
   55   24   51 1     
   56   25   26 1     
   57   25   52 1     
   58   25   53 1     
   59   26   54 1     
   60   27   55 1     
   61   27   56 1     
   62   28   57 1     
   63   28   58 1     
   64   10   60 1     
   65   12   61 1     
   66   14   62 1     
   67   17   63 1     
   68   24   64 1     
   69   24   65 1     
   70   26   66 1     
   71   26   67 1     
@<TRIPOS>SUBSTRUCTURE
      1 S1             1
@<TRIPOS>SET
LONE_PAIRS      STATIC     ATOMS    <user>   **** ""
8 60 61 62 63 64 65 66 67
DONOR_HYDROGENS      STATIC     ATOMS    <user>   **** ""
3 59 51 54
ATOM$BLUE        STATIC     ATOMS    COLORGROUP SYSTEM
8 60 61 62 63 64 65 66 67
ATOM$RED        STATIC     ATOMS    COLORGROUP SYSTEM
3 59 51 54
