AV-unprocessed.smi:937|AV-procd|sdf|4216|dock10
  -GOLD-   22720 2123D 1   1.00000     0.00000
 Structure written by MMmdl.
 46 47  0  0  0  0  0  0  0  0  2 V2000
  151.5755  143.3019  158.4924 C   0  0  0  0  0  0  0  0  0  0  0  0
  151.2657  142.1854  157.5180 C   0  0  0  0  0  0  0  0  0  0  0  0
  151.8676  140.9120  157.6122 C   0  0  0  0  0  0  0  0  0  0  0  0
  151.5345  139.9211  156.6651 C   0  0  0  0  0  0  0  0  0  0  0  0
  150.6062  140.2226  155.6444 C   0  0  0  0  0  0  0  0  0  0  0  0
  150.2349  139.1851  154.6028 C   0  0  0  0  0  0  0  0  0  0  0  0
  150.9266  137.8399  154.8602 C   0  0  0  0  0  0  0  0  0  0  0  0
  150.1857  136.7520  154.2372 N   0  0  0  0  0  0  0  0  0  0  0  0
  149.8262  135.6198  154.8633 C   0  0  0  0  0  0  0  0  0  0  0  0
  150.0821  135.3901  156.0435 O   0  0  0  0  0  0  0  0  0  0  0  0
  149.1670  134.7340  154.0950 N   0  0  0  0  0  0  0  0  0  0  0  0
  148.6400  133.4158  154.4631 C   0  0  1  0  0  0  0  0  0  0  0  0
  147.7050  133.4924  155.6899 C   0  0  0  0  0  0  0  0  0  0  0  0
  146.3816  134.2030  155.3641 C   0  0  0  0  0  0  0  0  0  0  0  0
  145.6717  133.5408  154.1733 C   0  0  0  0  0  0  0  0  0  0  0  0
  146.5769  133.4929  152.9245 C   0  0  2  0  0  0  0  0  0  0  0  0
  145.8664  132.8415  151.7199 C   0  0  0  0  0  0  0  0  0  0  0  0
  146.5817  132.9968  150.6053 F   0  0  0  0  0  0  0  0  0  0  0  0
  145.6919  131.5386  151.9417 F   0  0  0  0  0  0  0  0  0  0  0  0
  144.6674  133.3969  151.5434 F   0  0  0  0  0  0  0  0  0  0  0  0
  147.9107  132.7852  153.2595 C   0  0  0  0  0  0  0  0  0  0  0  0
  150.0353  141.5125  155.6015 C   0  0  0  0  0  0  0  0  0  0  0  0
  150.3812  142.4343  156.5265 N   0  3  0  0  0  0  0  0  0  0  0  0
  152.2936  142.9784  159.2464 H   0  0  0  0  0  0  0  0  0  0  0  0
  150.6677  143.6247  159.0028 H   0  0  0  0  0  0  0  0  0  0  0  0
  151.9980  144.1581  157.9656 H   0  0  0  0  0  0  0  0  0  0  0  0
  152.5778  140.6951  158.3971 H   0  0  0  0  0  0  0  0  0  0  0  0
  151.9904  138.9432  156.7222 H   0  0  0  0  0  0  0  0  0  0  0  0
  149.1517  139.0551  154.5940 H   0  0  0  0  0  0  0  0  0  0  0  0
  150.5080  139.5639  153.6168 H   0  0  0  0  0  0  0  0  0  0  0  0
  151.9442  137.8682  154.4666 H   0  0  0  0  0  0  0  0  0  0  0  0
  151.0003  137.6500  155.9320 H   0  0  0  0  0  0  0  0  0  0  0  0
  149.9357  136.8592  153.2649 H   0  0  0  0  0  0  0  0  0  0  0  0
  149.0370  134.9971  153.1287 H   0  0  0  0  0  0  0  0  0  0  0  0
  149.4830  132.7667  154.7057 H   0  0  0  0  0  0  0  0  0  0  0  0
  147.4873  132.4800  156.0326 H   0  0  0  0  0  0  0  0  0  0  0  0
  148.1979  133.9902  156.5253 H   0  0  0  0  0  0  0  0  0  0  0  0
  145.7295  134.1873  156.2378 H   0  0  0  0  0  0  0  0  0  0  0  0
  146.5705  135.2541  155.1421 H   0  0  0  0  0  0  0  0  0  0  0  0
  145.3677  132.5302  154.4488 H   0  0  0  0  0  0  0  0  0  0  0  0
  144.7549  134.0876  153.9516 H   0  0  0  0  0  0  0  0  0  0  0  0
  146.8043  134.5224  152.6433 H   0  0  0  0  0  0  0  0  0  0  0  0
  148.5680  132.7899  152.3890 H   0  0  0  0  0  0  0  0  0  0  0  0
  147.7128  131.7352  153.4787 H   0  0  0  0  0  0  0  0  0  0  0  0
  149.3213  141.8349  154.8576 H   0  0  0  0  0  0  0  0  0  0  0  0
  149.9575  143.3608  156.4725 H   0  0  0  0  0  0  0  0  0  0  0  0
  1  2  1  0  0  0  0
  1 24  1  0  0  0  0
  1 25  1  0  0  0  0
  1 26  1  0  0  0  0
  2 23  1  0  0  0  0
  2  3  2  0  0  0  0
  3  4  1  0  0  0  0
  3 27  1  0  0  0  0
  4  5  2  0  0  0  0
  4 28  1  0  0  0  0
  5  6  1  0  0  0  0
  5 22  1  0  0  0  0
  6  7  1  0  0  0  0
  6 29  1  0  0  0  0
  6 30  1  0  0  0  0
  7  8  1  0  0  0  0
  7 31  1  0  0  0  0
  7 32  1  0  0  0  0
  8  9  1  0  0  0  0
  8 33  1  0  0  0  0
  9 10  2  0  0  0  0
  9 11  1  0  0  0  0
 11 12  1  0  0  0  0
 11 34  1  0  0  0  0
 12 21  1  0  0  0  0
 12 13  1  0  0  0  0
 12 35  1  0  0  0  0
 13 14  1  0  0  0  0
 13 36  1  0  0  0  0
 13 37  1  0  0  0  0
 14 15  1  0  0  0  0
 14 38  1  0  0  0  0
 14 39  1  0  0  0  0
 15 16  1  0  0  0  0
 15 40  1  0  0  0  0
 15 41  1  0  0  0  0
 16 17  1  0  0  0  0
 16 21  1  0  0  0  0
 16 42  1  0  0  0  0
 17 18  1  0  0  0  0
 17 19  1  0  0  0  0
 17 20  1  0  0  0  0
 21 43  1  0  0  0  0
 21 44  1  0  0  0  0
 22 23  2  0  0  0  0
 22 45  1  0  0  0  0
 23 46  1  0  0  0  0
M  CHG  1  23   1
M  END
> <s_m_source_file>
AV-unprocessed.smi

> <i_m_source_file_index>
937

> <i_lp_mmshare_version>
43012

> <i_f3d_flags>
0

> <s_epik_input>
W0NIM11jMVtjSF1bY0hdYyhbY0hdbjEpW0NIMl1bQ0gyXVtOSF1DKD1PKVtOSF1bQ0BASF0yW0NIMl1bQ0gyXVtDSDJdW0NAQEhdKEMoRikoRilGKVtDSDJdMg==

> <s_epik_cmdline>
J2VwaWtfcHl0aG9uJywgJy1waCcsICc3LjAnLCAnLXRuJywgJzgnLCAnLW1hJywgJzIwMCcsICctbWV0YWxfYmluZGluZycsICctaW1hZScsICc8aW5maWxlLm1hZT4nLCAnLW9tYWUnLCAnPG91dGZpbGUubWFlPic=

> <r_epik_Ionization_Penalty>
1.4226

> <r_epik_Ionization_Penalty_Charging>
1.42255

> <r_epik_Ionization_Penalty_Neutral>
5.16456e-05

> <r_epik_State_Penalty>
1.50646

> <r_epik_Charging_Adjusted_Penalty>
2.92901

> <i_epik_Tot_Q>
1

> <i_epik_Tot_abs_Q>
1

> <r_epik_Metal_State_Penalty>
1.55846

> <b_epik_Metal_Only>
0

> <s_lp_Force_Field>
OPLS_2005

> <r_lp_Energy>
25.1059

> <b_lp_Chiralities_Consistent>
1

> <s_lp_Variant>
AV-unprocessed.smi:937-8

> <Gold.Version>
5.8.1

> <Gold.Id.Protein>
6NUR|6NUR_protein|mol2

> <Gold.PLP.Fitness>
49.7910

> <Gold.PLP.PLP>
-38.7489

> <Gold.PLP.part.hbond>
-4.0000

> <Gold.PLP.part.metal>
0.0000

> <Gold.PLP.part.buried>
-3.6355

> <Gold.PLP.part.nonpolar>
-32.2572

> <Gold.PLP.part.repulsive>
0.1850

> <Gold.PLP.ligand.clash>
0.0000

> <Gold.PLP.ligand.torsion>
0.2878

> <Gold.PLP.Chemscore.Hbond>
3.8620

> <Gold.PLP.Chemscore.CHOScore>
0.0000

> <Gold.PLP.Chemscore.Metal>
0.0000

> <Gold.Chemscore.Hbonds>
donor molecule, donor type, donor heavy atom, donor atom, acceptor molecule, acceptor atom, score
      L1  H     8    33       P1  7948  0.86
      L1  H    11    34       P1  7948  0.85
      L1  H    23    46       P1  8028  2.00

> <Gold.PLP.Chemscore.Internal.Correction>
0.0318

> <Gold.Rescore>
     Score         DG    S(hbond)    S(metal)    S(lipo)     H(rot)  DE(clash)    DE(int)     intcor
     18.80     -19.12       2.74        0.00      74.69       1.66       0.04       0.28       ----

> <Gold.Chemscore.Fitness>
18.7960

> <Gold.Chemscore.DG>
-19.1212

> <Gold.Chemscore.ZeroCoef>
-5.4800

> <Gold.Chemscore.Hbond>
2.7390

> <Gold.Chemscore.Metal>
0.0000

> <Gold.Chemscore.Lipo>
74.6878

> <Gold.Chemscore.Internal_Hbond>
0.0000

> <Gold.Chemscore.DEClash>
0.0402

> <Gold.Chemscore.DEInternal>
0.2849

> <Gold.Chemscore.Rot>
1.6585

> <Gold.Chemscore.Internal.Correction>
   9.000000E+99

> <Gold.Chemscore.Hbonds>
donor molecule, donor type, donor heavy atom, donor atom, acceptor molecule, acceptor atom, score
      L1  H     8    33       P1  7948  0.16
      L1  H    11    34       P1  7948  0.14
      L1  H    23    46       P1  8028  0.98

> <Gold.Chemscore.Hbond.Weighted>
-9.1484

> <Gold.Chemscore.Metal.Weighted>
-0.0000

> <Gold.Chemscore.Lipo.Weighted>
-8.7385

> <Gold.Chemscore.Internal_Hbond.Weighted>
0.0000

> <Gold.Chemscore.DEClash.Weighted>
0.0402

> <Gold.Chemscore.DEInternal.Weighted>
0.2849

> <Gold.Chemscore.Rot.Weighted>
4.2457

> <Gold.Chemscore.Internal.Correction.Weighted>
   9.000000E+99

> <Gold.Protein.RotatedTorsions>
[ 6907 6896 6895 6894 ] final  135.60 input  -60.11 | X-H torsion
[ 7974 7965 7964 7962 ] final  -68.78 input  175.53 | X-H torsion
[ 8008 7997 7996 7995 ] final    6.98 input   59.86 | X-H torsion
[ 10167 10162 10161 10158 ] final   67.92 input  -65.29 | X-H torsion
[ 10718 10713 10712 10709 ] final  164.94 input   66.30 | X-H torsion
[ 10763 10752 10751 10750 ] final   68.69 input  -60.55 | X-H torsion
[ 11005 11000 10999 10996 ] final -173.06 input  -57.11 | X-H torsion

> <Gold.Protein.ActiveResidues>
 VAL166  LYS551  ARG553  GLY616  TRP617  ASP618  TYR619  PRO620  LYS621  CYS622 
 ASP623  PHE694  ASN695  SER759  ASP760  ASP761  ALA762  ILE779  LEU786  VAL792 
 PHE793  MET794  SER795  GLU796  ALA797  LYS798  CYS799  TRP800  GLU811  SER814 

> <Gold.Protein.RotatedAtoms>
  152.2987  133.5633  159.5603 H   0  0  0  0  0  0  0  0  0  0  0  0  # atno 6907 bound_to 6896
  150.7267  134.0323  159.3746 H   0  0  0  0  0  0  0  0  0  0  0  0  # atno 6908 bound_to 6896
  151.8225  135.0647  160.0477 H   0  0  0  0  0  0  0  0  0  0  0  0  # atno 6909 bound_to 6896
  145.7122  140.9074  143.0675 H   0  0  0  0  0  0  0  0  0  0  0  0  # atno 7974 bound_to 7965
  154.7480  140.2761  155.6317 H   0  0  0  0  0  0  0  0  0  0  0  0  # atno 8008 bound_to 7997
  156.2889  140.2684  156.2152 H   0  0  0  0  0  0  0  0  0  0  0  0  # atno 8009 bound_to 7997
  155.0173  140.0371  157.2413 H   0  0  0  0  0  0  0  0  0  0  0  0  # atno 8010 bound_to 7997
  140.0843  144.5043  150.7141 H   0  0  0  0  0  0  0  0  0  0  0  0  # atno 10167 bound_to 10162
  157.0872  131.0408  151.2552 H   0  0  0  0  0  0  0  0  0  0  0  0  # atno 10718 bound_to 10713
  153.0248  135.5238  154.7173 H   0  0  0  0  0  0  0  0  0  0  0  0  # atno 10763 bound_to 10752
  154.6239  135.2892  155.0297 H   0  0  0  0  0  0  0  0  0  0  0  0  # atno 10764 bound_to 10752
  154.1274  135.6598  153.4967 H   0  0  0  0  0  0  0  0  0  0  0  0  # atno 10765 bound_to 10752
  140.4900  134.5993  157.4951 H   0  0  0  0  0  0  0  0  0  0  0  0  # atno 11005 bound_to 11000
  144.6939  139.9089  143.7462 LP  0  0  0  0  0  0  0  0  0  0  0  0  # atno 17320 bound_to 7965
  146.0702  139.3692  143.0527 LP  0  0  0  0  0  0  0  0  0  0  0  0  # atno 17321 bound_to 7965
  140.7061  143.2469  151.4721 LP  0  0  0  0  0  0  0  0  0  0  0  0  # atno 17342 bound_to 10162
  139.5761  144.1816  152.1905 LP  0  0  0  0  0  0  0  0  0  0  0  0  # atno 17343 bound_to 10162
  157.4751  130.7732  149.7360 LP  0  0  0  0  0  0  0  0  0  0  0  0  # atno 17370 bound_to 10713
  155.9908  130.3942  150.3014 LP  0  0  0  0  0  0  0  0  0  0  0  0  # atno 17371 bound_to 10713
  139.9775  134.7192  155.9922 LP  0  0  0  0  0  0  0  0  0  0  0  0  # atno 17394 bound_to 11000
  141.1489  133.6551  156.3951 LP  0  0  0  0  0  0  0  0  0  0  0  0  # atno 17395 bound_to 11000

$$$$
