AV-unprocessed.smi:213|AV-procd|sdf|1643|dock5
  -GOLD-   2262020 13D 1   1.00000     0.00000
 Structure written by MMmdl.
 58 61  0  0  0  0  0  0  0  0  1 V2000
  144.9072  137.9135  154.8384 C   0  0  0  0  0  0  0  0  0  0  0  0
  146.3072  137.3326  154.5690 C   0  0  2  0  0  0  0  0  0  0  0  0
  146.2692  135.8104  154.3027 C   0  0  0  0  0  0  0  0  0  0  0  0
  146.2152  135.4155  152.8941 N   0  0  0  0  0  0  0  0  0  0  0  0
  145.1629  136.1407  152.1899 C   0  0  0  0  0  0  0  0  0  0  0  0
  145.0871  135.7482  150.7044 C   0  0  0  0  0  0  0  0  0  0  0  0
  144.8872  134.3430  150.5943 O   0  0  0  0  0  0  0  0  0  0  0  0
  145.9165  133.5919  151.2293 C   0  0  0  0  0  0  0  0  0  0  0  0
  146.0019  133.9800  152.7159 C   0  0  0  0  0  0  0  0  0  0  0  0
  147.2267  137.6493  155.6659 N   0  0  0  0  0  0  0  0  0  0  0  0
  147.1164  136.9731  156.9572 C   0  0  0  0  0  0  0  0  0  0  0  0
  148.1833  138.6076  155.5267 C   0  0  0  0  0  0  0  0  0  0  0  0
  148.3452  139.1701  154.2990 N   0  0  0  0  0  0  0  0  0  0  0  0
  149.2632  140.1193  154.0985 C   0  0  0  0  0  0  0  0  0  0  0  0
  150.1203  140.6472  154.9727 N   0  0  0  0  0  0  0  0  0  0  0  0
  149.9776  140.0817  156.2044 C   0  0  0  0  0  0  0  0  0  0  0  0
  149.0458  139.0663  156.5688 C   0  0  0  0  0  0  0  0  0  0  0  0
  149.2223  138.7390  157.9101 N   0  0  0  0  0  0  0  0  0  0  0  0
  150.1853  139.5201  158.3143 C   0  0  0  0  0  0  0  0  0  0  0  0
  150.7017  140.3544  157.3508 N   0  0  0  0  0  0  0  0  0  0  0  0
  151.7820  141.3099  157.5144 C   0  0  0  0  0  0  0  0  0  0  0  0
  151.3107  142.7778  157.4348 C   0  0  1  0  0  0  0  0  0  0  0  0
  149.9094  142.7789  157.6203 O   0  0  0  0  0  0  0  0  0  0  0  0
  151.9594  143.7138  158.4788 C   0  0  2  0  0  0  0  0  0  0  0  0
  151.9021  143.1968  159.9172 C   0  0  0  0  0  0  0  0  0  0  0  0
  152.0588  144.4577  160.7500 C   0  0  0  0  0  0  0  0  0  0  0  0
  151.6612  145.5826  159.7911 C   0  0  0  0  0  0  0  0  0  0  0  0
  151.2368  144.9300  158.6023 O   0  0  0  0  0  0  0  0  0  0  0  0
  144.2512  137.7707  153.9796 H   0  0  0  0  0  0  0  0  0  0  0  0
  144.9560  138.9847  155.0350 H   0  0  0  0  0  0  0  0  0  0  0  0
  144.4309  137.4404  155.6973 H   0  0  0  0  0  0  0  0  0  0  0  0
  146.6964  137.7943  153.6658 H   0  0  0  0  0  0  0  0  0  0  0  0
  147.1371  135.3436  154.7712 H   0  0  0  0  0  0  0  0  0  0  0  0
  145.3994  135.3964  154.8142 H   0  0  0  0  0  0  0  0  0  0  0  0
  144.1989  135.9457  152.6627 H   0  0  0  0  0  0  0  0  0  0  0  0
  145.3366  137.2144  152.2684 H   0  0  0  0  0  0  0  0  0  0  0  0
  144.2610  136.2656  150.2165 H   0  0  0  0  0  0  0  0  0  0  0  0
  146.0005  136.0360  150.1813 H   0  0  0  0  0  0  0  0  0  0  0  0
  145.6973  132.5291  151.1269 H   0  0  0  0  0  0  0  0  0  0  0  0
  146.8691  133.7722  150.7287 H   0  0  0  0  0  0  0  0  0  0  0  0
  146.8133  133.4139  153.1709 H   0  0  0  0  0  0  0  0  0  0  0  0
  145.0844  133.6762  153.2221 H   0  0  0  0  0  0  0  0  0  0  0  0
  147.2104  137.6855  157.7775 H   0  0  0  0  0  0  0  0  0  0  0  0
  147.8994  136.2214  157.0607 H   0  0  0  0  0  0  0  0  0  0  0  0
  146.1548  136.4725  157.0656 H   0  0  0  0  0  0  0  0  0  0  0  0
  149.3195  140.5109  153.0937 H   0  0  0  0  0  0  0  0  0  0  0  0
  150.5558  139.4986  159.3289 H   0  0  0  0  0  0  0  0  0  0  0  0
  152.2593  141.1180  158.4763 H   0  0  0  0  0  0  0  0  0  0  0  0
  152.5338  141.1126  156.7487 H   0  0  0  0  0  0  0  0  0  0  0  0
  151.5064  143.1675  156.4351 H   0  0  0  0  0  0  0  0  0  0  0  0
  149.5088  143.2101  156.8811 H   0  0  0  0  0  0  0  0  0  0  0  0
  152.9926  143.9361  158.2048 H   0  0  0  0  0  0  0  0  0  0  0  0
  150.9280  142.7468  160.1147 H   0  0  0  0  0  0  0  0  0  0  0  0
  152.6678  142.4508  160.1319 H   0  0  0  0  0  0  0  0  0  0  0  0
  151.4270  144.4296  161.6382 H   0  0  0  0  0  0  0  0  0  0  0  0
  153.0920  144.5858  161.0745 H   0  0  0  0  0  0  0  0  0  0  0  0
  150.8637  146.2097  160.1901 H   0  0  0  0  0  0  0  0  0  0  0  0
  152.5175  146.2203  159.5684 H   0  0  0  0  0  0  0  0  0  0  0  0
  1  2  1  0  0  0  0
  1 29  1  0  0  0  0
  1 30  1  0  0  0  0
  1 31  1  0  0  0  0
  2  3  1  0  0  0  0
  2 10  1  0  0  0  0
  2 32  1  0  0  0  0
  3  4  1  0  0  0  0
  3 33  1  0  0  0  0
  3 34  1  0  0  0  0
  4  9  1  0  0  0  0
  4  5  1  0  0  0  0
  5  6  1  0  0  0  0
  5 35  1  0  0  0  0
  5 36  1  0  0  0  0
  6  7  1  0  0  0  0
  6 37  1  0  0  0  0
  6 38  1  0  0  0  0
  7  8  1  0  0  0  0
  8  9  1  0  0  0  0
  8 39  1  0  0  0  0
  8 40  1  0  0  0  0
  9 41  1  0  0  0  0
  9 42  1  0  0  0  0
 10 11  1  0  0  0  0
 10 12  1  0  0  0  0
 11 43  1  0  0  0  0
 11 44  1  0  0  0  0
 11 45  1  0  0  0  0
 12 17  1  0  0  0  0
 12 13  2  0  0  0  0
 13 14  1  0  0  0  0
 14 15  2  0  0  0  0
 14 46  1  0  0  0  0
 15 16  1  0  0  0  0
 16 20  1  0  0  0  0
 16 17  2  0  0  0  0
 17 18  1  0  0  0  0
 18 19  2  0  0  0  0
 19 20  1  0  0  0  0
 19 47  1  0  0  0  0
 20 21  1  0  0  0  0
 21 22  1  0  0  0  0
 21 48  1  0  0  0  0
 21 49  1  0  0  0  0
 22 23  1  0  0  0  0
 22 24  1  0  0  0  0
 22 50  1  0  0  0  0
 23 51  1  0  0  0  0
 24 28  1  0  0  0  0
 24 25  1  0  0  0  0
 24 52  1  0  0  0  0
 25 26  1  0  0  0  0
 25 53  1  0  0  0  0
 25 54  1  0  0  0  0
 26 27  1  0  0  0  0
 26 55  1  0  0  0  0
 26 56  1  0  0  0  0
 27 28  1  0  0  0  0
 27 57  1  0  0  0  0
 27 58  1  0  0  0  0
M  END
> <s_m_source_file>
AV-unprocessed.smi

> <i_m_source_file_index>
213

> <i_lp_mmshare_version>
43012

> <i_f3d_flags>
0

> <s_epik_input>
W0NIMl0xW0NIMl1PW0NIMl1bQ0gyXU4xW0NIMl1bQ0BASF0oW0NIM10pTihbQ0gzXSljKG5bY0hdbjIpYyhjMjMpbltjSF1uM1tDSDJdW0NASF0oW09IXSlbQ0BASF00W0NIMl1bQ0gyXVtDSDJdTzQ=

> <s_epik_cmdline>
J2VwaWtfcHl0aG9uJywgJy1waCcsICc3LjAnLCAnLXRuJywgJzgnLCAnLW1hJywgJzIwMCcsICctbWV0YWxfYmluZGluZycsICctaW1hZScsICc8aW5maWxlLm1hZT4nLCAnLW9tYWUnLCAnPG91dGZpbGUubWFlPic=

> <r_lp_tautomer_probability>
1

> <r_epik_Ionization_Penalty>
0.423322

> <r_epik_Ionization_Penalty_Charging>
0

> <r_epik_Ionization_Penalty_Neutral>
0.423322

> <r_epik_State_Penalty>
0.569486

> <r_epik_Charging_Adjusted_Penalty>
0.569486

> <i_epik_Tot_Q>
0

> <i_epik_Tot_abs_Q>
0

> <r_epik_Metal_State_Penalty>
0.568671

> <b_epik_Metal_Only>
0

> <s_lp_Force_Field>
OPLS_2005

> <r_lp_Energy>
51.7694

> <b_lp_Chiralities_Consistent>
1

> <s_lp_Variant>
AV-unprocessed.smi:213-11

> <Gold.Version>
5.8.1

> <Gold.Id.Protein>
6NUR|6NUR_protein|mol2

> <Gold.PLP.Fitness>
41.8377

> <Gold.PLP.PLP>
-37.3601

> <Gold.PLP.part.hbond>
-2.0000

> <Gold.PLP.part.metal>
0.0000

> <Gold.PLP.part.buried>
-5.8771

> <Gold.PLP.part.nonpolar>
-30.4753

> <Gold.PLP.part.repulsive>
1.3121

> <Gold.PLP.ligand.clash>
0.0000

> <Gold.PLP.ligand.torsion>
1.6596

> <Gold.PLP.Chemscore.Hbond>
1.4857

> <Gold.PLP.Chemscore.CHOScore>
0.9958

> <Gold.PLP.Chemscore.Metal>
0.0000

> <Gold.Chemscore.Hbonds>
donor molecule, donor type, donor heavy atom, donor atom, acceptor molecule, acceptor atom, score
      L1  H    23    51       P1  8028  0.99
      P1  H  7989  7998       L1    15  0.41
      L1  C    14    46       P1  7957  0.95

> <Gold.PLP.Chemscore.Internal.Correction>
0.3520

> <Gold.Rescore>
     Score         DG    S(hbond)    S(metal)    S(lipo)     H(rot)  DE(clash)    DE(int)     intcor
      9.42     -13.88       1.41        0.00      91.42       2.74       1.54       2.91       ----

> <Gold.Chemscore.Fitness>
9.4198

> <Gold.Chemscore.DG>
-13.8764

> <Gold.Chemscore.ZeroCoef>
-5.4800

> <Gold.Chemscore.Hbond>
1.4098

> <Gold.Chemscore.Metal>
0.0000

> <Gold.Chemscore.Lipo>
91.4209

> <Gold.Chemscore.Internal_Hbond>
0.0000

> <Gold.Chemscore.DEClash>
1.5445

> <Gold.Chemscore.DEInternal>
2.9121

> <Gold.Chemscore.Rot>
2.7378

> <Gold.Chemscore.Internal.Correction>
   9.000000E+99

> <Gold.Chemscore.Hbonds>
donor molecule, donor type, donor heavy atom, donor atom, acceptor molecule, acceptor atom, score
      L1  H    23    51       P1  8028  0.91
      P1  H  7989  7998       L1    15  0.03

> <Gold.Chemscore.Hbond.Weighted>
-4.7088

> <Gold.Chemscore.Metal.Weighted>
-0.0000

> <Gold.Chemscore.Lipo.Weighted>
-10.6962

> <Gold.Chemscore.Internal_Hbond.Weighted>
0.0000

> <Gold.Chemscore.DEClash.Weighted>
1.5445

> <Gold.Chemscore.DEInternal.Weighted>
2.9121

> <Gold.Chemscore.Rot.Weighted>
7.0087

> <Gold.Chemscore.Internal.Correction.Weighted>
   9.000000E+99

> <Gold.Protein.RotatedTorsions>
[ 6907 6896 6895 6894 ] final  -57.79 input  -60.11 | X-H torsion
[ 7974 7965 7964 7962 ] final  121.35 input  175.53 | X-H torsion
[ 8008 7997 7996 7995 ] final  169.34 input   59.86 | X-H torsion
[ 10167 10162 10161 10158 ] final  146.87 input  -65.29 | X-H torsion
[ 10718 10713 10712 10709 ] final  144.48 input   66.30 | X-H torsion
[ 10763 10752 10751 10750 ] final  -10.82 input  -60.55 | X-H torsion
[ 11005 11000 10999 10996 ] final  -99.20 input  -57.11 | X-H torsion

> <Gold.Protein.ActiveResidues>
 VAL166  LYS551  ARG553  GLY616  TRP617  ASP618  TYR619  PRO620  LYS621  CYS622 
 ASP623  PHE694  ASN695  SER759  ASP760  ASP761  ALA762  ILE779  LEU786  VAL792 
 PHE793  MET794  SER795  GLU796  ALA797  LYS798  CYS799  TRP800  GLU811  SER814 

> <Gold.Protein.RotatedAtoms>
  150.8058  134.7181  159.6641 H   0  0  0  0  0  0  0  0  0  0  0  0  # atno 6907 bound_to 6896
  152.4177  134.6009  160.0009 H   0  0  0  0  0  0  0  0  0  0  0  0  # atno 6908 bound_to 6896
  151.6233  133.3300  159.3129 H   0  0  0  0  0  0  0  0  0  0  0  0  # atno 6909 bound_to 6896
  145.1204  139.3393  143.4717 H   0  0  0  0  0  0  0  0  0  0  0  0  # atno 7974 bound_to 7965
  156.1466  140.1566  156.8837 H   0  0  0  0  0  0  0  0  0  0  0  0  # atno 8008 bound_to 7997
  154.5033  140.0819  156.7881 H   0  0  0  0  0  0  0  0  0  0  0  0  # atno 8009 bound_to 7997
  155.3977  140.3413  155.4257 H   0  0  0  0  0  0  0  0  0  0  0  0  # atno 8010 bound_to 7997
  139.4899  144.5797  151.6895 H   0  0  0  0  0  0  0  0  0  0  0  0  # atno 10167 bound_to 10162
  157.3567  131.0959  151.0952 H   0  0  0  0  0  0  0  0  0  0  0  0  # atno 10718 bound_to 10713
  153.4748  135.7017  153.5972 H   0  0  0  0  0  0  0  0  0  0  0  0  # atno 10763 bound_to 10752
  153.4211  135.3825  155.2112 H   0  0  0  0  0  0  0  0  0  0  0  0  # atno 10764 bound_to 10752
  154.8724  135.3928  154.4190 H   0  0  0  0  0  0  0  0  0  0  0  0  # atno 10765 bound_to 10752
  141.1317  133.8303  157.0940 H   0  0  0  0  0  0  0  0  0  0  0  0  # atno 11005 bound_to 11000
  146.3521  140.1160  142.8602 LP  0  0  0  0  0  0  0  0  0  0  0  0  # atno 17320 bound_to 7965
  145.0747  140.9180  143.4861 LP  0  0  0  0  0  0  0  0  0  0  0  0  # atno 17321 bound_to 7965
  140.5401  144.0593  150.6085 LP  0  0  0  0  0  0  0  0  0  0  0  0  # atno 17342 bound_to 10162
  140.3612  143.2907  152.0381 LP  0  0  0  0  0  0  0  0  0  0  0  0  # atno 17343 bound_to 10162
  157.2107  130.6436  149.5773 LP  0  0  0  0  0  0  0  0  0  0  0  0  # atno 17370 bound_to 10713
  155.9730  130.4661  150.6277 LP  0  0  0  0  0  0  0  0  0  0  0  0  # atno 17371 bound_to 10713
  140.0375  134.9871  157.0898 LP  0  0  0  0  0  0  0  0  0  0  0  0  # atno 17394 bound_to 11000
  140.4188  134.1903  155.7164 LP  0  0  0  0  0  0  0  0  0  0  0  0  # atno 17395 bound_to 11000

$$$$
