AV-unprocessed.smi:2677|AV-procd|sdf|10365|dock4
  -GOLD-   2272014393D 1   1.00000     0.00000
 Structure written by MMmdl.
 40 41  0  0  0  0  0  0  0  0  1 V2000
  155.2397  140.8225  160.0326 C   0  0  0  0  0  0  0  0  0  0  0  0
  154.0560  140.8833  161.0039 C   0  0  0  0  0  0  0  0  0  0  0  0
  153.1393  142.0343  160.7113 C   0  0  0  0  0  0  0  0  0  0  0  0
  152.5575  142.1384  159.4451 N   0  0  0  0  0  0  0  0  0  0  0  0
  151.7683  143.2082  159.3244 C   0  0  0  0  0  0  0  0  0  0  0  0
  151.0841  143.5907  158.0506 C   0  0  0  0  0  0  0  0  0  0  0  0
  151.3826  142.6326  156.8811 C   0  0  0  0  0  0  0  0  0  0  0  0
  150.1846  142.3186  156.1092 N   0  0  0  0  0  0  0  0  0  0  0  0
  150.0511  141.2819  155.2654 C   0  0  0  0  0  0  0  0  0  0  0  0
  150.9143  140.4098  155.1585 O   0  0  0  0  0  0  0  0  0  0  0  0
  148.8899  141.2718  154.5629 N   0  0  0  0  0  0  0  0  0  0  0  0
  147.9531  142.3985  154.4200 C   0  0  0  0  0  0  0  0  0  0  0  0
  146.7560  142.1787  155.3584 C   0  0  0  0  0  0  0  0  0  0  0  0
  145.8414  140.6735  154.8997 S   0  0  0  0  0  0  0  0  0  0  0  0
  147.2243  139.4933  154.8004 C   0  0  0  0  0  0  0  0  0  0  0  0
  148.3696  140.0501  153.9374 C   0  0  0  0  0  0  0  0  0  0  0  0
  151.6912  144.1760  160.7890 S   0  0  0  0  0  0  0  0  0  0  0  0
  152.7716  143.0472  161.5664 C   0  0  0  0  0  0  0  0  0  0  0  0
  153.1923  143.2470  162.9847 C   0  0  0  0  0  0  0  0  0  0  0  0
  155.8900  139.9788  160.2642 H   0  0  0  0  0  0  0  0  0  0  0  0
  155.8407  141.7307  160.0855 H   0  0  0  0  0  0  0  0  0  0  0  0
  154.8968  140.7066  159.0040 H   0  0  0  0  0  0  0  0  0  0  0  0
  153.5079  139.9417  160.9624 H   0  0  0  0  0  0  0  0  0  0  0  0
  154.4341  140.9601  162.0242 H   0  0  0  0  0  0  0  0  0  0  0  0
  150.0093  143.6261  158.2331 H   0  0  0  0  0  0  0  0  0  0  0  0
  151.3826  144.6047  157.7838 H   0  0  0  0  0  0  0  0  0  0  0  0
  152.1625  143.0429  156.2379 H   0  0  0  0  0  0  0  0  0  0  0  0
  151.7711  141.6928  157.2743 H   0  0  0  0  0  0  0  0  0  0  0  0
  149.4260  142.9826  156.1600 H   0  0  0  0  0  0  0  0  0  0  0  0
  148.4143  143.3666  154.6182 H   0  0  0  0  0  0  0  0  0  0  0  0
  147.6078  142.4638  153.3872 H   0  0  0  0  0  0  0  0  0  0  0  0
  147.0925  142.0919  156.3921 H   0  0  0  0  0  0  0  0  0  0  0  0
  146.0755  143.0289  155.3131 H   0  0  0  0  0  0  0  0  0  0  0  0
  147.5797  139.2765  155.8085 H   0  0  0  0  0  0  0  0  0  0  0  0
  146.8549  138.5563  154.3835 H   0  0  0  0  0  0  0  0  0  0  0  0
  148.0137  140.2651  152.9288 H   0  0  0  0  0  0  0  0  0  0  0  0
  149.1405  139.2880  153.8155 H   0  0  0  0  0  0  0  0  0  0  0  0
  154.2211  143.6036  163.0343 H   0  0  0  0  0  0  0  0  0  0  0  0
  153.1300  142.3134  163.5437 H   0  0  0  0  0  0  0  0  0  0  0  0
  152.5574  143.9783  163.4853 H   0  0  0  0  0  0  0  0  0  0  0  0
  1  2  1  0  0  0  0
  1 20  1  0  0  0  0
  1 21  1  0  0  0  0
  1 22  1  0  0  0  0
  2  3  1  0  0  0  0
  2 23  1  0  0  0  0
  2 24  1  0  0  0  0
  3 18  2  0  0  0  0
  3  4  1  0  0  0  0
  4  5  2  0  0  0  0
  5  6  1  0  0  0  0
  5 17  1  0  0  0  0
  6  7  1  0  0  0  0
  6 25  1  0  0  0  0
  6 26  1  0  0  0  0
  7  8  1  0  0  0  0
  7 27  1  0  0  0  0
  7 28  1  0  0  0  0
  8  9  1  0  0  0  0
  8 29  1  0  0  0  0
  9 10  2  0  0  0  0
  9 11  1  0  0  0  0
 11 16  1  0  0  0  0
 11 12  1  0  0  0  0
 12 13  1  0  0  0  0
 12 30  1  0  0  0  0
 12 31  1  0  0  0  0
 13 14  1  0  0  0  0
 13 32  1  0  0  0  0
 13 33  1  0  0  0  0
 14 15  1  0  0  0  0
 15 16  1  0  0  0  0
 15 34  1  0  0  0  0
 15 35  1  0  0  0  0
 16 36  1  0  0  0  0
 16 37  1  0  0  0  0
 17 18  1  0  0  0  0
 18 19  1  0  0  0  0
 19 38  1  0  0  0  0
 19 39  1  0  0  0  0
 19 40  1  0  0  0  0
M  END
> <s_m_source_file>
AV-unprocessed.smi

> <i_m_source_file_index>
2677

> <i_lp_mmshare_version>
43012

> <i_f3d_flags>
0

> <s_epik_input>
W0NIM11bQ0gyXWMxbmMoc2MxW0NIM10pW0NIMl1bQ0gyXVtOSF1DKD1PKU4yW0NIMl1bQ0gyXVNbQ0gyXVtDSDJdMg==

> <s_epik_cmdline>
J2VwaWtfcHl0aG9uJywgJy1waCcsICc3LjAnLCAnLXRuJywgJzgnLCAnLW1hJywgJzIwMCcsICctbWV0YWxfYmluZGluZycsICctaW1hZScsICc8aW5maWxlLm1hZT4nLCAnLW9tYWUnLCAnPG91dGZpbGUubWFlPic=

> <r_epik_Ionization_Penalty>
0.00440659

> <r_epik_Ionization_Penalty_Charging>
0

> <r_epik_Ionization_Penalty_Neutral>
0.00440659

> <r_epik_State_Penalty>
0.00314229

> <r_epik_Charging_Adjusted_Penalty>
0.00314229

> <i_epik_Tot_Q>
0

> <i_epik_Tot_abs_Q>
0

> <r_epik_Metal_State_Penalty>
-0

> <b_epik_Metal_Only>
0

> <s_lp_Force_Field>
OPLS_2005

> <r_lp_Energy>
14.3594

> <b_lp_Chiralities_Consistent>
1

> <s_lp_Variant>
AV-unprocessed.smi:2677-1

> <Gold.Version>
5.8.1

> <Gold.Id.Protein>
6NUR|6NUR_protein|mol2

> <Gold.PLP.Fitness>
46.2850

> <Gold.PLP.PLP>
-41.9074

> <Gold.PLP.part.hbond>
-2.0000

> <Gold.PLP.part.metal>
0.0000

> <Gold.PLP.part.buried>
-2.2060

> <Gold.PLP.part.nonpolar>
-38.0649

> <Gold.PLP.part.repulsive>
0.1501

> <Gold.PLP.ligand.clash>
0.0000

> <Gold.PLP.ligand.torsion>
0.5691

> <Gold.PLP.Chemscore.Hbond>
1.8320

> <Gold.PLP.Chemscore.CHOScore>
0.0000

> <Gold.PLP.Chemscore.Metal>
0.0000

> <Gold.Chemscore.Hbonds>
donor molecule, donor type, donor heavy atom, donor atom, acceptor molecule, acceptor atom, score
      L1  H     8    29       P1  8028  0.88
      P1  H  7989  7998       L1    10  1.00

> <Gold.PLP.Chemscore.Internal.Correction>
0.0199

> <Gold.Rescore>
     Score         DG    S(hbond)    S(metal)    S(lipo)     H(rot)  DE(clash)    DE(int)     intcor
     18.27     -20.87       1.52        0.00     118.88       1.40       2.06       0.54       ----

> <Gold.Chemscore.Fitness>
18.2681

> <Gold.Chemscore.DG>
-20.8739

> <Gold.Chemscore.ZeroCoef>
-5.4800

> <Gold.Chemscore.Hbond>
1.5176

> <Gold.Chemscore.Metal>
0.0000

> <Gold.Chemscore.Lipo>
118.8796

> <Gold.Chemscore.Internal_Hbond>
0.0000

> <Gold.Chemscore.DEClash>
2.0622

> <Gold.Chemscore.DEInternal>
0.5436

> <Gold.Chemscore.Rot>
1.4000

> <Gold.Chemscore.Internal.Correction>
   9.000000E+99

> <Gold.Chemscore.Hbonds>
donor molecule, donor type, donor heavy atom, donor atom, acceptor molecule, acceptor atom, score
      L1  H     8    29       P1  8028  0.86
      P1  H  7989  7998       L1    10  0.25

> <Gold.Chemscore.Hbond.Weighted>
-5.0689

> <Gold.Chemscore.Metal.Weighted>
-0.0000

> <Gold.Chemscore.Lipo.Weighted>
-13.9089

> <Gold.Chemscore.Internal_Hbond.Weighted>
0.0000

> <Gold.Chemscore.DEClash.Weighted>
2.0622

> <Gold.Chemscore.DEInternal.Weighted>
0.5436

> <Gold.Chemscore.Rot.Weighted>
3.5839

> <Gold.Chemscore.Internal.Correction.Weighted>
   9.000000E+99

> <Gold.Protein.RotatedTorsions>
[ 6907 6896 6895 6894 ] final  -89.43 input  -60.11 | X-H torsion
[ 7974 7965 7964 7962 ] final -160.42 input  175.53 | X-H torsion
[ 8008 7997 7996 7995 ] final   66.68 input   59.86 | X-H torsion
[ 10167 10162 10161 10158 ] final   28.43 input  -65.29 | X-H torsion
[ 10718 10713 10712 10709 ] final   42.84 input   66.30 | X-H torsion
[ 10763 10752 10751 10750 ] final  153.41 input  -60.55 | X-H torsion
[ 11005 11000 10999 10996 ] final    4.19 input  -57.11 | X-H torsion

> <Gold.Protein.ActiveResidues>
 VAL166  LYS551  ARG553  GLY616  TRP617  ASP618  TYR619  PRO620  LYS621  CYS622 
 ASP623  PHE694  ASN695  SER759  ASP760  ASP761  ALA762  ILE779  LEU786  VAL792 
 PHE793  MET794  SER795  GLU796  ALA797  LYS798  CYS799  TRP800  GLU811  SER814 

> <Gold.Protein.RotatedAtoms>
  150.6874  134.2587  159.4540 H   0  0  0  0  0  0  0  0  0  0  0  0  # atno 6907 bound_to 6896
  152.0519  134.9645  160.0584 H   0  0  0  0  0  0  0  0  0  0  0  0  # atno 6908 bound_to 6896
  152.1106  133.4264  159.4666 H   0  0  0  0  0  0  0  0  0  0  0  0  # atno 6909 bound_to 6896
  144.7428  140.3545  143.6109 H   0  0  0  0  0  0  0  0  0  0  0  0  # atno 7974 bound_to 7965
  155.6811  140.3496  155.4855 H   0  0  0  0  0  0  0  0  0  0  0  0  # atno 8008 bound_to 7997
  155.9606  140.1136  157.0921 H   0  0  0  0  0  0  0  0  0  0  0  0  # atno 8009 bound_to 7997
  154.4142  140.1176  156.5160 H   0  0  0  0  0  0  0  0  0  0  0  0  # atno 8010 bound_to 7997
  140.4853  144.0552  150.6278 H   0  0  0  0  0  0  0  0  0  0  0  0  # atno 10167 bound_to 10162
  157.4093  130.7905  149.7416 H   0  0  0  0  0  0  0  0  0  0  0  0  # atno 10718 bound_to 10713
  154.1357  135.2824  155.3174 H   0  0  0  0  0  0  0  0  0  0  0  0  # atno 10763 bound_to 10752
  154.6323  135.5431  153.7698 H   0  0  0  0  0  0  0  0  0  0  0  0  # atno 10764 bound_to 10752
  153.0266  135.6465  154.1506 H   0  0  0  0  0  0  0  0  0  0  0  0  # atno 10765 bound_to 10752
  140.5847  133.9980  155.8062 H   0  0  0  0  0  0  0  0  0  0  0  0  # atno 11005 bound_to 11000
  145.7242  139.1718  143.2467 LP  0  0  0  0  0  0  0  0  0  0  0  0  # atno 17320 bound_to 7965
  146.1254  140.7254  142.9437 LP  0  0  0  0  0  0  0  0  0  0  0  0  # atno 17321 bound_to 7965
  140.3805  143.2805  152.0175 LP  0  0  0  0  0  0  0  0  0  0  0  0  # atno 17342 bound_to 10162
  139.4841  144.6158  151.7349 LP  0  0  0  0  0  0  0  0  0  0  0  0  # atno 17343 bound_to 10162
  155.9846  130.3990  150.3305 LP  0  0  0  0  0  0  0  0  0  0  0  0  # atno 17370 bound_to 10713
  157.1441  131.0304  151.2914 LP  0  0  0  0  0  0  0  0  0  0  0  0  # atno 17371 bound_to 10713
  141.0974  133.9822  157.3137 LP  0  0  0  0  0  0  0  0  0  0  0  0  # atno 17394 bound_to 11000
  139.9301  135.0200  156.8371 LP  0  0  0  0  0  0  0  0  0  0  0  0  # atno 17395 bound_to 11000

$$$$
