AV-unprocessed.smi:435|AV-procd|sdf|2557|dock6
  -GOLD-   2262022523D 1   1.00000     0.00000
 Structure written by MMmdl.
 44 45  0  0  0  0  0  0  0  0  1 V2000
  152.1617  144.0775  161.6429 C   0  0  0  0  0  0  0  0  0  0  0  0
  152.4467  142.9233  160.7201 C   0  0  0  0  0  0  0  0  0  0  0  0
  151.8487  142.9351  159.5742 N   0  0  0  0  0  0  0  0  0  0  0  0
  152.0356  141.9209  158.6548 N   0  0  0  0  0  0  0  0  0  0  0  0
  151.2682  142.0862  157.4117 C   0  0  0  0  0  0  0  0  0  0  0  0
  150.0984  141.0991  157.2919 C   0  0  0  0  0  0  0  0  0  0  0  0
  149.8577  140.2989  158.1970 O   0  0  0  0  0  0  0  0  0  0  0  0
  149.3651  141.1887  156.1720 N   0  0  0  0  0  0  0  0  0  0  0  0
  148.1997  140.3674  155.8494 C   0  0  2  0  0  0  0  0  0  0  0  0
  147.9940  140.3082  154.3235 C   0  0  0  0  0  0  0  0  0  0  0  0
  147.5153  141.6519  153.7450 C   0  0  0  0  0  0  0  0  0  0  0  0
  146.2403  142.1546  154.4488 C   0  0  2  0  0  0  0  0  0  0  0  0
  145.7746  143.4982  153.8703 C   0  0  0  0  0  0  0  0  0  0  0  0
  146.4643  142.2424  155.9708 C   0  0  0  0  0  0  0  0  0  0  0  0
  146.9339  140.8976  156.5539 C   0  0  0  0  0  0  0  0  0  0  0  0
  152.8466  140.8403  158.8446 C   0  0  0  0  0  0  0  0  0  0  0  0
  152.9879  139.9607  157.9935 O   0  0  0  0  0  0  0  0  0  0  0  0
  153.5216  140.8342  160.1442 C   0  0  0  0  0  0  0  0  0  0  0  0
  154.3759  139.7164  160.3857 C   0  0  0  0  0  0  0  0  0  0  0  0
  155.0578  138.8053  160.5980 N   0  0  0  0  0  0  0  0  0  0  0  0
  153.3454  141.8232  161.0557 C   0  0  0  0  0  0  0  0  0  0  0  0
  154.0229  141.8625  162.4187 C   0  0  0  0  0  0  0  0  0  0  0  0
  153.0642  144.6630  161.8193 H   0  0  0  0  0  0  0  0  0  0  0  0
  151.7943  143.7226  162.6060 H   0  0  0  0  0  0  0  0  0  0  0  0
  151.4069  144.7500  161.2319 H   0  0  0  0  0  0  0  0  0  0  0  0
  150.8611  143.0969  157.3487 H   0  0  0  0  0  0  0  0  0  0  0  0
  151.9309  141.9844  156.5500 H   0  0  0  0  0  0  0  0  0  0  0  0
  149.6337  141.8802  155.4869 H   0  0  0  0  0  0  0  0  0  0  0  0
  148.3893  139.3498  156.1960 H   0  0  0  0  0  0  0  0  0  0  0  0
  148.9154  139.9962  153.8300 H   0  0  0  0  0  0  0  0  0  0  0  0
  147.2544  139.5402  154.0939 H   0  0  0  0  0  0  0  0  0  0  0  0
  148.3072  142.3959  153.8406 H   0  0  0  0  0  0  0  0  0  0  0  0
  147.3297  141.5401  152.6762 H   0  0  0  0  0  0  0  0  0  0  0  0
  145.4476  141.4272  154.2677 H   0  0  0  0  0  0  0  0  0  0  0  0
  146.5256  144.2750  154.0176 H   0  0  0  0  0  0  0  0  0  0  0  0
  144.8524  143.8325  154.3459 H   0  0  0  0  0  0  0  0  0  0  0  0
  145.5826  143.4189  152.8000 H   0  0  0  0  0  0  0  0  0  0  0  0
  147.2018  143.0153  156.1922 H   0  0  0  0  0  0  0  0  0  0  0  0
  145.5423  142.5499  156.4656 H   0  0  0  0  0  0  0  0  0  0  0  0
  146.1330  140.1651  156.4451 H   0  0  0  0  0  0  0  0  0  0  0  0
  147.1070  140.9952  157.6262 H   0  0  0  0  0  0  0  0  0  0  0  0
  154.7388  141.0512  162.5470 H   0  0  0  0  0  0  0  0  0  0  0  0
  153.2819  141.7774  163.2143 H   0  0  0  0  0  0  0  0  0  0  0  0
  154.5667  142.7981  162.5528 H   0  0  0  0  0  0  0  0  0  0  0  0
  1  2  1  0  0  0  0
  1 23  1  0  0  0  0
  1 24  1  0  0  0  0
  1 25  1  0  0  0  0
  2 21  1  0  0  0  0
  2  3  2  0  0  0  0
  3  4  1  0  0  0  0
  4  5  1  0  0  0  0
  4 16  1  0  0  0  0
  5  6  1  0  0  0  0
  5 26  1  0  0  0  0
  5 27  1  0  0  0  0
  6  7  2  0  0  0  0
  6  8  1  0  0  0  0
  8  9  1  0  0  0  0
  8 28  1  0  0  0  0
  9 15  1  0  0  0  0
  9 10  1  0  0  0  0
  9 29  1  0  0  0  0
 10 11  1  0  0  0  0
 10 30  1  0  0  0  0
 10 31  1  0  0  0  0
 11 12  1  0  0  0  0
 11 32  1  0  0  0  0
 11 33  1  0  0  0  0
 12 13  1  0  0  0  0
 12 14  1  0  0  0  0
 12 34  1  0  0  0  0
 13 35  1  0  0  0  0
 13 36  1  0  0  0  0
 13 37  1  0  0  0  0
 14 15  1  0  0  0  0
 14 38  1  0  0  0  0
 14 39  1  0  0  0  0
 15 40  1  0  0  0  0
 15 41  1  0  0  0  0
 16 17  2  0  0  0  0
 16 18  1  0  0  0  0
 18 19  1  0  0  0  0
 18 21  2  0  0  0  0
 19 20  3  0  0  0  0
 21 22  1  0  0  0  0
 22 42  1  0  0  0  0
 22 43  1  0  0  0  0
 22 44  1  0  0  0  0
M  END
> <s_m_source_file>
AV-unprocessed.smi

> <i_m_source_file_index>
435

> <i_lp_mmshare_version>
43012

> <i_f3d_flags>
0

> <s_epik_input>
TiNDYyhjMVtDSDNdKWMoPU8pbihuYzFbQ0gzXSlbQ0gyXUMoPU8pW05IXVtDQEBIXTJbQ0gyXVtDSDJdW0NAQEhdKFtDSDNdKVtDSDJdW0NIMl0y

> <s_epik_cmdline>
J2VwaWtfcHl0aG9uJywgJy1waCcsICc3LjAnLCAnLXRuJywgJzgnLCAnLW1hJywgJzIwMCcsICctbWV0YWxfYmluZGluZycsICctaW1hZScsICc8aW5maWxlLm1hZT4nLCAnLW9tYWUnLCAnPG91dGZpbGUubWFlPic=

> <r_lp_tautomer_probability>
1

> <r_epik_Ionization_Penalty>
1.90703e-08

> <r_epik_Ionization_Penalty_Charging>
2.32563e-11

> <r_epik_Ionization_Penalty_Neutral>
1.90471e-08

> <r_epik_State_Penalty>
-0

> <r_epik_Charging_Adjusted_Penalty>
2.32563e-11

> <i_epik_Tot_Q>
0

> <i_epik_Tot_abs_Q>
0

> <r_epik_Metal_State_Penalty>
-0

> <b_epik_Metal_Only>
0

> <s_lp_Force_Field>
OPLS_2005

> <r_lp_Energy>
22.9488

> <b_lp_Chiralities_Consistent>
1

> <s_lp_Variant>
AV-unprocessed.smi:435-2

> <Gold.Version>
5.8.1

> <Gold.Id.Protein>
6NUR|6NUR_protein|mol2

> <Gold.PLP.Fitness>
44.0576

> <Gold.PLP.PLP>
-41.9446

> <Gold.PLP.part.hbond>
-1.0000

> <Gold.PLP.part.metal>
0.0000

> <Gold.PLP.part.buried>
-5.9583

> <Gold.PLP.part.nonpolar>
-34.8268

> <Gold.PLP.part.repulsive>
0.0523

> <Gold.PLP.ligand.clash>
0.0000

> <Gold.PLP.ligand.torsion>
0.4473

> <Gold.PLP.Chemscore.Hbond>
1.0000

> <Gold.PLP.Chemscore.CHOScore>
0.0000

> <Gold.PLP.Chemscore.Metal>
0.0000

> <Gold.Chemscore.Hbonds>
donor molecule, donor type, donor heavy atom, donor atom, acceptor molecule, acceptor atom, score
      P1  H  7997  8009       L1    17  1.00

> <Gold.PLP.Chemscore.Internal.Correction>
0.0078

> <Gold.Rescore>
     Score         DG    S(hbond)    S(metal)    S(lipo)     H(rot)  DE(clash)    DE(int)     intcor
     15.66     -16.20       0.96        0.00      96.02       1.46       0.04       0.49       ----

> <Gold.Chemscore.Fitness>
15.6603

> <Gold.Chemscore.DG>
-16.1953

> <Gold.Chemscore.ZeroCoef>
-5.4800

> <Gold.Chemscore.Hbond>
0.9648

> <Gold.Chemscore.Metal>
0.0000

> <Gold.Chemscore.Lipo>
96.0187

> <Gold.Chemscore.Internal_Hbond>
0.0000

> <Gold.Chemscore.DEClash>
0.0407

> <Gold.Chemscore.DEInternal>
0.4943

> <Gold.Chemscore.Rot>
1.4615

> <Gold.Chemscore.Internal.Correction>
   9.000000E+99

> <Gold.Chemscore.Hbonds>
donor molecule, donor type, donor heavy atom, donor atom, acceptor molecule, acceptor atom, score
      P1  H  7997  8009       L1    17  0.93

> <Gold.Chemscore.Hbond.Weighted>
-3.2225

> <Gold.Chemscore.Metal.Weighted>
-0.0000

> <Gold.Chemscore.Lipo.Weighted>
-11.2342

> <Gold.Chemscore.Internal_Hbond.Weighted>
0.0000

> <Gold.Chemscore.DEClash.Weighted>
0.0407

> <Gold.Chemscore.DEInternal.Weighted>
0.4943

> <Gold.Chemscore.Rot.Weighted>
3.7414

> <Gold.Chemscore.Internal.Correction.Weighted>
   9.000000E+99

> <Gold.Protein.RotatedTorsions>
[ 6907 6896 6895 6894 ] final  -23.54 input  -60.11 | X-H torsion
[ 7974 7965 7964 7962 ] final    1.68 input  175.53 | X-H torsion
[ 8008 7997 7996 7995 ] final  162.03 input   59.86 | X-H torsion
[ 10167 10162 10161 10158 ] final   14.37 input  -65.29 | X-H torsion
[ 10718 10713 10712 10709 ] final -170.83 input   66.30 | X-H torsion
[ 10763 10752 10751 10750 ] final  145.07 input  -60.55 | X-H torsion
[ 11005 11000 10999 10996 ] final -115.89 input  -57.11 | X-H torsion

> <Gold.Protein.ActiveResidues>
 VAL166  LYS551  ARG553  GLY616  TRP617  ASP618  TYR619  PRO620  LYS621  CYS622 
 ASP623  PHE694  ASN695  SER759  ASP760  ASP761  ALA762  ILE779  LEU786  VAL792 
 PHE793  MET794  SER795  GLU796  ALA797  LYS798  CYS799  TRP800  GLU811  SER814 

> <Gold.Protein.RotatedAtoms>
  151.2026  135.0448  159.8877 H   0  0  0  0  0  0  0  0  0  0  0  0  # atno 6907 bound_to 6896
  152.5431  134.0834  159.8255 H   0  0  0  0  0  0  0  0  0  0  0  0  # atno 6908 bound_to 6896
  151.0976  133.5220  159.2643 H   0  0  0  0  0  0  0  0  0  0  0  0  # atno 6909 bound_to 6896
  146.2441  140.0951  142.8350 H   0  0  0  0  0  0  0  0  0  0  0  0  # atno 7974 bound_to 7965
  156.2061  140.1761  156.7797 H   0  0  0  0  0  0  0  0  0  0  0  0  # atno 8008 bound_to 7997
  154.5656  140.0691  156.8917 H   0  0  0  0  0  0  0  0  0  0  0  0  # atno 8009 bound_to 7997
  155.2766  140.3346  155.4263 H   0  0  0  0  0  0  0  0  0  0  0  0  # atno 8010 bound_to 7997
  140.5940  143.8739  150.6900 H   0  0  0  0  0  0  0  0  0  0  0  0  # atno 10167 bound_to 10162
  156.7320  130.9310  151.3105 H   0  0  0  0  0  0  0  0  0  0  0  0  # atno 10718 bound_to 10713
  153.9994  135.2924  155.3404 H   0  0  0  0  0  0  0  0  0  0  0  0  # atno 10763 bound_to 10752
  154.7168  135.5126  153.8753 H   0  0  0  0  0  0  0  0  0  0  0  0  # atno 10764 bound_to 10752
  153.0773  135.6667  154.0237 H   0  0  0  0  0  0  0  0  0  0  0  0  # atno 10765 bound_to 10752
  141.0458  133.9765  157.2920 H   0  0  0  0  0  0  0  0  0  0  0  0  # atno 11005 bound_to 11000
  145.0617  140.9092  143.4935 LP  0  0  0  0  0  0  0  0  0  0  0  0  # atno 17320 bound_to 7965
  145.1068  139.2785  143.5658 LP  0  0  0  0  0  0  0  0  0  0  0  0  # atno 17321 bound_to 7965
  140.2269  143.3766  152.1598 LP  0  0  0  0  0  0  0  0  0  0  0  0  # atno 17342 bound_to 10162
  139.5246  144.7085  151.5279 LP  0  0  0  0  0  0  0  0  0  0  0  0  # atno 17343 bound_to 10162
  157.6855  130.9181  150.0375 LP  0  0  0  0  0  0  0  0  0  0  0  0  # atno 17370 bound_to 10713
  156.1522  130.3642  149.9421 LP  0  0  0  0  0  0  0  0  0  0  0  0  # atno 17371 bound_to 10713
  139.9311  135.0200  156.8402 LP  0  0  0  0  0  0  0  0  0  0  0  0  # atno 17394 bound_to 11000
  140.6149  134.0048  155.7593 LP  0  0  0  0  0  0  0  0  0  0  0  0  # atno 17395 bound_to 11000

$$$$
