AV-unprocessed.smi:2445|AV-procd|sdf|9633|dock6
  -GOLD-   2272013263D 1   1.00000     0.00000
 Structure written by MMmdl.
 40 41  0  0  0  0  0  0  0  0  1 V2000
  144.1057  135.2451  151.6110 C   0  0  0  0  0  0  0  0  0  0  0  0
  145.2915  134.3557  151.7714 C   0  0  0  0  0  0  0  0  0  0  0  0
  145.6965  133.3378  150.9440 C   0  0  0  0  0  0  0  0  0  0  0  0
  146.8561  132.6885  151.3732 N   0  0  0  0  0  0  0  0  0  0  0  0
  147.3370  133.1975  152.5105 C   0  0  0  0  0  0  0  0  0  0  0  0
  148.5708  132.6820  153.1894 C   0  0  2  0  0  0  0  0  0  0  0  0
  148.4818  131.1723  153.4530 C   0  0  0  0  0  0  0  0  0  0  0  0
  148.9283  133.4757  154.4614 C   0  0  0  0  0  0  0  0  0  0  0  0
  149.2183  134.8733  154.1603 N   0  0  0  0  0  0  0  0  0  0  0  0
  149.6191  135.7776  155.0623 C   0  0  0  0  0  0  0  0  0  0  0  0
  149.8143  135.5258  156.2514 O   0  0  0  0  0  0  0  0  0  0  0  0
  149.7766  136.9892  154.5134 N   0  0  0  0  0  0  0  0  0  0  0  0
  150.1929  138.1878  155.2349 C   0  0  2  0  0  0  0  0  0  0  0  0
  149.2437  139.3427  154.9916 C   0  0  0  0  0  0  0  0  0  0  0  0
  150.1304  140.5442  155.2947 C   0  0  0  0  0  0  0  0  0  0  0  0
  151.4394  140.1679  154.8831 O   0  0  0  0  0  0  0  0  0  0  0  0
  151.5192  138.7553  154.7080 C   0  0  1  0  0  0  0  0  0  0  0  0
  152.7649  138.2084  155.4159 C   0  0  0  0  0  0  0  0  0  0  0  0
  146.3658  134.5290  153.1341 S   0  0  0  0  0  0  0  0  0  0  0  0
  143.5764  135.0310  150.6823 H   0  0  0  0  0  0  0  0  0  0  0  0
  144.4072  136.2926  151.5924 H   0  0  0  0  0  0  0  0  0  0  0  0
  143.4063  135.1091  152.4359 H   0  0  0  0  0  0  0  0  0  0  0  0
  145.2204  133.0081  150.0323 H   0  0  0  0  0  0  0  0  0  0  0  0
  149.3962  132.8259  152.4899 H   0  0  0  0  0  0  0  0  0  0  0  0
  148.3082  130.6222  152.5276 H   0  0  0  0  0  0  0  0  0  0  0  0
  147.6672  130.9362  154.1385 H   0  0  0  0  0  0  0  0  0  0  0  0
  149.4055  130.7954  153.8927 H   0  0  0  0  0  0  0  0  0  0  0  0
  148.0981  133.4210  155.1681 H   0  0  0  0  0  0  0  0  0  0  0  0
  149.7932  133.0310  154.9555 H   0  0  0  0  0  0  0  0  0  0  0  0
  149.0852  135.1735  153.2054 H   0  0  0  0  0  0  0  0  0  0  0  0
  149.5925  137.0931  153.5261 H   0  0  0  0  0  0  0  0  0  0  0  0
  150.2544  138.0054  156.3099 H   0  0  0  0  0  0  0  0  0  0  0  0
  148.9298  139.3713  153.9468 H   0  0  0  0  0  0  0  0  0  0  0  0
  148.3509  139.3042  155.6167 H   0  0  0  0  0  0  0  0  0  0  0  0
  149.7963  141.4506  154.7895 H   0  0  0  0  0  0  0  0  0  0  0  0
  150.1478  140.7407  156.3675 H   0  0  0  0  0  0  0  0  0  0  0  0
  151.5998  138.5752  153.6348 H   0  0  0  0  0  0  0  0  0  0  0  0
  152.8643  137.1339  155.2627 H   0  0  0  0  0  0  0  0  0  0  0  0
  152.7218  138.3919  156.4896 H   0  0  0  0  0  0  0  0  0  0  0  0
  153.6687  138.6823  155.0327 H   0  0  0  0  0  0  0  0  0  0  0  0
  1  2  1  0  0  0  0
  1 20  1  0  0  0  0
  1 21  1  0  0  0  0
  1 22  1  0  0  0  0
  2 19  1  0  0  0  0
  2  3  2  0  0  0  0
  3  4  1  0  0  0  0
  3 23  1  0  0  0  0
  4  5  2  0  0  0  0
  5  6  1  0  0  0  0
  5 19  1  0  0  0  0
  6  7  1  0  0  0  0
  6  8  1  0  0  0  0
  6 24  1  0  0  0  0
  7 25  1  0  0  0  0
  7 26  1  0  0  0  0
  7 27  1  0  0  0  0
  8  9  1  0  0  0  0
  8 28  1  0  0  0  0
  8 29  1  0  0  0  0
  9 10  1  0  0  0  0
  9 30  1  0  0  0  0
 10 11  2  0  0  0  0
 10 12  1  0  0  0  0
 12 13  1  0  0  0  0
 12 31  1  0  0  0  0
 13 17  1  0  0  0  0
 13 14  1  0  0  0  0
 13 32  1  0  0  0  0
 14 15  1  0  0  0  0
 14 33  1  0  0  0  0
 14 34  1  0  0  0  0
 15 16  1  0  0  0  0
 15 35  1  0  0  0  0
 15 36  1  0  0  0  0
 16 17  1  0  0  0  0
 17 18  1  0  0  0  0
 17 37  1  0  0  0  0
 18 38  1  0  0  0  0
 18 39  1  0  0  0  0
 18 40  1  0  0  0  0
M  END
> <s_m_source_file>
AV-unprocessed.smi

> <i_m_source_file_index>
2445

> <i_lp_mmshare_version>
43012

> <i_f3d_flags>
0

> <s_epik_input>
W0NIM11jMVtjSF1uYyhzMSlbQ0BIXShbQ0gzXSlbQ0gyXVtOSF1DKD1PKVtOSF1bQ0BASF0yW0NIMl1bQ0gyXU9bQ0BIXTJbQ0gzXQ==

> <s_epik_cmdline>
J2VwaWtfcHl0aG9uJywgJy1waCcsICc3LjAnLCAnLXRuJywgJzgnLCAnLW1hJywgJzIwMCcsICctbWV0YWxfYmluZGluZycsICctaW1hZScsICc8aW5maWxlLm1hZT4nLCAnLW9tYWUnLCAnPG91dGZpbGUubWFlPic=

> <r_epik_Ionization_Penalty>
0.000649483

> <r_epik_Ionization_Penalty_Charging>
0

> <r_epik_Ionization_Penalty_Neutral>
0.000649483

> <r_epik_State_Penalty>
0.000379895

> <r_epik_Charging_Adjusted_Penalty>
0.000379895

> <i_epik_Tot_Q>
0

> <i_epik_Tot_abs_Q>
0

> <r_epik_Metal_State_Penalty>
-0

> <b_epik_Metal_Only>
0

> <s_lp_Force_Field>
OPLS_2005

> <r_lp_Energy>
5.96994

> <b_lp_Chiralities_Consistent>
1

> <s_lp_Variant>
AV-unprocessed.smi:2445-1

> <Gold.Version>
5.8.1

> <Gold.Id.Protein>
6NUR|6NUR_protein|mol2

> <Gold.PLP.Fitness>
40.8318

> <Gold.PLP.PLP>
-32.0759

> <Gold.PLP.part.hbond>
-2.8684

> <Gold.PLP.part.metal>
0.0000

> <Gold.PLP.part.buried>
-4.0316

> <Gold.PLP.part.nonpolar>
-26.2950

> <Gold.PLP.part.repulsive>
0.8727

> <Gold.PLP.ligand.clash>
0.0000

> <Gold.PLP.ligand.torsion>
0.0960

> <Gold.PLP.Chemscore.Hbond>
2.9440

> <Gold.PLP.Chemscore.CHOScore>
0.0000

> <Gold.PLP.Chemscore.Metal>
0.0000

> <Gold.Chemscore.Hbonds>
donor molecule, donor type, donor heavy atom, donor atom, acceptor molecule, acceptor atom, score
      L1  H     9    30       P1  7948  0.95
      L1  H    12    31       P1  7948  0.94
      P1  H  7989  7998       L1    16  1.00

> <Gold.PLP.Chemscore.Internal.Correction>
0.1160

> <Gold.Rescore>
     Score         DG    S(hbond)    S(metal)    S(lipo)     H(rot)  DE(clash)    DE(int)     intcor
     16.32     -16.48       2.02        0.00      69.85       1.53       0.00       0.16       ----

> <Gold.Chemscore.Fitness>
16.3190

> <Gold.Chemscore.DG>
-16.4834

> <Gold.Chemscore.ZeroCoef>
-5.4800

> <Gold.Chemscore.Hbond>
2.0222

> <Gold.Chemscore.Metal>
0.0000

> <Gold.Chemscore.Lipo>
69.8503

> <Gold.Chemscore.Internal_Hbond>
0.0000

> <Gold.Chemscore.DEClash>
0.0015

> <Gold.Chemscore.DEInternal>
0.1630

> <Gold.Chemscore.Rot>
1.5325

> <Gold.Chemscore.Internal.Correction>
   9.000000E+99

> <Gold.Chemscore.Hbonds>
donor molecule, donor type, donor heavy atom, donor atom, acceptor molecule, acceptor atom, score
      L1  H     9    30       P1  7948  0.21
      L1  H    12    31       P1  7948  0.74
      P1  H  7989  7998       L1    16  0.33

> <Gold.Chemscore.Hbond.Weighted>
-6.7543

> <Gold.Chemscore.Metal.Weighted>
-0.0000

> <Gold.Chemscore.Lipo.Weighted>
-8.1725

> <Gold.Chemscore.Internal_Hbond.Weighted>
0.0000

> <Gold.Chemscore.DEClash.Weighted>
0.0015

> <Gold.Chemscore.DEInternal.Weighted>
0.1630

> <Gold.Chemscore.Rot.Weighted>
3.9233

> <Gold.Chemscore.Internal.Correction.Weighted>
   9.000000E+99

> <Gold.Protein.RotatedTorsions>
[ 6907 6896 6895 6894 ] final  -94.43 input  -60.11 | X-H torsion
[ 7974 7965 7964 7962 ] final   25.40 input  175.53 | X-H torsion
[ 8008 7997 7996 7995 ] final -122.45 input   59.86 | X-H torsion
[ 10167 10162 10161 10158 ] final -178.15 input  -65.29 | X-H torsion
[ 10718 10713 10712 10709 ] final  -56.14 input   66.30 | X-H torsion
[ 10763 10752 10751 10750 ] final  176.91 input  -60.55 | X-H torsion
[ 11005 11000 10999 10996 ] final   -7.94 input  -57.11 | X-H torsion

> <Gold.Protein.ActiveResidues>
 VAL166  LYS551  ARG553  GLY616  TRP617  ASP618  TYR619  PRO620  LYS621  CYS622 
 ASP623  PHE694  ASN695  SER759  ASP760  ASP761  ALA762  ILE779  LEU786  VAL792 
 PHE793  MET794  SER795  GLU796  ALA797  LYS798  CYS799  TRP800  GLU811  SER814 

> <Gold.Protein.RotatedAtoms>
  150.6942  134.1813  159.4249 H   0  0  0  0  0  0  0  0  0  0  0  0  # atno 6907 bound_to 6896
  151.9788  135.0037  160.0565 H   0  0  0  0  0  0  0  0  0  0  0  0  # atno 6908 bound_to 6896
  152.1774  133.4649  159.4977 H   0  0  0  0  0  0  0  0  0  0  0  0  # atno 6909 bound_to 6896
  146.1890  139.7471  142.8845 H   0  0  0  0  0  0  0  0  0  0  0  0  # atno 7974 bound_to 7965
  155.1644  140.0406  157.2849 H   0  0  0  0  0  0  0  0  0  0  0  0  # atno 8008 bound_to 7997
  154.6313  140.2525  155.7403 H   0  0  0  0  0  0  0  0  0  0  0  0  # atno 8009 bound_to 7997
  156.2486  140.2874  156.0666 H   0  0  0  0  0  0  0  0  0  0  0  0  # atno 8010 bound_to 7997
  139.5446  144.2271  152.0962 H   0  0  0  0  0  0  0  0  0  0  0  0  # atno 10167 bound_to 10162
  156.1312  130.4159  150.0265 H   0  0  0  0  0  0  0  0  0  0  0  0  # atno 10718 bound_to 10713
  154.4875  135.2777  155.1523 H   0  0  0  0  0  0  0  0  0  0  0  0  # atno 10763 bound_to 10752
  154.3208  135.6210  153.5511 H   0  0  0  0  0  0  0  0  0  0  0  0  # atno 10764 bound_to 10752
  152.9883  135.5742  154.5288 H   0  0  0  0  0  0  0  0  0  0  0  0  # atno 10765 bound_to 10752
  140.7181  133.8852  155.8800 H   0  0  0  0  0  0  0  0  0  0  0  0  # atno 11005 bound_to 11000
  145.3850  141.0364  143.3156 LP  0  0  0  0  0  0  0  0  0  0  0  0  # atno 17320 bound_to 7965
  144.8451  139.5410  143.6882 LP  0  0  0  0  0  0  0  0  0  0  0  0  # atno 17321 bound_to 7965
  140.1755  144.4894  150.6556 LP  0  0  0  0  0  0  0  0  0  0  0  0  # atno 17342 bound_to 10162
  140.6689  143.2278  151.5675 LP  0  0  0  0  0  0  0  0  0  0  0  0  # atno 17343 bound_to 10162
  156.8177  130.9347  151.3642 LP  0  0  0  0  0  0  0  0  0  0  0  0  # atno 17370 bound_to 10713
  157.6490  130.8868  149.9595 LP  0  0  0  0  0  0  0  0  0  0  0  0  # atno 17371 bound_to 10713
  141.0027  134.1128  157.4301 LP  0  0  0  0  0  0  0  0  0  0  0  0  # atno 17394 bound_to 11000
  139.8855  135.0073  156.6437 LP  0  0  0  0  0  0  0  0  0  0  0  0  # atno 17395 bound_to 11000

$$$$
