AV-unprocessed.smi:908|AV-procd|sdf|4114|dock2
  -GOLD-   22720 2 13D 1   1.00000     0.00000
 Structure written by MMmdl.
 38 38  0  0  0  0  0  0  0  0  1 V2000
  145.2230  149.7318  157.6677 C   0  0  0  0  0  0  0  0  0  0  0  0
  145.2522  148.2090  157.5001 C   0  0  0  0  0  0  0  0  0  0  0  0
  144.6241  147.4742  158.6954 C   0  0  0  0  0  0  0  0  0  0  0  0
  145.4619  146.3676  159.1426 N   0  0  0  0  0  0  0  0  0  0  0  0
  145.1052  145.4489  160.0528 C   0  0  0  0  0  0  0  0  0  0  0  0
  144.0186  145.4597  160.6335 O   0  0  0  0  0  0  0  0  0  0  0  0
  146.1478  144.3685  160.3640 C   0  0  0  0  0  0  0  0  0  0  0  0
  147.4665  144.6883  159.8249 N   0  0  0  0  0  0  0  0  0  0  0  0
  148.6017  144.7526  160.5406 C   0  0  0  0  0  0  0  0  0  0  0  0
  148.6489  144.5321  161.7505 O   0  0  0  0  0  0  0  0  0  0  0  0
  149.8765  145.1446  159.7868 C   0  0  0  0  0  0  0  0  0  0  0  0
  150.7637  144.0083  159.5806 N   0  0  0  0  0  0  0  0  0  0  0  0
  150.4771  143.1244  158.5904 N   0  0  0  0  0  0  0  0  0  0  0  0
  151.4424  142.2189  158.6347 C   0  0  0  0  0  0  0  0  0  0  0  0
  151.4458  141.0763  157.6613 C   0  0  0  0  0  0  0  0  0  0  0  0
  152.3639  142.5249  159.6696 C   0  0  0  0  0  0  0  0  0  0  0  0
  153.7770  141.6256  160.0878 Cl  0  0  0  0  0  0  0  0  0  0  0  0
  151.9190  143.6667  160.2676 C   0  0  0  0  0  0  0  0  0  0  0  0
  152.4669  144.4631  161.4077 C   0  0  0  0  0  0  0  0  0  0  0  0
  145.6773  150.2257  156.8086 H   0  0  0  0  0  0  0  0  0  0  0  0
  145.7714  150.0407  158.5580 H   0  0  0  0  0  0  0  0  0  0  0  0
  144.1999  150.0977  157.7593 H   0  0  0  0  0  0  0  0  0  0  0  0
  144.7262  147.9422  156.5824 H   0  0  0  0  0  0  0  0  0  0  0  0
  146.2846  147.8817  157.3699 H   0  0  0  0  0  0  0  0  0  0  0  0
  144.5015  148.1633  159.5314 H   0  0  0  0  0  0  0  0  0  0  0  0
  143.6259  147.1126  158.4421 H   0  0  0  0  0  0  0  0  0  0  0  0
  146.3752  146.2871  158.7194 H   0  0  0  0  0  0  0  0  0  0  0  0
  146.2118  144.2030  161.4411 H   0  0  0  0  0  0  0  0  0  0  0  0
  145.8158  143.4289  159.9220 H   0  0  0  0  0  0  0  0  0  0  0  0
  147.5165  144.8925  158.8376 H   0  0  0  0  0  0  0  0  0  0  0  0
  149.6099  145.5791  158.8232 H   0  0  0  0  0  0  0  0  0  0  0  0
  150.4137  145.9156  160.3415 H   0  0  0  0  0  0  0  0  0  0  0  0
  152.0653  140.2541  158.0190 H   0  0  0  0  0  0  0  0  0  0  0  0
  151.8370  141.3901  156.6935 H   0  0  0  0  0  0  0  0  0  0  0  0
  150.4397  140.6862  157.5046 H   0  0  0  0  0  0  0  0  0  0  0  0
  153.3832  144.0173  161.7944 H   0  0  0  0  0  0  0  0  0  0  0  0
  151.7495  144.5122  162.2270 H   0  0  0  0  0  0  0  0  0  0  0  0
  152.6980  145.4817  161.0965 H   0  0  0  0  0  0  0  0  0  0  0  0
  1  2  1  0  0  0  0
  1 20  1  0  0  0  0
  1 21  1  0  0  0  0
  1 22  1  0  0  0  0
  2  3  1  0  0  0  0
  2 23  1  0  0  0  0
  2 24  1  0  0  0  0
  3  4  1  0  0  0  0
  3 25  1  0  0  0  0
  3 26  1  0  0  0  0
  4  5  1  0  0  0  0
  4 27  1  0  0  0  0
  5  6  2  0  0  0  0
  5  7  1  0  0  0  0
  7  8  1  0  0  0  0
  7 28  1  0  0  0  0
  7 29  1  0  0  0  0
  8  9  1  0  0  0  0
  8 30  1  0  0  0  0
  9 10  2  0  0  0  0
  9 11  1  0  0  0  0
 11 12  1  0  0  0  0
 11 31  1  0  0  0  0
 11 32  1  0  0  0  0
 12 18  1  0  0  0  0
 12 13  1  0  0  0  0
 13 14  2  0  0  0  0
 14 15  1  0  0  0  0
 14 16  1  0  0  0  0
 15 33  1  0  0  0  0
 15 34  1  0  0  0  0
 15 35  1  0  0  0  0
 16 17  1  0  0  0  0
 16 18  2  0  0  0  0
 18 19  1  0  0  0  0
 19 36  1  0  0  0  0
 19 37  1  0  0  0  0
 19 38  1  0  0  0  0
M  END
> <s_m_source_file>
AV-unprocessed.smi

> <i_m_source_file_index>
908

> <i_lp_mmshare_version>
43012

> <i_f3d_flags>
0

> <s_epik_input>
W0NIM11bQ0gyXVtDSDJdW05IXUMoPU8pW0NIMl1bTkhdQyg9TylbQ0gyXW4xbmMoW0NIM10pYyhDbCljMVtDSDNd

> <s_epik_cmdline>
J2VwaWtfcHl0aG9uJywgJy1waCcsICc3LjAnLCAnLXRuJywgJzgnLCAnLW1hJywgJzIwMCcsICctbWV0YWxfYmluZGluZycsICctaW1hZScsICc8aW5maWxlLm1hZT4nLCAnLW9tYWUnLCAnPG91dGZpbGUubWFlPic=

> <r_lp_tautomer_probability>
1

> <r_epik_Ionization_Penalty>
3.40177e-06

> <r_epik_Ionization_Penalty_Charging>
0

> <r_epik_Ionization_Penalty_Neutral>
3.40177e-06

> <r_epik_State_Penalty>
-0

> <r_epik_Charging_Adjusted_Penalty>
0

> <i_epik_Tot_Q>
0

> <i_epik_Tot_abs_Q>
0

> <r_epik_Metal_State_Penalty>
-0

> <b_epik_Metal_Only>
0

> <s_lp_Force_Field>
OPLS_2005

> <r_lp_Energy>
0.427377

> <b_lp_Chiralities_Consistent>
1

> <s_lp_Variant>
AV-unprocessed.smi:908-1

> <Gold.Version>
5.8.1

> <Gold.Id.Protein>
6NUR|6NUR_protein|mol2

> <Gold.PLP.Fitness>
46.6366

> <Gold.PLP.PLP>
-39.8763

> <Gold.PLP.part.hbond>
-3.0000

> <Gold.PLP.part.metal>
0.0000

> <Gold.PLP.part.buried>
-7.9561

> <Gold.PLP.part.nonpolar>
-31.0440

> <Gold.PLP.part.repulsive>
0.6103

> <Gold.PLP.ligand.clash>
0.0000

> <Gold.PLP.ligand.torsion>
0.9433

> <Gold.PLP.Chemscore.Hbond>
2.8480

> <Gold.PLP.Chemscore.CHOScore>
0.0000

> <Gold.PLP.Chemscore.Metal>
0.0000

> <Gold.Chemscore.Hbonds>
donor molecule, donor type, donor heavy atom, donor atom, acceptor molecule, acceptor atom, score
      L1  H     4    27       P1  8029  0.91
      L1  H     8    30       P1  8029  1.00
      P1  H  6933  6944       L1    10  0.28

> <Gold.PLP.Chemscore.Internal.Correction>
0.1029

> <Gold.Rescore>
     Score         DG    S(hbond)    S(metal)    S(lipo)     H(rot)  DE(clash)    DE(int)     intcor
     19.14     -19.81       2.70        0.00      92.00       2.13       0.07       0.60       ----

> <Gold.Chemscore.Fitness>
19.1413

> <Gold.Chemscore.DG>
-19.8119

> <Gold.Chemscore.ZeroCoef>
-5.4800

> <Gold.Chemscore.Hbond>
2.7006

> <Gold.Chemscore.Metal>
0.0000

> <Gold.Chemscore.Lipo>
91.9998

> <Gold.Chemscore.Internal_Hbond>
0.0000

> <Gold.Chemscore.DEClash>
0.0747

> <Gold.Chemscore.DEInternal>
0.5959

> <Gold.Chemscore.Rot>
2.1297

> <Gold.Chemscore.Internal.Correction>
   9.000000E+99

> <Gold.Chemscore.Hbonds>
donor molecule, donor type, donor heavy atom, donor atom, acceptor molecule, acceptor atom, score
      L1  H     4    27       P1  8029  0.87
      L1  H     8    30       P1  8029  0.98
      P1  H  6933  6944       L1    10  0.02

> <Gold.Chemscore.Hbond.Weighted>
-9.0199

> <Gold.Chemscore.Metal.Weighted>
-0.0000

> <Gold.Chemscore.Lipo.Weighted>
-10.7640

> <Gold.Chemscore.Internal_Hbond.Weighted>
0.0000

> <Gold.Chemscore.DEClash.Weighted>
0.0747

> <Gold.Chemscore.DEInternal.Weighted>
0.5959

> <Gold.Chemscore.Rot.Weighted>
5.4520

> <Gold.Chemscore.Internal.Correction.Weighted>
   9.000000E+99

> <Gold.Protein.RotatedTorsions>
[ 6907 6896 6895 6894 ] final  130.26 input  -60.11 | X-H torsion
[ 7974 7965 7964 7962 ] final  -58.92 input  175.53 | X-H torsion
[ 8008 7997 7996 7995 ] final  -19.26 input   59.86 | X-H torsion
[ 10167 10162 10161 10158 ] final  -39.91 input  -65.29 | X-H torsion
[ 10718 10713 10712 10709 ] final   72.89 input   66.30 | X-H torsion
[ 10763 10752 10751 10750 ] final  108.38 input  -60.55 | X-H torsion
[ 11005 11000 10999 10996 ] final -139.28 input  -57.11 | X-H torsion

> <Gold.Protein.ActiveResidues>
 VAL166  LYS551  ARG553  GLY616  TRP617  ASP618  TYR619  PRO620  LYS621  CYS622 
 ASP623  PHE694  ASN695  SER759  ASP760  ASP761  ALA762  ILE779  LEU786  VAL792 
 PHE793  MET794  SER795  GLU796  ALA797  LYS798  CYS799  TRP800  GLU811  SER814 

> <Gold.Protein.RotatedAtoms>
  152.3544  133.6219  159.5968 H   0  0  0  0  0  0  0  0  0  0  0  0  # atno 6907 bound_to 6896
  150.7559  133.9523  159.3498 H   0  0  0  0  0  0  0  0  0  0  0  0  # atno 6908 bound_to 6896
  151.7371  135.0863  160.0360 H   0  0  0  0  0  0  0  0  0  0  0  0  # atno 6909 bound_to 6896
  145.8336  140.8464  143.0071 H   0  0  0  0  0  0  0  0  0  0  0  0  # atno 7974 bound_to 7965
  154.4849  140.2094  155.9678 H   0  0  0  0  0  0  0  0  0  0  0  0  # atno 8008 bound_to 7997
  156.1221  140.3211  155.8192 H   0  0  0  0  0  0  0  0  0  0  0  0  # atno 8009 bound_to 7997
  155.4449  140.0513  157.2997 H   0  0  0  0  0  0  0  0  0  0  0  0  # atno 8010 bound_to 7997
  140.7050  143.3185  151.2850 H   0  0  0  0  0  0  0  0  0  0  0  0  # atno 10167 bound_to 10162
  157.6522  130.9601  150.0993 H   0  0  0  0  0  0  0  0  0  0  0  0  # atno 10718 bound_to 10713
  153.4199  135.3814  155.2104 H   0  0  0  0  0  0  0  0  0  0  0  0  # atno 10763 bound_to 10752
  154.8744  135.3814  154.4397 H   0  0  0  0  0  0  0  0  0  0  0  0  # atno 10764 bound_to 10752
  153.4916  135.7088  153.5944 H   0  0  0  0  0  0  0  0  0  0  0  0  # atno 10765 bound_to 10752
  140.8535  134.2256  157.4747 H   0  0  0  0  0  0  0  0  0  0  0  0  # atno 11005 bound_to 11000
  144.6738  140.0708  143.7473 LP  0  0  0  0  0  0  0  0  0  0  0  0  # atno 17320 bound_to 7965
  145.9544  139.2756  143.1193 LP  0  0  0  0  0  0  0  0  0  0  0  0  # atno 17321 bound_to 7965
  139.6631  144.0153  152.2706 LP  0  0  0  0  0  0  0  0  0  0  0  0  # atno 17342 bound_to 10162
  139.9727  144.6483  150.7974 LP  0  0  0  0  0  0  0  0  0  0  0  0  # atno 17343 bound_to 10162
  156.1920  130.3655  149.8898 LP  0  0  0  0  0  0  0  0  0  0  0  0  # atno 17370 bound_to 10713
  156.6824  130.8863  151.3577 LP  0  0  0  0  0  0  0  0  0  0  0  0  # atno 17371 bound_to 10713
  139.8704  134.9695  156.4668 LP  0  0  0  0  0  0  0  0  0  0  0  0  # atno 17394 bound_to 11000
  140.8763  133.7951  155.9418 LP  0  0  0  0  0  0  0  0  0  0  0  0  # atno 17395 bound_to 11000

$$$$
