AV-unprocessed.smi:3303|AV-procd|sdf|12677|dock1
  -GOLD-   2272019 13D 1   1.00000     0.00000
 Structure written by MMmdl.
 44 45  0  0  0  0  0  0  0  0  2 V2000
  146.8153  142.6399  154.2085 C   0  0  0  0  0  0  0  0  0  0  0  0
  147.5551  141.2923  154.2263 C   0  0  2  0  0  0  0  0  0  0  0  0
  146.9639  140.3179  155.2629 C   0  0  0  0  0  0  0  0  0  0  0  0
  147.5976  138.9993  155.1705 N   0  0  0  0  0  0  0  0  0  0  0  0
  146.9135  138.1242  156.1192 C   0  0  0  0  0  0  0  0  0  0  0  0
  149.0429  139.0874  155.4453 C   0  0  1  0  0  0  0  0  0  0  0  0
  149.7288  137.7081  155.3715 C   0  0  0  0  0  0  0  0  0  0  0  0
  149.7108  140.0448  154.4304 C   0  0  0  0  0  0  0  0  0  0  0  0
  149.0751  141.4424  154.4263 C   0  0  2  0  0  0  0  0  0  0  0  0
  149.3999  142.1609  155.6812 N   0  3  0  0  0  0  0  0  0  0  0  0
  150.7813  141.9721  156.1669 C   0  0  0  0  0  0  0  0  0  0  0  0
  150.8059  141.7630  157.6868 C   0  0  0  0  0  0  0  0  0  0  0  0
  151.0576  143.0555  158.4395 C   0  0  0  0  0  0  0  0  0  0  0  0
  152.1676  143.8687  158.1262 C   0  0  0  0  0  0  0  0  0  0  0  0
  152.3572  145.0560  158.8601 C   0  0  0  0  0  0  0  0  0  0  0  0
  151.4352  145.3815  159.8735 C   0  0  0  0  0  0  0  0  0  0  0  0
  150.3606  144.5010  160.1103 C   0  0  0  0  0  0  0  0  0  0  0  0
  150.1708  143.3593  159.4137 N   0  0  0  0  0  0  0  0  0  0  0  0
  146.8731  143.1468  155.1719 H   0  0  0  0  0  0  0  0  0  0  0  0
  145.7594  142.5014  153.9744 H   0  0  0  0  0  0  0  0  0  0  0  0
  147.2333  143.3069  153.4540 H   0  0  0  0  0  0  0  0  0  0  0  0
  147.4014  140.8456  153.2420 H   0  0  0  0  0  0  0  0  0  0  0  0
  147.0712  140.7187  156.2721 H   0  0  0  0  0  0  0  0  0  0  0  0
  145.8938  140.2127  155.0773 H   0  0  0  0  0  0  0  0  0  0  0  0
  147.2366  137.0893  156.0128 H   0  0  0  0  0  0  0  0  0  0  0  0
  145.8372  138.1316  155.9433 H   0  0  0  0  0  0  0  0  0  0  0  0
  147.0910  138.4382  157.1488 H   0  0  0  0  0  0  0  0  0  0  0  0
  149.1841  139.4859  156.4513 H   0  0  0  0  0  0  0  0  0  0  0  0
  150.8120  137.8091  155.4438 H   0  0  0  0  0  0  0  0  0  0  0  0
  149.5087  137.2026  154.4305 H   0  0  0  0  0  0  0  0  0  0  0  0
  149.4263  137.0524  156.1877 H   0  0  0  0  0  0  0  0  0  0  0  0
  150.7786  140.1286  154.6374 H   0  0  0  0  0  0  0  0  0  0  0  0
  149.6332  139.6167  153.4294 H   0  0  0  0  0  0  0  0  0  0  0  0
  149.4841  141.9985  153.5809 H   0  0  0  0  0  0  0  0  0  0  0  0
  149.2475  143.1471  155.5265 H   0  0  0  0  0  0  0  0  0  0  0  0
  151.2228  141.1124  155.6607 H   0  0  0  0  0  0  0  0  0  0  0  0
  151.3782  142.8467  155.9041 H   0  0  0  0  0  0  0  0  0  0  0  0
  149.8604  141.3327  158.0197 H   0  0  0  0  0  0  0  0  0  0  0  0
  151.5815  141.0434  157.9536 H   0  0  0  0  0  0  0  0  0  0  0  0
  152.8589  143.5927  157.3434 H   0  0  0  0  0  0  0  0  0  0  0  0
  153.1941  145.7054  158.6491 H   0  0  0  0  0  0  0  0  0  0  0  0
  151.5480  146.2845  160.4553 H   0  0  0  0  0  0  0  0  0  0  0  0
  149.6348  144.7191  160.8797 H   0  0  0  0  0  0  0  0  0  0  0  0
  148.7633  141.8480  156.4000 H   0  0  0  0  0  0  0  0  0  0  0  0
  1  2  1  0  0  0  0
  1 19  1  0  0  0  0
  1 20  1  0  0  0  0
  1 21  1  0  0  0  0
  2  9  1  0  0  0  0
  2  3  1  0  0  0  0
  2 22  1  0  0  0  0
  3  4  1  0  0  0  0
  3 23  1  0  0  0  0
  3 24  1  0  0  0  0
  4  5  1  0  0  0  0
  4  6  1  0  0  0  0
  5 25  1  0  0  0  0
  5 26  1  0  0  0  0
  5 27  1  0  0  0  0
  6  7  1  0  0  0  0
  6  8  1  0  0  0  0
  6 28  1  0  0  0  0
  7 29  1  0  0  0  0
  7 30  1  0  0  0  0
  7 31  1  0  0  0  0
  8  9  1  0  0  0  0
  8 32  1  0  0  0  0
  8 33  1  0  0  0  0
  9 10  1  0  0  0  0
  9 34  1  0  0  0  0
 10 11  1  0  0  0  0
 10 35  1  0  0  0  0
 10 44  1  0  0  0  0
 11 12  1  0  0  0  0
 11 36  1  0  0  0  0
 11 37  1  0  0  0  0
 12 13  1  0  0  0  0
 12 38  1  0  0  0  0
 12 39  1  0  0  0  0
 13 18  1  0  0  0  0
 13 14  2  0  0  0  0
 14 15  1  0  0  0  0
 14 40  1  0  0  0  0
 15 16  2  0  0  0  0
 15 41  1  0  0  0  0
 16 17  1  0  0  0  0
 16 42  1  0  0  0  0
 17 18  2  0  0  0  0
 17 43  1  0  0  0  0
M  CHG  1  10   1
M  END
> <s_m_source_file>
AV-unprocessed.smi

> <i_m_source_file_index>
3303

> <i_lp_mmshare_version>
43012

> <i_f3d_flags>
0

> <s_epik_input>
W0NIM11bQ0BASF0xW0NIMl1OKFtDSDNdKVtDQEBIXShbQ0gzXSlbQ0gyXVtDQEhdMVtOSF1bQ0gyXVtDSDJdYzJbY0hdW2NIXVtjSF1bY0hdbjI=

> <s_epik_cmdline>
J2VwaWtfcHl0aG9uJywgJy1waCcsICc3LjAnLCAnLXRuJywgJzgnLCAnLW1hJywgJzIwMCcsICctbWV0YWxfYmluZGluZycsICctaW1hZScsICc8aW5maWxlLm1hZT4nLCAnLW9tYWUnLCAnPG91dGZpbGUubWFlPic=

> <r_epik_Ionization_Penalty>
1.37325

> <r_epik_Ionization_Penalty_Charging>
0.000251572

> <r_epik_Ionization_Penalty_Neutral>
1.373

> <r_epik_State_Penalty>
1.46343

> <r_epik_Charging_Adjusted_Penalty>
1.46368

> <i_epik_Tot_Q>
1

> <i_epik_Tot_abs_Q>
1

> <r_epik_Metal_State_Penalty>
1.46331

> <b_epik_Metal_Only>
0

> <s_lp_Force_Field>
OPLS_2005

> <r_lp_Energy>
25.9316

> <b_lp_Chiralities_Consistent>
1

> <s_lp_Variant>
AV-unprocessed.smi:3303-21

> <Gold.Version>
5.8.1

> <Gold.Id.Protein>
6NUR|6NUR_protein|mol2

> <Gold.PLP.Fitness>
43.4522

> <Gold.PLP.PLP>
-38.8827

> <Gold.PLP.part.hbond>
-1.7357

> <Gold.PLP.part.metal>
0.0000

> <Gold.PLP.part.buried>
-4.4406

> <Gold.PLP.part.nonpolar>
-32.4741

> <Gold.PLP.part.repulsive>
0.2975

> <Gold.PLP.ligand.clash>
0.0000

> <Gold.PLP.ligand.torsion>
0.7662

> <Gold.PLP.Chemscore.Hbond>
2.0000

> <Gold.PLP.Chemscore.CHOScore>
0.0000

> <Gold.PLP.Chemscore.Metal>
0.0000

> <Gold.Chemscore.Hbonds>
donor molecule, donor type, donor heavy atom, donor atom, acceptor molecule, acceptor atom, score
      L1  H    10    35       P1  8028  2.00

> <Gold.PLP.Chemscore.Internal.Correction>
0.1019

> <Gold.Rescore>
     Score         DG    S(hbond)    S(metal)    S(lipo)     H(rot)  DE(clash)    DE(int)     intcor
     17.66     -18.69       1.00        0.00     113.56       1.33       0.29       0.74       ----

> <Gold.Chemscore.Fitness>
17.6631

> <Gold.Chemscore.DG>
-18.6895

> <Gold.Chemscore.ZeroCoef>
-5.4800

> <Gold.Chemscore.Hbond>
0.9961

> <Gold.Chemscore.Metal>
0.0000

> <Gold.Chemscore.Lipo>
113.5623

> <Gold.Chemscore.Internal_Hbond>
0.0000

> <Gold.Chemscore.DEClash>
0.2873

> <Gold.Chemscore.DEInternal>
0.7390

> <Gold.Chemscore.Rot>
1.3298

> <Gold.Chemscore.Internal.Correction>
   9.000000E+99

> <Gold.Chemscore.Hbonds>
donor molecule, donor type, donor heavy atom, donor atom, acceptor molecule, acceptor atom, score
      L1  H    10    35       P1  8028  0.99

> <Gold.Chemscore.Hbond.Weighted>
-3.3270

> <Gold.Chemscore.Metal.Weighted>
-0.0000

> <Gold.Chemscore.Lipo.Weighted>
-13.2868

> <Gold.Chemscore.Internal_Hbond.Weighted>
0.0000

> <Gold.Chemscore.DEClash.Weighted>
0.2873

> <Gold.Chemscore.DEInternal.Weighted>
0.7390

> <Gold.Chemscore.Rot.Weighted>
3.4043

> <Gold.Chemscore.Internal.Correction.Weighted>
   9.000000E+99

> <Gold.Protein.RotatedTorsions>
[ 6907 6896 6895 6894 ] final  133.03 input  -60.11 | X-H torsion
[ 7974 7965 7964 7962 ] final  103.67 input  175.53 | X-H torsion
[ 8008 7997 7996 7995 ] final  -40.10 input   59.86 | X-H torsion
[ 10167 10162 10161 10158 ] final  -45.22 input  -65.29 | X-H torsion
[ 10718 10713 10712 10709 ] final  -68.16 input   66.30 | X-H torsion
[ 10763 10752 10751 10750 ] final  139.35 input  -60.55 | X-H torsion
[ 11005 11000 10999 10996 ] final    9.15 input  -57.11 | X-H torsion

> <Gold.Protein.ActiveResidues>
 VAL166  LYS551  ARG553  GLY616  TRP617  ASP618  TYR619  PRO620  LYS621  CYS622 
 ASP623  PHE694  ASN695  SER759  ASP760  ASP761  ALA762  ILE779  LEU786  VAL792 
 PHE793  MET794  SER795  GLU796  ALA797  LYS798  CYS799  TRP800  GLU811  SER814 

> <Gold.Protein.RotatedAtoms>
  152.3262  133.5908  159.5778 H   0  0  0  0  0  0  0  0  0  0  0  0  # atno 6907 bound_to 6896
  150.7398  133.9936  159.3624 H   0  0  0  0  0  0  0  0  0  0  0  0  # atno 6908 bound_to 6896
  151.7816  135.0760  160.0425 H   0  0  0  0  0  0  0  0  0  0  0  0  # atno 6909 bound_to 6896
  145.3429  139.2458  143.3600 H   0  0  0  0  0  0  0  0  0  0  0  0  # atno 7974 bound_to 7965
  154.4015  140.1534  156.2972 H   0  0  0  0  0  0  0  0  0  0  0  0  # atno 8008 bound_to 7997
  155.8733  140.3447  155.5815 H   0  0  0  0  0  0  0  0  0  0  0  0  # atno 8009 bound_to 7997
  155.7750  140.0835  157.2079 H   0  0  0  0  0  0  0  0  0  0  0  0  # atno 8010 bound_to 7997
  140.6866  143.2890  151.3608 H   0  0  0  0  0  0  0  0  0  0  0  0  # atno 10167 bound_to 10162
  156.0519  130.4290  150.1960 H   0  0  0  0  0  0  0  0  0  0  0  0  # atno 10718 bound_to 10713
  153.9046  135.3018  155.3448 H   0  0  0  0  0  0  0  0  0  0  0  0  # atno 10763 bound_to 10752
  154.7653  135.4913  153.9546 H   0  0  0  0  0  0  0  0  0  0  0  0  # atno 10764 bound_to 10752
  153.1226  135.6785  153.9411 H   0  0  0  0  0  0  0  0  0  0  0  0  # atno 10765 bound_to 10752
  140.5289  134.0485  155.7867 H   0  0  0  0  0  0  0  0  0  0  0  0  # atno 11005 bound_to 11000
  146.3000  140.4030  142.8707 LP  0  0  0  0  0  0  0  0  0  0  0  0  # atno 17320 bound_to 7965
  144.8776  140.7358  143.6007 LP  0  0  0  0  0  0  0  0  0  0  0  0  # atno 17321 bound_to 7965
  139.6231  144.0868  152.2409 LP  0  0  0  0  0  0  0  0  0  0  0  0  # atno 17342 bound_to 10162
  140.0319  144.6074  150.7481 LP  0  0  0  0  0  0  0  0  0  0  0  0  # atno 17343 bound_to 10162
  157.0042  130.9931  151.3383 LP  0  0  0  0  0  0  0  0  0  0  0  0  # atno 17370 bound_to 10713
  157.5454  130.8147  149.8079 LP  0  0  0  0  0  0  0  0  0  0  0  0  # atno 17371 bound_to 10713
  141.1292  133.9331  157.2571 LP  0  0  0  0  0  0  0  0  0  0  0  0  # atno 17394 bound_to 11000
  139.9565  135.0164  156.9141 LP  0  0  0  0  0  0  0  0  0  0  0  0  # atno 17395 bound_to 11000

$$$$
