AV-unprocessed.smi:199|AV-procd|sdf|1562|dock9
  -GOLD-   2262019433D 1   1.00000     0.00000
 Structure written by MMmdl.
 51 55  0  0  0  0  0  0  0  0  1 V2000
  151.5547  141.1482  157.4489 C   0  0  0  0  0  0  0  0  0  0  0  0
  151.7269  139.6237  157.3493 C   0  0  2  0  0  0  0  0  0  0  0  0
  153.0283  139.2369  157.7649 O   0  0  0  0  0  0  0  0  0  0  0  0
  153.2339  137.9159  157.2983 C   0  0  0  0  0  0  0  0  0  0  0  0
  152.6988  137.9744  155.8724 C   0  0  0  0  0  0  0  0  0  0  0  0
  151.5448  138.9793  155.9491 C   0  0  2  0  0  0  0  0  0  0  0  0
  151.7170  139.9286  154.9094 O   0  0  0  0  0  0  0  0  0  0  0  0
  150.1655  138.3003  155.7604 C   0  0  0  0  0  0  0  0  0  0  0  0
  149.7071  137.5829  156.9409 N   0  0  0  0  0  0  0  0  0  0  0  0
  150.3843  136.5974  157.6214 C   0  0  0  0  0  0  0  0  0  0  0  0
  149.7526  136.0968  158.6466 N   0  0  0  0  0  0  0  0  0  0  0  0
  148.5459  136.7864  158.6815 C   0  0  0  0  0  0  0  0  0  0  0  0
  147.3916  136.7429  159.5182 C   0  0  0  0  0  0  0  0  0  0  0  0
  147.2407  135.8920  160.5711 N   0  0  0  0  0  0  0  0  0  0  0  0
  147.3839  136.3769  161.9366 C   0  0  1  0  0  0  0  0  0  0  0  0
  146.0850  137.1704  162.1937 C   0  0  0  0  0  0  0  0  0  0  0  0
  145.0717  136.3635  161.3665 C   0  0  0  0  0  0  0  0  0  0  0  0
  145.9651  135.2336  160.8158 C   0  0  2  0  0  0  0  0  0  0  0  0
  146.2969  134.2534  161.9642 C   0  0  1  0  0  0  0  0  0  0  0  0
  146.8427  132.8987  161.4777 C   0  0  0  0  0  0  0  0  0  0  0  0
  147.9378  133.0933  160.6081 O   0  0  0  0  0  0  0  0  0  0  0  0
  147.3434  135.0720  162.7467 C   0  0  0  0  0  0  0  0  0  0  0  0
  146.3970  137.6303  159.2486 N   0  0  0  0  0  0  0  0  0  0  0  0
  146.5021  138.4797  158.2238 C   0  0  0  0  0  0  0  0  0  0  0  0
  147.5033  138.6157  157.3543 N   0  0  0  0  0  0  0  0  0  0  0  0
  148.5140  137.7417  157.6243 C   0  0  0  0  0  0  0  0  0  0  0  0
  150.5615  141.4554  157.1206 H   0  0  0  0  0  0  0  0  0  0  0  0
  152.2900  141.6762  156.8418 H   0  0  0  0  0  0  0  0  0  0  0  0
  151.6790  141.4828  158.4788 H   0  0  0  0  0  0  0  0  0  0  0  0
  151.0404  139.1535  158.0540 H   0  0  0  0  0  0  0  0  0  0  0  0
  154.2848  137.6298  157.3433 H   0  0  0  0  0  0  0  0  0  0  0  0
  152.6577  137.2160  157.9057 H   0  0  0  0  0  0  0  0  0  0  0  0
  153.4922  138.3360  155.2158 H   0  0  0  0  0  0  0  0  0  0  0  0
  152.3974  136.9922  155.5062 H   0  0  0  0  0  0  0  0  0  0  0  0
  152.5723  140.3198  154.9990 H   0  0  0  0  0  0  0  0  0  0  0  0
  149.4093  139.0404  155.4948 H   0  0  0  0  0  0  0  0  0  0  0  0
  150.2064  137.5975  154.9273 H   0  0  0  0  0  0  0  0  0  0  0  0
  151.3646  136.2525  157.3266 H   0  0  0  0  0  0  0  0  0  0  0  0
  148.2895  136.9535  162.1282 H   0  0  0  0  0  0  0  0  0  0  0  0
  145.8260  137.2181  163.2519 H   0  0  0  0  0  0  0  0  0  0  0  0
  146.1616  138.1915  161.8184 H   0  0  0  0  0  0  0  0  0  0  0  0
  144.2357  135.9929  161.9603 H   0  0  0  0  0  0  0  0  0  0  0  0
  144.6670  136.9704  160.5553 H   0  0  0  0  0  0  0  0  0  0  0  0
  145.5220  134.7257  159.9616 H   0  0  0  0  0  0  0  0  0  0  0  0
  145.4176  134.0740  162.5851 H   0  0  0  0  0  0  0  0  0  0  0  0
  147.1539  132.2757  162.3169 H   0  0  0  0  0  0  0  0  0  0  0  0
  146.0693  132.3523  160.9373 H   0  0  0  0  0  0  0  0  0  0  0  0
  147.8395  133.9322  160.1842 H   0  0  0  0  0  0  0  0  0  0  0  0
  148.3204  134.5868  162.7326 H   0  0  0  0  0  0  0  0  0  0  0  0
  147.0640  135.2312  163.7887 H   0  0  0  0  0  0  0  0  0  0  0  0
  145.6630  139.1441  158.0792 H   0  0  0  0  0  0  0  0  0  0  0  0
  1  2  1  0  0  0  0
  1 27  1  0  0  0  0
  1 28  1  0  0  0  0
  1 29  1  0  0  0  0
  2  6  1  0  0  0  0
  2  3  1  0  0  0  0
  2 30  1  0  0  0  0
  3  4  1  0  0  0  0
  4  5  1  0  0  0  0
  4 31  1  0  0  0  0
  4 32  1  0  0  0  0
  5  6  1  0  0  0  0
  5 33  1  0  0  0  0
  5 34  1  0  0  0  0
  6  7  1  0  0  0  0
  6  8  1  0  0  0  0
  7 35  1  0  0  0  0
  8  9  1  0  0  0  0
  8 36  1  0  0  0  0
  8 37  1  0  0  0  0
  9 26  1  0  0  0  0
  9 10  1  0  0  0  0
 10 11  2  0  0  0  0
 10 38  1  0  0  0  0
 11 12  1  0  0  0  0
 12 26  2  0  0  0  0
 12 13  1  0  0  0  0
 13 14  1  0  0  0  0
 13 23  2  0  0  0  0
 14 18  1  0  0  0  0
 14 15  1  0  0  0  0
 15 22  1  0  0  0  0
 15 16  1  0  0  0  0
 15 39  1  0  0  0  0
 16 17  1  0  0  0  0
 16 40  1  0  0  0  0
 16 41  1  0  0  0  0
 17 18  1  0  0  0  0
 17 42  1  0  0  0  0
 17 43  1  0  0  0  0
 18 19  1  0  0  0  0
 18 44  1  0  0  0  0
 19 20  1  0  0  0  0
 19 22  1  0  0  0  0
 19 45  1  0  0  0  0
 20 21  1  0  0  0  0
 20 46  1  0  0  0  0
 20 47  1  0  0  0  0
 21 48  1  0  0  0  0
 22 49  1  0  0  0  0
 22 50  1  0  0  0  0
 23 24  1  0  0  0  0
 24 25  2  0  0  0  0
 24 51  1  0  0  0  0
 25 26  1  0  0  0  0
M  END
> <s_m_source_file>
AV-unprocessed.smi

> <i_m_source_file_index>
199

> <i_lp_mmshare_version>
43012

> <i_f3d_flags>
0

> <s_epik_input>
W0NIMl0xW0NIMl1PW0NAQEhdKFtDSDNdKVtDQEBdMShbT0hdKVtDSDJdbihbY0hdbjIpYyhjMjMpbltjSF1uYzNOKFtDQEBIXTQ1KVtDQEhdKFtDSDJdW0NIMl00KVtDQEhdKFtDSDJdNSlbQ0gyXVtPSF0=

> <s_epik_cmdline>
J2VwaWtfcHl0aG9uJywgJy1waCcsICc3LjAnLCAnLXRuJywgJzgnLCAnLW1hJywgJzIwMCcsICctbWV0YWxfYmluZGluZycsICctaW1hZScsICc8aW5maWxlLm1hZT4nLCAnLW9tYWUnLCAnPG91dGZpbGUubWFlPic=

> <r_lp_tautomer_probability>
1

> <r_epik_Ionization_Penalty>
0.00583903

> <r_epik_Ionization_Penalty_Charging>
0

> <r_epik_Ionization_Penalty_Neutral>
0.00583903

> <r_epik_State_Penalty>
-0

> <r_epik_Charging_Adjusted_Penalty>
0

> <i_epik_Tot_Q>
0

> <i_epik_Tot_abs_Q>
0

> <r_epik_Metal_State_Penalty>
-0

> <b_epik_Metal_Only>
0

> <s_lp_Force_Field>
OPLS_2005

> <r_lp_Energy>
83.6045

> <b_lp_Chiralities_Consistent>
1

> <s_lp_Variant>
AV-unprocessed.smi:199-3

> <Gold.Version>
5.8.1

> <Gold.Id.Protein>
6NUR|6NUR_protein|mol2

> <Gold.PLP.Fitness>
41.7798

> <Gold.PLP.PLP>
-33.6884

> <Gold.PLP.part.hbond>
-4.0000

> <Gold.PLP.part.metal>
0.0000

> <Gold.PLP.part.buried>
-4.0776

> <Gold.PLP.part.nonpolar>
-25.8251

> <Gold.PLP.part.repulsive>
0.0000

> <Gold.PLP.ligand.clash>
0.0000

> <Gold.PLP.ligand.torsion>
0.6993

> <Gold.PLP.Chemscore.Hbond>
3.1485

> <Gold.PLP.Chemscore.CHOScore>
0.0000

> <Gold.PLP.Chemscore.Metal>
0.0000

> <Gold.Chemscore.Hbonds>
donor molecule, donor type, donor heavy atom, donor atom, acceptor molecule, acceptor atom, score
      P1  H  6896  6907       L1    11  1.00
      P1  H  6934  6947       L1    23  0.13
      P1  H  7989  7998       L1     7  0.15
      P1  H  7997  8009       L1     3  0.78

> <Gold.PLP.Chemscore.Internal.Correction>
0.0446

> <Gold.Rescore>
     Score         DG    S(hbond)    S(metal)    S(lipo)     H(rot)  DE(clash)    DE(int)     intcor
      9.98     -13.58       1.69        0.00      88.08       3.07       0.49       3.11       ----

> <Gold.Chemscore.Fitness>
9.9832

> <Gold.Chemscore.DG>
-13.5778

> <Gold.Chemscore.ZeroCoef>
-5.4800

> <Gold.Chemscore.Hbond>
1.6943

> <Gold.Chemscore.Metal>
0.0000

> <Gold.Chemscore.Lipo>
88.0813

> <Gold.Chemscore.Internal_Hbond>
0.0000

> <Gold.Chemscore.DEClash>
0.4862

> <Gold.Chemscore.DEInternal>
3.1084

> <Gold.Chemscore.Rot>
3.0729

> <Gold.Chemscore.Internal.Correction>
   9.000000E+99

> <Gold.Chemscore.Hbonds>
donor molecule, donor type, donor heavy atom, donor atom, acceptor molecule, acceptor atom, score
      P1  H  6896  6907       L1    11  0.87
      P1  H  7997  8009       L1     3  0.15

> <Gold.Chemscore.Hbond.Weighted>
-5.6590

> <Gold.Chemscore.Metal.Weighted>
-0.0000

> <Gold.Chemscore.Lipo.Weighted>
-10.3055

> <Gold.Chemscore.Internal_Hbond.Weighted>
0.0000

> <Gold.Chemscore.DEClash.Weighted>
0.4862

> <Gold.Chemscore.DEInternal.Weighted>
3.1084

> <Gold.Chemscore.Rot.Weighted>
7.8667

> <Gold.Chemscore.Internal.Correction.Weighted>
   9.000000E+99

> <Gold.Protein.RotatedTorsions>
[ 6907 6896 6895 6894 ] final  -68.21 input  -60.11 | X-H torsion
[ 7974 7965 7964 7962 ] final -143.62 input  175.53 | X-H torsion
[ 8008 7997 7996 7995 ] final  137.33 input   59.86 | X-H torsion
[ 10167 10162 10161 10158 ] final   48.62 input  -65.29 | X-H torsion
[ 10718 10713 10712 10709 ] final -178.38 input   66.30 | X-H torsion
[ 10763 10752 10751 10750 ] final -173.54 input  -60.55 | X-H torsion
[ 11005 11000 10999 10996 ] final -177.65 input  -57.11 | X-H torsion

> <Gold.Protein.ActiveResidues>
 VAL166  LYS551  ARG553  GLY616  TRP617  ASP618  TYR619  PRO620  LYS621  CYS622 
 ASP623  PHE694  ASN695  SER759  ASP760  ASP761  ALA762  ILE779  LEU786  VAL792 
 PHE793  MET794  SER795  GLU796  ALA797  LYS798  CYS799  TRP800  GLU811  SER814 

> <Gold.Protein.RotatedAtoms>
  150.7368  134.5772  159.5919 H   0  0  0  0  0  0  0  0  0  0  0  0  # atno 6907 bound_to 6896
  152.3195  134.7395  160.0326 H   0  0  0  0  0  0  0  0  0  0  0  0  # atno 6908 bound_to 6896
  151.7915  133.3324  159.3537 H   0  0  0  0  0  0  0  0  0  0  0  0  # atno 6909 bound_to 6896
  144.8356  140.5812  143.5486 H   0  0  0  0  0  0  0  0  0  0  0  0  # atno 7974 bound_to 7965
  156.3002  140.2422  156.3892 H   0  0  0  0  0  0  0  0  0  0  0  0  # atno 8008 bound_to 7997
  154.8630  140.0419  157.1697 H   0  0  0  0  0  0  0  0  0  0  0  0  # atno 8009 bound_to 7997
  154.8876  140.2958  155.5393 H   0  0  0  0  0  0  0  0  0  0  0  0  # atno 8010 bound_to 7997
  140.2914  144.3042  150.6240 H   0  0  0  0  0  0  0  0  0  0  0  0  # atno 10167 bound_to 10162
  156.8435  130.9694  151.3098 H   0  0  0  0  0  0  0  0  0  0  0  0  # atno 10718 bound_to 10713
  154.6067  135.2860  155.0477 H   0  0  0  0  0  0  0  0  0  0  0  0  # atno 10763 bound_to 10752
  154.1722  135.6470  153.5016 H   0  0  0  0  0  0  0  0  0  0  0  0  # atno 10764 bound_to 10752
  153.0178  135.5403  154.6805 H   0  0  0  0  0  0  0  0  0  0  0  0  # atno 10765 bound_to 10752
  140.4386  134.6452  157.4746 H   0  0  0  0  0  0  0  0  0  0  0  0  # atno 11005 bound_to 11000
  145.4801  139.1496  143.3766 LP  0  0  0  0  0  0  0  0  0  0  0  0  # atno 17320 bound_to 7965
  146.2655  140.4937  142.8836 LP  0  0  0  0  0  0  0  0  0  0  0  0  # atno 17321 bound_to 7965
  140.5729  143.2179  151.7567 LP  0  0  0  0  0  0  0  0  0  0  0  0  # atno 17342 bound_to 10162
  139.4937  144.4191  151.9997 LP  0  0  0  0  0  0  0  0  0  0  0  0  # atno 17343 bound_to 10162
  157.6343  130.8754  149.9330 LP  0  0  0  0  0  0  0  0  0  0  0  0  # atno 17370 bound_to 10713
  156.0867  130.3667  150.0473 LP  0  0  0  0  0  0  0  0  0  0  0  0  # atno 17371 bound_to 10713
  140.0085  134.6726  155.9417 LP  0  0  0  0  0  0  0  0  0  0  0  0  # atno 17394 bound_to 11000
  141.1715  133.6537  156.4670 LP  0  0  0  0  0  0  0  0  0  0  0  0  # atno 17395 bound_to 11000

$$$$
