AV-unprocessed.smi:792|AV-procd|sdf|3750|dock1
  -GOLD-   22720 1183D 1   1.00000     0.00000
 Structure written by MMmdl.
 46 47  0  0  0  0  0  0  0  0  1 V2000
  145.5645  131.5940  149.8258 C   0  0  0  0  0  0  0  0  0  0  0  0
  145.2626  132.8953  150.5391 C   0  0  0  0  0  0  0  0  0  0  0  0
  143.9707  133.4609  150.4980 C   0  0  0  0  0  0  0  0  0  0  0  0
  143.7472  134.6727  151.1796 C   0  0  0  0  0  0  0  0  0  0  0  0
  144.8190  135.2698  151.8742 C   0  0  0  0  0  0  0  0  0  0  0  0
  144.6321  136.5746  152.6225 C   0  0  0  0  0  0  0  0  0  0  0  0
  145.9678  137.1798  153.0727 C   0  0  0  0  0  0  0  0  0  0  0  0
  145.8753  138.6313  153.1345 N   0  0  0  0  0  0  0  0  0  0  0  0
  146.7185  139.4118  153.8219 C   0  0  0  0  0  0  0  0  0  0  0  0
  147.6799  138.9892  154.4645 O   0  0  0  0  0  0  0  0  0  0  0  0
  146.3873  140.7078  153.7274 N   0  0  0  0  0  0  0  0  0  0  0  0
  147.1196  141.8096  154.3500 C   0  0  0  0  0  0  0  0  0  0  0  0
  148.6395  141.5687  154.4304 C   0  0  0  0  0  0  0  0  0  0  0  0
  149.2965  141.5424  153.3876 O   0  0  0  0  0  0  0  0  0  0  0  0
  149.2121  141.3985  155.6475 N   0  0  0  0  0  0  0  0  0  0  0  0
  148.4549  141.5015  156.9025 C   0  0  0  0  0  0  0  0  0  0  0  0
  148.9093  142.7646  157.6570 C   0  0  0  0  0  0  0  0  0  0  0  0
  150.4311  142.7485  157.8945 C   0  0  0  0  0  0  0  0  0  0  0  0
  151.2055  142.4557  156.5955 C   0  0  0  0  0  0  0  0  0  0  0  0
  150.6474  141.2026  155.8968 C   0  0  0  0  0  0  0  0  0  0  0  0
  146.0727  134.6232  151.8511 C   0  0  0  0  0  0  0  0  0  0  0  0
  146.2963  133.4611  151.2005 N   0  0  0  0  0  0  0  0  0  0  0  0
  144.6801  131.2056  149.3200 H   0  0  0  0  0  0  0  0  0  0  0  0
  145.9070  130.8417  150.5369 H   0  0  0  0  0  0  0  0  0  0  0  0
  146.3450  131.7430  149.0791 H   0  0  0  0  0  0  0  0  0  0  0  0
  143.1684  132.9803  149.9577 H   0  0  0  0  0  0  0  0  0  0  0  0
  142.7709  135.1342  151.1671 H   0  0  0  0  0  0  0  0  0  0  0  0
  144.0981  137.2781  151.9822 H   0  0  0  0  0  0  0  0  0  0  0  0
  143.9910  136.3969  153.4873 H   0  0  0  0  0  0  0  0  0  0  0  0
  146.2418  136.7937  154.0561 H   0  0  0  0  0  0  0  0  0  0  0  0
  146.7626  136.8962  152.3810 H   0  0  0  0  0  0  0  0  0  0  0  0
  145.1183  139.0672  152.6284 H   0  0  0  0  0  0  0  0  0  0  0  0
  145.5817  140.9545  153.1713 H   0  0  0  0  0  0  0  0  0  0  0  0
  146.9355  142.7062  153.7580 H   0  0  0  0  0  0  0  0  0  0  0  0
  146.7185  141.9943  155.3480 H   0  0  0  0  0  0  0  0  0  0  0  0
  147.3758  141.5342  156.7473 H   0  0  0  0  0  0  0  0  0  0  0  0
  148.6396  140.6145  157.5101 H   0  0  0  0  0  0  0  0  0  0  0  0
  148.6385  143.6495  157.0793 H   0  0  0  0  0  0  0  0  0  0  0  0
  148.3841  142.8425  158.6094 H   0  0  0  0  0  0  0  0  0  0  0  0
  150.7569  143.6962  158.3240 H   0  0  0  0  0  0  0  0  0  0  0  0
  150.6677  141.9788  158.6302 H   0  0  0  0  0  0  0  0  0  0  0  0
  151.1327  143.3115  155.9229 H   0  0  0  0  0  0  0  0  0  0  0  0
  152.2651  142.3236  156.8158 H   0  0  0  0  0  0  0  0  0  0  0  0
  150.7819  140.3305  156.5382 H   0  0  0  0  0  0  0  0  0  0  0  0
  151.2262  140.9887  155.0000 H   0  0  0  0  0  0  0  0  0  0  0  0
  146.9203  135.0494  152.3674 H   0  0  0  0  0  0  0  0  0  0  0  0
  1  2  1  0  0  0  0
  1 23  1  0  0  0  0
  1 24  1  0  0  0  0
  1 25  1  0  0  0  0
  2 22  1  0  0  0  0
  2  3  2  0  0  0  0
  3  4  1  0  0  0  0
  3 26  1  0  0  0  0
  4  5  2  0  0  0  0
  4 27  1  0  0  0  0
  5  6  1  0  0  0  0
  5 21  1  0  0  0  0
  6  7  1  0  0  0  0
  6 28  1  0  0  0  0
  6 29  1  0  0  0  0
  7  8  1  0  0  0  0
  7 30  1  0  0  0  0
  7 31  1  0  0  0  0
  8  9  1  0  0  0  0
  8 32  1  0  0  0  0
  9 10  2  0  0  0  0
  9 11  1  0  0  0  0
 11 12  1  0  0  0  0
 11 33  1  0  0  0  0
 12 13  1  0  0  0  0
 12 34  1  0  0  0  0
 12 35  1  0  0  0  0
 13 14  2  0  0  0  0
 13 15  1  0  0  0  0
 15 20  1  0  0  0  0
 15 16  1  0  0  0  0
 16 17  1  0  0  0  0
 16 36  1  0  0  0  0
 16 37  1  0  0  0  0
 17 18  1  0  0  0  0
 17 38  1  0  0  0  0
 17 39  1  0  0  0  0
 18 19  1  0  0  0  0
 18 40  1  0  0  0  0
 18 41  1  0  0  0  0
 19 20  1  0  0  0  0
 19 42  1  0  0  0  0
 19 43  1  0  0  0  0
 20 44  1  0  0  0  0
 20 45  1  0  0  0  0
 21 22  2  0  0  0  0
 21 46  1  0  0  0  0
M  END
> <s_m_source_file>
AV-unprocessed.smi

> <i_m_source_file_index>
792

> <i_lp_mmshare_version>
43012

> <i_f3d_flags>
0

> <s_epik_input>
W0NIM11jMVtjSF1bY0hdYyhbY0hdbjEpW0NIMl1bQ0gyXVtOSF1DKD1PKVtOSF1bQ0gyXUMoPU8pTjJbQ0gyXVtDSDJdW0NIMl1bQ0gyXVtDSDJdMg==

> <s_epik_cmdline>
J2VwaWtfcHl0aG9uJywgJy1waCcsICc3LjAnLCAnLXRuJywgJzgnLCAnLW1hJywgJzIwMCcsICctbWV0YWxfYmluZGluZycsICctaW1hZScsICc8aW5maWxlLm1hZT4nLCAnLW9tYWUnLCAnPG91dGZpbGUubWFlPic=

> <r_epik_Ionization_Penalty>
0.0629971

> <r_epik_Ionization_Penalty_Charging>
0

> <r_epik_Ionization_Penalty_Neutral>
0.0629971

> <r_epik_State_Penalty>
0.0547377

> <r_epik_Charging_Adjusted_Penalty>
0.0547377

> <i_epik_Tot_Q>
0

> <i_epik_Tot_abs_Q>
0

> <r_epik_Metal_State_Penalty>
0.0494478

> <b_epik_Metal_Only>
0

> <s_lp_Force_Field>
OPLS_2005

> <r_lp_Energy>
16.0081

> <b_lp_Chiralities_Consistent>
1

> <s_lp_Variant>
AV-unprocessed.smi:792-1

> <Gold.Version>
5.8.1

> <Gold.Id.Protein>
6NUR|6NUR_protein|mol2

> <Gold.PLP.Fitness>
46.3061

> <Gold.PLP.PLP>
-36.4278

> <Gold.PLP.part.hbond>
-3.9276

> <Gold.PLP.part.metal>
0.0000

> <Gold.PLP.part.buried>
-2.9104

> <Gold.PLP.part.nonpolar>
-30.9167

> <Gold.PLP.part.repulsive>
1.3170

> <Gold.PLP.ligand.clash>
0.0000

> <Gold.PLP.ligand.torsion>
0.6656

> <Gold.PLP.Chemscore.Hbond>
2.7113

> <Gold.PLP.Chemscore.CHOScore>
1.0000

> <Gold.PLP.Chemscore.Metal>
0.0000

> <Gold.Chemscore.Hbonds>
donor molecule, donor type, donor heavy atom, donor atom, acceptor molecule, acceptor atom, score
      L1  H     8    32       P1 10175  1.00
      L1  H    11    33       P1 10175  0.91
      P1  H  8011  8017       L1    14  0.71
      L1  C    21    46       P1  7948  1.00

> <Gold.PLP.Chemscore.Internal.Correction>
0.0757

> <Gold.Rescore>
     Score         DG    S(hbond)    S(metal)    S(lipo)     H(rot)  DE(clash)    DE(int)     intcor
     14.69     -18.74       2.42        0.00      83.20       1.78       0.58       3.47       ----

> <Gold.Chemscore.Fitness>
14.6893

> <Gold.Chemscore.DG>
-18.7431

> <Gold.Chemscore.ZeroCoef>
-5.4800

> <Gold.Chemscore.Hbond>
2.4172

> <Gold.Chemscore.Metal>
0.0000

> <Gold.Chemscore.Lipo>
83.1960

> <Gold.Chemscore.Internal_Hbond>
0.0000

> <Gold.Chemscore.DEClash>
0.5834

> <Gold.Chemscore.DEInternal>
3.4704

> <Gold.Chemscore.Rot>
1.7751

> <Gold.Chemscore.Internal.Correction>
   9.000000E+99

> <Gold.Chemscore.Hbonds>
donor molecule, donor type, donor heavy atom, donor atom, acceptor molecule, acceptor atom, score
      L1  H     8    32       P1 10175  0.92
      L1  H    11    33       P1 10175  0.41
      P1  H  7989  7998       L1    14  0.01
      P1  H  8011  8017       L1    14  0.70

> <Gold.Chemscore.Hbond.Weighted>
-8.0733

> <Gold.Chemscore.Metal.Weighted>
-0.0000

> <Gold.Chemscore.Lipo.Weighted>
-9.7339

> <Gold.Chemscore.Internal_Hbond.Weighted>
0.0000

> <Gold.Chemscore.DEClash.Weighted>
0.5834

> <Gold.Chemscore.DEInternal.Weighted>
3.4704

> <Gold.Chemscore.Rot.Weighted>
4.5441

> <Gold.Chemscore.Internal.Correction.Weighted>
   9.000000E+99

> <Gold.Protein.RotatedTorsions>
[ 6907 6896 6895 6894 ] final  -96.24 input  -60.11 | X-H torsion
[ 7974 7965 7964 7962 ] final -176.82 input  175.53 | X-H torsion
[ 8008 7997 7996 7995 ] final   51.82 input   59.86 | X-H torsion
[ 10167 10162 10161 10158 ] final -152.25 input  -65.29 | X-H torsion
[ 10718 10713 10712 10709 ] final -145.50 input   66.30 | X-H torsion
[ 10763 10752 10751 10750 ] final  -19.46 input  -60.55 | X-H torsion
[ 11005 11000 10999 10996 ] final -103.98 input  -57.11 | X-H torsion

> <Gold.Protein.ActiveResidues>
 VAL166  LYS551  ARG553  GLY616  TRP617  ASP618  TYR619  PRO620  LYS621  CYS622 
 ASP623  PHE694  ASN695  SER759  ASP760  ASP761  ALA762  ILE779  LEU786  VAL792 
 PHE793  MET794  SER795  GLU796  ALA797  LYS798  CYS799  TRP800  GLU811  SER814 

> <Gold.Protein.RotatedAtoms>
  150.6983  134.1534  159.4148 H   0  0  0  0  0  0  0  0  0  0  0  0  # atno 6907 bound_to 6896
  151.9516  135.0164  160.0551 H   0  0  0  0  0  0  0  0  0  0  0  0  # atno 6908 bound_to 6896
  152.2006  133.4803  159.5093 H   0  0  0  0  0  0  0  0  0  0  0  0  # atno 6909 bound_to 6896
  144.7127  140.1112  143.6411 H   0  0  0  0  0  0  0  0  0  0  0  0  # atno 7974 bound_to 7965
  155.4417  140.3454  155.4290 H   0  0  0  0  0  0  0  0  0  0  0  0  # atno 8008 bound_to 7997
  156.1275  140.1504  156.9145 H   0  0  0  0  0  0  0  0  0  0  0  0  # atno 8009 bound_to 7997
  154.4869  140.0852  156.7486 H   0  0  0  0  0  0  0  0  0  0  0  0  # atno 8010 bound_to 7997
  139.7198  143.8976  152.2499 H   0  0  0  0  0  0  0  0  0  0  0  0  # atno 10167 bound_to 10162
  156.3832  130.7848  151.2042 H   0  0  0  0  0  0  0  0  0  0  0  0  # atno 10718 bound_to 10713
  153.6051  135.6998  153.5369 H   0  0  0  0  0  0  0  0  0  0  0  0  # atno 10763 bound_to 10752
  153.3064  135.4114  155.1297 H   0  0  0  0  0  0  0  0  0  0  0  0  # atno 10764 bound_to 10752
  154.8575  135.3661  154.5588 H   0  0  0  0  0  0  0  0  0  0  0  0  # atno 10765 bound_to 10752
  141.1121  133.8685  157.1554 H   0  0  0  0  0  0  0  0  0  0  0  0  # atno 11005 bound_to 11000
  145.9453  139.2696  143.1244 LP  0  0  0  0  0  0  0  0  0  0  0  0  # atno 17320 bound_to 7965
  145.9380  140.9000  143.0322 LP  0  0  0  0  0  0  0  0  0  0  0  0  # atno 17321 bound_to 7965
  139.8868  144.6987  150.8815 LP  0  0  0  0  0  0  0  0  0  0  0  0  # atno 17342 bound_to 10162
  140.7751  143.3617  151.1815 LP  0  0  0  0  0  0  0  0  0  0  0  0  # atno 17343 bound_to 10162
  157.7494  131.0338  150.4287 LP  0  0  0  0  0  0  0  0  0  0  0  0  # atno 17370 bound_to 10713
  156.4534  130.4016  149.6621 LP  0  0  0  0  0  0  0  0  0  0  0  0  # atno 17371 bound_to 10713
  140.0021  135.0023  157.0212 LP  0  0  0  0  0  0  0  0  0  0  0  0  # atno 17394 bound_to 11000
  140.4747  134.1351  155.7208 LP  0  0  0  0  0  0  0  0  0  0  0  0  # atno 17395 bound_to 11000

$$$$
