#       Name:                AV-unprocessed.smi:2641
#       Creating user name   scv26
#       Creation time:       Fri Mar 27 14:28:31 2020


#       File generated by GOLD software.
#

@<TRIPOS>MOLECULE
AV-unprocessed.smi:2641
    46    47     1
SMALL
NO_CHARGES


@<TRIPOS>ATOM
      1 ****        -4.6249   3.9439   0.5534 C.3            1 S1                 0.0000
      2 ****        -3.8822   2.6529   0.8277 C.ar           1 S1                 0.0000
      3 ****        -3.5294   2.2868   2.1438 C.ar           1 S1                 0.0000
      4 ****        -2.8427   1.0732   2.3404 C.ar           1 S1                 0.0000
      5 ****        -2.5368   0.2748   1.2188 C.ar           1 S1                 0.0000
      6 ****        -1.8054  -1.0463   1.3783 C.3            1 S1                 0.0000
      7 ****        -0.3009  -0.8581   1.1754 C.2            1 S1                 0.0000
      8 ****         0.3372  -0.1969   1.9934 O.2            1 S1                 0.0000
      9 ****         0.2167  -1.4557   0.0854 N.am           1 S1                 0.0000
     10 ****         1.5886  -1.5292  -0.4449 C.3            1 S1                 0.0000
     11 ****         1.9364  -3.0407  -0.4486 C.2            1 S1                 0.0000
     12 ****         1.5586  -3.7262  -1.4255 O.co2          1 S1                 0.0000
     13 ****         2.5348  -3.5071   0.5468 O.co2          1 S1                -1.0000
     14 ****         1.5435  -0.9586  -1.8920 C.3            1 S1                 0.0000
     15 ****         2.9226  -0.9166  -2.5802 C.3            1 S1                 0.0000
     16 ****         3.9377  -0.1223  -1.7464 C.3            1 S1                 0.0000
     17 ****         4.0330  -0.6740  -0.3169 C.3            1 S1                 0.0000
     18 ****         2.6483  -0.7085   0.3593 C.3            1 S1                 0.0000
     19 ****        -2.9314   0.7347  -0.0556 C.ar           1 S1                 0.0000
     20 ****        -3.5905   1.8968  -0.2538 N.ar           1 S1                 0.0000
     21 ****        -4.8996   4.4471   1.4809 H              1 S1                 0.0000
     22 ****        -5.5388   3.7459  -0.0078 H              1 S1                 0.0000
     23 ****        -4.0021   4.6221  -0.0304 H              1 S1                 0.0000
     24 ****        -3.7778   2.9180   2.9847 H              1 S1                 0.0000
     25 ****        -2.5571   0.7620   3.3347 H              1 S1                 0.0000
     26 ****        -1.9837  -1.4521   2.3748 H              1 S1                 0.0000
     27 ****        -2.2039  -1.7727   0.6681 H              1 S1                 0.0000
     28 ****        -0.4503  -1.9718  -0.4695 H              1 S1                 0.0000
     29 ****         0.8450  -1.5203  -2.5141 H              1 S1                 0.0000
     30 ****         1.1438   0.0562  -1.8597 H              1 S1                 0.0000
     31 ****         3.2934  -1.9291  -2.7429 H              1 S1                 0.0000
     32 ****         2.8267  -0.4667  -3.5687 H              1 S1                 0.0000
     33 ****         4.9174  -0.1517  -2.2237 H              1 S1                 0.0000
     34 ****         3.6402   0.9266  -1.7128 H              1 S1                 0.0000
     35 ****         4.4709  -1.6725  -0.3357 H              1 S1                 0.0000
     36 ****         4.7129  -0.0562   0.2703 H              1 S1                 0.0000
     37 ****         2.3103   0.3239   0.4553 H              1 S1                 0.0000
     38 ****         2.7542  -1.0861   1.3773 H              1 S1                 0.0000
     39 ****        -2.7140   0.1542  -0.9403 H              1 S1                 0.0000
     40 ****        -0.1282   0.2100   2.7795 LP             1 S1                 0.0000
     41 ****         1.3212  -0.0664   1.8723 LP             1 S1                 0.0000
     42 ****         1.7307  -4.7111  -1.4416 LP             1 S1                 0.0000
     43 ****         1.0846  -3.2889  -2.1898 LP             1 S1                 0.0000
     44 ****         2.7387  -4.4849   0.5948 LP             1 S1                 0.0000
     45 ****         2.8090  -2.9019   1.2942 LP             1 S1                 0.0000
     46 ****        -3.8547   2.1889  -1.1730 LP             1 S1                 0.0000
@<TRIPOS>BOND
    1    1    2 1     
    2    1   21 1     
    3    1   22 1     
    4    1   23 1     
    5    2   20 ar    
    6    2    3 ar    
    7    3    4 ar    
    8    3   24 1     
    9    4    5 ar    
   10    4   25 1     
   11    5    6 1     
   12    5   19 ar    
   13    6    7 1     
   14    6   26 1     
   15    6   27 1     
   16    7    8 2     
   17    7    9 am    
   18    9   10 1     
   19    9   28 1     
   20   10   18 1     
   21   10   11 1     
   22   10   14 1     
   23   11   12 ar    
   24   11   13 ar    
   25   14   15 1     
   26   14   29 1     
   27   14   30 1     
   28   15   16 1     
   29   15   31 1     
   30   15   32 1     
   31   16   17 1     
   32   16   33 1     
   33   16   34 1     
   34   17   18 1     
   35   17   35 1     
   36   17   36 1     
   37   18   37 1     
   38   18   38 1     
   39   19   20 ar    
   40   19   39 1     
   41    8   40 1     
   42    8   41 1     
   43   12   42 1     
   44   12   43 1     
   45   13   44 1     
   46   13   45 1     
   47   20   46 1     
@<TRIPOS>SUBSTRUCTURE
      1 S1             1
@<TRIPOS>SET
LONE_PAIRS      STATIC     ATOMS    <user>   **** ""
7 40 41 42 43 44 45 46
DONOR_HYDROGENS      STATIC     ATOMS    <user>   **** ""
1 28
ATOM$BLUE        STATIC     ATOMS    COLORGROUP SYSTEM
7 40 41 42 43 44 45 46
ATOM$RED        STATIC     ATOMS    COLORGROUP SYSTEM
1 28
