AV-unprocessed.smi:195|AV-procd|sdf|1526|dock1
  -GOLD-   2262019373D 1   1.00000     0.00000
 Structure written by MMmdl.
 45 48  0  0  0  0  0  0  0  0  1 V2000
  149.4956  135.4132  159.0898 N   0  0  0  0  0  0  0  0  0  0  0  0
  149.1511  135.0083  158.0622 C   0  0  0  0  0  0  0  0  0  0  0  0
  148.7137  134.4921  156.7556 C   0  0  0  0  0  0  0  0  0  0  0  0
  149.8715  134.0430  155.8593 C   0  0  0  0  0  0  0  0  0  0  0  0
  149.4631  132.7946  155.3401 O   0  0  0  0  0  0  0  0  0  0  0  0
  150.3857  135.0434  154.8195 C   0  0  0  0  0  0  0  0  0  0  0  0
  151.5017  135.3241  155.7194 N   0  0  0  0  0  0  0  0  0  0  0  0
  151.3566  136.5451  156.4506 C   0  0  0  0  0  0  0  0  0  0  0  0
  151.5488  136.5809  157.7974 N   0  0  0  0  0  0  0  0  0  0  0  0
  151.4188  137.7181  158.4865 C   0  0  0  0  0  0  0  0  0  0  0  0
  151.1156  138.9352  158.0352 N   0  0  0  0  0  0  0  0  0  0  0  0
  150.9416  138.9231  156.6840 C   0  0  0  0  0  0  0  0  0  0  0  0
  151.0463  137.7891  155.8287 C   0  0  0  0  0  0  0  0  0  0  0  0
  150.8117  138.1707  154.5125 N   0  0  0  0  0  0  0  0  0  0  0  0
  150.5747  139.4523  154.5869 C   0  0  0  0  0  0  0  0  0  0  0  0
  150.6294  139.9846  155.8545 N   0  0  0  0  0  0  0  0  0  0  0  0
  150.4060  141.3692  156.2316 C   0  0  0  0  0  0  0  0  0  0  0  0
  150.3224  141.5540  157.7599 C   0  0  2  0  0  0  0  0  0  0  0  0
  149.1592  142.2967  158.0731 O   0  0  0  0  0  0  0  0  0  0  0  0
  151.5507  142.2877  158.3302 C   0  0  1  0  0  0  0  0  0  0  0  0
  151.6318  143.7693  157.9542 C   0  0  0  0  0  0  0  0  0  0  0  0
  152.4599  144.3308  159.0863 C   0  0  0  0  0  0  0  0  0  0  0  0
  151.9200  143.5452  160.2761 C   0  0  0  0  0  0  0  0  0  0  0  0
  151.5196  142.2797  159.7570 O   0  0  0  0  0  0  0  0  0  0  0  0
  151.2886  134.0696  156.4419 C   0  0  0  0  0  0  0  0  0  0  0  0
  148.0128  133.6758  156.9330 H   0  0  0  0  0  0  0  0  0  0  0  0
  148.1404  135.2878  156.2807 H   0  0  0  0  0  0  0  0  0  0  0  0
  148.5917  132.6312  155.6675 H   0  0  0  0  0  0  0  0  0  0  0  0
  150.7200  134.5748  153.8929 H   0  0  0  0  0  0  0  0  0  0  0  0
  149.7081  135.8770  154.6307 H   0  0  0  0  0  0  0  0  0  0  0  0
  151.5829  137.6409  159.5514 H   0  0  0  0  0  0  0  0  0  0  0  0
  150.3479  140.0472  153.7140 H   0  0  0  0  0  0  0  0  0  0  0  0
  151.2219  141.9652  155.8212 H   0  0  0  0  0  0  0  0  0  0  0  0
  149.4919  141.7208  155.7510 H   0  0  0  0  0  0  0  0  0  0  0  0
  150.2358  140.5765  158.2367 H   0  0  0  0  0  0  0  0  0  0  0  0
  148.8534  142.7204  157.2856 H   0  0  0  0  0  0  0  0  0  0  0  0
  152.4698  141.7891  158.0175 H   0  0  0  0  0  0  0  0  0  0  0  0
  152.0800  143.9363  156.9744 H   0  0  0  0  0  0  0  0  0  0  0  0
  150.6399  144.2240  157.9582 H   0  0  0  0  0  0  0  0  0  0  0  0
  153.5148  144.1017  158.9291 H   0  0  0  0  0  0  0  0  0  0  0  0
  152.3560  145.4097  159.2034 H   0  0  0  0  0  0  0  0  0  0  0  0
  152.6565  143.4365  161.0727 H   0  0  0  0  0  0  0  0  0  0  0  0
  151.0417  144.0410  160.6919 H   0  0  0  0  0  0  0  0  0  0  0  0
  151.3383  134.1061  157.5299 H   0  0  0  0  0  0  0  0  0  0  0  0
  151.9246  133.2748  156.0493 H   0  0  0  0  0  0  0  0  0  0  0  0
  1  2  3  0  0  0  0
  2  3  1  0  0  0  0
  3  4  1  0  0  0  0
  3 26  1  0  0  0  0
  3 27  1  0  0  0  0
  4 25  1  0  0  0  0
  4  5  1  0  0  0  0
  4  6  1  0  0  0  0
  5 28  1  0  0  0  0
  6  7  1  0  0  0  0
  6 29  1  0  0  0  0
  6 30  1  0  0  0  0
  7  8  1  0  0  0  0
  7 25  1  0  0  0  0
  8 13  1  0  0  0  0
  8  9  2  0  0  0  0
  9 10  1  0  0  0  0
 10 11  2  0  0  0  0
 10 31  1  0  0  0  0
 11 12  1  0  0  0  0
 12 16  1  0  0  0  0
 12 13  2  0  0  0  0
 13 14  1  0  0  0  0
 14 15  2  0  0  0  0
 15 16  1  0  0  0  0
 15 32  1  0  0  0  0
 16 17  1  0  0  0  0
 17 18  1  0  0  0  0
 17 33  1  0  0  0  0
 17 34  1  0  0  0  0
 18 19  1  0  0  0  0
 18 20  1  0  0  0  0
 18 35  1  0  0  0  0
 19 36  1  0  0  0  0
 20 24  1  0  0  0  0
 20 21  1  0  0  0  0
 20 37  1  0  0  0  0
 21 22  1  0  0  0  0
 21 38  1  0  0  0  0
 21 39  1  0  0  0  0
 22 23  1  0  0  0  0
 22 40  1  0  0  0  0
 22 41  1  0  0  0  0
 23 24  1  0  0  0  0
 23 42  1  0  0  0  0
 23 43  1  0  0  0  0
 25 44  1  0  0  0  0
 25 45  1  0  0  0  0
M  END
> <s_m_source_file>
AV-unprocessed.smi

> <i_m_source_file_index>
195

> <i_lp_mmshare_version>
43012

> <i_f3d_flags>
0

> <s_epik_input>
TiNDW0NIMl1DMShbT0hdKVtDSDJdTihbQ0gyXTEpYyhuW2NIXW4yKWMoYzIzKW5bY0hdbjNbQ0gyXVtDQEhdKFtPSF0pW0NAQEhdNFtDSDJdW0NIMl1bQ0gyXU80

> <s_epik_cmdline>
J2VwaWtfcHl0aG9uJywgJy1waCcsICc3LjAnLCAnLXRuJywgJzgnLCAnLW1hJywgJzIwMCcsICctbWV0YWxfYmluZGluZycsICctaW1hZScsICc8aW5maWxlLm1hZT4nLCAnLW9tYWUnLCAnPG91dGZpbGUubWFlPic=

> <r_lp_tautomer_probability>
1

> <r_epik_Ionization_Penalty>
0.00307146

> <r_epik_Ionization_Penalty_Charging>
0

> <r_epik_Ionization_Penalty_Neutral>
0.00307146

> <r_epik_State_Penalty>
0.0020279

> <r_epik_Charging_Adjusted_Penalty>
0.0020279

> <i_epik_Tot_Q>
0

> <i_epik_Tot_abs_Q>
0

> <r_epik_Metal_State_Penalty>
-0

> <b_epik_Metal_Only>
0

> <s_lp_Force_Field>
OPLS_2005

> <r_lp_Energy>
44.1004

> <b_lp_Chiralities_Consistent>
1

> <s_lp_Variant>
AV-unprocessed.smi:195-3

> <Gold.Version>
5.8.1

> <Gold.Id.Protein>
6NUR|6NUR_protein|mol2

> <Gold.PLP.Fitness>
46.1239

> <Gold.PLP.PLP>
-38.2518

> <Gold.PLP.part.hbond>
-3.0000

> <Gold.PLP.part.metal>
0.0000

> <Gold.PLP.part.buried>
-4.0283

> <Gold.PLP.part.nonpolar>
-32.1812

> <Gold.PLP.part.repulsive>
0.2394

> <Gold.PLP.ligand.clash>
0.0000

> <Gold.PLP.ligand.torsion>
2.2403

> <Gold.PLP.Chemscore.Hbond>
3.0000

> <Gold.PLP.Chemscore.CHOScore>
1.0000

> <Gold.PLP.Chemscore.Metal>
0.0000

> <Gold.Chemscore.Hbonds>
donor molecule, donor type, donor heavy atom, donor atom, acceptor molecule, acceptor atom, score
      P1  H  6896  6909       L1     1  0.96
      P1  H 10752 10764       L1     7  0.88
      L1  C    15    32       P1  7957  0.70

> <Gold.PLP.Chemscore.Internal.Correction>
0.3527

> <Gold.Rescore>
     Score         DG    S(hbond)    S(metal)    S(lipo)     H(rot)  DE(clash)    DE(int)     intcor
      7.89     -13.20       2.21        0.00      84.24       3.72       1.79       3.51       ----

> <Gold.Chemscore.Fitness>
7.8945

> <Gold.Chemscore.DG>
-13.1952

> <Gold.Chemscore.ZeroCoef>
-5.4800

> <Gold.Chemscore.Hbond>
2.2112

> <Gold.Chemscore.Metal>
0.0000

> <Gold.Chemscore.Lipo>
84.2351

> <Gold.Chemscore.Internal_Hbond>
0.0000

> <Gold.Chemscore.DEClash>
1.7903

> <Gold.Chemscore.DEInternal>
3.5104

> <Gold.Chemscore.Rot>
3.7210

> <Gold.Chemscore.Internal.Correction>
   9.000000E+99

> <Gold.Chemscore.Hbonds>
donor molecule, donor type, donor heavy atom, donor atom, acceptor molecule, acceptor atom, score
      P1  H  6896  6909       L1     1  0.60
      P1  H 10752 10764       L1     7  0.24

> <Gold.Chemscore.Hbond.Weighted>
-7.3853

> <Gold.Chemscore.Metal.Weighted>
-0.0000

> <Gold.Chemscore.Lipo.Weighted>
-9.8555

> <Gold.Chemscore.Internal_Hbond.Weighted>
0.0000

> <Gold.Chemscore.DEClash.Weighted>
1.7903

> <Gold.Chemscore.DEInternal.Weighted>
3.5104

> <Gold.Chemscore.Rot.Weighted>
9.5256

> <Gold.Chemscore.Internal.Correction.Weighted>
   9.000000E+99

> <Gold.Protein.RotatedTorsions>
[ 6907 6896 6895 6894 ] final   48.59 input  -60.11 | X-H torsion
[ 7974 7965 7964 7962 ] final  -28.80 input  175.53 | X-H torsion
[ 8008 7997 7996 7995 ] final   41.14 input   59.86 | X-H torsion
[ 10167 10162 10161 10158 ] final  -51.83 input  -65.29 | X-H torsion
[ 10718 10713 10712 10709 ] final  128.15 input   66.30 | X-H torsion
[ 10763 10752 10751 10750 ] final  -57.81 input  -60.55 | X-H torsion
[ 11005 11000 10999 10996 ] final -170.57 input  -57.11 | X-H torsion

> <Gold.Protein.ActiveResidues>
 VAL166  LYS551  ARG553  GLY616  TRP617  ASP618  TYR619  PRO620  LYS621  CYS622 
 ASP623  PHE694  ASN695  SER759  ASP760  ASP761  ALA762  ILE779  LEU786  VAL792 
 PHE793  MET794  SER795  GLU796  ALA797  LYS798  CYS799  TRP800  GLU811  SER814 

> <Gold.Protein.RotatedAtoms>
  152.2812  134.7826  160.0395 H   0  0  0  0  0  0  0  0  0  0  0  0  # atno 6907 bound_to 6896
  151.8405  133.3417  159.3649 H   0  0  0  0  0  0  0  0  0  0  0  0  # atno 6908 bound_to 6896
  150.7190  134.5324  159.5751 H   0  0  0  0  0  0  0  0  0  0  0  0  # atno 6909 bound_to 6896
  146.1262  140.5329  142.8713 H   0  0  0  0  0  0  0  0  0  0  0  0  # atno 7974 bound_to 7965
  155.2648  140.3362  155.4270 H   0  0  0  0  0  0  0  0  0  0  0  0  # atno 8008 bound_to 7997
  156.2159  140.1789  156.7633 H   0  0  0  0  0  0  0  0  0  0  0  0  # atno 8009 bound_to 7997
  154.5752  140.0663  156.9009 H   0  0  0  0  0  0  0  0  0  0  0  0  # atno 8010 bound_to 7997
  140.6568  143.2605  151.4560 H   0  0  0  0  0  0  0  0  0  0  0  0  # atno 10167 bound_to 10162
  157.5270  131.1098  150.9067 H   0  0  0  0  0  0  0  0  0  0  0  0  # atno 10718 bound_to 10713
  154.2283  135.6365  153.5167 H   0  0  0  0  0  0  0  0  0  0  0  0  # atno 10763 bound_to 10752
  152.9954  135.5513  154.6040 H   0  0  0  0  0  0  0  0  0  0  0  0  # atno 10764 bound_to 10752
  154.5517  135.2902  155.0976 H   0  0  0  0  0  0  0  0  0  0  0  0  # atno 10765 bound_to 10752
  140.5180  134.5737  157.5039 H   0  0  0  0  0  0  0  0  0  0  0  0  # atno 11005 bound_to 11000
  144.7645  140.5499  143.6712 LP  0  0  0  0  0  0  0  0  0  0  0  0  # atno 17320 bound_to 7965
  145.5359  139.1475  143.3474 LP  0  0  0  0  0  0  0  0  0  0  0  0  # atno 17321 bound_to 7965
  139.5793  144.1746  152.1946 LP  0  0  0  0  0  0  0  0  0  0  0  0  # atno 17342 bound_to 10162
  140.1067  144.5493  150.6952 LP  0  0  0  0  0  0  0  0  0  0  0  0  # atno 17343 bound_to 10162
  156.9660  130.5473  149.5288 LP  0  0  0  0  0  0  0  0  0  0  0  0  # atno 17370 bound_to 10713
  156.0394  130.5478  150.8734 LP  0  0  0  0  0  0  0  0  0  0  0  0  # atno 17371 bound_to 10713
  139.9621  134.7434  156.0214 LP  0  0  0  0  0  0  0  0  0  0  0  0  # atno 17394 bound_to 11000
  141.1349  133.6577  156.3567 LP  0  0  0  0  0  0  0  0  0  0  0  0  # atno 17395 bound_to 11000

$$$$
