AV-unprocessed.smi:287|AV-procd|sdf|2197|dock9
  -GOLD-   2262022 03D 1   1.00000     0.00000
 Structure written by MMmdl.
 55 58  0  0  0  0  0  0  0  0  1 V2000
  153.3283  130.9014  157.3555 C   0  0  0  0  0  0  0  0  0  0  0  0
  152.1471  131.3099  156.5440 C   0  0  0  0  0  0  0  0  0  0  0  0
  151.5018  132.4958  156.3472 C   0  0  0  0  0  0  0  0  0  0  0  0
  150.4181  132.2485  155.4524 C   0  0  0  0  0  0  0  0  0  0  0  0
  149.4198  133.2851  154.9538 C   0  0  1  0  0  0  0  0  0  0  0  0
  148.6406  132.7262  153.7515 C   0  0  0  0  0  0  0  0  0  0  0  0
  148.4359  133.6113  155.9162 O   0  0  0  0  0  0  0  0  0  0  0  0
  150.1020  134.6181  154.5717 C   0  0  0  0  0  0  0  0  0  0  0  0
  150.0841  135.5939  155.6540 N   0  0  0  0  0  0  0  0  0  0  0  0
  150.7114  136.7822  155.5305 C   0  0  0  0  0  0  0  0  0  0  0  0
  151.4242  136.9478  154.3908 N   0  0  0  0  0  0  0  0  0  0  0  0
  152.0809  138.0893  154.1679 C   0  0  0  0  0  0  0  0  0  0  0  0
  152.1561  139.1730  154.9425 N   0  0  0  0  0  0  0  0  0  0  0  0
  151.4422  139.0130  156.0944 C   0  0  0  0  0  0  0  0  0  0  0  0
  150.6945  137.8592  156.4662 C   0  0  0  0  0  0  0  0  0  0  0  0
  150.1067  138.0782  157.7076 N   0  0  0  0  0  0  0  0  0  0  0  0
  150.4837  139.2832  158.0392 C   0  0  0  0  0  0  0  0  0  0  0  0
  151.2888  139.9208  157.1200 N   0  0  0  0  0  0  0  0  0  0  0  0
  151.8992  141.2919  157.1719 C   0  0  2  0  0  0  0  0  0  0  0  0
  152.3004  141.5278  158.4856 O   0  0  0  0  0  0  0  0  0  0  0  0
  151.3780  142.3754  159.1782 C   0  0  1  0  0  0  0  0  0  0  0  0
  152.1739  143.6312  159.5924 C   0  0  0  0  0  0  0  0  0  0  0  0
  152.6217  144.3141  158.4409 O   0  0  0  0  0  0  0  0  0  0  0  0
  150.2257  142.6189  158.1786 C   0  0  1  0  0  0  0  0  0  0  0  0
  149.6656  143.9157  158.2550 O   0  0  0  0  0  0  0  0  0  0  0  0
  150.8769  142.3839  156.8268 C   0  0  2  0  0  0  0  0  0  0  0  0
  149.9203  141.9952  155.8574 O   0  0  0  0  0  0  0  0  0  0  0  0
  150.5004  130.9070  155.1648 C   0  0  0  0  0  0  0  0  0  0  0  0
  149.7055  129.9777  154.3077 C   0  0  0  0  0  0  0  0  0  0  0  0
  151.5446  130.3311  155.8236 O   0  0  0  0  0  0  0  0  0  0  0  0
  152.7521  141.2437  156.4941 H   0  0  0  0  0  0  0  0  0  0  0  0
  150.9898  141.8738  160.0657 H   0  0  0  0  0  0  0  0  0  0  0  0
  149.4403  141.8809  158.3501 H   0  0  0  0  0  0  0  0  0  0  0  0
  151.4241  143.2676  156.4951 H   0  0  0  0  0  0  0  0  0  0  0  0
  153.5634  131.6561  158.1062 H   0  0  0  0  0  0  0  0  0  0  0  0
  154.2048  130.7700  156.7210 H   0  0  0  0  0  0  0  0  0  0  0  0
  153.1386  129.9601  157.8720 H   0  0  0  0  0  0  0  0  0  0  0  0
  151.7728  133.4381  156.8001 H   0  0  0  0  0  0  0  0  0  0  0  0
  149.3099  132.4728  152.9286 H   0  0  0  0  0  0  0  0  0  0  0  0
  147.9176  133.4497  153.3723 H   0  0  0  0  0  0  0  0  0  0  0  0
  148.0935  131.8213  154.0197 H   0  0  0  0  0  0  0  0  0  0  0  0
  147.9467  134.3567  155.6036 H   0  0  0  0  0  0  0  0  0  0  0  0
  151.1486  134.4154  154.3403 H   0  0  0  0  0  0  0  0  0  0  0  0
  149.6531  135.0389  153.6709 H   0  0  0  0  0  0  0  0  0  0  0  0
  149.6239  135.2956  156.5022 H   0  0  0  0  0  0  0  0  0  0  0  0
  152.6227  138.1417  153.2351 H   0  0  0  0  0  0  0  0  0  0  0  0
  150.1799  139.7362  158.9711 H   0  0  0  0  0  0  0  0  0  0  0  0
  151.5779  144.2944  160.2202 H   0  0  0  0  0  0  0  0  0  0  0  0
  153.0679  143.3651  160.1561 H   0  0  0  0  0  0  0  0  0  0  0  0
  153.3280  143.8195  158.0540 H   0  0  0  0  0  0  0  0  0  0  0  0
  149.6305  144.2751  157.3813 H   0  0  0  0  0  0  0  0  0  0  0  0
  149.3962  142.7499  155.6349 H   0  0  0  0  0  0  0  0  0  0  0  0
  149.6813  130.3288  153.2760 H   0  0  0  0  0  0  0  0  0  0  0  0
  148.6787  129.9059  154.6663 H   0  0  0  0  0  0  0  0  0  0  0  0
  150.1324  128.9743  154.3104 H   0  0  0  0  0  0  0  0  0  0  0  0
  1  2  1  0  0  0  0
  1 35  1  0  0  0  0
  1 36  1  0  0  0  0
  1 37  1  0  0  0  0
  2 30  1  0  0  0  0
  2  3  2  0  0  0  0
  3  4  1  0  0  0  0
  3 38  1  0  0  0  0
  4  5  1  0  0  0  0
  4 28  2  0  0  0  0
  5  6  1  0  0  0  0
  5  7  1  0  0  0  0
  5  8  1  0  0  0  0
  6 39  1  0  0  0  0
  6 40  1  0  0  0  0
  6 41  1  0  0  0  0
  7 42  1  0  0  0  0
  8  9  1  0  0  0  0
  8 43  1  0  0  0  0
  8 44  1  0  0  0  0
  9 10  1  0  0  0  0
  9 45  1  0  0  0  0
 10 15  1  0  0  0  0
 10 11  2  0  0  0  0
 11 12  1  0  0  0  0
 12 13  2  0  0  0  0
 12 46  1  0  0  0  0
 13 14  1  0  0  0  0
 14 18  1  0  0  0  0
 14 15  2  0  0  0  0
 15 16  1  0  0  0  0
 16 17  2  0  0  0  0
 17 18  1  0  0  0  0
 17 47  1  0  0  0  0
 18 19  1  0  0  0  0
 19 31  1  0  0  0  0
 19 26  1  0  0  0  0
 19 20  1  0  0  0  0
 20 21  1  0  0  0  0
 21 32  1  0  0  0  0
 21 22  1  0  0  0  0
 21 24  1  0  0  0  0
 22 23  1  0  0  0  0
 22 48  1  0  0  0  0
 22 49  1  0  0  0  0
 23 50  1  0  0  0  0
 24 33  1  0  0  0  0
 24 25  1  0  0  0  0
 24 26  1  0  0  0  0
 25 51  1  0  0  0  0
 26 34  1  0  0  0  0
 26 27  1  0  0  0  0
 27 52  1  0  0  0  0
 28 29  1  0  0  0  0
 28 30  1  0  0  0  0
 29 53  1  0  0  0  0
 29 54  1  0  0  0  0
 29 55  1  0  0  0  0
M  END
> <s_m_source_file>
AV-unprocessed.smi

> <i_m_source_file_index>
287

> <i_lp_mmshare_version>
43012

> <i_f3d_flags>
0

> <s_epik_input>
W0NIM11jMVtjSF1jKGMobzEpW0NIM10pW0NAQF0oW0NIM10pKFtPSF0pW0NIMl1bTkhdYyhuW2NIXW4yKWMoYzIzKW5bY0hdbjNbQ0BASF00T1tDQEhdKFtDSDJdW09IXSlbQ0BASF0oW09IXSlbQ0BIXTRbT0hd

> <s_epik_cmdline>
J2VwaWtfcHl0aG9uJywgJy1waCcsICc3LjAnLCAnLXRuJywgJzgnLCAnLW1hJywgJzIwMCcsICctbWV0YWxfYmluZGluZycsICctaW1hZScsICc8aW5maWxlLm1hZT4nLCAnLW9tYWUnLCAnPG91dGZpbGUubWFlPic=

> <r_lp_tautomer_probability>
1

> <r_epik_Ionization_Penalty>
0.000992612

> <r_epik_Ionization_Penalty_Charging>
0

> <r_epik_Ionization_Penalty_Neutral>
0.000992612

> <r_epik_State_Penalty>
-0

> <r_epik_Charging_Adjusted_Penalty>
0

> <i_epik_Tot_Q>
0

> <i_epik_Tot_abs_Q>
0

> <r_epik_Metal_State_Penalty>
-0

> <b_epik_Metal_Only>
0

> <s_epik_Chemistry_Notes>
This compound contains an acetal/aminal-like group ( X-CH(R)-Y where X, Y are N, S, or O) that may be acid/base labile, releasing an aldehyde.

> <s_lp_Force_Field>
OPLS_2005

> <r_lp_Energy>
44.9714

> <b_lp_Chiralities_Consistent>
1

> <s_lp_Variant>
AV-unprocessed.smi:287-21

> <Gold.Version>
5.8.1

> <Gold.Id.Protein>
6NUR|6NUR_protein|mol2

> <Gold.PLP.Fitness>
49.7776

> <Gold.PLP.PLP>
-43.4106

> <Gold.PLP.part.hbond>
-4.7029

> <Gold.PLP.part.metal>
0.0000

> <Gold.PLP.part.buried>
-8.9477

> <Gold.PLP.part.nonpolar>
-30.7382

> <Gold.PLP.part.repulsive>
0.7938

> <Gold.PLP.ligand.clash>
0.0119

> <Gold.PLP.ligand.torsion>
1.8989

> <Gold.PLP.Chemscore.Hbond>
3.3647

> <Gold.PLP.Chemscore.CHOScore>
0.0000

> <Gold.PLP.Chemscore.Metal>
0.0000

> <Gold.Chemscore.Hbonds>
donor molecule, donor type, donor heavy atom, donor atom, acceptor molecule, acceptor atom, score
      L1  H    25    51       P1  8028  0.95
      L1  H    27    52       P1  8028  0.99
      P1  H  7989  7998       L1    13  0.36
      P1  H 10752 10763       L1    11  1.00

> <Gold.PLP.Chemscore.Internal.Correction>
0.0827

> <Gold.Rescore>
     Score         DG    S(hbond)    S(metal)    S(lipo)     H(rot)  DE(clash)    DE(int)     intcor
      7.35     -11.00       2.68        0.00      85.93       5.27       0.19       3.47       ----

> <Gold.Chemscore.Fitness>
7.3461

> <Gold.Chemscore.DG>
-11.0043

> <Gold.Chemscore.ZeroCoef>
-5.4800

> <Gold.Chemscore.Hbond>
2.6811

> <Gold.Chemscore.Metal>
0.0000

> <Gold.Chemscore.Lipo>
85.9272

> <Gold.Chemscore.Internal_Hbond>
0.0000

> <Gold.Chemscore.DEClash>
0.1883

> <Gold.Chemscore.DEInternal>
3.4699

> <Gold.Chemscore.Rot>
5.2672

> <Gold.Chemscore.Internal.Correction>
   9.000000E+99

> <Gold.Chemscore.Hbonds>
donor molecule, donor type, donor heavy atom, donor atom, acceptor molecule, acceptor atom, score
      L1  H    25    51       P1  8028  0.21
      L1  H    27    52       P1  8028  0.91
      P1  H  7989  7998       L1    13  0.13
      P1  H 10752 10763       L1    11  0.20

> <Gold.Chemscore.Hbond.Weighted>
-8.9548

> <Gold.Chemscore.Metal.Weighted>
-0.0000

> <Gold.Chemscore.Lipo.Weighted>
-10.0535

> <Gold.Chemscore.Internal_Hbond.Weighted>
0.0000

> <Gold.Chemscore.DEClash.Weighted>
0.1883

> <Gold.Chemscore.DEInternal.Weighted>
3.4699

> <Gold.Chemscore.Rot.Weighted>
13.4839

> <Gold.Chemscore.Internal.Correction.Weighted>
   9.000000E+99

> <Gold.Protein.RotatedTorsions>
[ 6907 6896 6895 6894 ] final -138.56 input  -60.11 | X-H torsion
[ 7974 7965 7964 7962 ] final  -10.63 input  175.53 | X-H torsion
[ 8008 7997 7996 7995 ] final -149.01 input   59.86 | X-H torsion
[ 10167 10162 10161 10158 ] final  -80.32 input  -65.29 | X-H torsion
[ 10718 10713 10712 10709 ] final -163.11 input   66.30 | X-H torsion
[ 10763 10752 10751 10750 ] final   46.18 input  -60.55 | X-H torsion
[ 11005 11000 10999 10996 ] final -161.50 input  -57.11 | X-H torsion

> <Gold.Protein.ActiveResidues>
 VAL166  LYS551  ARG553  GLY616  TRP617  ASP618  TYR619  PRO620  LYS621  CYS622 
 ASP623  PHE694  ASN695  SER759  ASP760  ASP761  ALA762  ILE779  LEU786  VAL792 
 PHE793  MET794  SER795  GLU796  ALA797  LYS798  CYS799  TRP800  GLU811  SER814 

> <Gold.Protein.RotatedAtoms>
  151.0365  133.5743  159.2655 H   0  0  0  0  0  0  0  0  0  0  0  0  # atno 6907 bound_to 6896
  151.2806  135.0711  159.9177 H   0  0  0  0  0  0  0  0  0  0  0  0  # atno 6908 bound_to 6896
  152.5355  134.0081  159.7979 H   0  0  0  0  0  0  0  0  0  0  0  0  # atno 6909 bound_to 6896
  146.2214  140.2793  142.8361 H   0  0  0  0  0  0  0  0  0  0  0  0  # atno 7974 bound_to 7965
  155.6008  140.0662  157.2733 H   0  0  0  0  0  0  0  0  0  0  0  0  # atno 8008 bound_to 7997
  154.4279  140.1818  156.1219 H   0  0  0  0  0  0  0  0  0  0  0  0  # atno 8009 bound_to 7997
  156.0160  140.3321  155.6993 H   0  0  0  0  0  0  0  0  0  0  0  0  # atno 8010 bound_to 7997
  140.4514  143.2482  151.8483 H   0  0  0  0  0  0  0  0  0  0  0  0  # atno 10167 bound_to 10162
  156.6200  130.8886  151.2955 H   0  0  0  0  0  0  0  0  0  0  0  0  # atno 10718 bound_to 10713
  152.9814  135.6016  154.3558 H   0  0  0  0  0  0  0  0  0  0  0  0  # atno 10763 bound_to 10752
  154.3244  135.2769  155.2505 H   0  0  0  0  0  0  0  0  0  0  0  0  # atno 10764 bound_to 10752
  154.4657  135.5954  153.6342 H   0  0  0  0  0  0  0  0  0  0  0  0  # atno 10765 bound_to 10752
  140.6197  134.4763  157.5222 H   0  0  0  0  0  0  0  0  0  0  0  0  # atno 11005 bound_to 11000
  144.9209  140.7867  143.5749 LP  0  0  0  0  0  0  0  0  0  0  0  0  # atno 17320 bound_to 7965
  145.2729  139.1947  143.4832 LP  0  0  0  0  0  0  0  0  0  0  0  0  # atno 17321 bound_to 7965
  139.4797  144.5115  151.8925 LP  0  0  0  0  0  0  0  0  0  0  0  0  # atno 17342 bound_to 10162
  140.4202  144.2253  150.5887 LP  0  0  0  0  0  0  0  0  0  0  0  0  # atno 17343 bound_to 10162
  157.7230  130.9584  150.1517 LP  0  0  0  0  0  0  0  0  0  0  0  0  # atno 17370 bound_to 10713
  156.2319  130.3683  149.8435 LP  0  0  0  0  0  0  0  0  0  0  0  0  # atno 17371 bound_to 10713
  139.9158  134.8249  156.1371 LP  0  0  0  0  0  0  0  0  0  0  0  0  # atno 17394 bound_to 11000
  141.0751  133.6779  156.2219 LP  0  0  0  0  0  0  0  0  0  0  0  0  # atno 17395 bound_to 11000

$$$$
