#       Name:                AV-unprocessed.smi:2784
#       Creating user name   scv26
#       Creation time:       Fri Mar 27 15:17:50 2020


#       File generated by GOLD software.
#

@<TRIPOS>MOLECULE
AV-unprocessed.smi:2784
    38    39     1
SMALL
NO_CHARGES


@<TRIPOS>ATOM
      1 ****        -1.4676   1.1332  -1.9775 C.3            1 S1                 0.0000
      2 ****        -1.0724  -0.2282  -2.0150 O.3            1 S1                 0.0000
      3 ****         0.3293  -0.4148  -2.1926 C.3            1 S1                 0.0000
      4 ****         0.4952  -1.4777  -3.2800 C.3            1 S1                 0.0000
      5 ****         0.3348  -2.8022  -2.5396 C.3            1 S1                 0.0000
      6 ****         0.9992  -2.5682  -1.1806 C.3            1 S1                 0.0000
      7 ****         0.9751  -1.0460  -0.9366 C.3            1 S1                 0.0000
      8 ****         0.2613  -0.7241   0.2980 N.am           1 S1                 0.0000
      9 ****         0.4711   0.3591   1.0607 C.2            1 S1                 0.0000
     10 ****         1.3282   1.1983   0.7664 O.2            1 S1                 0.0000
     11 ****        -0.3982   0.3521   2.1419 N.2            1 S1                 0.0000
     12 ****        -0.3483   1.3105   3.0146 C.2            1 S1                 0.0000
     13 ****        -1.1372   1.4675   4.1429 N.pl3          1 S1                 0.0000
     14 ****        -0.7459   2.6123   4.7804 C.2            1 S1                 0.0000
     15 ****         0.2481   3.1549   4.0833 C.2            1 S1                 0.0000
     16 ****         0.5156   2.3814   2.9943 O.3            1 S1                 0.0000
     17 ****        -2.5410   1.1976  -1.8005 H              1 S1                 0.0000
     18 ****        -1.2520   1.6282  -2.9252 H              1 S1                 0.0000
     19 ****        -0.9608   1.6745  -1.1781 H              1 S1                 0.0000
     20 ****         0.8299   0.5123  -2.4797 H              1 S1                 0.0000
     21 ****        -0.2150  -1.3618  -4.0994 H              1 S1                 0.0000
     22 ****         1.4994  -1.4163  -3.7017 H              1 S1                 0.0000
     23 ****        -0.7258  -3.0142  -2.3980 H              1 S1                 0.0000
     24 ****         0.7717  -3.6416  -3.0811 H              1 S1                 0.0000
     25 ****         0.4959  -3.1352  -0.3960 H              1 S1                 0.0000
     26 ****         2.0329  -2.9150  -1.2096 H              1 S1                 0.0000
     27 ****         2.0107  -0.7084  -0.8635 H              1 S1                 0.0000
     28 ****        -0.4602  -1.3693   0.5855 H              1 S1                 0.0000
     29 ****        -1.8814   0.8704   4.4734 H              1 S1                 0.0000
     30 ****        -1.2350   2.9250   5.6913 H              1 S1                 0.0000
     31 ****         0.8418   4.0460   4.2231 H              1 S1                 0.0000
     32 ****        -1.5485  -0.6741  -2.7730 LP             1 S1                 0.0000
     33 ****        -1.3412  -0.6585  -1.1533 LP             1 S1                 0.0000
     34 ****         1.8840   1.0781  -0.0562 LP             1 S1                 0.0000
     35 ****         1.4664   1.9980   1.3507 LP             1 S1                 0.0000
     36 ****        -1.0609  -0.3892   2.2480 LP             1 S1                 0.0000
     37 ****         0.3789   2.9126   2.1581 LP             1 S1                 0.0000
     38 ****         1.4606   2.0565   3.0319 LP             1 S1                 0.0000
@<TRIPOS>BOND
    1    1    2 1     
    2    1   17 1     
    3    1   18 1     
    4    1   19 1     
    5    2    3 1     
    6    3    7 1     
    7    3    4 1     
    8    3   20 1     
    9    4    5 1     
   10    4   21 1     
   11    4   22 1     
   12    5    6 1     
   13    5   23 1     
   14    5   24 1     
   15    6    7 1     
   16    6   25 1     
   17    6   26 1     
   18    7    8 1     
   19    7   27 1     
   20    8   28 1     
   21    8    9 am    
   22    9   11 1     
   23    9   10 2     
   24   11   12 2     
   25   12   16 1     
   26   12   13 1     
   27   13   29 1     
   28   13   14 1     
   29   14   30 1     
   30   14   15 2     
   31   15   31 1     
   32   15   16 1     
   33    2   32 1     
   34    2   33 1     
   35   10   34 1     
   36   10   35 1     
   37   11   36 1     
   38   16   37 1     
   39   16   38 1     
@<TRIPOS>SUBSTRUCTURE
      1 S1             1
@<TRIPOS>SET
LONE_PAIRS      STATIC     ATOMS    <user>   **** ""
7 32 33 34 35 36 37 38
DONOR_HYDROGENS      STATIC     ATOMS    <user>   **** ""
2 28 29
ATOM$BLUE        STATIC     ATOMS    COLORGROUP SYSTEM
7 32 33 34 35 36 37 38
ATOM$RED        STATIC     ATOMS    COLORGROUP SYSTEM
2 28 29
