#       Name:                AV-unprocessed.smi:69
#       Creating user name   scv26
#       Creation time:       Thu Mar 26 16:54:56 2020


#       File generated by GOLD software.
#

@<TRIPOS>MOLECULE
AV-unprocessed.smi:69
    43    45     1
SMALL
NO_CHARGES


@<TRIPOS>ATOM
      1 ****        -5.2765   1.2009  -0.1102 N.pl3          1 S1                 0.0000
      2 ****        -3.9913   1.5799  -0.0905 C.ar           1 S1                 0.0000
      3 ****        -3.7108   2.8948   0.0697 N.ar           1 S1                 0.0000
      4 ****        -2.4360   3.2989   0.0960 C.ar           1 S1                 0.0000
      5 ****        -1.3241   2.5670  -0.0189 N.ar           1 S1                 0.0000
      6 ****        -1.6130   1.2428  -0.1821 C.ar           1 S1                 0.0000
      7 ****        -2.9131   0.6698  -0.2272 C.ar           1 S1                 0.0000
      8 ****        -2.8175  -0.7053  -0.3995 N.2            1 S1                 0.0000
      9 ****        -1.5306  -0.9271  -0.4511 C.2            1 S1                 0.0000
     10 ****        -0.7350   0.1925  -0.3279 N.pl3          1 S1                 0.0000
     11 ****         0.7561   0.2945  -0.3313 C.3            1 S1                 0.0000
     12 ****         1.2663  -0.8166  -0.9887 O.3            1 S1                 0.0000
     13 ****         2.6050  -0.9942  -0.5552 C.3            1 S1                 0.0000
     14 ****         3.0822  -2.4146  -0.8931 C.3            1 S1                 0.0000
     15 ****         3.5078  -2.4751  -2.2375 O.3            1 S1                 0.0000
     16 ****         2.5121  -0.7206   0.9532 C.3            1 S1                 0.0000
     17 ****         3.7234  -0.1614   1.4202 O.3            1 S1                 0.0000
     18 ****         1.3684   0.2870   1.0848 C.3            1 S1                 0.0000
     19 ****         0.4659  -0.1075   2.1038 O.3            1 S1                 0.0000
     20 ****         0.9866   1.1999  -0.8959 H              1 S1                 0.0000
     21 ****         3.2349  -0.2412  -1.0350 H              1 S1                 0.0000
     22 ****         2.2878  -1.6411   1.4950 H              1 S1                 0.0000
     23 ****         1.7257   1.2948   1.3025 H              1 S1                 0.0000
     24 ****        -5.5111   0.2256  -0.2269 H              1 S1                 0.0000
     25 ****        -6.0068   1.8905  -0.0068 H              1 S1                 0.0000
     26 ****        -2.2853   4.3601   0.2286 H              1 S1                 0.0000
     27 ****        -1.1254  -1.9207  -0.5770 H              1 S1                 0.0000
     28 ****         3.9351  -2.6811  -0.2684 H              1 S1                 0.0000
     29 ****         2.3002  -3.1514  -0.7072 H              1 S1                 0.0000
     30 ****         3.8197  -3.3493  -2.4153 H              1 S1                 0.0000
     31 ****         3.6258   0.0388   2.3389 H              1 S1                 0.0000
     32 ****         0.0740  -0.9301   1.8535 H              1 S1                 0.0000
     33 ****        -4.4517   3.5593   0.1677 LP             1 S1                 0.0000
     34 ****        -0.3975   2.9418   0.0109 LP             1 S1                 0.0000
     35 ****        -3.5607  -1.3709  -0.4681 LP             1 S1                 0.0000
     36 ****         1.2449  -0.6675  -1.9773 LP             1 S1                 0.0000
     37 ****         0.7242  -1.6258  -0.7619 LP             1 S1                 0.0000
     38 ****         4.2456  -1.8170  -2.3874 LP             1 S1                 0.0000
     39 ****         2.7418  -2.2608  -2.8435 LP             1 S1                 0.0000
     40 ****         3.9268   0.6755   0.9121 LP             1 S1                 0.0000
     41 ****         4.4682  -0.8168   1.2948 LP             1 S1                 0.0000
     42 ****        -0.2459   0.5866   2.2117 LP             1 S1                 0.0000
     43 ****         0.9584  -0.2170   2.9672 LP             1 S1                 0.0000
@<TRIPOS>BOND
    1    1    2 1     
    2    1   24 1     
    3    1   25 1     
    4    2    7 ar    
    5    2    3 ar    
    6    3    4 ar    
    7    4    5 ar    
    8    4   26 1     
    9    5    6 ar    
   10    6   10 1     
   11    6    7 ar    
   12    7    8 1     
   13    8    9 2     
   14    9   10 1     
   15    9   27 1     
   16   10   11 1     
   17   11   20 1     
   18   11   18 1     
   19   11   12 1     
   20   12   13 1     
   21   13   21 1     
   22   13   14 1     
   23   13   16 1     
   24   14   15 1     
   25   14   28 1     
   26   14   29 1     
   27   15   30 1     
   28   16   22 1     
   29   16   17 1     
   30   16   18 1     
   31   17   31 1     
   32   18   23 1     
   33   18   19 1     
   34   19   32 1     
   35    3   33 1     
   36    5   34 1     
   37    8   35 1     
   38   12   36 1     
   39   12   37 1     
   40   15   38 1     
   41   15   39 1     
   42   17   40 1     
   43   17   41 1     
   44   19   42 1     
   45   19   43 1     
@<TRIPOS>SUBSTRUCTURE
      1 S1             1
@<TRIPOS>SET
LONE_PAIRS      STATIC     ATOMS    <user>   **** ""
11 33 34 35 36 37 38 39 40 41 42 43
DONOR_HYDROGENS      STATIC     ATOMS    <user>   **** ""
5 24 25 30 31 32
ATOM$BLUE        STATIC     ATOMS    COLORGROUP SYSTEM
11 33 34 35 36 37 38 39 40 41 42 43
ATOM$RED        STATIC     ATOMS    COLORGROUP SYSTEM
5 24 25 30 31 32
