AV-unprocessed.smi:1465|AV-procd|sdf|5951|dock3
  -GOLD-   22720 6 33D 1   1.00000     0.00000
 Structure written by MMmdl.
 54 55  0  0  0  0  0  0  0  0  2 V2000
  151.9639  142.0424  159.7314 C   0  0  0  0  0  0  0  0  0  0  0  0
  150.7310  142.2750  159.0741 O   0  0  0  0  0  0  0  0  0  0  0  0
  150.6823  141.6898  157.7831 C   0  0  0  0  0  0  0  0  0  0  0  0
  150.4296  140.1792  157.9155 C   0  0  0  0  0  0  0  0  0  0  0  0
  150.2332  139.5407  156.6060 N   0  0  0  0  0  0  0  0  0  0  0  0
  148.9780  138.9486  156.3667 C   0  0  0  0  0  0  0  0  0  0  0  0
  148.6802  138.3308  155.2066 C   0  0  0  0  0  0  0  0  0  0  0  0
  147.3597  137.7226  155.0283 C   0  0  0  0  0  0  0  0  0  0  0  0
  146.3889  137.9341  155.7569 O   0  0  0  0  0  0  0  0  0  0  0  0
  147.2866  136.8863  153.9781 N   0  0  0  0  0  0  0  0  0  0  0  0
  146.1017  136.1361  153.5730 C   0  0  2  0  0  0  0  0  0  0  0  0
  146.3642  134.6211  153.6435 C   0  0  0  0  0  0  0  0  0  0  0  0
  145.1600  133.8217  153.1188 C   0  0  0  0  0  0  0  0  0  0  0  0
  144.8078  134.2279  151.7323 N   0  3  1  0  0  0  0  0  0  0  0  0
  143.7314  133.3974  151.1325 C   0  0  0  0  0  0  0  0  0  0  0  0
  144.2578  132.0856  150.5109 C   0  0  0  0  0  0  0  0  0  0  0  0
  145.0795  131.2640  151.5184 C   0  0  0  0  0  0  0  0  0  0  0  0
  145.0914  132.3795  149.2549 C   0  0  0  0  0  0  0  0  0  0  0  0
  144.5121  135.6815  151.6498 C   0  0  0  0  0  0  0  0  0  0  0  0
  145.7046  136.5204  152.1391 C   0  0  0  0  0  0  0  0  0  0  0  0
  149.7168  138.2959  154.1853 C   0  0  0  0  0  0  0  0  0  0  0  0
  150.9224  138.8534  154.4130 C   0  0  0  0  0  0  0  0  0  0  0  0
  151.2404  139.5140  155.6824 C   0  0  0  0  0  0  0  0  0  0  0  0
  152.3454  140.0114  155.9001 O   0  0  0  0  0  0  0  0  0  0  0  0
  151.9483  142.5125  160.7148 H   0  0  0  0  0  0  0  0  0  0  0  0
  152.7975  142.4655  159.1693 H   0  0  0  0  0  0  0  0  0  0  0  0
  152.1410  140.9753  159.8712 H   0  0  0  0  0  0  0  0  0  0  0  0
  149.8728  142.1441  157.2099 H   0  0  0  0  0  0  0  0  0  0  0  0
  151.6096  141.8803  157.2404 H   0  0  0  0  0  0  0  0  0  0  0  0
  151.2584  139.7133  158.4504 H   0  0  0  0  0  0  0  0  0  0  0  0
  149.5579  140.0106  158.5500 H   0  0  0  0  0  0  0  0  0  0  0  0
  148.2867  139.0257  157.1947 H   0  0  0  0  0  0  0  0  0  0  0  0
  148.1194  136.7601  153.4214 H   0  0  0  0  0  0  0  0  0  0  0  0
  145.2716  136.3874  154.2365 H   0  0  0  0  0  0  0  0  0  0  0  0
  147.2485  134.3698  153.0558 H   0  0  0  0  0  0  0  0  0  0  0  0
  146.5808  134.3232  154.6701 H   0  0  0  0  0  0  0  0  0  0  0  0
  145.4007  132.7599  153.1546 H   0  0  0  0  0  0  0  0  0  0  0  0
  144.2996  133.9711  153.7732 H   0  0  0  0  0  0  0  0  0  0  0  0
  142.9747  133.1895  151.8907 H   0  0  0  0  0  0  0  0  0  0  0  0
  143.2245  133.9628  150.3489 H   0  0  0  0  0  0  0  0  0  0  0  0
  143.4136  131.4754  150.1910 H   0  0  0  0  0  0  0  0  0  0  0  0
  145.9453  131.8238  151.8745 H   0  0  0  0  0  0  0  0  0  0  0  0
  145.4454  130.3419  151.0657 H   0  0  0  0  0  0  0  0  0  0  0  0
  144.4836  130.9832  152.3871 H   0  0  0  0  0  0  0  0  0  0  0  0
  145.9676  132.9841  149.4914 H   0  0  0  0  0  0  0  0  0  0  0  0
  144.5058  132.9196  148.5104 H   0  0  0  0  0  0  0  0  0  0  0  0
  145.4411  131.4574  148.7896 H   0  0  0  0  0  0  0  0  0  0  0  0
  144.2862  135.9541  150.6179 H   0  0  0  0  0  0  0  0  0  0  0  0
  143.6228  135.9083  152.2404 H   0  0  0  0  0  0  0  0  0  0  0  0
  145.4532  137.5807  152.0919 H   0  0  0  0  0  0  0  0  0  0  0  0
  146.5507  136.3726  151.4659 H   0  0  0  0  0  0  0  0  0  0  0  0
  149.5482  137.8253  153.2278 H   0  0  0  0  0  0  0  0  0  0  0  0
  151.6764  138.8142  153.6403 H   0  0  0  0  0  0  0  0  0  0  0  0
  145.6285  134.0782  151.1630 H   0  0  0  0  0  0  0  0  0  0  0  0
  1  2  1  0  0  0  0
  1 25  1  0  0  0  0
  1 26  1  0  0  0  0
  1 27  1  0  0  0  0
  2  3  1  0  0  0  0
  3  4  1  0  0  0  0
  3 28  1  0  0  0  0
  3 29  1  0  0  0  0
  4  5  1  0  0  0  0
  4 30  1  0  0  0  0
  4 31  1  0  0  0  0
  5 23  1  0  0  0  0
  5  6  1  0  0  0  0
  6  7  2  0  0  0  0
  6 32  1  0  0  0  0
  7  8  1  0  0  0  0
  7 21  1  0  0  0  0
  8  9  2  0  0  0  0
  8 10  1  0  0  0  0
 10 11  1  0  0  0  0
 10 33  1  0  0  0  0
 11 20  1  0  0  0  0
 11 12  1  0  0  0  0
 11 34  1  0  0  0  0
 12 13  1  0  0  0  0
 12 35  1  0  0  0  0
 12 36  1  0  0  0  0
 13 14  1  0  0  0  0
 13 37  1  0  0  0  0
 13 38  1  0  0  0  0
 14 15  1  0  0  0  0
 14 19  1  0  0  0  0
 14 54  1  0  0  0  0
 15 16  1  0  0  0  0
 15 39  1  0  0  0  0
 15 40  1  0  0  0  0
 16 17  1  0  0  0  0
 16 18  1  0  0  0  0
 16 41  1  0  0  0  0
 17 42  1  0  0  0  0
 17 43  1  0  0  0  0
 17 44  1  0  0  0  0
 18 45  1  0  0  0  0
 18 46  1  0  0  0  0
 18 47  1  0  0  0  0
 19 20  1  0  0  0  0
 19 48  1  0  0  0  0
 19 49  1  0  0  0  0
 20 50  1  0  0  0  0
 20 51  1  0  0  0  0
 21 22  2  0  0  0  0
 21 52  1  0  0  0  0
 22 23  1  0  0  0  0
 22 53  1  0  0  0  0
 23 24  2  0  0  0  0
M  CHG  1  14   1
M  END
> <s_m_source_file>
AV-unprocessed.smi

> <i_m_source_file_index>
1465

> <i_lp_mmshare_version>
43012

> <i_f3d_flags>
0

> <s_epik_input>
W0NIM11PW0NIMl1bQ0gyXW4xW2NIXWMoW2NIXVtjSF1jMT1PKUMoPU8pW05IXVtDSF0yW0NIMl1bQ0gyXU4oW0NIMl1bQ0gyXTIpW0NIMl1bQ0hdKFtDSDNdKVtDSDNd

> <s_epik_cmdline>
J2VwaWtfcHl0aG9uJywgJy1waCcsICc3LjAnLCAnLXRuJywgJzgnLCAnLW1hJywgJzIwMCcsICctbWV0YWxfYmluZGluZycsICctaW1hZScsICc8aW5maWxlLm1hZT4nLCAnLW9tYWUnLCAnPG91dGZpbGUubWFlPic=

> <r_lp_tautomer_probability>
1

> <r_epik_Ionization_Penalty>
0.00386091

> <r_epik_Ionization_Penalty_Charging>
0.0038603

> <r_epik_Ionization_Penalty_Neutral>
6.13806e-07

> <r_epik_State_Penalty>
0.00275716

> <r_epik_Charging_Adjusted_Penalty>
0.00661746

> <i_epik_Tot_Q>
1

> <i_epik_Tot_abs_Q>
1

> <r_epik_Metal_State_Penalty>
-0

> <b_epik_Metal_Only>
0

> <s_lp_Force_Field>
OPLS_2005

> <r_lp_Energy>
35.0866

> <b_lp_Chiralities_Consistent>
1

> <s_lp_Variant>
AV-unprocessed.smi:1465-1

> <Gold.Version>
5.8.1

> <Gold.Id.Protein>
6NUR|6NUR_protein|mol2

> <Gold.PLP.Fitness>
40.2576

> <Gold.PLP.PLP>
-35.1247

> <Gold.PLP.part.hbond>
-2.4597

> <Gold.PLP.part.metal>
0.0000

> <Gold.PLP.part.buried>
-3.7518

> <Gold.PLP.part.nonpolar>
-28.0542

> <Gold.PLP.part.repulsive>
0.0000

> <Gold.PLP.ligand.clash>
0.0000

> <Gold.PLP.ligand.torsion>
0.5434

> <Gold.PLP.Chemscore.Hbond>
2.0000

> <Gold.PLP.Chemscore.CHOScore>
0.0000

> <Gold.PLP.Chemscore.Metal>
0.0000

> <Gold.Chemscore.Hbonds>
donor molecule, donor type, donor heavy atom, donor atom, acceptor molecule, acceptor atom, score
      L1  H    10    33       P1  7948  1.00
      P1  H  7997  8009       L1    24  0.99

> <Gold.PLP.Chemscore.Internal.Correction>
0.2196

> <Gold.Rescore>
     Score         DG    S(hbond)    S(metal)    S(lipo)     H(rot)  DE(clash)    DE(int)     intcor
     17.22     -18.64       1.98        0.00      94.90       1.78       0.30       1.12       ----

> <Gold.Chemscore.Fitness>
17.2246

> <Gold.Chemscore.DG>
-18.6434

> <Gold.Chemscore.ZeroCoef>
-5.4800

> <Gold.Chemscore.Hbond>
1.9789

> <Gold.Chemscore.Metal>
0.0000

> <Gold.Chemscore.Lipo>
94.8963

> <Gold.Chemscore.Internal_Hbond>
0.0000

> <Gold.Chemscore.DEClash>
0.3031

> <Gold.Chemscore.DEInternal>
1.1157

> <Gold.Chemscore.Rot>
1.7769

> <Gold.Chemscore.Internal.Correction>
   9.000000E+99

> <Gold.Chemscore.Hbonds>
donor molecule, donor type, donor heavy atom, donor atom, acceptor molecule, acceptor atom, score
      L1  H    10    33       P1  7948  0.95
      P1  H  7997  8009       L1    24  0.92

> <Gold.Chemscore.Hbond.Weighted>
-6.6095

> <Gold.Chemscore.Metal.Weighted>
-0.0000

> <Gold.Chemscore.Lipo.Weighted>
-11.1029

> <Gold.Chemscore.Internal_Hbond.Weighted>
0.0000

> <Gold.Chemscore.DEClash.Weighted>
0.3031

> <Gold.Chemscore.DEInternal.Weighted>
1.1157

> <Gold.Chemscore.Rot.Weighted>
4.5490

> <Gold.Chemscore.Internal.Correction.Weighted>
   9.000000E+99

> <Gold.Protein.RotatedTorsions>
[ 6907 6896 6895 6894 ] final -120.34 input  -60.11 | X-H torsion
[ 7974 7965 7964 7962 ] final -129.10 input  175.53 | X-H torsion
[ 8008 7997 7996 7995 ] final -148.12 input   59.86 | X-H torsion
[ 10167 10162 10161 10158 ] final  177.61 input  -65.29 | X-H torsion
[ 10718 10713 10712 10709 ] final  -33.11 input   66.30 | X-H torsion
[ 10763 10752 10751 10750 ] final -165.66 input  -60.55 | X-H torsion
[ 11005 11000 10999 10996 ] final  -20.24 input  -57.11 | X-H torsion

> <Gold.Protein.ActiveResidues>
 VAL166  LYS551  ARG553  GLY616  TRP617  ASP618  TYR619  PRO620  LYS621  CYS622 
 ASP623  PHE694  ASN695  SER759  ASP760  ASP761  ALA762  ILE779  LEU786  VAL792 
 PHE793  MET794  SER795  GLU796  ALA797  LYS798  CYS799  TRP800  GLU811  SER814 

> <Gold.Protein.RotatedAtoms>
  150.8385  133.7975  159.3070 H   0  0  0  0  0  0  0  0  0  0  0  0  # atno 6907 bound_to 6896
  151.5683  135.1061  159.9998 H   0  0  0  0  0  0  0  0  0  0  0  0  # atno 6908 bound_to 6896
  152.4453  133.7482  159.6735 H   0  0  0  0  0  0  0  0  0  0  0  0  # atno 6909 bound_to 6896
  144.9605  140.7442  143.4732 H   0  0  0  0  0  0  0  0  0  0  0  0  # atno 7974 bound_to 7965
  155.5864  140.0648  157.2770 H   0  0  0  0  0  0  0  0  0  0  0  0  # atno 8008 bound_to 7997
  154.4317  140.1843  156.1076 H   0  0  0  0  0  0  0  0  0  0  0  0  # atno 8009 bound_to 7997
  156.0266  140.3311  155.7098 H   0  0  0  0  0  0  0  0  0  0  0  0  # atno 8010 bound_to 7997
  139.5260  144.2778  152.0573 H   0  0  0  0  0  0  0  0  0  0  0  0  # atno 10167 bound_to 10162
  156.3667  130.4332  149.7579 H   0  0  0  0  0  0  0  0  0  0  0  0  # atno 10718 bound_to 10713
  154.6910  135.2971  154.9479 H   0  0  0  0  0  0  0  0  0  0  0  0  # atno 10763 bound_to 10752
  154.0442  135.6653  153.4797 H   0  0  0  0  0  0  0  0  0  0  0  0  # atno 10764 bound_to 10752
  153.0612  135.5114  154.8003 H   0  0  0  0  0  0  0  0  0  0  0  0  # atno 10765 bound_to 10752
  140.8445  133.7902  155.9897 H   0  0  0  0  0  0  0  0  0  0  0  0  # atno 11005 bound_to 11000
  145.2707  139.1956  143.4843 LP  0  0  0  0  0  0  0  0  0  0  0  0  # atno 17320 bound_to 7965
  146.3351  140.2653  142.8603 LP  0  0  0  0  0  0  0  0  0  0  0  0  # atno 17321 bound_to 7965
  140.2235  144.4442  150.6331 LP  0  0  0  0  0  0  0  0  0  0  0  0  # atno 17342 bound_to 10162
  140.6403  143.2202  151.6305 LP  0  0  0  0  0  0  0  0  0  0  0  0  # atno 17343 bound_to 10162
  156.4722  130.8002  151.3019 LP  0  0  0  0  0  0  0  0  0  0  0  0  # atno 17370 bound_to 10713
  157.7479  131.0032  150.3029 LP  0  0  0  0  0  0  0  0  0  0  0  0  # atno 17371 bound_to 10713
  140.8858  134.2555  157.5120 LP  0  0  0  0  0  0  0  0  0  0  0  0  # atno 17394 bound_to 11000
  139.8703  134.9637  156.4472 LP  0  0  0  0  0  0  0  0  0  0  0  0  # atno 17395 bound_to 11000

$$$$
