AV-unprocessed.smi:1381|AV-procd|sdf|5616|dock3
  -GOLD-   22720 5223D 1   1.00000     0.00000
 Structure written by MMmdl.
 42 43  0  0  0  0  0  0  0  0  3 V2000
  152.8430  141.1680  159.5683 C   0  0  0  0  0  0  0  0  0  0  0  0
  152.4128  140.1388  158.5800 C   0  0  0  0  0  0  0  0  0  0  0  0
  151.1938  139.7962  158.0664 C   0  0  0  0  0  0  0  0  0  0  0  0
  151.5062  138.7310  157.1803 C   0  0  0  0  0  0  0  0  0  0  0  0
  150.4837  138.0844  156.4366 N   0  0  0  0  0  0  0  0  0  0  0  0
  150.5840  137.0311  155.6053 C   0  0  0  0  0  0  0  0  0  0  0  0
  151.6823  136.5024  155.3955 O   0  0  0  0  0  0  0  0  0  0  0  0
  149.3812  136.6780  155.0726 N   0  5  0  0  0  0  0  0  0  0  0  0
  148.1201  136.6389  155.8116 C   0  0  0  0  0  0  0  0  0  0  0  0
  146.9378  136.4597  154.8413 C   0  0  0  0  0  0  0  0  0  0  0  0
  147.2479  135.4373  153.8094 N   0  3  1  0  0  0  0  0  0  0  0  0
  147.8080  134.1824  154.3657 C   0  0  0  0  0  0  0  0  0  0  0  0
  148.1950  133.2202  153.2273 C   0  0  1  0  0  0  0  0  0  0  0  0
  148.7104  131.8770  153.7551 C   0  0  0  0  0  0  0  0  0  0  0  0
  147.0493  132.9715  152.4191 O   0  0  0  0  0  0  0  0  0  0  0  0
  146.5421  134.1528  151.8062 C   0  0  1  0  0  0  0  0  0  0  0  0
  145.3753  133.7557  150.8954 C   0  0  0  0  0  0  0  0  0  0  0  0
  146.1110  135.1435  152.9036 C   0  0  0  0  0  0  0  0  0  0  0  0
  152.8008  138.4503  157.1556 N   0  0  0  0  0  0  0  0  0  0  0  0
  153.3879  139.3502  158.0528 O   0  0  0  0  0  0  0  0  0  0  0  0
  152.1375  141.9983  159.5962 H   0  0  0  0  0  0  0  0  0  0  0  0
  153.8243  141.5682  159.3126 H   0  0  0  0  0  0  0  0  0  0  0  0
  152.9015  140.7395  160.5688 H   0  0  0  0  0  0  0  0  0  0  0  0
  150.2339  140.2371  158.2904 H   0  0  0  0  0  0  0  0  0  0  0  0
  149.5560  138.4644  156.5511 H   0  0  0  0  0  0  0  0  0  0  0  0
  148.0997  135.8394  156.5537 H   0  0  0  0  0  0  0  0  0  0  0  0
  147.9706  137.5595  156.3765 H   0  0  0  0  0  0  0  0  0  0  0  0
  146.0472  136.1735  155.4033 H   0  0  0  0  0  0  0  0  0  0  0  0
  146.6950  137.4121  154.3666 H   0  0  0  0  0  0  0  0  0  0  0  0
  148.6859  134.4115  154.9713 H   0  0  0  0  0  0  0  0  0  0  0  0
  147.0739  133.7159  155.0250 H   0  0  0  0  0  0  0  0  0  0  0  0
  148.9755  133.6728  152.6130 H   0  0  0  0  0  0  0  0  0  0  0  0
  149.6002  132.0122  154.3706 H   0  0  0  0  0  0  0  0  0  0  0  0
  148.9743  131.2113  152.9331 H   0  0  0  0  0  0  0  0  0  0  0  0
  147.9566  131.3747  154.3620 H   0  0  0  0  0  0  0  0  0  0  0  0
  147.3241  134.6022  151.1915 H   0  0  0  0  0  0  0  0  0  0  0  0
  144.9575  134.6272  150.3906 H   0  0  0  0  0  0  0  0  0  0  0  0
  144.5743  133.2815  151.4633 H   0  0  0  0  0  0  0  0  0  0  0  0
  145.7012  133.0525  150.1285 H   0  0  0  0  0  0  0  0  0  0  0  0
  145.2825  134.7309  153.4818 H   0  0  0  0  0  0  0  0  0  0  0  0
  145.7570  136.0703  152.4494 H   0  0  0  0  0  0  0  0  0  0  0  0
  147.9745  135.8424  153.2364 H   0  0  0  0  0  0  0  0  0  0  0  0
  1  2  1  0  0  0  0
  1 21  1  0  0  0  0
  1 22  1  0  0  0  0
  1 23  1  0  0  0  0
  2 20  1  0  0  0  0
  2  3  2  0  0  0  0
  3  4  1  0  0  0  0
  3 24  1  0  0  0  0
  4  5  1  0  0  0  0
  4 19  2  0  0  0  0
  5  6  1  0  0  0  0
  5 25  1  0  0  0  0
  6  7  2  0  0  0  0
  6  8  1  0  0  0  0
  8  9  1  0  0  0  0
  9 10  1  0  0  0  0
  9 26  1  0  0  0  0
  9 27  1  0  0  0  0
 10 11  1  0  0  0  0
 10 28  1  0  0  0  0
 10 29  1  0  0  0  0
 11 18  1  0  0  0  0
 11 12  1  0  0  0  0
 11 42  1  0  0  0  0
 12 13  1  0  0  0  0
 12 30  1  0  0  0  0
 12 31  1  0  0  0  0
 13 14  1  0  0  0  0
 13 15  1  0  0  0  0
 13 32  1  0  0  0  0
 14 33  1  0  0  0  0
 14 34  1  0  0  0  0
 14 35  1  0  0  0  0
 15 16  1  0  0  0  0
 16 17  1  0  0  0  0
 16 18  1  0  0  0  0
 16 36  1  0  0  0  0
 17 37  1  0  0  0  0
 17 38  1  0  0  0  0
 17 39  1  0  0  0  0
 18 40  1  0  0  0  0
 18 41  1  0  0  0  0
 19 20  1  0  0  0  0
M  CHG  1   8  -1
M  CHG  1  11   1
M  END
> <s_m_source_file>
AV-unprocessed.smi

> <i_m_source_file_index>
1381

> <i_lp_mmshare_version>
43012

> <i_f3d_flags>
0

> <s_epik_input>
W0NIM11jMVtjSF1jKG5vMSlbTkhdQyg9TylbTkhdW0NIMl1bQ0gyXU4yW0NIMl1bQ0BASF0oW0NIM10pT1tDQEBIXShbQ0gzXSlbQ0gyXTI=

> <s_epik_cmdline>
J2VwaWtfcHl0aG9uJywgJy1waCcsICc3LjAnLCAnLXRuJywgJzgnLCAnLW1hJywgJzIwMCcsICctbWV0YWxfYmluZGluZycsICctaW1hZScsICc8aW5maWxlLm1hZT4nLCAnLW9tYWUnLCAnPG91dGZpbGUubWFlPic=

> <r_epik_Ionization_Penalty>
6.8073

> <r_epik_Ionization_Penalty_Charging>
6.80729

> <r_epik_Ionization_Penalty_Neutral>
5.65391e-06

> <r_epik_State_Penalty>
7.47323

> <r_epik_Charging_Adjusted_Penalty>
14.2805

> <i_epik_Tot_Q>
0

> <i_epik_Tot_abs_Q>
2

> <r_epik_Metal_State_Penalty>
3.40035

> <b_epik_Metal_Only>
1

> <s_lp_Force_Field>
OPLS_2005

> <r_lp_Energy>
11.4992

> <b_lp_Chiralities_Consistent>
1

> <s_lp_Variant>
AV-unprocessed.smi:1381-15

> <Gold.Version>
5.8.1

> <Gold.Id.Protein>
6NUR|6NUR_protein|mol2

> <Gold.PLP.Fitness>
35.1154

> <Gold.PLP.PLP>
-23.9851

> <Gold.PLP.part.hbond>
-3.4265

> <Gold.PLP.part.metal>
0.0000

> <Gold.PLP.part.buried>
-3.5402

> <Gold.PLP.part.nonpolar>
-17.6516

> <Gold.PLP.part.repulsive>
0.3988

> <Gold.PLP.ligand.clash>
0.0000

> <Gold.PLP.ligand.torsion>
0.4841

> <Gold.PLP.Chemscore.Hbond>
4.0000

> <Gold.PLP.Chemscore.CHOScore>
0.0000

> <Gold.PLP.Chemscore.Metal>
0.0000

> <Gold.Chemscore.Hbonds>
donor molecule, donor type, donor heavy atom, donor atom, acceptor molecule, acceptor atom, score
      L1  H    11    42       P1  7948  2.00
      P1  H  7997  8010       L1    20  0.90
      P1  H 10752 10764       L1     7  1.00

> <Gold.PLP.Chemscore.Internal.Correction>
0.0985

> <Gold.Rescore>
     Score         DG    S(hbond)    S(metal)    S(lipo)     H(rot)  DE(clash)    DE(int)     intcor
     15.39     -17.32       2.91        0.00      52.82       1.58       0.07       1.86       ----

> <Gold.Chemscore.Fitness>
15.3915

> <Gold.Chemscore.DG>
-17.3200

> <Gold.Chemscore.ZeroCoef>
-5.4800

> <Gold.Chemscore.Hbond>
2.9052

> <Gold.Chemscore.Metal>
0.0000

> <Gold.Chemscore.Lipo>
52.8170

> <Gold.Chemscore.Internal_Hbond>
0.0000

> <Gold.Chemscore.DEClash>
0.0650

> <Gold.Chemscore.DEInternal>
1.8635

> <Gold.Chemscore.Rot>
1.5792

> <Gold.Chemscore.Internal.Correction>
   9.000000E+99

> <Gold.Chemscore.Hbonds>
donor molecule, donor type, donor heavy atom, donor atom, acceptor molecule, acceptor atom, score
      L1  H    11    42       P1  7948  1.00
      P1  H  7997  8010       L1    20  0.17
      P1  H 10752 10764       L1     7  1.00

> <Gold.Chemscore.Hbond.Weighted>
-9.7033

> <Gold.Chemscore.Metal.Weighted>
-0.0000

> <Gold.Chemscore.Lipo.Weighted>
-6.1796

> <Gold.Chemscore.Internal_Hbond.Weighted>
0.0000

> <Gold.Chemscore.DEClash.Weighted>
0.0650

> <Gold.Chemscore.DEInternal.Weighted>
1.8635

> <Gold.Chemscore.Rot.Weighted>
4.0428

> <Gold.Chemscore.Internal.Correction.Weighted>
   9.000000E+99

> <Gold.Protein.RotatedTorsions>
[ 6907 6896 6895 6894 ] final  -54.27 input  -60.11 | X-H torsion
[ 7974 7965 7964 7962 ] final   -1.91 input  175.53 | X-H torsion
[ 8008 7997 7996 7995 ] final   39.24 input   59.86 | X-H torsion
[ 10167 10162 10161 10158 ] final  -63.13 input  -65.29 | X-H torsion
[ 10718 10713 10712 10709 ] final -119.58 input   66.30 | X-H torsion
[ 10763 10752 10751 10750 ] final  -54.76 input  -60.55 | X-H torsion
[ 11005 11000 10999 10996 ] final   15.53 input  -57.11 | X-H torsion

> <Gold.Protein.ActiveResidues>
 VAL166  LYS551  ARG553  GLY616  TRP617  ASP618  TYR619  PRO620  LYS621  CYS622 
 ASP623  PHE694  ASN695  SER759  ASP760  ASP761  ALA762  ILE779  LEU786  VAL792 
 PHE793  MET794  SER795  GLU796  ALA797  LYS798  CYS799  TRP800  GLU811  SER814 

> <Gold.Protein.RotatedAtoms>
  150.8353  134.7624  159.6887 H   0  0  0  0  0  0  0  0  0  0  0  0  # atno 6907 bound_to 6896
  152.4451  134.5508  159.9876 H   0  0  0  0  0  0  0  0  0  0  0  0  # atno 6908 bound_to 6896
  151.5660  133.3359  159.3016 H   0  0  0  0  0  0  0  0  0  0  0  0  # atno 6909 bound_to 6896
  146.2411  140.1491  142.8334 H   0  0  0  0  0  0  0  0  0  0  0  0  # atno 7974 bound_to 7965
  155.2333  140.3340  155.4301 H   0  0  0  0  0  0  0  0  0  0  0  0  # atno 8008 bound_to 7997
  156.2286  140.1840  156.7346 H   0  0  0  0  0  0  0  0  0  0  0  0  # atno 8009 bound_to 7997
  154.5940  140.0633  156.9263 H   0  0  0  0  0  0  0  0  0  0  0  0  # atno 8010 bound_to 7997
  140.5891  143.2338  151.6177 H   0  0  0  0  0  0  0  0  0  0  0  0  # atno 10167 bound_to 10162
  156.1192  130.6310  150.9434 H   0  0  0  0  0  0  0  0  0  0  0  0  # atno 10718 bound_to 10713
  154.1801  135.6445  153.5032 H   0  0  0  0  0  0  0  0  0  0  0  0  # atno 10763 bound_to 10752
  153.0061  135.5404  154.6523 H   0  0  0  0  0  0  0  0  0  0  0  0  # atno 10764 bound_to 10752
  154.5885  135.2932  155.0632 H   0  0  0  0  0  0  0  0  0  0  0  0  # atno 10765 bound_to 10752
  140.4573  134.1163  155.7711 H   0  0  0  0  0  0  0  0  0  0  0  0  # atno 11005 bound_to 11000
  145.0182  140.8772  143.5183 LP  0  0  0  0  0  0  0  0  0  0  0  0  # atno 17320 bound_to 7965
  145.1536  139.2500  143.5428 LP  0  0  0  0  0  0  0  0  0  0  0  0  # atno 17321 bound_to 7965
  139.5216  144.3187  152.0930 LP  0  0  0  0  0  0  0  0  0  0  0  0  # atno 17342 bound_to 10162
  140.2349  144.4330  150.6284 LP  0  0  0  0  0  0  0  0  0  0  0  0  # atno 17343 bound_to 10162
  157.6376  131.0914  150.8318 LP  0  0  0  0  0  0  0  0  0  0  0  0  # atno 17370 bound_to 10713
  156.8417  130.5050  149.5320 LP  0  0  0  0  0  0  0  0  0  0  0  0  # atno 17371 bound_to 10713
  141.1637  133.8743  157.1775 LP  0  0  0  0  0  0  0  0  0  0  0  0  # atno 17394 bound_to 11000
  139.9968  135.0043  157.0101 LP  0  0  0  0  0  0  0  0  0  0  0  0  # atno 17395 bound_to 11000

$$$$
