#       Name:                AV-unprocessed.smi:942
#       Creating user name   scv26
#       Creation time:       Fri Mar 27 02:13:21 2020


#       File generated by GOLD software.
#

@<TRIPOS>MOLECULE
AV-unprocessed.smi:942
    45    47     1
SMALL
NO_CHARGES


@<TRIPOS>ATOM
      1 ****        -0.2518   1.7949  -0.2271 O.2            1 S1                 0.0000
      2 ****        -0.6919   0.6510  -0.3413 C.2            1 S1                 0.0000
      3 ****         0.0984  -0.4334  -0.3513 N.am           1 S1                 0.0000
      4 ****         1.5525  -0.4157  -0.2167 C.3            1 S1                 0.0000
      5 ****         2.2443  -0.1089  -1.5618 C.3            1 S1                 0.0000
      6 ****         3.0112  -1.3748  -1.9529 C.3            1 S1                 0.0000
      7 ****         3.3310  -2.0514  -0.6237 C.3            1 S1                 0.0000
      8 ****         2.0760  -1.8008   0.2194 C.3            1 S1                 0.0000
      9 ****         2.3059  -1.9036   1.6522 N.pl3          1 S1                 0.0000
     10 ****         3.2303  -1.2042   2.4206 C.2            1 S1                 0.0000
     11 ****         3.0646  -1.6268   3.7201 C.2            1 S1                 0.0000
     12 ****         2.0459  -2.5743   3.7780 N.2            1 S1                 0.0000
     13 ****         1.6437  -2.6833   2.5185 C.2            1 S1                 0.0000
     14 ****        -2.2037   0.3922  -0.4837 C.3            1 S1                 0.0000
     15 ****        -2.7951   1.0070  -1.7747 C.3            1 S1                 0.0000
     16 ****        -3.0155   2.5290  -1.6884 C.3            1 S1                 0.0000
     17 ****        -3.8594   2.9017  -0.4604 C.3            1 S1                 0.0000
     18 ****        -3.2273   2.3664   0.8332 C.3            1 S1                 0.0000
     19 ****        -3.0057   0.8436   0.7604 C.3            1 S1                 0.0000
     20 ****        -0.3396  -1.3377  -0.4508 H              1 S1                 0.0000
     21 ****         1.8437   0.3460   0.5094 H              1 S1                 0.0000
     22 ****         1.5515   0.1984  -2.3466 H              1 S1                 0.0000
     23 ****         2.9488   0.7122  -1.4221 H              1 S1                 0.0000
     24 ****         2.3684  -2.0236  -2.5495 H              1 S1                 0.0000
     25 ****         3.9041  -1.1592  -2.5403 H              1 S1                 0.0000
     26 ****         3.5553  -3.1125  -0.7366 H              1 S1                 0.0000
     27 ****         4.2038  -1.5717  -0.1789 H              1 S1                 0.0000
     28 ****         1.3463  -2.5643  -0.0592 H              1 S1                 0.0000
     29 ****         3.9099  -0.4820   1.9922 H              1 S1                 0.0000
     30 ****         3.5930  -1.3212   4.6112 H              1 S1                 0.0000
     31 ****         0.8453  -3.3470   2.2198 H              1 S1                 0.0000
     32 ****        -2.3263  -0.6894  -0.5635 H              1 S1                 0.0000
     33 ****        -2.1563   0.7775  -2.6288 H              1 S1                 0.0000
     34 ****        -3.7518   0.5267  -1.9840 H              1 S1                 0.0000
     35 ****        -2.0584   3.0487  -1.6487 H              1 S1                 0.0000
     36 ****        -3.5106   2.8798  -2.5943 H              1 S1                 0.0000
     37 ****        -3.9693   3.9849  -0.4001 H              1 S1                 0.0000
     38 ****        -4.8651   2.4943  -0.5714 H              1 S1                 0.0000
     39 ****        -2.2832   2.8779   1.0202 H              1 S1                 0.0000
     40 ****        -3.8704   2.6030   1.6812 H              1 S1                 0.0000
     41 ****        -3.9779   0.3493   0.7478 H              1 S1                 0.0000
     42 ****        -2.5127   0.5017   1.6715 H              1 S1                 0.0000
     43 ****         0.7327   1.9451  -0.1367 LP             1 S1                 0.0000
     44 ****        -0.8788   2.5739  -0.2247 LP             1 S1                 0.0000
     45 ****         1.6988  -3.0590   4.5809 LP             1 S1                 0.0000
@<TRIPOS>BOND
    1    1    2 2     
    2    2    3 am    
    3    2   14 1     
    4    3    4 1     
    5    3   20 1     
    6    4    8 1     
    7    4    5 1     
    8    4   21 1     
    9    5    6 1     
   10    5   22 1     
   11    5   23 1     
   12    6    7 1     
   13    6   24 1     
   14    6   25 1     
   15    7    8 1     
   16    7   26 1     
   17    7   27 1     
   18    8    9 1     
   19    8   28 1     
   20    9   13 1     
   21    9   10 1     
   22   10   11 2     
   23   10   29 1     
   24   11   12 1     
   25   11   30 1     
   26   12   13 2     
   27   13   31 1     
   28   14   19 1     
   29   14   15 1     
   30   14   32 1     
   31   15   16 1     
   32   15   33 1     
   33   15   34 1     
   34   16   17 1     
   35   16   35 1     
   36   16   36 1     
   37   17   18 1     
   38   17   37 1     
   39   17   38 1     
   40   18   19 1     
   41   18   39 1     
   42   18   40 1     
   43   19   41 1     
   44   19   42 1     
   45    1   43 1     
   46    1   44 1     
   47   12   45 1     
@<TRIPOS>SUBSTRUCTURE
      1 S1             1
@<TRIPOS>SET
LONE_PAIRS      STATIC     ATOMS    <user>   **** ""
3 43 44 45
DONOR_HYDROGENS      STATIC     ATOMS    <user>   **** ""
1 20
ATOM$BLUE        STATIC     ATOMS    COLORGROUP SYSTEM
3 43 44 45
ATOM$RED        STATIC     ATOMS    COLORGROUP SYSTEM
1 20
