#       Name:                AV-unprocessed.smi:894
#       Creating user name   scv26
#       Creation time:       Fri Mar 27 01:55:54 2020


#       File generated by GOLD software.
#

@<TRIPOS>MOLECULE
AV-unprocessed.smi:894
    36    37     1
SMALL
NO_CHARGES


@<TRIPOS>ATOM
      1 ****        -3.7514   2.6289  -3.2146 C.3            1 S1                 0.0000
      2 ****        -3.2788   1.4125  -2.5718 N.am           1 S1                 0.0000
      3 ****        -3.2586   1.2189  -1.2445 C.2            1 S1                 0.0000
      4 ****        -3.6502   2.0579  -0.4333 O.2            1 S1                 0.0000
      5 ****        -2.7225  -0.1279  -0.7548 C.3            1 S1                 0.0000
      6 ****        -1.2272  -0.1443  -0.7769 C.2            1 S1                 0.0000
      7 ****        -0.5579  -0.5805  -1.8383 N.2            1 S1                 0.0000
      8 ****         0.7837  -0.4429  -1.4550 O.3            1 S1                 0.0000
      9 ****         0.7595   0.0744  -0.2034 C.2            1 S1                 0.0000
     10 ****         2.0516   0.2912   0.5116 C.3            1 S1                 0.0000
     11 ****         2.5713  -0.9797   1.1758 C.3            1 S1                 0.0000
     12 ****         1.7671  -1.6311   2.3128 C.3            1 S1                 0.0000
     13 ****         3.0945  -2.0288   2.9626 C.3            1 S1                 0.0000
     14 ****         3.7445  -0.8958   2.1643 C.3            1 S1                 0.0000
     15 ****        -0.4669   0.2620   0.2779 N.2            1 S1                 0.0000
     16 ****        -3.6463   2.5434  -4.2960 H              1 S1                 0.0000
     17 ****        -3.1737   3.4928  -2.8833 H              1 S1                 0.0000
     18 ****        -4.8035   2.8049  -2.9861 H              1 S1                 0.0000
     19 ****        -2.9383   0.6745  -3.1714 H              1 S1                 0.0000
     20 ****        -3.0737  -0.3170   0.2605 H              1 S1                 0.0000
     21 ****        -3.1127  -0.9330  -1.3792 H              1 S1                 0.0000
     22 ****         2.7830   0.6727  -0.2014 H              1 S1                 0.0000
     23 ****         1.9073   1.0783   1.2527 H              1 S1                 0.0000
     24 ****         2.7950  -1.7430   0.4271 H              1 S1                 0.0000
     25 ****         1.2079  -0.9063   2.9070 H              1 S1                 0.0000
     26 ****         1.1386  -2.4676   2.0057 H              1 S1                 0.0000
     27 ****         3.1301  -1.9055   4.0453 H              1 S1                 0.0000
     28 ****         3.4377  -3.0174   2.6531 H              1 S1                 0.0000
     29 ****         4.7185  -1.1380   1.7381 H              1 S1                 0.0000
     30 ****         3.7701   0.0458   2.7156 H              1 S1                 0.0000
     31 ****        -4.0057   2.9358  -0.7541 LP             1 S1                 0.0000
     32 ****        -3.6127   1.8616   0.5465 LP             1 S1                 0.0000
     33 ****        -0.9233  -0.9245  -2.7032 LP             1 S1                 0.0000
     34 ****         1.2621   0.1758  -2.0782 LP             1 S1                 0.0000
     35 ****         1.2388  -1.3333  -1.4549 LP             1 S1                 0.0000
     36 ****        -0.7528   0.6076   1.1717 LP             1 S1                 0.0000
@<TRIPOS>BOND
    1    1    2 1     
    2    1   16 1     
    3    1   17 1     
    4    1   18 1     
    5    2    3 am    
    6    2   19 1     
    7    3    4 2     
    8    3    5 1     
    9    5    6 1     
   10    5   20 1     
   11    5   21 1     
   12    6   15 1     
   13    6    7 2     
   14    7    8 1     
   15    8    9 1     
   16    9   10 1     
   17    9   15 2     
   18   10   11 1     
   19   10   22 1     
   20   10   23 1     
   21   11   14 1     
   22   11   12 1     
   23   11   24 1     
   24   12   13 1     
   25   12   25 1     
   26   12   26 1     
   27   13   14 1     
   28   13   27 1     
   29   13   28 1     
   30   14   29 1     
   31   14   30 1     
   32    4   31 1     
   33    4   32 1     
   34    7   33 1     
   35    8   34 1     
   36    8   35 1     
   37   15   36 1     
@<TRIPOS>SUBSTRUCTURE
      1 S1             1
@<TRIPOS>SET
LONE_PAIRS      STATIC     ATOMS    <user>   **** ""
6 31 32 33 34 35 36
DONOR_HYDROGENS      STATIC     ATOMS    <user>   **** ""
1 19
ATOM$BLUE        STATIC     ATOMS    COLORGROUP SYSTEM
6 31 32 33 34 35 36
ATOM$RED        STATIC     ATOMS    COLORGROUP SYSTEM
1 19
