AV-unprocessed.smi:72|AV-procd|sdf|744|dock3
  -GOLD-   2262017 73D 1   1.00000     0.00000
 Structure written by MMmdl.
 29 30  0  0  0  0  0  0  0  0  1 V2000
  151.3376  133.2202  154.6224 N   0  0  0  0  0  0  0  0  0  0  0  0
  150.7438  134.4437  154.8507 C   0  0  0  0  0  0  0  0  0  0  0  0
  151.5362  135.5745  154.6107 N   0  0  0  0  0  0  0  0  0  0  0  0
  150.9844  136.7267  154.8262 C   0  0  0  0  0  0  0  0  0  0  0  0
  149.6122  136.8302  155.2941 N   0  0  0  0  0  0  0  0  0  0  0  0
  148.9384  138.1663  155.5551 C   0  0  1  0  0  0  0  0  0  0  0  0
  149.8090  139.0127  156.2516 O   0  0  0  0  0  0  0  0  0  0  0  0
  150.2598  140.0644  155.4016 C   0  0  2  0  0  0  0  0  0  0  0  0
  150.6799  141.2749  156.2490 C   0  0  0  0  0  0  0  0  0  0  0  0
  149.5584  141.8116  156.9170 O   0  0  0  0  0  0  0  0  0  0  0  0
  149.0232  140.3163  154.5401 C   0  0  1  0  0  0  0  0  0  0  0  0
  149.3034  141.0583  153.3678 O   0  0  0  0  0  0  0  0  0  0  0  0
  148.5176  138.9040  154.2615 C   0  0  1  0  0  0  0  0  0  0  0  0
  149.0867  138.3565  153.0812 O   0  0  0  0  0  0  0  0  0  0  0  0
  148.8649  135.6399  155.5103 C   0  0  0  0  0  0  0  0  0  0  0  0
  147.6957  135.7060  155.8905 O   0  0  0  0  0  0  0  0  0  0  0  0
  149.5095  134.4219  155.2648 N   0  0  0  0  0  0  0  0  0  0  0  0
  148.0999  137.9481  156.2186 H   0  0  0  0  0  0  0  0  0  0  0  0
  151.0810  139.7163  154.7721 H   0  0  0  0  0  0  0  0  0  0  0  0
  148.2750  140.8522  155.1263 H   0  0  0  0  0  0  0  0  0  0  0  0
  147.4318  138.8800  154.1639 H   0  0  0  0  0  0  0  0  0  0  0  0
  150.8635  132.3397  154.7608 H   0  0  0  0  0  0  0  0  0  0  0  0
  152.2881  133.1142  154.2989 H   0  0  0  0  0  0  0  0  0  0  0  0
  151.5076  137.6700  154.6707 H   0  0  0  0  0  0  0  0  0  0  0  0
  151.3975  140.9689  157.0108 H   0  0  0  0  0  0  0  0  0  0  0  0
  151.1611  142.0396  155.6386 H   0  0  0  0  0  0  0  0  0  0  0  0
  149.3830  142.6717  156.5669 H   0  0  0  0  0  0  0  0  0  0  0  0
  149.5667  140.4563  152.6887 H   0  0  0  0  0  0  0  0  0  0  0  0
  149.3680  139.0682  152.5265 H   0  0  0  0  0  0  0  0  0  0  0  0
  1  2  1  0  0  0  0
  1 22  1  0  0  0  0
  1 23  1  0  0  0  0
  2 17  2  0  0  0  0
  2  3  1  0  0  0  0
  3  4  2  0  0  0  0
  4  5  1  0  0  0  0
  4 24  1  0  0  0  0
  5  6  1  0  0  0  0
  5 15  1  0  0  0  0
  6 18  1  0  0  0  0
  6 13  1  0  0  0  0
  6  7  1  0  0  0  0
  7  8  1  0  0  0  0
  8 19  1  0  0  0  0
  8  9  1  0  0  0  0
  8 11  1  0  0  0  0
  9 10  1  0  0  0  0
  9 25  1  0  0  0  0
  9 26  1  0  0  0  0
 10 27  1  0  0  0  0
 11 20  1  0  0  0  0
 11 12  1  0  0  0  0
 11 13  1  0  0  0  0
 12 28  1  0  0  0  0
 13 21  1  0  0  0  0
 13 14  1  0  0  0  0
 14 29  1  0  0  0  0
 15 16  2  0  0  0  0
 15 17  1  0  0  0  0
M  END
> <s_m_source_file>
AV-unprocessed.smi

> <i_m_source_file_index>
72

> <i_lp_mmshare_version>
43012

> <i_f3d_flags>
0

> <s_epik_input>
W05IMl1jMW5bY0hdbihjKD1PKW4xKVtDQEBIXTJPW0NASF0oW0NIMl1bT0hdKVtDQEBIXShbT0hdKVtDQEhdMltPSF0=

> <s_epik_cmdline>
J2VwaWtfcHl0aG9uJywgJy1waCcsICc3LjAnLCAnLXRuJywgJzgnLCAnLW1hJywgJzIwMCcsICctbWV0YWxfYmluZGluZycsICctaW1hZScsICc8aW5maWxlLm1hZT4nLCAnLW9tYWUnLCAnPG91dGZpbGUubWFlPic=

> <r_lp_tautomer_probability>
4.77166e-05

> <r_epik_Ionization_Penalty>
1.3546

> <r_epik_Ionization_Penalty_Charging>
1.46833e-10

> <r_epik_Ionization_Penalty_Neutral>
1.3546

> <r_epik_State_Penalty>
3.51908

> <r_epik_Charging_Adjusted_Penalty>
3.51908

> <i_epik_Tot_Q>
0

> <i_epik_Tot_abs_Q>
0

> <r_epik_Metal_State_Penalty>
3.44088

> <b_epik_Metal_Only>
1

> <s_epik_Chemistry_Notes>
This compound contains an acetal/aminal-like group ( X-CH(R)-Y where X, Y are N, S, or O) that may be acid/base labile, releasing an aldehyde.

> <s_lp_Force_Field>
OPLS_2005

> <r_lp_Energy>
34.5765

> <b_lp_Chiralities_Consistent>
1

> <s_lp_Variant>
AV-unprocessed.smi:72-82

> <Gold.Version>
5.8.1

> <Gold.Id.Protein>
6NUR|6NUR_protein|mol2

> <Gold.PLP.Fitness>
35.5964

> <Gold.PLP.PLP>
-21.9465

> <Gold.PLP.part.hbond>
-6.3484

> <Gold.PLP.part.metal>
0.0000

> <Gold.PLP.part.buried>
-3.4158

> <Gold.PLP.part.nonpolar>
-12.9527

> <Gold.PLP.part.repulsive>
0.2640

> <Gold.PLP.ligand.clash>
0.0000

> <Gold.PLP.ligand.torsion>
0.4541

> <Gold.PLP.Chemscore.Hbond>
4.8284

> <Gold.PLP.Chemscore.CHOScore>
0.0000

> <Gold.PLP.Chemscore.Metal>
0.0000

> <Gold.Chemscore.Hbonds>
donor molecule, donor type, donor heavy atom, donor atom, acceptor molecule, acceptor atom, score
      L1  H    10    27       P1  8028  0.34
      L1  H    12    28       P1  7957  0.99
      L1  H    14    29       P1  7957  1.00
      P1  H  8011  8017       L1    12  0.45
      P1  H 10752 10763       L1     3  0.67

> <Gold.PLP.Chemscore.Internal.Correction>
0.0731

> <Gold.Rescore>
     Score         DG    S(hbond)    S(metal)    S(lipo)     H(rot)  DE(clash)    DE(int)     intcor
     11.01     -11.60       4.00        0.00      26.89       4.06       0.01       0.58       ----

> <Gold.Chemscore.Fitness>
11.0126

> <Gold.Chemscore.DG>
-11.5998

> <Gold.Chemscore.ZeroCoef>
-5.4800

> <Gold.Chemscore.Hbond>
4.0020

> <Gold.Chemscore.Metal>
0.0000

> <Gold.Chemscore.Lipo>
26.8944

> <Gold.Chemscore.Internal_Hbond>
0.0000

> <Gold.Chemscore.DEClash>
0.0106

> <Gold.Chemscore.DEInternal>
0.5765

> <Gold.Chemscore.Rot>
4.0600

> <Gold.Chemscore.Internal.Correction>
   9.000000E+99

> <Gold.Chemscore.Hbonds>
donor molecule, donor type, donor heavy atom, donor atom, acceptor molecule, acceptor atom, score
      L1  H    10    27       P1  8028  0.35
      L1  H    12    28       P1  7957  0.92
      L1  H    14    29       P1  7957  0.96
      P1  H  8011  8017       L1    12  0.02
      P1  H 10752 10763       L1     3  0.59

> <Gold.Chemscore.Hbond.Weighted>
-13.3667

> <Gold.Chemscore.Metal.Weighted>
-0.0000

> <Gold.Chemscore.Lipo.Weighted>
-3.1466

> <Gold.Chemscore.Internal_Hbond.Weighted>
0.0000

> <Gold.Chemscore.DEClash.Weighted>
0.0106

> <Gold.Chemscore.DEInternal.Weighted>
0.5765

> <Gold.Chemscore.Rot.Weighted>
10.3936

> <Gold.Chemscore.Internal.Correction.Weighted>
   9.000000E+99

> <Gold.Protein.RotatedTorsions>
[ 6907 6896 6895 6894 ] final  124.39 input  -60.11 | X-H torsion
[ 7974 7965 7964 7962 ] final -128.47 input  175.53 | X-H torsion
[ 8008 7997 7996 7995 ] final -154.55 input   59.86 | X-H torsion
[ 10167 10162 10161 10158 ] final -115.72 input  -65.29 | X-H torsion
[ 10718 10713 10712 10709 ] final  107.71 input   66.30 | X-H torsion
[ 10763 10752 10751 10750 ] final   62.81 input  -60.55 | X-H torsion
[ 11005 11000 10999 10996 ] final -109.90 input  -57.11 | X-H torsion

> <Gold.Protein.ActiveResidues>
 VAL166  LYS551  ARG553  GLY616  TRP617  ASP618  TYR619  PRO620  LYS621  CYS622 
 ASP623  PHE694  ASN695  SER759  ASP760  ASP761  ALA762  ILE779  LEU786  VAL792 
 PHE793  MET794  SER795  GLU796  ALA797  LYS798  CYS799  TRP800  GLU811  SER814 

> <Gold.Protein.RotatedAtoms>
  152.4082  133.6921  159.6374 H   0  0  0  0  0  0  0  0  0  0  0  0  # atno 6907 bound_to 6896
  150.7964  133.8672  159.3257 H   0  0  0  0  0  0  0  0  0  0  0  0  # atno 6908 bound_to 6896
  151.6421  135.1013  160.0195 H   0  0  0  0  0  0  0  0  0  0  0  0  # atno 6909 bound_to 6896
  144.9668  140.7504  143.4695 H   0  0  0  0  0  0  0  0  0  0  0  0  # atno 7974 bound_to 7965
  155.6880  140.0752  157.2459 H   0  0  0  0  0  0  0  0  0  0  0  0  # atno 8008 bound_to 7997
  154.4093  140.1670  156.2108 H   0  0  0  0  0  0  0  0  0  0  0  0  # atno 8009 bound_to 7997
  155.9476  140.3380  155.6383 H   0  0  0  0  0  0  0  0  0  0  0  0  # atno 8010 bound_to 7997
  140.0870  143.4734  152.1892 H   0  0  0  0  0  0  0  0  0  0  0  0  # atno 10167 bound_to 10162
  157.6617  131.0878  150.6197 H   0  0  0  0  0  0  0  0  0  0  0  0  # atno 10718 bound_to 10713
  152.9996  135.5451  154.6253 H   0  0  0  0  0  0  0  0  0  0  0  0  # atno 10763 bound_to 10752
  154.5543  135.2829  155.0981 H   0  0  0  0  0  0  0  0  0  0  0  0  # atno 10764 bound_to 10752
  154.2209  135.6451  153.5197 H   0  0  0  0  0  0  0  0  0  0  0  0  # atno 10765 bound_to 10752
  141.0822  133.9200  157.2264 H   0  0  0  0  0  0  0  0  0  0  0  0  # atno 11005 bound_to 11000
  145.2618  139.1989  143.4888 LP  0  0  0  0  0  0  0  0  0  0  0  0  # atno 17320 bound_to 7965
  146.3370  140.2550  142.8600 LP  0  0  0  0  0  0  0  0  0  0  0  0  # atno 17321 bound_to 7965
  139.5746  144.7481  151.3798 LP  0  0  0  0  0  0  0  0  0  0  0  0  # atno 17342 bound_to 10162
  140.7048  143.7541  150.7463 LP  0  0  0  0  0  0  0  0  0  0  0  0  # atno 17343 bound_to 10162
  156.6500  130.4482  149.5723 LP  0  0  0  0  0  0  0  0  0  0  0  0  # atno 17370 bound_to 10713
  156.2145  130.6699  151.1304 LP  0  0  0  0  0  0  0  0  0  0  0  0  # atno 17371 bound_to 10713
  139.9637  135.0147  156.9329 LP  0  0  0  0  0  0  0  0  0  0  0  0  # atno 17394 bound_to 11000
  140.5443  134.0689  155.7350 LP  0  0  0  0  0  0  0  0  0  0  0  0  # atno 17395 bound_to 11000

$$$$
