AV-unprocessed.smi:2368|AV-procd|sdf|9427|dock5
  -GOLD-   2272013 63D 1   1.00000     0.00000
 Structure written by MMmdl.
 35 36  0  0  0  0  0  0  0  0  1 V2000
  151.5881  140.2225  155.7898 C   0  0  0  0  0  0  0  0  0  0  0  0
  150.2452  140.2897  155.0865 C   0  0  0  0  0  0  0  0  0  0  0  0
  149.6397  141.4971  155.0987 N   0  0  0  0  0  0  0  0  0  0  0  0
  148.4469  141.6143  154.4810 C   0  0  0  0  0  0  0  0  0  0  0  0
  147.8023  140.5449  153.8308 C   0  0  0  0  0  0  0  0  0  0  0  0
  148.4264  139.2737  153.8274 C   0  0  0  0  0  0  0  0  0  0  0  0
  147.8788  138.1262  153.1859 N   0  0  0  0  0  0  0  0  0  0  0  0
  146.5977  137.7271  153.1034 C   0  0  0  0  0  0  0  0  0  0  0  0
  145.6357  138.2936  153.6215 O   0  0  0  0  0  0  0  0  0  0  0  0
  146.4882  136.6020  152.3827 N   0  0  0  0  0  0  0  0  0  0  0  0
  145.2332  135.9198  152.0865 C   0  0  2  0  0  0  0  0  0  0  0  0
  145.2706  134.5032  152.5905 C   0  0  0  0  0  0  0  0  0  0  0  0
  145.1266  133.6067  151.6169 C   0  0  0  0  0  0  0  0  0  0  0  0
  144.9917  134.2367  150.2556 C   0  0  1  0  0  0  0  0  0  0  0  0
  143.7419  133.7443  149.5073 C   0  0  0  0  0  0  0  0  0  0  0  0
  143.5718  134.4748  148.3111 O   0  0  0  0  0  0  0  0  0  0  0  0
  144.9846  135.7571  150.5638 C   0  0  0  0  0  0  0  0  0  0  0  0
  149.6844  139.1497  154.4637 C   0  0  0  0  0  0  0  0  0  0  0  0
  150.5211  137.6329  154.4845 Cl  0  0  0  0  0  0  0  0  0  0  0  0
  144.4000  136.4382  152.5641 H   0  0  0  0  0  0  0  0  0  0  0  0
  145.8864  133.9763  149.6883 H   0  0  0  0  0  0  0  0  0  0  0  0
  152.3659  139.9068  155.0940 H   0  0  0  0  0  0  0  0  0  0  0  0
  151.5497  139.5080  156.6124 H   0  0  0  0  0  0  0  0  0  0  0  0
  151.8758  141.1920  156.1990 H   0  0  0  0  0  0  0  0  0  0  0  0
  147.9935  142.5941  154.4990 H   0  0  0  0  0  0  0  0  0  0  0  0
  146.8579  140.7279  153.3429 H   0  0  0  0  0  0  0  0  0  0  0  0
  148.5591  137.5076  152.7691 H   0  0  0  0  0  0  0  0  0  0  0  0
  147.3290  136.1960  151.9987 H   0  0  0  0  0  0  0  0  0  0  0  0
  145.3905  134.2684  153.6381 H   0  0  0  0  0  0  0  0  0  0  0  0
  145.1235  132.5358  151.7565 H   0  0  0  0  0  0  0  0  0  0  0  0
  143.8407  132.6881  149.2545 H   0  0  0  0  0  0  0  0  0  0  0  0
  142.8491  133.8471  150.1252 H   0  0  0  0  0  0  0  0  0  0  0  0
  144.4110  134.5513  147.8829 H   0  0  0  0  0  0  0  0  0  0  0  0
  144.0223  136.2016  150.3063 H   0  0  0  0  0  0  0  0  0  0  0  0
  145.7339  136.2742  149.9626 H   0  0  0  0  0  0  0  0  0  0  0  0
  1  2  1  0  0  0  0
  1 22  1  0  0  0  0
  1 23  1  0  0  0  0
  1 24  1  0  0  0  0
  2 18  1  0  0  0  0
  2  3  2  0  0  0  0
  3  4  1  0  0  0  0
  4  5  2  0  0  0  0
  4 25  1  0  0  0  0
  5  6  1  0  0  0  0
  5 26  1  0  0  0  0
  6  7  1  0  0  0  0
  6 18  2  0  0  0  0
  7  8  1  0  0  0  0
  7 27  1  0  0  0  0
  8  9  2  0  0  0  0
  8 10  1  0  0  0  0
 10 11  1  0  0  0  0
 10 28  1  0  0  0  0
 11 20  1  0  0  0  0
 11 17  1  0  0  0  0
 11 12  1  0  0  0  0
 12 13  2  0  0  0  0
 12 29  1  0  0  0  0
 13 14  1  0  0  0  0
 13 30  1  0  0  0  0
 14 21  1  0  0  0  0
 14 15  1  0  0  0  0
 14 17  1  0  0  0  0
 15 16  1  0  0  0  0
 15 31  1  0  0  0  0
 15 32  1  0  0  0  0
 16 33  1  0  0  0  0
 17 34  1  0  0  0  0
 17 35  1  0  0  0  0
 18 19  1  0  0  0  0
M  END
> <s_m_source_file>
AV-unprocessed.smi

> <i_m_source_file_index>
2368

> <i_lp_mmshare_version>
43012

> <i_f3d_flags>
0

> <s_epik_input>
W0NIM11jMW5bY0hdW2NIXWMoYzFDbClbTkhdQyg9TylbTkhdW0NAQEhdMltDSF09W0NIXVtDQEBIXShbQ0gyXTIpW0NIMl1bT0hd

> <s_epik_cmdline>
J2VwaWtfcHl0aG9uJywgJy1waCcsICc3LjAnLCAnLXRuJywgJzgnLCAnLW1hJywgJzIwMCcsICctbWV0YWxfYmluZGluZycsICctaW1hZScsICc8aW5maWxlLm1hZT4nLCAnLW9tYWUnLCAnPG91dGZpbGUubWFlPic=

> <r_epik_Ionization_Penalty>
0.00964582

> <r_epik_Ionization_Penalty_Charging>
0

> <r_epik_Ionization_Penalty_Neutral>
0.00964582

> <r_epik_State_Penalty>
0.00730775

> <r_epik_Charging_Adjusted_Penalty>
0.00730775

> <i_epik_Tot_Q>
0

> <i_epik_Tot_abs_Q>
0

> <r_epik_Metal_State_Penalty>
0.00719079

> <b_epik_Metal_Only>
0

> <s_lp_Force_Field>
OPLS_2005

> <r_lp_Energy>
22.0768

> <b_lp_Chiralities_Consistent>
1

> <s_lp_Variant>
AV-unprocessed.smi:2368-3

> <Gold.Version>
5.8.1

> <Gold.Id.Protein>
6NUR|6NUR_protein|mol2

> <Gold.PLP.Fitness>
44.6506

> <Gold.PLP.PLP>
-30.2914

> <Gold.PLP.part.hbond>
-5.4468

> <Gold.PLP.part.metal>
0.0000

> <Gold.PLP.part.buried>
4.8685

> <Gold.PLP.part.nonpolar>
-30.1974

> <Gold.PLP.part.repulsive>
0.3828

> <Gold.PLP.ligand.clash>
0.0000

> <Gold.PLP.ligand.torsion>
0.2979

> <Gold.PLP.Chemscore.Hbond>
3.9913

> <Gold.PLP.Chemscore.CHOScore>
0.9887

> <Gold.PLP.Chemscore.Metal>
0.0000

> <Gold.Chemscore.Hbonds>
donor molecule, donor type, donor heavy atom, donor atom, acceptor molecule, acceptor atom, score
      L1  H     7    27       P1  7948  1.00
      L1  H    10    28       P1  7948  0.99
      L1  H    16    33       P1  7921  1.00
      P1  H 10192 10197       L1    16  0.93
      L1  C     4    25       P1  8028  0.93

> <Gold.PLP.Chemscore.Internal.Correction>
0.0152

> <Gold.Rescore>
     Score         DG    S(hbond)    S(metal)    S(lipo)     H(rot)  DE(clash)    DE(int)     intcor
     21.16     -23.49       3.82        0.00      83.92       1.78       2.07       0.26       ----

> <Gold.Chemscore.Fitness>
21.1607

> <Gold.Chemscore.DG>
-23.4868

> <Gold.Chemscore.ZeroCoef>
-5.4800

> <Gold.Chemscore.Hbond>
3.8157

> <Gold.Chemscore.Metal>
0.0000

> <Gold.Chemscore.Lipo>
83.9176

> <Gold.Chemscore.Internal_Hbond>
0.0000

> <Gold.Chemscore.DEClash>
2.0654

> <Gold.Chemscore.DEInternal>
0.2607

> <Gold.Chemscore.Rot>
1.7796

> <Gold.Chemscore.Internal.Correction>
   9.000000E+99

> <Gold.Chemscore.Hbonds>
donor molecule, donor type, donor heavy atom, donor atom, acceptor molecule, acceptor atom, score
      L1  H     7    27       P1  7948  0.96
      L1  H    10    28       P1  7948  0.93
      L1  H    16    33       P1  7921  1.00
      P1  H 10192 10197       L1    16  0.76

> <Gold.Chemscore.Hbond.Weighted>
-12.7443

> <Gold.Chemscore.Metal.Weighted>
-0.0000

> <Gold.Chemscore.Lipo.Weighted>
-9.8184

> <Gold.Chemscore.Internal_Hbond.Weighted>
0.0000

> <Gold.Chemscore.DEClash.Weighted>
2.0654

> <Gold.Chemscore.DEInternal.Weighted>
0.2607

> <Gold.Chemscore.Rot.Weighted>
4.5558

> <Gold.Chemscore.Internal.Correction.Weighted>
   9.000000E+99

> <Gold.Protein.RotatedTorsions>
[ 6907 6896 6895 6894 ] final -158.85 input  -60.11 | X-H torsion
[ 7974 7965 7964 7962 ] final -109.57 input  175.53 | X-H torsion
[ 8008 7997 7996 7995 ] final  -15.24 input   59.86 | X-H torsion
[ 10167 10162 10161 10158 ] final   44.63 input  -65.29 | X-H torsion
[ 10718 10713 10712 10709 ] final    7.43 input   66.30 | X-H torsion
[ 10763 10752 10751 10750 ] final  109.69 input  -60.55 | X-H torsion
[ 11005 11000 10999 10996 ] final    9.22 input  -57.11 | X-H torsion

> <Gold.Protein.ActiveResidues>
 VAL166  LYS551  ARG553  GLY616  TRP617  ASP618  TYR619  PRO620  LYS621  CYS622 
 ASP623  PHE694  ASN695  SER759  ASP760  ASP761  ALA762  ILE779  LEU786  VAL792 
 PHE793  MET794  SER795  GLU796  ALA797  LYS798  CYS799  TRP800  GLU811  SER814 

> <Gold.Protein.RotatedAtoms>
  151.3245  133.4026  159.2657 H   0  0  0  0  0  0  0  0  0  0  0  0  # atno 6907 bound_to 6896
  151.0007  134.9320  159.7962 H   0  0  0  0  0  0  0  0  0  0  0  0  # atno 6908 bound_to 6896
  152.5274  134.3210  159.9200 H   0  0  0  0  0  0  0  0  0  0  0  0  # atno 6909 bound_to 6896
  145.1788  140.8961  143.3492 H   0  0  0  0  0  0  0  0  0  0  0  0  # atno 7974 bound_to 7965
  154.5146  140.2201  155.9091 H   0  0  0  0  0  0  0  0  0  0  0  0  # atno 8008 bound_to 7997
  156.1592  140.3145  155.8744 H   0  0  0  0  0  0  0  0  0  0  0  0  # atno 8009 bound_to 7997
  155.3785  140.0471  157.3035 H   0  0  0  0  0  0  0  0  0  0  0  0  # atno 8010 bound_to 7997
  140.3323  144.2573  150.6166 H   0  0  0  0  0  0  0  0  0  0  0  0  # atno 10167 bound_to 10162
  156.9368  130.5846  149.5651 H   0  0  0  0  0  0  0  0  0  0  0  0  # atno 10718 bound_to 10713
  153.4384  135.3772  155.2213 H   0  0  0  0  0  0  0  0  0  0  0  0  # atno 10763 bound_to 10752
  154.8753  135.3857  154.4183 H   0  0  0  0  0  0  0  0  0  0  0  0  # atno 10764 bound_to 10752
  153.4725  135.7087  153.6048 H   0  0  0  0  0  0  0  0  0  0  0  0  # atno 10765 bound_to 10752
  140.5282  134.0492  155.7865 H   0  0  0  0  0  0  0  0  0  0  0  0  # atno 11005 bound_to 11000
  145.0157  139.3469  143.6097 LP  0  0  0  0  0  0  0  0  0  0  0  0  # atno 17320 bound_to 7965
  146.3456  139.9437  142.8737 LP  0  0  0  0  0  0  0  0  0  0  0  0  # atno 17321 bound_to 7965
  140.5386  143.2228  151.8122 LP  0  0  0  0  0  0  0  0  0  0  0  0  # atno 17342 bound_to 10162
  139.4854  144.4630  151.9518 LP  0  0  0  0  0  0  0  0  0  0  0  0  # atno 17343 bound_to 10162
  156.0422  130.5503  150.8798 LP  0  0  0  0  0  0  0  0  0  0  0  0  # atno 17370 bound_to 10713
  157.5811  131.0946  150.9270 LP  0  0  0  0  0  0  0  0  0  0  0  0  # atno 17371 bound_to 10713
  141.1296  133.9324  157.2563 LP  0  0  0  0  0  0  0  0  0  0  0  0  # atno 17394 bound_to 11000
  139.9569  135.0163  156.9152 LP  0  0  0  0  0  0  0  0  0  0  0  0  # atno 17395 bound_to 11000

$$$$
