AV-unprocessed.smi:529|AV-procd|sdf|2840|dock6
  -GOLD-   2262023333D 1   1.00000     0.00000
 Structure written by MMmdl.
 30 31  0  0  0  0  0  0  0  0  1 V2000
  149.2912  140.2353  154.0028 N   0  0  0  0  0  0  0  0  0  0  0  0
  150.3517  139.7726  154.5656 C   0  0  0  0  0  0  0  0  0  0  0  0
  151.3880  138.3922  153.9662 S   0  0  0  0  0  0  0  0  0  0  0  0
  152.4554  138.6100  155.3366 C   0  0  0  0  0  0  0  0  0  0  0  0
  152.0557  139.6004  156.1324 C   0  0  0  0  0  0  0  0  0  0  0  0
  150.9041  140.2594  155.7528 N   0  0  0  0  0  0  0  0  0  0  0  0
  150.3648  141.3920  156.5066 C   0  0  0  0  0  0  0  0  0  0  0  0
  151.2717  141.8489  157.6576 C   0  0  0  0  0  0  0  0  0  0  0  0
  151.6560  141.0570  158.5194 O   0  0  0  0  0  0  0  0  0  0  0  0
  151.5981  143.1500  157.6611 N   0  0  0  0  0  0  0  0  0  0  0  0
  152.4445  143.7989  158.6588 C   0  0  0  0  0  0  0  0  0  0  0  0
  152.1693  143.2637  160.0799 C   0  0  0  0  0  0  0  0  0  0  0  0
  151.9758  144.4945  160.9673 C   0  0  0  0  0  0  0  0  0  0  0  0
  151.4173  145.5549  160.0239 C   0  0  0  0  0  0  0  0  0  0  0  0
  152.1597  145.3113  158.7099 C   0  0  0  0  0  0  0  0  0  0  0  0
  149.0901  139.7217  153.1573 H   0  0  0  0  0  0  0  0  0  0  0  0
  153.3268  137.9868  155.4723 H   0  0  0  0  0  0  0  0  0  0  0  0
  152.5447  139.9328  157.0366 H   0  0  0  0  0  0  0  0  0  0  0  0
  150.1749  142.2332  155.8381 H   0  0  0  0  0  0  0  0  0  0  0  0
  149.3948  141.1165  156.9229 H   0  0  0  0  0  0  0  0  0  0  0  0
  151.2366  143.7336  156.9205 H   0  0  0  0  0  0  0  0  0  0  0  0
  153.4928  143.6477  158.3944 H   0  0  0  0  0  0  0  0  0  0  0  0
  151.2551  142.6680  160.0975 H   0  0  0  0  0  0  0  0  0  0  0  0
  152.9751  142.6239  160.4406 H   0  0  0  0  0  0  0  0  0  0  0  0
  151.3217  144.3003  161.8179 H   0  0  0  0  0  0  0  0  0  0  0  0
  152.9405  144.8226  161.3565 H   0  0  0  0  0  0  0  0  0  0  0  0
  150.3485  145.3916  159.8794 H   0  0  0  0  0  0  0  0  0  0  0  0
  151.5528  146.5685  160.4016 H   0  0  0  0  0  0  0  0  0  0  0  0
  153.1061  145.8533  158.7299 H   0  0  0  0  0  0  0  0  0  0  0  0
  151.6007  145.6780  157.8479 H   0  0  0  0  0  0  0  0  0  0  0  0
  1  2  2  0  0  0  0
  1 16  1  0  0  0  0
  2  6  1  0  0  0  0
  2  3  1  0  0  0  0
  3  4  1  0  0  0  0
  4  5  2  0  0  0  0
  4 17  1  0  0  0  0
  5  6  1  0  0  0  0
  5 18  1  0  0  0  0
  6  7  1  0  0  0  0
  7  8  1  0  0  0  0
  7 19  1  0  0  0  0
  7 20  1  0  0  0  0
  8  9  2  0  0  0  0
  8 10  1  0  0  0  0
 10 11  1  0  0  0  0
 10 21  1  0  0  0  0
 11 15  1  0  0  0  0
 11 12  1  0  0  0  0
 11 22  1  0  0  0  0
 12 13  1  0  0  0  0
 12 23  1  0  0  0  0
 12 24  1  0  0  0  0
 13 14  1  0  0  0  0
 13 25  1  0  0  0  0
 13 26  1  0  0  0  0
 14 15  1  0  0  0  0
 14 27  1  0  0  0  0
 14 28  1  0  0  0  0
 15 29  1  0  0  0  0
 15 30  1  0  0  0  0
M  END
> <s_m_source_file>
AV-unprocessed.smi

> <i_m_source_file_index>
529

> <i_lp_mmshare_version>
43012

> <i_f3d_flags>
0

> <s_epik_input>
W0hdL049YzFcc1tjSF1bY0hdbjFbQ0gyXUMoPU8pW05IXVtDSF0yW0NIMl1bQ0gyXVtDSDJdW0NIMl0y

> <s_epik_cmdline>
J2VwaWtfcHl0aG9uJywgJy1waCcsICc3LjAnLCAnLXRuJywgJzgnLCAnLW1hJywgJzIwMCcsICctbWV0YWxfYmluZGluZycsICctaW1hZScsICc8aW5maWxlLm1hZT4nLCAnLW9tYWUnLCAnPG91dGZpbGUubWFlPic=

> <r_epik_Ionization_Penalty>
2.18041

> <r_epik_Ionization_Penalty_Charging>
2.18041

> <r_epik_Ionization_Penalty_Neutral>
1.25369e-07

> <r_epik_State_Penalty>
2.33404

> <r_epik_Charging_Adjusted_Penalty>
4.51444

> <i_epik_Tot_Q>
0

> <i_epik_Tot_abs_Q>
0

> <r_epik_Metal_State_Penalty>
2.33404

> <b_epik_Metal_Only>
0

> <s_lp_Force_Field>
OPLS_2005

> <r_lp_Energy>
15.3577

> <b_lp_Chiralities_Consistent>
1

> <s_lp_Variant>
AV-unprocessed.smi:529-2

> <Gold.Version>
5.8.1

> <Gold.Id.Protein>
6NUR|6NUR_protein|mol2

> <Gold.PLP.Fitness>
41.0548

> <Gold.PLP.PLP>
-39.6375

> <Gold.PLP.part.hbond>
-1.6306

> <Gold.PLP.part.metal>
0.0000

> <Gold.PLP.part.buried>
-3.2844

> <Gold.PLP.part.nonpolar>
-34.8325

> <Gold.PLP.part.repulsive>
0.0166

> <Gold.PLP.ligand.clash>
0.0000

> <Gold.PLP.ligand.torsion>
0.3986

> <Gold.PLP.Chemscore.Hbond>
0.7360

> <Gold.PLP.Chemscore.CHOScore>
0.0000

> <Gold.PLP.Chemscore.Metal>
0.0000

> <Gold.Chemscore.Hbonds>
donor molecule, donor type, donor heavy atom, donor atom, acceptor molecule, acceptor atom, score
      L1  H     1    16       P1  7957  0.56

> <Gold.PLP.Chemscore.Internal.Correction>
0.0066

> <Gold.Rescore>
     Score         DG    S(hbond)    S(metal)    S(lipo)     H(rot)  DE(clash)    DE(int)     intcor
     10.93     -13.71       0.39        0.00      93.51       1.56       0.13       2.65       ----

> <Gold.Chemscore.Fitness>
10.9328

> <Gold.Chemscore.DG>
-13.7071

> <Gold.Chemscore.ZeroCoef>
-5.4800

> <Gold.Chemscore.Hbond>
0.3861

> <Gold.Chemscore.Metal>
0.0000

> <Gold.Chemscore.Lipo>
93.5064

> <Gold.Chemscore.Internal_Hbond>
0.0000

> <Gold.Chemscore.DEClash>
0.1270

> <Gold.Chemscore.DEInternal>
2.6474

> <Gold.Chemscore.Rot>
1.5635

> <Gold.Chemscore.Internal.Correction>
   9.000000E+99

> <Gold.Chemscore.Hbonds>
donor molecule, donor type, donor heavy atom, donor atom, acceptor molecule, acceptor atom, score
      L1  H     1    16       P1  7957  0.55

> <Gold.Chemscore.Hbond.Weighted>
-1.2894

> <Gold.Chemscore.Metal.Weighted>
-0.0000

> <Gold.Chemscore.Lipo.Weighted>
-10.9402

> <Gold.Chemscore.Internal_Hbond.Weighted>
0.0000

> <Gold.Chemscore.DEClash.Weighted>
0.1270

> <Gold.Chemscore.DEInternal.Weighted>
2.6474

> <Gold.Chemscore.Rot.Weighted>
4.0025

> <Gold.Chemscore.Internal.Correction.Weighted>
   9.000000E+99

> <Gold.Protein.RotatedTorsions>
[ 6907 6896 6895 6894 ] final   67.59 input  -60.11 | X-H torsion
[ 7974 7965 7964 7962 ] final  -31.55 input  175.53 | X-H torsion
[ 8008 7997 7996 7995 ] final   16.34 input   59.86 | X-H torsion
[ 10167 10162 10161 10158 ] final   32.72 input  -65.29 | X-H torsion
[ 10718 10713 10712 10709 ] final  -94.35 input   66.30 | X-H torsion
[ 10763 10752 10751 10750 ] final   10.45 input  -60.55 | X-H torsion
[ 11005 11000 10999 10996 ] final  -89.97 input  -57.11 | X-H torsion

> <Gold.Protein.ActiveResidues>
 VAL166  LYS551  ARG553  GLY616  TRP617  ASP618  TYR619  PRO620  LYS621  CYS622 
 ASP623  PHE694  ASN695  SER759  ASP760  ASP761  ALA762  ILE779  LEU786  VAL792 
 PHE793  MET794  SER795  GLU796  ALA797  LYS798  CYS799  TRP800  GLU811  SER814 

> <Gold.Protein.RotatedAtoms>
  152.4562  134.5286  159.9803 H   0  0  0  0  0  0  0  0  0  0  0  0  # atno 6907 bound_to 6896
  151.5346  133.3437  159.2932 H   0  0  0  0  0  0  0  0  0  0  0  0  # atno 6908 bound_to 6896
  150.8507  134.7862  159.7069 H   0  0  0  0  0  0  0  0  0  0  0  0  # atno 6909 bound_to 6896
  146.1059  140.5681  142.8800 H   0  0  0  0  0  0  0  0  0  0  0  0  # atno 7974 bound_to 7965
  154.8756  140.2965  155.5455 H   0  0  0  0  0  0  0  0  0  0  0  0  # atno 8008 bound_to 7997
  156.3022  140.2452  156.3684 H   0  0  0  0  0  0  0  0  0  0  0  0  # atno 8009 bound_to 7997
  154.8771  140.0399  157.1749 H   0  0  0  0  0  0  0  0  0  0  0  0  # atno 8010 bound_to 7997
  140.4472  144.1101  150.6185 H   0  0  0  0  0  0  0  0  0  0  0  0  # atno 10167 bound_to 10162
  156.0026  130.5064  150.5913 H   0  0  0  0  0  0  0  0  0  0  0  0  # atno 10718 bound_to 10713
  153.2031  135.6859  153.8206 H   0  0  0  0  0  0  0  0  0  0  0  0  # atno 10763 bound_to 10752
  153.7466  135.3230  155.3314 H   0  0  0  0  0  0  0  0  0  0  0  0  # atno 10764 bound_to 10752
  154.8182  135.4671  154.0806 H   0  0  0  0  0  0  0  0  0  0  0  0  # atno 10765 bound_to 10752
  141.1575  133.7663  156.9671 H   0  0  0  0  0  0  0  0  0  0  0  0  # atno 11005 bound_to 11000
  144.7470  140.5094  143.6828 LP  0  0  0  0  0  0  0  0  0  0  0  0  # atno 17320 bound_to 7965
  145.5762  139.1486  143.3261 LP  0  0  0  0  0  0  0  0  0  0  0  0  # atno 17321 bound_to 7965
  140.4249  143.2594  151.9669 LP  0  0  0  0  0  0  0  0  0  0  0  0  # atno 17342 bound_to 10162
  139.4794  144.5797  151.7953 LP  0  0  0  0  0  0  0  0  0  0  0  0  # atno 17343 bound_to 10162
  157.3777  131.0776  151.1503 LP  0  0  0  0  0  0  0  0  0  0  0  0  # atno 17370 bound_to 10713
  157.2236  130.6492  149.5821 LP  0  0  0  0  0  0  0  0  0  0  0  0  # atno 17371 bound_to 10713
  140.1154  134.9451  157.2126 LP  0  0  0  0  0  0  0  0  0  0  0  0  # atno 17394 bound_to 11000
  140.3140  134.2991  155.7260 LP  0  0  0  0  0  0  0  0  0  0  0  0  # atno 17395 bound_to 11000

$$$$
