#       Name:                AV-unprocessed.smi:2061
#       Creating user name   scv26
#       Creation time:       Fri Mar 27 11:07:40 2020


#       File generated by GOLD software.
#

@<TRIPOS>MOLECULE
AV-unprocessed.smi:2061
    53    54     1
SMALL
NO_CHARGES


@<TRIPOS>ATOM
      1 ****        -4.2888   4.8632   0.9402 C.3            1 S1                 0.0000
      2 ****        -3.6248   3.5330   0.8303 C.2            1 S1                 0.0000
      3 ****        -3.1144   2.6716   1.7602 C.2            1 S1                 0.0000
      4 ****        -2.6369   1.5921   0.9705 C.2            1 S1                 0.0000
      5 ****        -2.0066   0.4729   1.5755 N.am           1 S1                 0.0000
      6 ****        -1.5514  -0.6486   0.9894 C.2            1 S1                 0.0000
      7 ****        -1.7755  -0.8613  -0.2083 O.2            1 S1                 0.0000
      8 ****        -0.8505  -1.4381   1.8500 N.pl3          1 S1                -1.0000
      9 ****        -0.2051  -2.7066   1.4927 C.3            1 S1                 0.0000
     10 ****         1.2716  -2.5020   1.0508 C.3            1 S1                 0.0000
     11 ****         2.2280  -2.0827   2.1951 C.3            1 S1                 0.0000
     12 ****         1.3555  -1.6425  -0.1730 N.4            1 S1                 1.0000
     13 ****         1.8095  -0.2405   0.0187 C.3            1 S1                 0.0000
     14 ****         1.5647   0.5623  -1.2688 C.3            1 S1                 0.0000
     15 ****         2.0592   2.0076  -1.1481 C.3            1 S1                 0.0000
     16 ****         2.2661  -0.0586  -2.3442 O.3            1 S1                 0.0000
     17 ****         1.9092  -1.4204  -2.5882 C.3            1 S1                 0.0000
     18 ****         0.5120  -1.5463  -3.2216 C.3            1 S1                 0.0000
     19 ****         2.0792  -2.2634  -1.3078 C.3            1 S1                 0.0000
     20 ****        -2.8297   1.7830  -0.3265 N.2            1 S1                 0.0000
     21 ****        -3.4668   3.0256  -0.4224 O.3            1 S1                 0.0000
     22 ****        -3.6633   5.5621   1.4955 H              1 S1                 0.0000
     23 ****        -5.2427   4.7757   1.4604 H              1 S1                 0.0000
     24 ****        -4.4796   5.2905  -0.0446 H              1 S1                 0.0000
     25 ****        -3.0891   2.7945   2.8325 H              1 S1                 0.0000
     26 ****        -1.8395   0.5495   2.5678 H              1 S1                 0.0000
     27 ****        -0.2232  -3.4003   2.3333 H              1 S1                 0.0000
     28 ****        -0.7381  -3.2230   0.6929 H              1 S1                 0.0000
     29 ****         1.6057  -3.4994   0.7617 H              1 S1                 0.0000
     30 ****         2.2287  -2.8124   3.0068 H              1 S1                 0.0000
     31 ****         1.9713  -1.1161   2.6319 H              1 S1                 0.0000
     32 ****         3.2554  -2.0189   1.8359 H              1 S1                 0.0000
     33 ****         1.2668   0.2273   0.8399 H              1 S1                 0.0000
     34 ****         2.8690  -0.2192   0.2773 H              1 S1                 0.0000
     35 ****         0.4967   0.5900  -1.4868 H              1 S1                 0.0000
     36 ****         1.5439   2.5313  -0.3423 H              1 S1                 0.0000
     37 ****         1.8778   2.5592  -2.0708 H              1 S1                 0.0000
     38 ****         3.1294   2.0441  -0.9423 H              1 S1                 0.0000
     39 ****         2.6220  -1.7912  -3.3252 H              1 S1                 0.0000
     40 ****         0.3145  -2.5751  -3.5230 H              1 S1                 0.0000
     41 ****         0.4310  -0.9218  -4.1114 H              1 S1                 0.0000
     42 ****        -0.2825  -1.2545  -2.5357 H              1 S1                 0.0000
     43 ****         3.1362  -2.3483  -1.0508 H              1 S1                 0.0000
     44 ****         1.7123  -3.2753  -1.4860 H              1 S1                 0.0000
     45 ****         0.3946  -1.5708  -0.4793 H              1 S1                 0.0000
     46 ****        -2.2971  -0.1979  -0.7449 LP             1 S1                 0.0000
     47 ****        -1.4351  -1.6966  -0.6401 LP             1 S1                 0.0000
     48 ****        -0.7696  -1.1297   2.7978 LP             1 S1                 0.0000
     49 ****         3.2439  -0.0259  -2.1374 LP             1 S1                 0.0000
     50 ****         2.0839   0.4643  -3.1770 LP             1 S1                 0.0000
     51 ****        -2.5750   1.1712  -1.0754 LP             1 S1                 0.0000
     52 ****        -2.9083   3.6488  -0.9699 LP             1 S1                 0.0000
     53 ****        -4.3614   2.9126  -0.8550 LP             1 S1                 0.0000
@<TRIPOS>BOND
    1    1    2 1     
    2    1   22 1     
    3    1   23 1     
    4    1   24 1     
    5    2   21 1     
    6    2    3 2     
    7    3    4 1     
    8    3   25 1     
    9    4    5 1     
   10    4   20 2     
   11    5    6 am    
   12    5   26 1     
   13    6    7 2     
   14    6    8 1     
   15    8    9 1     
   16    9   10 1     
   17    9   27 1     
   18    9   28 1     
   19   10   11 1     
   20   10   12 1     
   21   10   29 1     
   22   11   30 1     
   23   11   31 1     
   24   11   32 1     
   25   12   19 1     
   26   12   13 1     
   27   12   45 1     
   28   13   14 1     
   29   13   33 1     
   30   13   34 1     
   31   14   15 1     
   32   14   16 1     
   33   14   35 1     
   34   15   36 1     
   35   15   37 1     
   36   15   38 1     
   37   16   17 1     
   38   17   18 1     
   39   17   19 1     
   40   17   39 1     
   41   18   40 1     
   42   18   41 1     
   43   18   42 1     
   44   19   43 1     
   45   19   44 1     
   46   20   21 1     
   47    7   46 1     
   48    7   47 1     
   49    8   48 1     
   50   16   49 1     
   51   16   50 1     
   52   20   51 1     
   53   21   52 1     
   54   21   53 1     
@<TRIPOS>SUBSTRUCTURE
      1 S1             1
@<TRIPOS>SET
LONE_PAIRS      STATIC     ATOMS    <user>   **** ""
8 46 47 48 49 50 51 52 53
DONOR_HYDROGENS      STATIC     ATOMS    <user>   **** ""
2 26 45
ATOM$BLUE        STATIC     ATOMS    COLORGROUP SYSTEM
8 46 47 48 49 50 51 52 53
ATOM$RED        STATIC     ATOMS    COLORGROUP SYSTEM
2 26 45
