AV-unprocessed.smi:286|AV-procd|sdf|2173|dock9
  -GOLD-   2262021533D 1   1.00000     0.00000
 Structure written by MMmdl.
 46 48  0  0  0  0  0  0  0  0  1 V2000
  150.6000  143.6772  158.2023 O   0  0  0  0  0  0  0  0  0  0  0  0
  151.3761  142.8129  158.6135 C   0  0  0  0  0  0  0  0  0  0  0  0
  152.0165  142.8701  159.9231 C   0  0  0  0  0  0  0  0  0  0  0  0
  151.7552  143.9005  160.7452 F   0  0  0  0  0  0  0  0  0  0  0  0
  152.8721  141.9056  160.3261 C   0  0  0  0  0  0  0  0  0  0  0  0
  153.1995  140.8105  159.5426 N   0  0  0  0  0  0  0  0  0  0  0  0
  154.1718  139.7475  160.0097 C   0  0  2  0  0  0  0  0  0  0  0  0
  154.6462  140.0397  161.4460 C   0  0  0  0  0  0  0  0  0  0  0  0
  156.1555  139.9704  161.3222 C   0  0  0  0  0  0  0  0  0  0  0  0
  156.3737  140.3985  159.8789 C   0  0  0  0  0  0  0  0  0  0  0  0
  155.3093  139.7508  159.1945 O   0  0  0  0  0  0  0  0  0  0  0  0
  152.6340  140.6789  158.2557 C   0  0  0  0  0  0  0  0  0  0  0  0
  152.9322  139.7268  157.5299 O   0  0  0  0  0  0  0  0  0  0  0  0
  151.7261  141.6805  157.8379 N   0  0  0  0  0  0  0  0  0  0  0  0
  151.1546  141.5610  156.5065 C   0  0  0  0  0  0  0  0  0  0  0  0
  149.6081  141.5581  156.5022 C   0  0  2  0  0  0  0  0  0  0  0  0
  149.1458  140.7006  157.5282 O   0  0  0  0  0  0  0  0  0  0  0  0
  149.0147  141.1015  155.1468 C   0  0  0  0  0  0  0  0  0  0  0  0
  147.5674  141.6032  154.9499 C   0  0  0  0  0  0  0  0  0  0  0  0
  147.0114  141.2090  153.5722 C   0  0  0  0  0  0  0  0  0  0  0  0
  147.0941  139.6909  153.3525 C   0  0  0  0  0  0  0  0  0  0  0  0
  148.5330  139.1848  153.5344 C   0  0  0  0  0  0  0  0  0  0  0  0
  149.0933  139.5742  154.9121 C   0  0  0  0  0  0  0  0  0  0  0  0
  153.3116  142.0156  161.3054 H   0  0  0  0  0  0  0  0  0  0  0  0
  153.6481  138.7966  159.8959 H   0  0  0  0  0  0  0  0  0  0  0  0
  154.3350  141.0400  161.7513 H   0  0  0  0  0  0  0  0  0  0  0  0
  154.2385  139.3121  162.1481 H   0  0  0  0  0  0  0  0  0  0  0  0
  156.6736  140.6075  162.0394 H   0  0  0  0  0  0  0  0  0  0  0  0
  156.4976  138.9445  161.4638 H   0  0  0  0  0  0  0  0  0  0  0  0
  156.2850  141.4810  159.7781 H   0  0  0  0  0  0  0  0  0  0  0  0
  157.3454  140.0938  159.4895 H   0  0  0  0  0  0  0  0  0  0  0  0
  151.5488  142.4005  155.9311 H   0  0  0  0  0  0  0  0  0  0  0  0
  151.5779  140.6825  156.0169 H   0  0  0  0  0  0  0  0  0  0  0  0
  149.2397  142.5630  156.7120 H   0  0  0  0  0  0  0  0  0  0  0  0
  148.8142  141.2310  158.2364 H   0  0  0  0  0  0  0  0  0  0  0  0
  149.6155  141.5769  154.3697 H   0  0  0  0  0  0  0  0  0  0  0  0
  146.9210  141.1939  155.7268 H   0  0  0  0  0  0  0  0  0  0  0  0
  147.5301  142.6876  155.0587 H   0  0  0  0  0  0  0  0  0  0  0  0
  145.9771  141.5411  153.4810 H   0  0  0  0  0  0  0  0  0  0  0  0
  147.5712  141.7239  152.7906 H   0  0  0  0  0  0  0  0  0  0  0  0
  146.4351  139.1826  154.0576 H   0  0  0  0  0  0  0  0  0  0  0  0
  146.7338  139.4387  152.3547 H   0  0  0  0  0  0  0  0  0  0  0  0
  148.5639  138.1017  153.4133 H   0  0  0  0  0  0  0  0  0  0  0  0
  149.1677  139.6005  152.7510 H   0  0  0  0  0  0  0  0  0  0  0  0
  150.1248  139.2300  154.9853 H   0  0  0  0  0  0  0  0  0  0  0  0
  148.5360  139.0457  155.6863 H   0  0  0  0  0  0  0  0  0  0  0  0
  1  2  2  0  0  0  0
  2 14  1  0  0  0  0
  2  3  1  0  0  0  0
  3  4  1  0  0  0  0
  3  5  2  0  0  0  0
  5  6  1  0  0  0  0
  5 24  1  0  0  0  0
  6  7  1  0  0  0  0
  6 12  1  0  0  0  0
  7 11  1  0  0  0  0
  7  8  1  0  0  0  0
  7 25  1  0  0  0  0
  8  9  1  0  0  0  0
  8 26  1  0  0  0  0
  8 27  1  0  0  0  0
  9 10  1  0  0  0  0
  9 28  1  0  0  0  0
  9 29  1  0  0  0  0
 10 11  1  0  0  0  0
 10 30  1  0  0  0  0
 10 31  1  0  0  0  0
 12 13  2  0  0  0  0
 12 14  1  0  0  0  0
 14 15  1  0  0  0  0
 15 16  1  0  0  0  0
 15 32  1  0  0  0  0
 15 33  1  0  0  0  0
 16 17  1  0  0  0  0
 16 18  1  0  0  0  0
 16 34  1  0  0  0  0
 17 35  1  0  0  0  0
 18 23  1  0  0  0  0
 18 19  1  0  0  0  0
 18 36  1  0  0  0  0
 19 20  1  0  0  0  0
 19 37  1  0  0  0  0
 19 38  1  0  0  0  0
 20 21  1  0  0  0  0
 20 39  1  0  0  0  0
 20 40  1  0  0  0  0
 21 22  1  0  0  0  0
 21 41  1  0  0  0  0
 21 42  1  0  0  0  0
 22 23  1  0  0  0  0
 22 43  1  0  0  0  0
 22 44  1  0  0  0  0
 23 45  1  0  0  0  0
 23 46  1  0  0  0  0
M  END
> <s_m_source_file>
AV-unprocessed.smi

> <i_m_source_file_index>
286

> <i_lp_mmshare_version>
43012

> <i_f3d_flags>
0

> <s_epik_input>
TzFbQ0gyXVtDSDJdW0NIMl1bQ0BIXTFuKFtjSF1jKEYpYzI9TyljKD1PKW4yW0NIMl1bQ0BIXShbT0hdKVtDSF0zW0NIMl1bQ0gyXVtDSDJdW0NIMl1bQ0gyXTM=

> <s_epik_cmdline>
J2VwaWtfcHl0aG9uJywgJy1waCcsICc3LjAnLCAnLXRuJywgJzgnLCAnLW1hJywgJzIwMCcsICctbWV0YWxfYmluZGluZycsICctaW1hZScsICc8aW5maWxlLm1hZT4nLCAnLW9tYWUnLCAnPG91dGZpbGUubWFlPic=

> <r_lp_tautomer_probability>
1

> <r_epik_Ionization_Penalty>
3.15564e-07

> <r_epik_Ionization_Penalty_Charging>
2.06416e-08

> <r_epik_Ionization_Penalty_Neutral>
2.94923e-07

> <r_epik_State_Penalty>
-0

> <r_epik_Charging_Adjusted_Penalty>
2.06416e-08

> <i_epik_Tot_Q>
0

> <i_epik_Tot_abs_Q>
0

> <r_epik_Metal_State_Penalty>
-0

> <b_epik_Metal_Only>
0

> <s_epik_Chemistry_Notes>
This compound contains an acetal/aminal-like group ( X-CH(R)-Y where X, Y are N, S, or O) that may be acid/base labile, releasing an aldehyde.

> <s_lp_Force_Field>
OPLS_2005

> <r_lp_Energy>
41.5856

> <b_lp_Chiralities_Consistent>
1

> <s_lp_Variant>
AV-unprocessed.smi:286-1

> <Gold.Version>
5.8.1

> <Gold.Id.Protein>
6NUR|6NUR_protein|mol2

> <Gold.PLP.Fitness>
45.5173

> <Gold.PLP.PLP>
-42.1751

> <Gold.PLP.part.hbond>
-2.0000

> <Gold.PLP.part.metal>
0.0000

> <Gold.PLP.part.buried>
-2.3416

> <Gold.PLP.part.nonpolar>
-37.5744

> <Gold.PLP.part.repulsive>
0.1735

> <Gold.PLP.ligand.clash>
0.0000

> <Gold.PLP.ligand.torsion>
0.4588

> <Gold.PLP.Chemscore.Hbond>
1.4080

> <Gold.PLP.Chemscore.CHOScore>
0.0000

> <Gold.PLP.Chemscore.Metal>
0.0000

> <Gold.Chemscore.Hbonds>
donor molecule, donor type, donor heavy atom, donor atom, acceptor molecule, acceptor atom, score
      P1  H  7997  8008       L1    13  0.61
      P1  H  7997  8010       L1    11  0.80

> <Gold.PLP.Chemscore.Internal.Correction>
0.0359

> <Gold.Rescore>
     Score         DG    S(hbond)    S(metal)    S(lipo)     H(rot)  DE(clash)    DE(int)     intcor
     11.66     -15.32       1.40        0.00      93.94       2.28       1.60       2.07       ----

> <Gold.Chemscore.Fitness>
11.6553

> <Gold.Chemscore.DG>
-15.3188

> <Gold.Chemscore.ZeroCoef>
-5.4800

> <Gold.Chemscore.Hbond>
1.3993

> <Gold.Chemscore.Metal>
0.0000

> <Gold.Chemscore.Lipo>
93.9353

> <Gold.Chemscore.Internal_Hbond>
0.0000

> <Gold.Chemscore.DEClash>
1.5956

> <Gold.Chemscore.DEInternal>
2.0679

> <Gold.Chemscore.Rot>
2.2756

> <Gold.Chemscore.Internal.Correction>
   9.000000E+99

> <Gold.Chemscore.Hbonds>
donor molecule, donor type, donor heavy atom, donor atom, acceptor molecule, acceptor atom, score
      P1  H  7997  8008       L1    13  0.51
      P1  H  7997  8010       L1    11  0.35

> <Gold.Chemscore.Hbond.Weighted>
-4.6738

> <Gold.Chemscore.Metal.Weighted>
-0.0000

> <Gold.Chemscore.Lipo.Weighted>
-10.9904

> <Gold.Chemscore.Internal_Hbond.Weighted>
0.0000

> <Gold.Chemscore.DEClash.Weighted>
1.5956

> <Gold.Chemscore.DEInternal.Weighted>
2.0679

> <Gold.Chemscore.Rot.Weighted>
5.8254

> <Gold.Chemscore.Internal.Correction.Weighted>
   9.000000E+99

> <Gold.Protein.RotatedTorsions>
[ 6907 6896 6895 6894 ] final -132.97 input  -60.11 | X-H torsion
[ 7974 7965 7964 7962 ] final   43.91 input  175.53 | X-H torsion
[ 8008 7997 7996 7995 ] final  -36.99 input   59.86 | X-H torsion
[ 10167 10162 10161 10158 ] final  -29.40 input  -65.29 | X-H torsion
[ 10718 10713 10712 10709 ] final   32.04 input   66.30 | X-H torsion
[ 10763 10752 10751 10750 ] final  -74.80 input  -60.55 | X-H torsion
[ 11005 11000 10999 10996 ] final  -19.00 input  -57.11 | X-H torsion

> <Gold.Protein.ActiveResidues>
 VAL166  LYS551  ARG553  GLY616  TRP617  ASP618  TYR619  PRO620  LYS621  CYS622 
 ASP623  PHE694  ASN695  SER759  ASP760  ASP761  ALA762  ILE779  LEU786  VAL792 
 PHE793  MET794  SER795  GLU796  ALA797  LYS798  CYS799  TRP800  GLU811  SER814 

> <Gold.Protein.RotatedAtoms>
  150.9686  133.6368  159.2741 H   0  0  0  0  0  0  0  0  0  0  0  0  # atno 6907 bound_to 6896
  151.3665  135.0913  159.9461 H   0  0  0  0  0  0  0  0  0  0  0  0  # atno 6908 bound_to 6896
  152.5174  133.9249  159.7607 H   0  0  0  0  0  0  0  0  0  0  0  0  # atno 6909 bound_to 6896
  146.0615  139.5134  142.9655 H   0  0  0  0  0  0  0  0  0  0  0  0  # atno 7974 bound_to 7965
  154.4062  140.1616  156.2464 H   0  0  0  0  0  0  0  0  0  0  0  0  # atno 8008 bound_to 7997
  155.9156  140.3424  155.6110 H   0  0  0  0  0  0  0  0  0  0  0  0  # atno 8009 bound_to 7997
  155.7283  140.0777  157.2291 H   0  0  0  0  0  0  0  0  0  0  0  0  # atno 8010 bound_to 7997
  140.7261  143.3932  151.1393 H   0  0  0  0  0  0  0  0  0  0  0  0  # atno 10167 bound_to 10162
  157.2802  130.7251  149.6552 H   0  0  0  0  0  0  0  0  0  0  0  0  # atno 10718 bound_to 10713
  154.4780  135.5852  153.6369 H   0  0  0  0  0  0  0  0  0  0  0  0  # atno 10763 bound_to 10752
  152.9843  135.6083  154.3282 H   0  0  0  0  0  0  0  0  0  0  0  0  # atno 10764 bound_to 10752
  154.3171  135.2844  155.2517 H   0  0  0  0  0  0  0  0  0  0  0  0  # atno 10765 bound_to 10752
  140.8323  133.7987  155.9772 H   0  0  0  0  0  0  0  0  0  0  0  0  # atno 11005 bound_to 11000
  145.6552  141.0254  143.1738 LP  0  0  0  0  0  0  0  0  0  0  0  0  # atno 17320 bound_to 7965
  144.7177  139.8137  143.7393 LP  0  0  0  0  0  0  0  0  0  0  0  0  # atno 17321 bound_to 7965
  139.7540  143.8735  152.3084 LP  0  0  0  0  0  0  0  0  0  0  0  0  # atno 17342 bound_to 10162
  139.8598  144.7122  150.9113 LP  0  0  0  0  0  0  0  0  0  0  0  0  # atno 17343 bound_to 10162
  155.9664  130.4340  150.5032 LP  0  0  0  0  0  0  0  0  0  0  0  0  # atno 17370 bound_to 10713
  157.2974  131.0638  151.2092 LP  0  0  0  0  0  0  0  0  0  0  0  0  # atno 17371 bound_to 10713
  140.8984  134.2408  157.5055 LP  0  0  0  0  0  0  0  0  0  0  0  0  # atno 17394 bound_to 11000
  139.8704  134.9695  156.4668 LP  0  0  0  0  0  0  0  0  0  0  0  0  # atno 17395 bound_to 11000

$$$$
