AV-unprocessed.smi:479|AV-procd|sdf|2672|dock5
  -GOLD-   2262023 93D 1   1.00000     0.00000
 Structure written by MMmdl.
 45 47  0  0  0  0  0  0  0  0  1 V2000
  156.3954  134.9883  159.5793 C   0  0  0  0  0  0  0  0  0  0  0  0
  155.9604  136.1021  160.3444 O   0  0  0  0  0  0  0  0  0  0  0  0
  155.4514  135.8768  161.6069 C   0  0  0  0  0  0  0  0  0  0  0  0
  155.3904  134.5957  162.2120 C   0  0  0  0  0  0  0  0  0  0  0  0
  154.8522  134.4275  163.5087 C   0  0  0  0  0  0  0  0  0  0  0  0
  154.7794  133.0899  164.1644 C   0  0  0  0  0  0  0  0  0  0  0  0
  154.0609  132.9905  165.5094 C   0  0  0  0  0  0  0  0  0  0  0  0
  155.2632  132.0683  163.6777 O   0  0  0  0  0  0  0  0  0  0  0  0
  154.3659  135.5604  164.1946 C   0  0  0  0  0  0  0  0  0  0  0  0
  154.4240  136.8348  163.6039 C   0  0  0  0  0  0  0  0  0  0  0  0
  154.9726  137.0048  162.3098 C   0  0  0  0  0  0  0  0  0  0  0  0
  155.0772  138.2261  161.6767 O   0  0  0  0  0  0  0  0  0  0  0  0
  154.1144  139.2307  161.9701 C   0  0  0  0  0  0  0  0  0  0  0  0
  154.7057  140.6229  161.6787 C   0  0  2  0  0  0  0  0  0  0  0  0
  155.8134  140.8547  162.5233 O   0  0  0  0  0  0  0  0  0  0  0  0
  153.7049  141.7934  161.7769 C   0  0  0  0  0  0  0  0  0  0  0  0
  153.0530  142.0766  160.5101 N   0  0  0  0  0  0  0  0  0  0  0  0
  153.0233  141.2838  159.4218 C   0  0  0  0  0  0  0  0  0  0  0  0
  152.3505  141.7254  158.3630 N   0  0  0  0  0  0  0  0  0  0  0  0
  151.8976  142.9538  158.8128 C   0  0  0  0  0  0  0  0  0  0  0  0
  151.1103  143.9334  158.1662 C   0  0  0  0  0  0  0  0  0  0  0  0
  150.7666  145.1282  158.8325 C   0  0  0  0  0  0  0  0  0  0  0  0
  151.2084  145.3643  160.1504 C   0  0  0  0  0  0  0  0  0  0  0  0
  151.9965  144.4042  160.8129 C   0  0  0  0  0  0  0  0  0  0  0  0
  152.3295  143.2091  160.1494 C   0  0  0  0  0  0  0  0  0  0  0  0
  156.7957  135.3413  158.6290 H   0  0  0  0  0  0  0  0  0  0  0  0
  155.5704  134.3099  159.3573 H   0  0  0  0  0  0  0  0  0  0  0  0
  157.1903  134.4408  160.0879 H   0  0  0  0  0  0  0  0  0  0  0  0
  155.7564  133.7334  161.6779 H   0  0  0  0  0  0  0  0  0  0  0  0
  154.5692  133.5964  166.2596 H   0  0  0  0  0  0  0  0  0  0  0  0
  154.0459  131.9576  165.8585 H   0  0  0  0  0  0  0  0  0  0  0  0
  153.0302  133.3333  165.4186 H   0  0  0  0  0  0  0  0  0  0  0  0
  153.9436  135.4659  165.1847 H   0  0  0  0  0  0  0  0  0  0  0  0
  154.0383  137.6694  164.1690 H   0  0  0  0  0  0  0  0  0  0  0  0
  153.2000  139.0706  161.3963 H   0  0  0  0  0  0  0  0  0  0  0  0
  153.8507  139.1846  163.0279 H   0  0  0  0  0  0  0  0  0  0  0  0
  155.1052  140.6016  160.6640 H   0  0  0  0  0  0  0  0  0  0  0  0
  155.5765  140.6087  163.4044 H   0  0  0  0  0  0  0  0  0  0  0  0
  152.9385  141.5739  162.5211 H   0  0  0  0  0  0  0  0  0  0  0  0
  154.2121  142.6988  162.1125 H   0  0  0  0  0  0  0  0  0  0  0  0
  153.5157  140.3224  159.4108 H   0  0  0  0  0  0  0  0  0  0  0  0
  150.7686  143.7645  157.1559 H   0  0  0  0  0  0  0  0  0  0  0  0
  150.1625  145.8682  158.3285 H   0  0  0  0  0  0  0  0  0  0  0  0
  150.9415  146.2820  160.6541 H   0  0  0  0  0  0  0  0  0  0  0  0
  152.3366  144.5817  161.8218 H   0  0  0  0  0  0  0  0  0  0  0  0
  1  2  1  0  0  0  0
  1 26  1  0  0  0  0
  1 27  1  0  0  0  0
  1 28  1  0  0  0  0
  2  3  1  0  0  0  0
  3 11  1  0  0  0  0
  3  4  2  0  0  0  0
  4  5  1  0  0  0  0
  4 29  1  0  0  0  0
  5  6  1  0  0  0  0
  5  9  2  0  0  0  0
  6  7  1  0  0  0  0
  6  8  2  0  0  0  0
  7 30  1  0  0  0  0
  7 31  1  0  0  0  0
  7 32  1  0  0  0  0
  9 10  1  0  0  0  0
  9 33  1  0  0  0  0
 10 11  2  0  0  0  0
 10 34  1  0  0  0  0
 11 12  1  0  0  0  0
 12 13  1  0  0  0  0
 13 14  1  0  0  0  0
 13 35  1  0  0  0  0
 13 36  1  0  0  0  0
 14 15  1  0  0  0  0
 14 16  1  0  0  0  0
 14 37  1  0  0  0  0
 15 38  1  0  0  0  0
 16 17  1  0  0  0  0
 16 39  1  0  0  0  0
 16 40  1  0  0  0  0
 17 25  1  0  0  0  0
 17 18  1  0  0  0  0
 18 19  2  0  0  0  0
 18 41  1  0  0  0  0
 19 20  1  0  0  0  0
 20 25  2  0  0  0  0
 20 21  1  0  0  0  0
 21 22  2  0  0  0  0
 21 42  1  0  0  0  0
 22 23  1  0  0  0  0
 22 43  1  0  0  0  0
 23 24  2  0  0  0  0
 23 44  1  0  0  0  0
 24 25  1  0  0  0  0
 24 45  1  0  0  0  0
M  END
> <s_m_source_file>
AV-unprocessed.smi

> <i_m_source_file_index>
479

> <i_lp_mmshare_version>
43012

> <i_f3d_flags>
0

> <s_epik_input>
W0NIM11PYzFbY0hdYyhDKD1PKVtDSDNdKVtjSF1bY0hdYzFPW0NIMl1bQ0BIXShbT0hdKVtDSDJdbihbY0hdbjIpYyhjMjMpW2NIXVtjSF1bY0hdW2NIXTM=

> <s_epik_cmdline>
J2VwaWtfcHl0aG9uJywgJy1waCcsICc3LjAnLCAnLXRuJywgJzgnLCAnLW1hJywgJzIwMCcsICctbWV0YWxfYmluZGluZycsICctaW1hZScsICc8aW5maWxlLm1hZT4nLCAnLW9tYWUnLCAnPG91dGZpbGUubWFlPic=

> <r_lp_tautomer_probability>
0.99995

> <r_epik_Ionization_Penalty>
0.061028

> <r_epik_Ionization_Penalty_Charging>
0

> <r_epik_Ionization_Penalty_Neutral>
0.061028

> <r_epik_State_Penalty>
0.052945

> <r_epik_Charging_Adjusted_Penalty>
0.052945

> <i_epik_Tot_Q>
0

> <i_epik_Tot_abs_Q>
0

> <r_epik_Metal_State_Penalty>
5.53801e-05

> <b_epik_Metal_Only>
0

> <s_lp_Force_Field>
OPLS_2005

> <r_lp_Energy>
25.674

> <b_lp_Chiralities_Consistent>
1

> <s_lp_Variant>
AV-unprocessed.smi:479-1

> <Gold.Version>
5.8.1

> <Gold.Id.Protein>
6NUR|6NUR_protein|mol2

> <Gold.PLP.Fitness>
52.8147

> <Gold.PLP.PLP>
-54.9494

> <Gold.PLP.part.hbond>
-1.0000

> <Gold.PLP.part.metal>
0.0000

> <Gold.PLP.part.buried>
-3.8032

> <Gold.PLP.part.nonpolar>
-49.4213

> <Gold.PLP.part.repulsive>
0.0000

> <Gold.PLP.ligand.clash>
0.0000

> <Gold.PLP.ligand.torsion>
1.1630

> <Gold.PLP.Chemscore.Hbond>
0.0000

> <Gold.PLP.Chemscore.CHOScore>
0.0000

> <Gold.PLP.Chemscore.Metal>
0.0000

> <Gold.PLP.Chemscore.Internal.Correction>
0.1913

> <Gold.Rescore>
     Score         DG    S(hbond)    S(metal)    S(lipo)     H(rot)  DE(clash)    DE(int)     intcor
     13.66     -16.42       0.00        0.00     151.63       2.66       1.76       1.00       ----

> <Gold.Chemscore.Fitness>
13.6638

> <Gold.Chemscore.DG>
-16.4222

> <Gold.Chemscore.ZeroCoef>
-5.4800

> <Gold.Chemscore.Hbond>
0.0000

> <Gold.Chemscore.Metal>
0.0000

> <Gold.Chemscore.Lipo>
151.6259

> <Gold.Chemscore.Internal_Hbond>
0.0000

> <Gold.Chemscore.DEClash>
1.7588

> <Gold.Chemscore.DEInternal>
0.9997

> <Gold.Chemscore.Rot>
2.6555

> <Gold.Chemscore.Internal.Correction>
   9.000000E+99

> <Gold.Chemscore.Hbond.Weighted>
-0.0000

> <Gold.Chemscore.Metal.Weighted>
-0.0000

> <Gold.Chemscore.Lipo.Weighted>
-17.7402

> <Gold.Chemscore.Internal_Hbond.Weighted>
0.0000

> <Gold.Chemscore.DEClash.Weighted>
1.7588

> <Gold.Chemscore.DEInternal.Weighted>
0.9997

> <Gold.Chemscore.Rot.Weighted>
6.7980

> <Gold.Chemscore.Internal.Correction.Weighted>
   9.000000E+99

> <Gold.Protein.RotatedTorsions>
[ 6907 6896 6895 6894 ] final  145.61 input  -60.11 | X-H torsion
[ 7974 7965 7964 7962 ] final  130.62 input  175.53 | X-H torsion
[ 8008 7997 7996 7995 ] final  158.23 input   59.86 | X-H torsion
[ 10167 10162 10161 10158 ] final  100.42 input  -65.29 | X-H torsion
[ 10718 10713 10712 10709 ] final  170.06 input   66.30 | X-H torsion
[ 10763 10752 10751 10750 ] final  -45.57 input  -60.55 | X-H torsion
[ 11005 11000 10999 10996 ] final    1.81 input  -57.11 | X-H torsion

> <Gold.Protein.ActiveResidues>
 VAL166  LYS551  ARG553  GLY616  TRP617  ASP618  TYR619  PRO620  LYS621  CYS622 
 ASP623  PHE694  ASN695  SER759  ASP760  ASP761  ALA762  ILE779  LEU786  VAL792 
 PHE793  MET794  SER795  GLU796  ALA797  LYS798  CYS799  TRP800  GLU811  SER814 

> <Gold.Protein.RotatedAtoms>
  152.1786  133.4692  159.4946 H   0  0  0  0  0  0  0  0  0  0  0  0  # atno 6907 bound_to 6896
  150.6931  134.1862  159.4276 H   0  0  0  0  0  0  0  0  0  0  0  0  # atno 6908 bound_to 6896
  151.9772  135.0047  160.0606 H   0  0  0  0  0  0  0  0  0  0  0  0  # atno 6909 bound_to 6896
  145.0160  139.4176  143.5221 H   0  0  0  0  0  0  0  0  0  0  0  0  # atno 7974 bound_to 7965
  156.2315  140.1864  156.7229 H   0  0  0  0  0  0  0  0  0  0  0  0  # atno 8008 bound_to 7997
  154.6031  140.0633  156.9423 H   0  0  0  0  0  0  0  0  0  0  0  0  # atno 8009 bound_to 7997
  155.2140  140.3302  155.4327 H   0  0  0  0  0  0  0  0  0  0  0  0  # atno 8010 bound_to 7997
  139.7529  144.6978  151.0405 H   0  0  0  0  0  0  0  0  0  0  0  0  # atno 10167 bound_to 10162
  157.0135  131.0211  151.2796 H   0  0  0  0  0  0  0  0  0  0  0  0  # atno 10718 bound_to 10713
  154.0307  135.6657  153.4780 H   0  0  0  0  0  0  0  0  0  0  0  0  # atno 10763 bound_to 10752
  153.0542  135.5066  154.7936 H   0  0  0  0  0  0  0  0  0  0  0  0  # atno 10764 bound_to 10752
  154.6880  135.3056  154.9485 H   0  0  0  0  0  0  0  0  0  0  0  0  # atno 10765 bound_to 10752
  140.6113  133.9746  155.8179 H   0  0  0  0  0  0  0  0  0  0  0  0  # atno 11005 bound_to 11000
  146.3478  139.9631  142.8715 LP  0  0  0  0  0  0  0  0  0  0  0  0  # atno 17320 bound_to 7965
  145.1959  140.9833  143.4184 LP  0  0  0  0  0  0  0  0  0  0  0  0  # atno 17321 bound_to 7965
  140.7800  143.4787  151.0047 LP  0  0  0  0  0  0  0  0  0  0  0  0  # atno 17342 bound_to 10162
  139.8475  143.7482  152.3179 LP  0  0  0  0  0  0  0  0  0  0  0  0  # atno 17343 bound_to 10162
  157.5302  130.8054  149.7909 LP  0  0  0  0  0  0  0  0  0  0  0  0  # atno 17370 bound_to 10713
  156.0127  130.3826  150.2210 LP  0  0  0  0  0  0  0  0  0  0  0  0  # atno 17371 bound_to 10713
  141.0806  134.0068  157.3392 LP  0  0  0  0  0  0  0  0  0  0  0  0  # atno 17394 bound_to 11000
  139.9191  135.0199  156.7995 LP  0  0  0  0  0  0  0  0  0  0  0  0  # atno 17395 bound_to 11000

$$$$
