#       Name:                AV-unprocessed.smi:2097
#       Creating user name   scv26
#       Creation time:       Fri Mar 27 11:29:05 2020


#       File generated by GOLD software.
#

@<TRIPOS>MOLECULE
AV-unprocessed.smi:2097
    49    50     1
SMALL
NO_CHARGES


@<TRIPOS>ATOM
      1 ****         0.9871  -4.9691   1.9148 C.3            1 S1                 0.0000
      2 ****         1.5271  -3.9486   0.9018 C.3            1 S1                 0.0000
      3 ****         2.9372  -3.8603   1.0934 O.3            1 S1                 0.0000
      4 ****         3.6546  -3.1672   0.0767 C.3            1 S1                 0.0000
      5 ****         5.1583  -3.2622   0.3616 C.3            1 S1                 0.0000
      6 ****         5.8278  -2.6234  -0.5972 F              1 S1                 0.0000
      7 ****         5.4422  -2.6939   1.5331 F              1 S1                 0.0000
      8 ****         5.5451  -4.5376   0.3763 F              1 S1                 0.0000
      9 ****         0.8719  -2.5705   1.0915 C.2            1 S1                 0.0000
     10 ****         0.8835  -2.0379   2.2010 O.2            1 S1                 0.0000
     11 ****         0.3499  -2.0146  -0.0177 N.am           1 S1                 0.0000
     12 ****        -0.2912  -0.7545  -0.1591 C.ar           1 S1                 0.0000
     13 ****        -0.3451  -0.1794  -1.4433 C.ar           1 S1                 0.0000
     14 ****        -0.9823   1.0638  -1.6154 C.ar           1 S1                 0.0000
     15 ****        -1.5615   1.7035  -0.4943 C.ar           1 S1                 0.0000
     16 ****        -2.1971   2.9559  -0.6408 N.3            1 S1                 0.0000
     17 ****        -1.4037   3.9932  -1.2960 C.3            1 S1                 0.0000
     18 ****        -2.2910   5.1939  -1.6671 C.3            1 S1                 0.0000
     19 ****        -2.9716   5.6672  -0.5097 O.3            1 S1                 0.0000
     20 ****        -3.8263   4.6727   0.0446 C.3            1 S1                 0.0000
     21 ****        -2.9914   3.4566   0.4798 C.3            1 S1                 0.0000
     22 ****        -1.5319   1.1366   0.7368 N.ar           1 S1                 0.0000
     23 ****        -0.9176  -0.0543   0.8988 C.ar           1 S1                 0.0000
     24 ****        -0.0949  -5.0775   1.8304 H              1 S1                 0.0000
     25 ****         1.2166  -4.6778   2.9406 H              1 S1                 0.0000
     26 ****         1.4298  -5.9509   1.7462 H              1 S1                 0.0000
     27 ****         1.3220  -4.3233  -0.1030 H              1 S1                 0.0000
     28 ****         3.4361  -3.6056  -0.8980 H              1 S1                 0.0000
     29 ****         3.3596  -2.1181   0.0361 H              1 S1                 0.0000
     30 ****         0.4875  -2.5295  -0.8752 H              1 S1                 0.0000
     31 ****         0.0999  -0.6807  -2.2904 H              1 S1                 0.0000
     32 ****        -1.0305   1.5023  -2.6008 H              1 S1                 0.0000
     33 ****        -0.6121   4.3112  -0.6164 H              1 S1                 0.0000
     34 ****        -0.9170   3.6221  -2.1967 H              1 S1                 0.0000
     35 ****        -1.6799   5.9997  -2.0736 H              1 S1                 0.0000
     36 ****        -3.0116   4.9206  -2.4397 H              1 S1                 0.0000
     37 ****        -4.3517   5.0930   0.9021 H              1 S1                 0.0000
     38 ****        -4.5856   4.3830  -0.6836 H              1 S1                 0.0000
     39 ****        -3.6575   2.6761   0.8497 H              1 S1                 0.0000
     40 ****        -2.3264   3.7346   1.2988 H              1 S1                 0.0000
     41 ****        -0.9563  -0.4484   1.9023 H              1 S1                 0.0000
     42 ****         3.2994  -4.7910   1.1455 LP             1 S1                 0.0000
     43 ****         3.1009  -3.3899   1.9606 LP             1 S1                 0.0000
     44 ****         1.3175  -2.5013   2.9736 LP             1 S1                 0.0000
     45 ****         0.4588  -1.1418   2.3299 LP             1 S1                 0.0000
     46 ****        -2.9017   2.6967  -1.3014 LP             1 S1                 0.0000
     47 ****        -3.5219   6.4635  -0.7607 LP             1 S1                 0.0000
     48 ****        -2.2955   5.9325   0.1776 LP             1 S1                 0.0000
     49 ****        -1.9601   1.5952   1.5155 LP             1 S1                 0.0000
@<TRIPOS>BOND
    1    1    2 1     
    2    1   24 1     
    3    1   25 1     
    4    1   26 1     
    5    2    3 1     
    6    2    9 1     
    7    2   27 1     
    8    3    4 1     
    9    4    5 1     
   10    4   28 1     
   11    4   29 1     
   12    5    6 1     
   13    5    7 1     
   14    5    8 1     
   15    9   10 2     
   16    9   11 am    
   17   11   12 1     
   18   11   30 1     
   19   12   23 ar    
   20   12   13 ar    
   21   13   14 ar    
   22   13   31 1     
   23   14   15 ar    
   24   14   32 1     
   25   15   16 1     
   26   15   22 ar    
   27   16   21 1     
   28   16   17 1     
   29   17   18 1     
   30   17   33 1     
   31   17   34 1     
   32   18   19 1     
   33   18   35 1     
   34   18   36 1     
   35   19   20 1     
   36   20   21 1     
   37   20   37 1     
   38   20   38 1     
   39   21   39 1     
   40   21   40 1     
   41   22   23 ar    
   42   23   41 1     
   43    3   42 1     
   44    3   43 1     
   45   10   44 1     
   46   10   45 1     
   47   16   46 1     
   48   19   47 1     
   49   19   48 1     
   50   22   49 1     
@<TRIPOS>SUBSTRUCTURE
      1 S1             1
@<TRIPOS>SET
LONE_PAIRS      STATIC     ATOMS    <user>   **** ""
8 42 43 44 45 46 47 48 49
DONOR_HYDROGENS      STATIC     ATOMS    <user>   **** ""
1 30
ATOM$BLUE        STATIC     ATOMS    COLORGROUP SYSTEM
8 42 43 44 45 46 47 48 49
ATOM$RED        STATIC     ATOMS    COLORGROUP SYSTEM
1 30
