AV-unprocessed.smi:2583|AV-procd|sdf|10140|dock4
  -GOLD-   2272014153D 1   1.00000     0.00000
 Structure written by MMmdl.
 54 56  0  0  0  0  0  0  0  0  2 V2000
  151.8342  145.8574  159.2101 C   0  0  0  0  0  0  0  0  0  0  0  0
  151.9628  144.3646  158.9900 C   0  0  0  0  0  0  0  0  0  0  0  0
  151.4972  143.7613  157.8038 C   0  0  0  0  0  0  0  0  0  0  0  0
  151.5999  142.4385  157.5571 N   0  0  0  0  0  0  0  0  0  0  0  0
  152.1710  141.6616  158.5018 C   0  0  0  0  0  0  0  0  0  0  0  0
  152.6563  142.1535  159.7319 C   0  0  0  0  0  0  0  0  0  0  0  0
  153.2430  141.2255  160.6343 N   0  0  0  0  0  0  0  0  0  0  0  0
  153.9325  140.1067  160.3525 C   0  0  0  0  0  0  0  0  0  0  0  0
  154.1688  139.6801  159.2224 O   0  0  0  0  0  0  0  0  0  0  0  0
  154.3615  139.5066  161.4720 N   0  0  0  0  0  0  0  0  0  0  0  0
  155.1623  138.2865  161.5141 C   0  0  0  0  0  0  0  0  0  0  0  0
  154.3196  137.0857  161.0778 C   0  0  0  0  0  0  0  0  0  0  0  0
  155.1132  135.7750  161.2167 C   0  0  0  0  0  0  0  0  0  0  0  0
  155.5495  135.5420  162.6042 N   0  0  0  0  0  0  0  0  0  0  0  0
  156.2436  134.2399  162.7391 C   0  0  2  0  0  0  0  0  0  0  0  0
  155.4406  133.0478  162.1571 C   0  0  0  0  0  0  0  0  0  0  0  0
  154.1885  132.7331  162.9956 C   0  0  0  0  0  0  0  0  0  0  0  0
  154.5475  132.4395  164.4046 N   0  3  2  0  0  0  0  0  0  0  0  0
  153.3736  132.0530  165.2161 C   0  0  0  0  0  0  0  0  0  0  0  0
  155.3286  133.5370  165.0263 C   0  0  0  0  0  0  0  0  0  0  0  0
  156.5887  133.8565  164.2016 C   0  0  0  0  0  0  0  0  0  0  0  0
  156.4156  136.6642  163.0033 C   0  0  0  0  0  0  0  0  0  0  0  0
  155.6815  138.0138  162.9307 C   0  0  0  0  0  0  0  0  0  0  0  0
  152.5571  143.5456  159.9709 C   0  0  0  0  0  0  0  0  0  0  0  0
  151.3577  146.3449  158.3590 H   0  0  0  0  0  0  0  0  0  0  0  0
  152.8180  146.3051  159.3525 H   0  0  0  0  0  0  0  0  0  0  0  0
  151.2340  146.0581  160.0980 H   0  0  0  0  0  0  0  0  0  0  0  0
  151.0350  144.3544  157.0283 H   0  0  0  0  0  0  0  0  0  0  0  0
  152.2367  140.6088  158.2687 H   0  0  0  0  0  0  0  0  0  0  0  0
  153.1951  141.4828  161.6094 H   0  0  0  0  0  0  0  0  0  0  0  0
  154.1235  139.9268  162.3584 H   0  0  0  0  0  0  0  0  0  0  0  0
  156.0080  138.3855  160.8305 H   0  0  0  0  0  0  0  0  0  0  0  0
  153.4102  137.0246  161.6777 H   0  0  0  0  0  0  0  0  0  0  0  0
  153.9996  137.2123  160.0430 H   0  0  0  0  0  0  0  0  0  0  0  0
  154.4519  134.9842  160.8732 H   0  0  0  0  0  0  0  0  0  0  0  0
  155.9765  135.7832  160.5495 H   0  0  0  0  0  0  0  0  0  0  0  0
  157.1806  134.3196  162.1854 H   0  0  0  0  0  0  0  0  0  0  0  0
  155.1801  133.1733  161.1088 H   0  0  0  0  0  0  0  0  0  0  0  0
  156.0836  132.1665  162.1637 H   0  0  0  0  0  0  0  0  0  0  0  0
  153.4897  133.5704  162.9594 H   0  0  0  0  0  0  0  0  0  0  0  0
  153.6728  131.8721  162.5683 H   0  0  0  0  0  0  0  0  0  0  0  0
  152.6588  132.8739  165.2869 H   0  0  0  0  0  0  0  0  0  0  0  0
  153.6776  131.7754  166.2258 H   0  0  0  0  0  0  0  0  0  0  0  0
  152.8664  131.1947  164.7744 H   0  0  0  0  0  0  0  0  0  0  0  0
  154.7040  134.4265  165.1224 H   0  0  0  0  0  0  0  0  0  0  0  0
  155.6206  133.2445  166.0357 H   0  0  0  0  0  0  0  0  0  0  0  0
  157.2160  132.9642  164.1820 H   0  0  0  0  0  0  0  0  0  0  0  0
  157.2064  134.5965  164.7060 H   0  0  0  0  0  0  0  0  0  0  0  0
  156.7415  136.5587  164.0348 H   0  0  0  0  0  0  0  0  0  0  0  0
  157.3119  136.6858  162.3811 H   0  0  0  0  0  0  0  0  0  0  0  0
  156.3569  138.8109  163.2433 H   0  0  0  0  0  0  0  0  0  0  0  0
  154.8532  138.0152  163.6411 H   0  0  0  0  0  0  0  0  0  0  0  0
  152.9336  144.0004  160.8739 H   0  0  0  0  0  0  0  0  0  0  0  0
  155.1564  131.6341  164.3819 H   0  0  0  0  0  0  0  0  0  0  0  0
  1  2  1  0  0  0  0
  1 25  1  0  0  0  0
  1 26  1  0  0  0  0
  1 27  1  0  0  0  0
  2 24  1  0  0  0  0
  2  3  2  0  0  0  0
  3  4  1  0  0  0  0
  3 28  1  0  0  0  0
  4  5  2  0  0  0  0
  5  6  1  0  0  0  0
  5 29  1  0  0  0  0
  6  7  1  0  0  0  0
  6 24  2  0  0  0  0
  7  8  1  0  0  0  0
  7 30  1  0  0  0  0
  8  9  2  0  0  0  0
  8 10  1  0  0  0  0
 10 11  1  0  0  0  0
 10 31  1  0  0  0  0
 11 23  1  0  0  0  0
 11 12  1  0  0  0  0
 11 32  1  0  0  0  0
 12 13  1  0  0  0  0
 12 33  1  0  0  0  0
 12 34  1  0  0  0  0
 13 14  1  0  0  0  0
 13 35  1  0  0  0  0
 13 36  1  0  0  0  0
 14 15  1  0  0  0  0
 14 22  1  0  0  0  0
 15 21  1  0  0  0  0
 15 16  1  0  0  0  0
 15 37  1  0  0  0  0
 16 17  1  0  0  0  0
 16 38  1  0  0  0  0
 16 39  1  0  0  0  0
 17 18  1  0  0  0  0
 17 40  1  0  0  0  0
 17 41  1  0  0  0  0
 18 19  1  0  0  0  0
 18 20  1  0  0  0  0
 18 54  1  0  0  0  0
 19 42  1  0  0  0  0
 19 43  1  0  0  0  0
 19 44  1  0  0  0  0
 20 21  1  0  0  0  0
 20 45  1  0  0  0  0
 20 46  1  0  0  0  0
 21 47  1  0  0  0  0
 21 48  1  0  0  0  0
 22 23  1  0  0  0  0
 22 49  1  0  0  0  0
 22 50  1  0  0  0  0
 23 51  1  0  0  0  0
 23 52  1  0  0  0  0
 24 53  1  0  0  0  0
M  CHG  1  18   1
M  END
> <s_m_source_file>
AV-unprocessed.smi

> <i_m_source_file_index>
2583

> <i_lp_mmshare_version>
43012

> <i_f3d_flags>
0

> <s_epik_input>
W0NIM11jMVtjSF1uW2NIXWMoW2NIXTEpW05IXUMoPU8pW05IXVtDSF0yW0NIMl1bQ0gyXU4oW0NIMl1bQ0gyXTIpW0NIXTNbQ0gyXVtDSDJdTihbQ0gzXSlbQ0gyXVtDSDJdMw==

> <s_epik_cmdline>
J2VwaWtfcHl0aG9uJywgJy1waCcsICc3LjAnLCAnLXRuJywgJzgnLCAnLW1hJywgJzIwMCcsICctbWV0YWxfYmluZGluZycsICctaW1hZScsICc8aW5maWxlLm1hZT4nLCAnLW9tYWUnLCAnPG91dGZpbGUubWFlPic=

> <r_epik_Ionization_Penalty>
1.01912

> <r_epik_Ionization_Penalty_Charging>
0.000974969

> <r_epik_Ionization_Penalty_Neutral>
1.01814

> <r_epik_State_Penalty>
1.10721

> <r_epik_Charging_Adjusted_Penalty>
1.10819

> <i_epik_Tot_Q>
1

> <i_epik_Tot_abs_Q>
1

> <r_epik_Metal_State_Penalty>
1.10135

> <b_epik_Metal_Only>
0

> <s_lp_Force_Field>
OPLS_2005

> <r_lp_Energy>
36.2524

> <b_lp_Chiralities_Consistent>
1

> <s_lp_Variant>
AV-unprocessed.smi:2583-6

> <Gold.Version>
5.8.1

> <Gold.Id.Protein>
6NUR|6NUR_protein|mol2

> <Gold.PLP.Fitness>
40.9347

> <Gold.PLP.PLP>
-36.3857

> <Gold.PLP.part.hbond>
-0.7869

> <Gold.PLP.part.metal>
0.0000

> <Gold.PLP.part.buried>
-2.1039

> <Gold.PLP.part.nonpolar>
-32.6231

> <Gold.PLP.part.repulsive>
0.1412

> <Gold.PLP.ligand.clash>
0.0000

> <Gold.PLP.ligand.torsion>
0.3633

> <Gold.PLP.Chemscore.Hbond>
0.7800

> <Gold.PLP.Chemscore.CHOScore>
0.9773

> <Gold.PLP.Chemscore.Metal>
0.0000

> <Gold.Chemscore.Hbonds>
donor molecule, donor type, donor heavy atom, donor atom, acceptor molecule, acceptor atom, score
      P1  H  7997  8010       L1     9  0.80
      L1  C     3    28       P1  8028  0.97

> <Gold.PLP.Chemscore.Internal.Correction>
0.0036

> <Gold.Rescore>
     Score         DG    S(hbond)    S(metal)    S(lipo)     H(rot)  DE(clash)    DE(int)     intcor
     17.23     -19.01       0.89        0.00     116.53       1.20       0.16       1.62       ----

> <Gold.Chemscore.Fitness>
17.2286

> <Gold.Chemscore.DG>
-19.0072

> <Gold.Chemscore.ZeroCoef>
-5.4800

> <Gold.Chemscore.Hbond>
0.8856

> <Gold.Chemscore.Metal>
0.0000

> <Gold.Chemscore.Lipo>
116.5345

> <Gold.Chemscore.Internal_Hbond>
0.0000

> <Gold.Chemscore.DEClash>
0.1621

> <Gold.Chemscore.DEInternal>
1.6165

> <Gold.Chemscore.Rot>
1.1974

> <Gold.Chemscore.Internal.Correction>
   9.000000E+99

> <Gold.Chemscore.Hbonds>
donor molecule, donor type, donor heavy atom, donor atom, acceptor molecule, acceptor atom, score
      P1  H  7997  8010       L1     9  0.78

> <Gold.Chemscore.Hbond.Weighted>
-2.9579

> <Gold.Chemscore.Metal.Weighted>
-0.0000

> <Gold.Chemscore.Lipo.Weighted>
-13.6345

> <Gold.Chemscore.Internal_Hbond.Weighted>
0.0000

> <Gold.Chemscore.DEClash.Weighted>
0.1621

> <Gold.Chemscore.DEInternal.Weighted>
1.6165

> <Gold.Chemscore.Rot.Weighted>
3.0652

> <Gold.Chemscore.Internal.Correction.Weighted>
   9.000000E+99

> <Gold.Protein.RotatedTorsions>
[ 6907 6896 6895 6894 ] final -122.38 input  -60.11 | X-H torsion
[ 7974 7965 7964 7962 ] final -171.93 input  175.53 | X-H torsion
[ 8008 7997 7996 7995 ] final    9.58 input   59.86 | X-H torsion
[ 10167 10162 10161 10158 ] final  149.00 input  -65.29 | X-H torsion
[ 10718 10713 10712 10709 ] final  -52.87 input   66.30 | X-H torsion
[ 10763 10752 10751 10750 ] final   -1.86 input  -60.55 | X-H torsion
[ 11005 11000 10999 10996 ] final   12.79 input  -57.11 | X-H torsion

> <Gold.Protein.ActiveResidues>
 VAL166  LYS551  ARG553  GLY616  TRP617  ASP618  TYR619  PRO620  LYS621  CYS622 
 ASP623  PHE694  ASN695  SER759  ASP760  ASP761  ALA762  ILE779  LEU786  VAL792 
 PHE793  MET794  SER795  GLU796  ALA797  LYS798  CYS799  TRP800  GLU811  SER814 

> <Gold.Protein.RotatedAtoms>
  150.8571  133.7700  159.3005 H   0  0  0  0  0  0  0  0  0  0  0  0  # atno 6907 bound_to 6896
  151.5354  135.1067  159.9922 H   0  0  0  0  0  0  0  0  0  0  0  0  # atno 6908 bound_to 6896
  152.4598  133.7754  159.6877 H   0  0  0  0  0  0  0  0  0  0  0  0  # atno 6909 bound_to 6896
  144.7151  140.1848  143.6354 H   0  0  0  0  0  0  0  0  0  0  0  0  # atno 7974 bound_to 7965
  154.7819  140.2820  155.6057 H   0  0  0  0  0  0  0  0  0  0  0  0  # atno 8008 bound_to 7997
  156.2951  140.2621  156.2575 H   0  0  0  0  0  0  0  0  0  0  0  0  # atno 8009 bound_to 7997
  154.9774  140.0375  157.2252 H   0  0  0  0  0  0  0  0  0  0  0  0  # atno 8010 bound_to 7997
  139.4867  144.5636  151.7186 H   0  0  0  0  0  0  0  0  0  0  0  0  # atno 10167 bound_to 10162
  156.1584  130.4150  149.9832 H   0  0  0  0  0  0  0  0  0  0  0  0  # atno 10718 bound_to 10713
  153.3504  135.6985  153.6793 H   0  0  0  0  0  0  0  0  0  0  0  0  # atno 10763 bound_to 10752
  153.5522  135.3551  155.2765 H   0  0  0  0  0  0  0  0  0  0  0  0  # atno 10764 bound_to 10752
  154.8652  135.4229  154.2738 H   0  0  0  0  0  0  0  0  0  0  0  0  # atno 10765 bound_to 10752
  140.4880  134.0868  155.7765 H   0  0  0  0  0  0  0  0  0  0  0  0  # atno 11005 bound_to 11000
  145.8823  139.2329  143.1598 LP  0  0  0  0  0  0  0  0  0  0  0  0  # atno 17320 bound_to 7965
  145.9983  140.8542  143.0031 LP  0  0  0  0  0  0  0  0  0  0  0  0  # atno 17321 bound_to 7965
  140.5210  144.0879  150.6022 LP  0  0  0  0  0  0  0  0  0  0  0  0  # atno 17342 bound_to 10162
  140.3837  143.2789  152.0141 LP  0  0  0  0  0  0  0  0  0  0  0  0  # atno 17343 bound_to 10162
  156.7669  130.9171  151.3643 LP  0  0  0  0  0  0  0  0  0  0  0  0  # atno 17370 bound_to 10713
  157.6713  130.9054  150.0047 LP  0  0  0  0  0  0  0  0  0  0  0  0  # atno 17371 bound_to 10713
  141.1498  133.8989  157.2126 LP  0  0  0  0  0  0  0  0  0  0  0  0  # atno 17394 bound_to 11000
  139.9786  135.0106  156.9693 LP  0  0  0  0  0  0  0  0  0  0  0  0  # atno 17395 bound_to 11000

$$$$
