AV-unprocessed.smi:260|AV-procd|sdf|1975|dock1
  -GOLD-   2262021143D 1   1.00000     0.00000
 Structure written by MMmdl.
 53 56  0  0  0  0  0  0  0  0  1 V2000
  152.8638  138.3411  156.9984 C   0  0  0  0  0  0  0  0  0  0  0  0
  151.7751  139.2980  157.1232 N   0  0  0  0  0  0  0  0  0  0  0  0
  151.3098  140.0558  156.1170 C   0  0  0  0  0  0  0  0  0  0  0  0
  151.7856  139.9898  154.9822 O   0  0  0  0  0  0  0  0  0  0  0  0
  150.1416  141.0358  156.4184 C   0  0  1  0  0  0  0  0  0  0  0  0
  150.4862  142.0254  157.5560 C   0  0  0  0  0  0  0  0  0  0  0  0
  149.7291  141.7787  155.1305 C   0  0  0  0  0  0  0  0  0  0  0  0
  148.7392  140.8457  154.4292 C   0  0  0  0  0  0  0  0  0  0  0  0
  148.1265  140.0800  155.5006 N   0  0  0  0  0  0  0  0  0  0  0  0
  147.2598  139.0558  155.2881 C   0  0  0  0  0  0  0  0  0  0  0  0
  146.8214  138.3525  156.3655 N   0  0  0  0  0  0  0  0  0  0  0  0
  145.9679  137.3366  156.2148 C   0  0  0  0  0  0  0  0  0  0  0  0
  145.4307  136.8595  155.0918 N   0  0  0  0  0  0  0  0  0  0  0  0
  145.8592  137.5604  154.0037 C   0  0  0  0  0  0  0  0  0  0  0  0
  146.7602  138.6649  154.0093 C   0  0  0  0  0  0  0  0  0  0  0  0
  146.9443  139.1175  152.7067 N   0  0  0  0  0  0  0  0  0  0  0  0
  146.2048  138.3279  151.9786 C   0  0  0  0  0  0  0  0  0  0  0  0
  145.5331  137.3500  152.6749 N   0  0  0  0  0  0  0  0  0  0  0  0
  144.6432  136.3445  152.1199 C   0  0  0  0  0  0  0  0  0  0  0  0
  145.3036  135.4550  151.0413 C   0  0  2  0  0  0  0  0  0  0  0  0
  145.4160  136.2693  149.8917 O   0  0  0  0  0  0  0  0  0  0  0  0
  144.5004  134.1982  150.6325 C   0  0  2  0  0  0  0  0  0  0  0  0
  143.8943  133.3811  151.7769 C   0  0  0  0  0  0  0  0  0  0  0  0
  143.7739  131.9783  151.2048 C   0  0  0  0  0  0  0  0  0  0  0  0
  144.6902  132.0016  149.9812 C   0  0  0  0  0  0  0  0  0  0  0  0
  145.3828  133.2384  150.0678 O   0  0  0  0  0  0  0  0  0  0  0  0
  148.8535  140.2494  156.7548 C   0  0  0  0  0  0  0  0  0  0  0  0
  153.0250  137.8363  157.9508 H   0  0  0  0  0  0  0  0  0  0  0  0
  153.7903  138.8427  156.7167 H   0  0  0  0  0  0  0  0  0  0  0  0
  152.6342  137.5846  156.2470 H   0  0  0  0  0  0  0  0  0  0  0  0
  151.3463  139.3942  158.0322 H   0  0  0  0  0  0  0  0  0  0  0  0
  149.6383  142.6715  157.7861 H   0  0  0  0  0  0  0  0  0  0  0  0
  151.3175  142.6781  157.2861 H   0  0  0  0  0  0  0  0  0  0  0  0
  150.7499  141.5031  158.4767 H   0  0  0  0  0  0  0  0  0  0  0  0
  149.2221  142.7107  155.3837 H   0  0  0  0  0  0  0  0  0  0  0  0
  150.5723  142.0376  154.4885 H   0  0  0  0  0  0  0  0  0  0  0  0
  147.9976  141.4080  153.8615 H   0  0  0  0  0  0  0  0  0  0  0  0
  149.2602  140.1720  153.7481 H   0  0  0  0  0  0  0  0  0  0  0  0
  145.6748  136.8335  157.1245 H   0  0  0  0  0  0  0  0  0  0  0  0
  146.1355  138.4341  150.9059 H   0  0  0  0  0  0  0  0  0  0  0  0
  144.2448  135.7287  152.9274 H   0  0  0  0  0  0  0  0  0  0  0  0
  143.7931  136.8784  151.6924 H   0  0  0  0  0  0  0  0  0  0  0  0
  146.3089  135.1718  151.3551 H   0  0  0  0  0  0  0  0  0  0  0  0
  144.7526  136.9409  149.9341 H   0  0  0  0  0  0  0  0  0  0  0  0
  143.7213  134.4512  149.9102 H   0  0  0  0  0  0  0  0  0  0  0  0
  144.5732  133.3640  152.6303 H   0  0  0  0  0  0  0  0  0  0  0  0
  142.9341  133.7718  152.1128 H   0  0  0  0  0  0  0  0  0  0  0  0
  144.0869  131.2305  151.9342 H   0  0  0  0  0  0  0  0  0  0  0  0
  142.7478  131.7536  150.9110 H   0  0  0  0  0  0  0  0  0  0  0  0
  145.3864  131.1631  149.9620 H   0  0  0  0  0  0  0  0  0  0  0  0
  144.1042  131.9801  149.0613 H   0  0  0  0  0  0  0  0  0  0  0  0
  149.0838  139.2905  157.2224 H   0  0  0  0  0  0  0  0  0  0  0  0
  148.2200  140.8033  157.4482 H   0  0  0  0  0  0  0  0  0  0  0  0
  1  2  1  0  0  0  0
  1 28  1  0  0  0  0
  1 29  1  0  0  0  0
  1 30  1  0  0  0  0
  2  3  1  0  0  0  0
  2 31  1  0  0  0  0
  3  4  2  0  0  0  0
  3  5  1  0  0  0  0
  5 27  1  0  0  0  0
  5  6  1  0  0  0  0
  5  7  1  0  0  0  0
  6 32  1  0  0  0  0
  6 33  1  0  0  0  0
  6 34  1  0  0  0  0
  7  8  1  0  0  0  0
  7 35  1  0  0  0  0
  7 36  1  0  0  0  0
  8  9  1  0  0  0  0
  8 37  1  0  0  0  0
  8 38  1  0  0  0  0
  9 10  1  0  0  0  0
  9 27  1  0  0  0  0
 10 15  1  0  0  0  0
 10 11  2  0  0  0  0
 11 12  1  0  0  0  0
 12 13  2  0  0  0  0
 12 39  1  0  0  0  0
 13 14  1  0  0  0  0
 14 18  1  0  0  0  0
 14 15  2  0  0  0  0
 15 16  1  0  0  0  0
 16 17  2  0  0  0  0
 17 18  1  0  0  0  0
 17 40  1  0  0  0  0
 18 19  1  0  0  0  0
 19 20  1  0  0  0  0
 19 41  1  0  0  0  0
 19 42  1  0  0  0  0
 20 21  1  0  0  0  0
 20 22  1  0  0  0  0
 20 43  1  0  0  0  0
 21 44  1  0  0  0  0
 22 26  1  0  0  0  0
 22 23  1  0  0  0  0
 22 45  1  0  0  0  0
 23 24  1  0  0  0  0
 23 46  1  0  0  0  0
 23 47  1  0  0  0  0
 24 25  1  0  0  0  0
 24 48  1  0  0  0  0
 24 49  1  0  0  0  0
 25 26  1  0  0  0  0
 25 50  1  0  0  0  0
 25 51  1  0  0  0  0
 27 52  1  0  0  0  0
 27 53  1  0  0  0  0
M  END
> <s_m_source_file>
AV-unprocessed.smi

> <i_m_source_file_index>
260

> <i_lp_mmshare_version>
43012

> <i_f3d_flags>
0

> <s_epik_input>
W0NIM11bTkhdQyg9TylbQ0BAXTEoW0NIM10pW0NIMl1bQ0gyXU4oW0NIMl0xKWMobltjSF1uMiljKGMyMyluW2NIXW4zW0NIMl1bQ0BIXShbT0hdKVtDQEBIXTRbQ0gyXVtDSDJdW0NIMl1PNA==

> <s_epik_cmdline>
J2VwaWtfcHl0aG9uJywgJy1waCcsICc3LjAnLCAnLXRuJywgJzgnLCAnLW1hJywgJzIwMCcsICctbWV0YWxfYmluZGluZycsICctaW1hZScsICc8aW5maWxlLm1hZT4nLCAnLW9tYWUnLCAnPG91dGZpbGUubWFlPic=

> <r_lp_tautomer_probability>
1

> <r_epik_Ionization_Penalty>
0.00115068

> <r_epik_Ionization_Penalty_Charging>
0

> <r_epik_Ionization_Penalty_Neutral>
0.00115068

> <r_epik_State_Penalty>
0.000668876

> <r_epik_Charging_Adjusted_Penalty>
0.000668876

> <i_epik_Tot_Q>
0

> <i_epik_Tot_abs_Q>
0

> <r_epik_Metal_State_Penalty>
-0

> <b_epik_Metal_Only>
0

> <s_lp_Force_Field>
OPLS_2005

> <r_lp_Energy>
51.9197

> <b_lp_Chiralities_Consistent>
1

> <s_lp_Variant>
AV-unprocessed.smi:260-1

> <Gold.Version>
5.8.1

> <Gold.Id.Protein>
6NUR|6NUR_protein|mol2

> <Gold.PLP.Fitness>
46.1730

> <Gold.PLP.PLP>
-38.6676

> <Gold.PLP.part.hbond>
-3.0000

> <Gold.PLP.part.metal>
0.0000

> <Gold.PLP.part.buried>
-6.0462

> <Gold.PLP.part.nonpolar>
-33.0970

> <Gold.PLP.part.repulsive>
2.4305

> <Gold.PLP.ligand.clash>
0.0000

> <Gold.PLP.ligand.torsion>
0.5880

> <Gold.PLP.Chemscore.Hbond>
1.9760

> <Gold.PLP.Chemscore.CHOScore>
0.7754

> <Gold.PLP.Chemscore.Metal>
0.0000

> <Gold.Chemscore.Hbonds>
donor molecule, donor type, donor heavy atom, donor atom, acceptor molecule, acceptor atom, score
      L1  H    21    44       P1 10171  1.00
      P1  H  7989  7998       L1     4  0.96
      L1  C    17    40       P1 10171  0.81

> <Gold.PLP.Chemscore.Internal.Correction>
0.4271

> <Gold.Rescore>
     Score         DG    S(hbond)    S(metal)    S(lipo)     H(rot)  DE(clash)    DE(int)     intcor
     12.90     -15.10       1.94        0.00      82.02       2.53       0.75       1.45       ----

> <Gold.Chemscore.Fitness>
12.8986

> <Gold.Chemscore.DG>
-15.0996

> <Gold.Chemscore.ZeroCoef>
-5.4800

> <Gold.Chemscore.Hbond>
1.9431

> <Gold.Chemscore.Metal>
0.0000

> <Gold.Chemscore.Lipo>
82.0160

> <Gold.Chemscore.Internal_Hbond>
0.0000

> <Gold.Chemscore.DEClash>
0.7550

> <Gold.Chemscore.DEInternal>
1.4459

> <Gold.Chemscore.Rot>
2.5259

> <Gold.Chemscore.Internal.Correction>
   9.000000E+99

> <Gold.Chemscore.Hbonds>
donor molecule, donor type, donor heavy atom, donor atom, acceptor molecule, acceptor atom, score
      L1  H    21    44       P1 10171  1.00
      P1  H  7989  7998       L1     4  0.92

> <Gold.Chemscore.Hbond.Weighted>
-6.4900

> <Gold.Chemscore.Metal.Weighted>
-0.0000

> <Gold.Chemscore.Lipo.Weighted>
-9.5959

> <Gold.Chemscore.Internal_Hbond.Weighted>
0.0000

> <Gold.Chemscore.DEClash.Weighted>
0.7550

> <Gold.Chemscore.DEInternal.Weighted>
1.4459

> <Gold.Chemscore.Rot.Weighted>
6.4663

> <Gold.Chemscore.Internal.Correction.Weighted>
   9.000000E+99

> <Gold.Protein.RotatedTorsions>
[ 6907 6896 6895 6894 ] final   69.48 input  -60.11 | X-H torsion
[ 7974 7965 7964 7962 ] final  -98.53 input  175.53 | X-H torsion
[ 8008 7997 7996 7995 ] final -172.30 input   59.86 | X-H torsion
[ 10167 10162 10161 10158 ] final   10.48 input  -65.29 | X-H torsion
[ 10718 10713 10712 10709 ] final  138.00 input   66.30 | X-H torsion
[ 10763 10752 10751 10750 ] final  139.04 input  -60.55 | X-H torsion
[ 11005 11000 10999 10996 ] final   -3.19 input  -57.11 | X-H torsion

> <Gold.Protein.ActiveResidues>
 VAL166  LYS551  ARG553  GLY616  TRP617  ASP618  TYR619  PRO620  LYS621  CYS622 
 ASP623  PHE694  ASN695  SER759  ASP760  ASP761  ALA762  ILE779  LEU786  VAL792 
 PHE793  MET794  SER795  GLU796  ALA797  LYS798  CYS799  TRP800  GLU811  SER814 

> <Gold.Protein.RotatedAtoms>
  152.4689  134.5009  159.9724 H   0  0  0  0  0  0  0  0  0  0  0  0  # atno 6907 bound_to 6896
  151.5040  133.3492  159.2881 H   0  0  0  0  0  0  0  0  0  0  0  0  # atno 6908 bound_to 6896
  150.8688  134.8085  159.7200 H   0  0  0  0  0  0  0  0  0  0  0  0  # atno 6909 bound_to 6896
  145.3195  140.9418  143.2724 H   0  0  0  0  0  0  0  0  0  0  0  0  # atno 7974 bound_to 7965
  155.9427  140.1111  157.1042 H   0  0  0  0  0  0  0  0  0  0  0  0  # atno 8008 bound_to 7997
  154.4093  140.1216  156.5015 H   0  0  0  0  0  0  0  0  0  0  0  0  # atno 8009 bound_to 7997
  155.6941  140.3472  155.4908 H   0  0  0  0  0  0  0  0  0  0  0  0  # atno 8010 bound_to 7997
  140.6191  143.8243  150.7154 H   0  0  0  0  0  0  0  0  0  0  0  0  # atno 10167 bound_to 10162
  157.4301  131.1047  151.0260 H   0  0  0  0  0  0  0  0  0  0  0  0  # atno 10718 bound_to 10713
  153.8996  135.3023  155.3448 H   0  0  0  0  0  0  0  0  0  0  0  0  # atno 10763 bound_to 10752
  154.7677  135.4902  153.9589 H   0  0  0  0  0  0  0  0  0  0  0  0  # atno 10764 bound_to 10752
  153.1252  135.6791  153.9368 H   0  0  0  0  0  0  0  0  0  0  0  0  # atno 10765 bound_to 10752
  140.6667  133.9273  155.8469 H   0  0  0  0  0  0  0  0  0  0  0  0  # atno 11005 bound_to 11000
  144.8951  139.4723  143.6659 LP  0  0  0  0  0  0  0  0  0  0  0  0  # atno 17320 bound_to 7965
  146.3088  139.7672  142.9036 LP  0  0  0  0  0  0  0  0  0  0  0  0  # atno 17321 bound_to 7965
  140.1829  143.4100  152.1920 LP  0  0  0  0  0  0  0  0  0  0  0  0  # atno 17342 bound_to 10162
  139.5424  144.7268  151.4692 LP  0  0  0  0  0  0  0  0  0  0  0  0  # atno 17343 bound_to 10162
  157.1159  130.6041  149.5493 LP  0  0  0  0  0  0  0  0  0  0  0  0  # atno 17370 bound_to 10713
  155.9910  130.4963  150.7281 LP  0  0  0  0  0  0  0  0  0  0  0  0  # atno 17371 bound_to 10713
  141.0424  134.0602  157.3886 LP  0  0  0  0  0  0  0  0  0  0  0  0  # atno 17394 bound_to 11000
  139.8995  135.0159  156.7198 LP  0  0  0  0  0  0  0  0  0  0  0  0  # atno 17395 bound_to 11000

$$$$
