AV-unprocessed.smi:2955|AV-procd|sdf|11301|dock1
  -GOLD-   2272016193D 1   1.00000     0.00000
 Structure written by MMmdl.
 45 47  0  0  0  0  0  0  0  0  1 V2000
  146.7329  132.1694  161.2546 C   0  0  0  0  0  0  0  0  0  0  0  0
  147.0566  133.6490  161.2465 C   0  0  0  0  0  0  0  0  0  0  0  0
  146.4487  134.5175  162.1743 C   0  0  0  0  0  0  0  0  0  0  0  0
  146.7565  135.8902  162.1563 C   0  0  0  0  0  0  0  0  0  0  0  0
  147.6721  136.3992  161.2151 C   0  0  0  0  0  0  0  0  0  0  0  0
  148.2942  135.5348  160.2794 C   0  0  0  0  0  0  0  0  0  0  0  0
  149.2061  135.9462  159.3310 O   0  0  0  0  0  0  0  0  0  0  0  0
  149.3503  137.3405  159.0963 C   0  0  0  0  0  0  0  0  0  0  0  0
  150.7971  137.6543  158.6905 C   0  0  0  0  0  0  0  0  0  0  0  0
  150.9851  139.0628  158.3676 N   0  0  0  0  0  0  0  0  0  0  0  0
  150.3821  139.8172  157.4096 C   0  0  0  0  0  0  0  0  0  0  0  0
  149.3469  139.2702  156.4579 C   0  0  2  0  0  0  0  0  0  0  0  0
  149.8225  137.9900  155.7563 C   0  0  0  0  0  0  0  0  0  0  0  0
  149.0332  140.3004  155.4733 N   0  0  0  0  0  0  0  0  0  0  0  0
  149.8633  140.6859  154.4964 C   0  0  0  0  0  0  0  0  0  0  0  0
  150.9819  140.2049  154.3357 O   0  0  0  0  0  0  0  0  0  0  0  0
  150.7468  141.1020  157.3782 N   0  0  0  0  0  0  0  0  0  0  0  0
  151.6903  141.1814  158.3815 C   0  0  0  0  0  0  0  0  0  0  0  0
  152.4597  142.2770  158.8340 C   0  0  0  0  0  0  0  0  0  0  0  0
  153.3783  142.1153  159.8917 C   0  0  0  0  0  0  0  0  0  0  0  0
  153.5390  140.8592  160.5113 C   0  0  0  0  0  0  0  0  0  0  0  0
  152.7800  139.7556  160.0764 C   0  0  0  0  0  0  0  0  0  0  0  0
  151.8651  139.9220  159.0192 C   0  0  0  0  0  0  0  0  0  0  0  0
  147.9742  134.1616  160.3072 C   0  0  0  0  0  0  0  0  0  0  0  0
  145.9010  131.9482  161.9239 H   0  0  0  0  0  0  0  0  0  0  0  0
  147.5993  131.5962  161.5849 H   0  0  0  0  0  0  0  0  0  0  0  0
  146.4605  131.8354  160.2533 H   0  0  0  0  0  0  0  0  0  0  0  0
  145.7462  134.1362  162.9010 H   0  0  0  0  0  0  0  0  0  0  0  0
  146.2898  136.5555  162.8674 H   0  0  0  0  0  0  0  0  0  0  0  0
  147.8819  137.4576  161.2347 H   0  0  0  0  0  0  0  0  0  0  0  0
  148.6742  137.6540  158.2997 H   0  0  0  0  0  0  0  0  0  0  0  0
  149.0979  137.9069  159.9942 H   0  0  0  0  0  0  0  0  0  0  0  0
  151.5004  137.3482  159.4636 H   0  0  0  0  0  0  0  0  0  0  0  0
  151.0605  137.0661  157.8109 H   0  0  0  0  0  0  0  0  0  0  0  0
  148.4332  139.0151  156.9917 H   0  0  0  0  0  0  0  0  0  0  0  0
  150.0833  137.2213  156.4832 H   0  0  0  0  0  0  0  0  0  0  0  0
  150.7043  138.1735  155.1414 H   0  0  0  0  0  0  0  0  0  0  0  0
  149.0448  137.5844  155.1087 H   0  0  0  0  0  0  0  0  0  0  0  0
  148.1268  140.7405  155.5364 H   0  0  0  0  0  0  0  0  0  0  0  0
  149.4215  141.4765  153.8697 H   0  0  0  0  0  0  0  0  0  0  0  0
  152.3442  143.2429  158.3652 H   0  0  0  0  0  0  0  0  0  0  0  0
  153.9627  142.9587  160.2290 H   0  0  0  0  0  0  0  0  0  0  0  0
  154.2448  140.7432  161.3208 H   0  0  0  0  0  0  0  0  0  0  0  0
  152.9018  138.7925  160.5491 H   0  0  0  0  0  0  0  0  0  0  0  0
  148.4378  133.4930  159.5969 H   0  0  0  0  0  0  0  0  0  0  0  0
  1  2  1  0  0  0  0
  1 25  1  0  0  0  0
  1 26  1  0  0  0  0
  1 27  1  0  0  0  0
  2 24  1  0  0  0  0
  2  3  2  0  0  0  0
  3  4  1  0  0  0  0
  3 28  1  0  0  0  0
  4  5  2  0  0  0  0
  4 29  1  0  0  0  0
  5  6  1  0  0  0  0
  5 30  1  0  0  0  0
  6  7  1  0  0  0  0
  6 24  2  0  0  0  0
  7  8  1  0  0  0  0
  8  9  1  0  0  0  0
  8 31  1  0  0  0  0
  8 32  1  0  0  0  0
  9 10  1  0  0  0  0
  9 33  1  0  0  0  0
  9 34  1  0  0  0  0
 10 23  1  0  0  0  0
 10 11  1  0  0  0  0
 11 12  1  0  0  0  0
 11 17  2  0  0  0  0
 12 13  1  0  0  0  0
 12 14  1  0  0  0  0
 12 35  1  0  0  0  0
 13 36  1  0  0  0  0
 13 37  1  0  0  0  0
 13 38  1  0  0  0  0
 14 15  1  0  0  0  0
 14 39  1  0  0  0  0
 15 16  2  0  0  0  0
 15 40  1  0  0  0  0
 17 18  1  0  0  0  0
 18 23  2  0  0  0  0
 18 19  1  0  0  0  0
 19 20  2  0  0  0  0
 19 41  1  0  0  0  0
 20 21  1  0  0  0  0
 20 42  1  0  0  0  0
 21 22  2  0  0  0  0
 21 43  1  0  0  0  0
 22 23  1  0  0  0  0
 22 44  1  0  0  0  0
 24 45  1  0  0  0  0
M  END
> <s_m_source_file>
AV-unprocessed.smi

> <i_m_source_file_index>
2955

> <i_lp_mmshare_version>
43012

> <i_f3d_flags>
0

> <s_epik_input>
W0NIM11jMVtjSF1bY0hdW2NIXWMoW2NIXTEpT1tDSDJdW0NIMl1uKGMobjIpW0NASF0oW0NIM10pW05IXVtDSF09TyljKGMyMylbY0hdW2NIXVtjSF1bY0hdMw==

> <s_epik_cmdline>
J2VwaWtfcHl0aG9uJywgJy1waCcsICc3LjAnLCAnLXRuJywgJzgnLCAnLW1hJywgJzIwMCcsICctbWV0YWxfYmluZGluZycsICctaW1hZScsICc8aW5maWxlLm1hZT4nLCAnLW9tYWUnLCAnPG91dGZpbGUubWFlPic=

> <r_lp_tautomer_probability>
1

> <r_epik_Ionization_Penalty>
0.0917757

> <r_epik_Ionization_Penalty_Charging>
0

> <r_epik_Ionization_Penalty_Neutral>
0.0917757

> <r_epik_State_Penalty>
0.0820948

> <r_epik_Charging_Adjusted_Penalty>
0.0820948

> <i_epik_Tot_Q>
0

> <i_epik_Tot_abs_Q>
0

> <r_epik_Metal_State_Penalty>
0.0709956

> <b_epik_Metal_Only>
0

> <s_lp_Force_Field>
OPLS_2005

> <r_lp_Energy>
12.8811

> <b_lp_Chiralities_Consistent>
1

> <s_lp_Variant>
AV-unprocessed.smi:2955-1

> <Gold.Version>
5.8.1

> <Gold.Id.Protein>
6NUR|6NUR_protein|mol2

> <Gold.PLP.Fitness>
48.8428

> <Gold.PLP.PLP>
-43.8436

> <Gold.PLP.part.hbond>
-1.9320

> <Gold.PLP.part.metal>
0.0000

> <Gold.PLP.part.buried>
-5.6888

> <Gold.PLP.part.nonpolar>
-36.5745

> <Gold.PLP.part.repulsive>
0.1717

> <Gold.PLP.ligand.clash>
0.0000

> <Gold.PLP.ligand.torsion>
0.5718

> <Gold.PLP.Chemscore.Hbond>
1.9920

> <Gold.PLP.Chemscore.CHOScore>
0.0000

> <Gold.PLP.Chemscore.Metal>
0.0000

> <Gold.Chemscore.Hbonds>
donor molecule, donor type, donor heavy atom, donor atom, acceptor molecule, acceptor atom, score
      P1  H  6896  6907       L1     7  1.00
      P1  H  7989  7998       L1    16  0.31

> <Gold.PLP.Chemscore.Internal.Correction>
0.1668

> <Gold.Rescore>
     Score         DG    S(hbond)    S(metal)    S(lipo)     H(rot)  DE(clash)    DE(int)     intcor
     17.51     -19.40       1.91        0.00     113.94       2.26       0.10       1.79       ----

> <Gold.Chemscore.Fitness>
17.5104

> <Gold.Chemscore.DG>
-19.4026

> <Gold.Chemscore.ZeroCoef>
-5.4800

> <Gold.Chemscore.Hbond>
1.9108

> <Gold.Chemscore.Metal>
0.0000

> <Gold.Chemscore.Lipo>
113.9399

> <Gold.Chemscore.Internal_Hbond>
0.0000

> <Gold.Chemscore.DEClash>
0.0995

> <Gold.Chemscore.DEInternal>
1.7928

> <Gold.Chemscore.Rot>
2.2619

> <Gold.Chemscore.Internal.Correction>
   9.000000E+99

> <Gold.Chemscore.Hbonds>
donor molecule, donor type, donor heavy atom, donor atom, acceptor molecule, acceptor atom, score
      P1  H  6896  6907       L1     7  0.38
      P1  H  7989  7998       L1    16  0.24

> <Gold.Chemscore.Hbond.Weighted>
-6.3822

> <Gold.Chemscore.Metal.Weighted>
-0.0000

> <Gold.Chemscore.Lipo.Weighted>
-13.3310

> <Gold.Chemscore.Internal_Hbond.Weighted>
0.0000

> <Gold.Chemscore.DEClash.Weighted>
0.0995

> <Gold.Chemscore.DEInternal.Weighted>
1.7928

> <Gold.Chemscore.Rot.Weighted>
5.7906

> <Gold.Chemscore.Internal.Correction.Weighted>
   9.000000E+99

> <Gold.Protein.RotatedTorsions>
[ 6907 6896 6895 6894 ] final  -55.47 input  -60.11 | X-H torsion
[ 7974 7965 7964 7962 ] final  -74.21 input  175.53 | X-H torsion
[ 8008 7997 7996 7995 ] final   33.80 input   59.86 | X-H torsion
[ 10167 10162 10161 10158 ] final  -67.40 input  -65.29 | X-H torsion
[ 10718 10713 10712 10709 ] final -144.34 input   66.30 | X-H torsion
[ 10763 10752 10751 10750 ] final  -10.36 input  -60.55 | X-H torsion
[ 11005 11000 10999 10996 ] final -164.70 input  -57.11 | X-H torsion

> <Gold.Protein.ActiveResidues>
 VAL166  LYS551  ARG553  GLY616  TRP617  ASP618  TYR619  PRO620  LYS621  CYS622 
 ASP623  PHE694  ASN695  SER759  ASP760  ASP761  ALA762  ILE779  LEU786  VAL792 
 PHE793  MET794  SER795  GLU796  ALA797  LYS798  CYS799  TRP800  GLU811  SER814 

> <Gold.Protein.RotatedAtoms>
  150.8249  134.7475  159.6803 H   0  0  0  0  0  0  0  0  0  0  0  0  # atno 6907 bound_to 6896
  152.4361  134.5680  159.9923 H   0  0  0  0  0  0  0  0  0  0  0  0  # atno 6908 bound_to 6896
  151.5855  133.3335  159.3053 H   0  0  0  0  0  0  0  0  0  0  0  0  # atno 6909 bound_to 6896
  145.6421  140.9308  143.1030 H   0  0  0  0  0  0  0  0  0  0  0  0  # atno 7974 bound_to 7965
  155.1445  140.3269  155.4445 H   0  0  0  0  0  0  0  0  0  0  0  0  # atno 8008 bound_to 7997
  156.2594  140.1988  156.6509 H   0  0  0  0  0  0  0  0  0  0  0  0  # atno 8009 bound_to 7997
  154.6518  140.0557  156.9951 H   0  0  0  0  0  0  0  0  0  0  0  0  # atno 8010 bound_to 7997
  140.5586  143.2312  151.6772 H   0  0  0  0  0  0  0  0  0  0  0  0  # atno 10167 bound_to 10162
  156.3689  130.7777  151.1955 H   0  0  0  0  0  0  0  0  0  0  0  0  # atno 10718 bound_to 10713
  153.4681  135.7016  153.6010 H   0  0  0  0  0  0  0  0  0  0  0  0  # atno 10763 bound_to 10752
  153.4275  135.3810  155.2150 H   0  0  0  0  0  0  0  0  0  0  0  0  # atno 10764 bound_to 10752
  154.8726  135.3943  154.4116 H   0  0  0  0  0  0  0  0  0  0  0  0  # atno 10765 bound_to 10752
  140.5840  134.5112  157.5183 H   0  0  0  0  0  0  0  0  0  0  0  0  # atno 11005 bound_to 11000
  144.7154  139.8218  143.7400 LP  0  0  0  0  0  0  0  0  0  0  0  0  # atno 17320 bound_to 7965
  146.1273  139.4301  143.0191 LP  0  0  0  0  0  0  0  0  0  0  0  0  # atno 17321 bound_to 7965
  139.5059  144.3700  152.0480 LP  0  0  0  0  0  0  0  0  0  0  0  0  # atno 17342 bound_to 10162
  140.2824  144.3845  150.6115 LP  0  0  0  0  0  0  0  0  0  0  0  0  # atno 17343 bound_to 10162
  157.7482  131.0378  150.4473 LP  0  0  0  0  0  0  0  0  0  0  0  0  # atno 17370 bound_to 10713
  156.4696  130.4050  149.6526 LP  0  0  0  0  0  0  0  0  0  0  0  0  # atno 17371 bound_to 10713
  139.9304  134.7974  156.0947 LP  0  0  0  0  0  0  0  0  0  0  0  0  # atno 17394 bound_to 11000
  141.0978  133.6689  156.2684 LP  0  0  0  0  0  0  0  0  0  0  0  0  # atno 17395 bound_to 11000

$$$$
