AV-unprocessed.smi:332|AV-procd|sdf|2357|dock1
  -GOLD-   2262022273D 1   1.00000     0.00000
 Structure written by MMmdl.
 42 44  0  0  0  0  0  0  0  0  1 V2000
  148.5078  145.5396  161.1053 C   0  0  0  0  0  0  0  0  0  0  0  0
  148.9050  144.5403  160.0067 C   0  0  1  0  0  0  0  0  0  0  0  0
  147.7968  144.3962  159.0645 N   0  0  0  0  0  0  0  0  0  0  0  0
  146.7651  143.5468  159.1863 C   0  0  0  0  0  0  0  0  0  0  0  0
  146.6364  142.7707  160.1344 O   0  0  0  0  0  0  0  0  0  0  0  0
  145.7290  143.5973  158.0535 C   0  0  0  0  0  0  0  0  0  0  0  0
  146.2575  143.1746  156.7454 N   0  0  0  0  0  0  0  0  0  0  0  0
  147.4006  142.3504  156.7551 C   0  0  0  0  0  0  0  0  0  0  0  0
  147.9671  141.9082  155.6213 C   0  0  0  0  0  0  0  0  0  0  0  0
  147.3728  142.2975  154.3647 C   0  0  0  0  0  0  0  0  0  0  0  0
  146.2770  143.0822  154.3438 C   0  0  0  0  0  0  0  0  0  0  0  0
  145.6544  143.5682  155.5809 C   0  0  0  0  0  0  0  0  0  0  0  0
  144.6528  144.2843  155.5707 O   0  0  0  0  0  0  0  0  0  0  0  0
  150.1749  144.9743  159.2371 C   0  0  2  0  0  0  0  0  0  0  0  0
  150.6270  143.9904  158.1328 C   0  0  0  0  0  0  0  0  0  0  0  0
  152.1271  143.8043  158.4266 C   0  0  2  0  0  0  0  0  0  0  0  0
  152.2894  142.9191  159.6759 C   0  0  0  0  0  0  0  0  0  0  0  0
  151.8637  143.8630  160.8149 C   0  0  0  0  0  0  0  0  0  0  0  0
  151.4729  145.1528  160.0642 C   0  0  1  0  0  0  0  0  0  0  0  0
  152.5240  145.1766  158.9586 C   0  0  0  0  0  0  0  0  0  0  0  0
  149.2869  145.6277  161.8624 H   0  0  0  0  0  0  0  0  0  0  0  0
  147.5976  145.2218  161.6148 H   0  0  0  0  0  0  0  0  0  0  0  0
  148.3288  146.5333  160.6931 H   0  0  0  0  0  0  0  0  0  0  0  0
  149.0950  143.5744  160.4755 H   0  0  0  0  0  0  0  0  0  0  0  0
  147.8174  144.9942  158.2513 H   0  0  0  0  0  0  0  0  0  0  0  0
  144.8730  142.9815  158.3348 H   0  0  0  0  0  0  0  0  0  0  0  0
  145.3374  144.6137  157.9883 H   0  0  0  0  0  0  0  0  0  0  0  0
  147.7791  142.0992  157.7354 H   0  0  0  0  0  0  0  0  0  0  0  0
  148.8417  141.2750  155.6483 H   0  0  0  0  0  0  0  0  0  0  0  0
  147.8076  141.9567  153.4367 H   0  0  0  0  0  0  0  0  0  0  0  0
  145.8450  143.3616  153.3940 H   0  0  0  0  0  0  0  0  0  0  0  0
  149.9606  145.9343  158.7632 H   0  0  0  0  0  0  0  0  0  0  0  0
  150.0912  143.0404  158.1604 H   0  0  0  0  0  0  0  0  0  0  0  0
  150.4717  144.4267  157.1453 H   0  0  0  0  0  0  0  0  0  0  0  0
  152.7014  143.4566  157.5674 H   0  0  0  0  0  0  0  0  0  0  0  0
  151.6748  142.0192  159.6291 H   0  0  0  0  0  0  0  0  0  0  0  0
  153.3274  142.6092  159.8034 H   0  0  0  0  0  0  0  0  0  0  0  0
  151.0615  143.4542  161.4277 H   0  0  0  0  0  0  0  0  0  0  0  0
  152.7080  144.0541  161.4787 H   0  0  0  0  0  0  0  0  0  0  0  0
  151.4683  146.0405  160.6974 H   0  0  0  0  0  0  0  0  0  0  0  0
  153.5484  145.2162  159.3333 H   0  0  0  0  0  0  0  0  0  0  0  0
  152.3775  145.9803  158.2347 H   0  0  0  0  0  0  0  0  0  0  0  0
  1  2  1  0  0  0  0
  1 21  1  0  0  0  0
  1 22  1  0  0  0  0
  1 23  1  0  0  0  0
  2  3  1  0  0  0  0
  2 14  1  0  0  0  0
  2 24  1  0  0  0  0
  3  4  1  0  0  0  0
  3 25  1  0  0  0  0
  4  5  2  0  0  0  0
  4  6  1  0  0  0  0
  6  7  1  0  0  0  0
  6 26  1  0  0  0  0
  6 27  1  0  0  0  0
  7 12  1  0  0  0  0
  7  8  1  0  0  0  0
  8  9  2  0  0  0  0
  8 28  1  0  0  0  0
  9 10  1  0  0  0  0
  9 29  1  0  0  0  0
 10 11  2  0  0  0  0
 10 30  1  0  0  0  0
 11 12  1  0  0  0  0
 11 31  1  0  0  0  0
 12 13  2  0  0  0  0
 14 19  1  0  0  0  0
 14 15  1  0  0  0  0
 14 32  1  0  0  0  0
 15 16  1  0  0  0  0
 15 33  1  0  0  0  0
 15 34  1  0  0  0  0
 16 20  1  0  0  0  0
 16 17  1  0  0  0  0
 16 35  1  0  0  0  0
 17 18  1  0  0  0  0
 17 36  1  0  0  0  0
 17 37  1  0  0  0  0
 18 19  1  0  0  0  0
 18 38  1  0  0  0  0
 18 39  1  0  0  0  0
 19 20  1  0  0  0  0
 19 40  1  0  0  0  0
 20 41  1  0  0  0  0
 20 42  1  0  0  0  0
M  END
> <s_m_source_file>
AV-unprocessed.smi

> <i_m_source_file_index>
332

> <i_lp_mmshare_version>
43012

> <i_f3d_flags>
0

> <s_epik_input>
W0NIMl0xW0NIMl1bQ0BIXShbQ0gyXTIpW0NAQEhdKFtDSDJdW0NAQEhdMTIpW0NASF0oW0NIM10pW05IXUMoPU8pW0NIMl1uM1tjSF1bY0hdW2NIXVtjSF1jMz1P

> <s_epik_cmdline>
J2VwaWtfcHl0aG9uJywgJy1waCcsICc3LjAnLCAnLXRuJywgJzgnLCAnLW1hJywgJzIwMCcsICctbWV0YWxfYmluZGluZycsICctaW1hZScsICc8aW5maWxlLm1hZT4nLCAnLW9tYWUnLCAnPG91dGZpbGUubWFlPic=

> <r_lp_tautomer_probability>
1

> <r_epik_Ionization_Penalty>
4.05802e-07

> <r_epik_Ionization_Penalty_Charging>
3.84175e-07

> <r_epik_Ionization_Penalty_Neutral>
2.16269e-08

> <r_epik_State_Penalty>
-0

> <r_epik_Charging_Adjusted_Penalty>
3.84175e-07

> <i_epik_Tot_Q>
0

> <i_epik_Tot_abs_Q>
0

> <r_epik_Metal_State_Penalty>
-0

> <b_epik_Metal_Only>
0

> <s_lp_Force_Field>
OPLS_2005

> <r_lp_Energy>
60.6372

> <b_lp_Chiralities_Consistent>
1

> <s_lp_Variant>
AV-unprocessed.smi:332-6

> <Gold.Version>
5.8.1

> <Gold.Id.Protein>
6NUR|6NUR_protein|mol2

> <Gold.PLP.Fitness>
49.2824

> <Gold.PLP.PLP>
-42.5025

> <Gold.PLP.part.hbond>
-3.0000

> <Gold.PLP.part.metal>
0.0000

> <Gold.PLP.part.buried>
-5.0540

> <Gold.PLP.part.nonpolar>
-34.8580

> <Gold.PLP.part.repulsive>
0.2664

> <Gold.PLP.ligand.clash>
0.0000

> <Gold.PLP.ligand.torsion>
0.7110

> <Gold.PLP.Chemscore.Hbond>
2.7283

> <Gold.PLP.Chemscore.CHOScore>
0.0000

> <Gold.PLP.Chemscore.Metal>
0.0000

> <Gold.Chemscore.Hbonds>
donor molecule, donor type, donor heavy atom, donor atom, acceptor molecule, acceptor atom, score
      L1  H     3    25       P1  8029  0.57
      P1  H  6933  6944       L1     5  0.27
      P1  H  6934  6946       L1     5  1.00

> <Gold.PLP.Chemscore.Internal.Correction>
0.0169

> <Gold.Rescore>
     Score         DG    S(hbond)    S(metal)    S(lipo)     H(rot)  DE(clash)    DE(int)     intcor
     22.15     -23.06       2.60        0.00     109.85       1.54       0.12       0.79       ----

> <Gold.Chemscore.Fitness>
22.1505

> <Gold.Chemscore.DG>
-23.0633

> <Gold.Chemscore.ZeroCoef>
-5.4800

> <Gold.Chemscore.Hbond>
2.5968

> <Gold.Chemscore.Metal>
0.0000

> <Gold.Chemscore.Lipo>
109.8453

> <Gold.Chemscore.Internal_Hbond>
0.0000

> <Gold.Chemscore.DEClash>
0.1179

> <Gold.Chemscore.DEInternal>
0.7949

> <Gold.Chemscore.Rot>
1.5398

> <Gold.Chemscore.Internal.Correction>
   9.000000E+99

> <Gold.Chemscore.Hbonds>
donor molecule, donor type, donor heavy atom, donor atom, acceptor molecule, acceptor atom, score
      L1  H     3    25       P1  8029  0.57
      P1  H  6933  6944       L1     5  0.26
      P1  H  6934  6946       L1     5  0.92

> <Gold.Chemscore.Hbond.Weighted>
-8.6733

> <Gold.Chemscore.Metal.Weighted>
-0.0000

> <Gold.Chemscore.Lipo.Weighted>
-12.8519

> <Gold.Chemscore.Internal_Hbond.Weighted>
0.0000

> <Gold.Chemscore.DEClash.Weighted>
0.1179

> <Gold.Chemscore.DEInternal.Weighted>
0.7949

> <Gold.Chemscore.Rot.Weighted>
3.9419

> <Gold.Chemscore.Internal.Correction.Weighted>
   9.000000E+99

> <Gold.Protein.RotatedTorsions>
[ 6907 6896 6895 6894 ] final -144.78 input  -60.11 | X-H torsion
[ 7974 7965 7964 7962 ] final -157.74 input  175.53 | X-H torsion
[ 8008 7997 7996 7995 ] final   -0.92 input   59.86 | X-H torsion
[ 10167 10162 10161 10158 ] final   -4.47 input  -65.29 | X-H torsion
[ 10718 10713 10712 10709 ] final  177.95 input   66.30 | X-H torsion
[ 10763 10752 10751 10750 ] final  157.37 input  -60.55 | X-H torsion
[ 11005 11000 10999 10996 ] final   99.63 input  -57.11 | X-H torsion

> <Gold.Protein.ActiveResidues>
 VAL166  LYS551  ARG553  GLY616  TRP617  ASP618  TYR619  PRO620  LYS621  CYS622 
 ASP623  PHE694  ASN695  SER759  ASP760  ASP761  ALA762  ILE779  LEU786  VAL792 
 PHE793  MET794  SER795  GLU796  ALA797  LYS798  CYS799  TRP800  GLU811  SER814 

> <Gold.Protein.RotatedAtoms>
  151.1188  133.5119  159.2602 H   0  0  0  0  0  0  0  0  0  0  0  0  # atno 6907 bound_to 6896
  151.1885  135.0392  159.8832 H   0  0  0  0  0  0  0  0  0  0  0  0  # atno 6908 bound_to 6896
  152.5454  134.1031  159.8380 H   0  0  0  0  0  0  0  0  0  0  0  0  # atno 6909 bound_to 6896
  144.7535  140.3926  143.6030 H   0  0  0  0  0  0  0  0  0  0  0  0  # atno 7974 bound_to 7965
  154.6526  140.2572  155.7197 H   0  0  0  0  0  0  0  0  0  0  0  0  # atno 8008 bound_to 7997
  156.2582  140.2865  156.0887 H   0  0  0  0  0  0  0  0  0  0  0  0  # atno 8009 bound_to 7997
  155.1428  140.0380  157.2793 H   0  0  0  0  0  0  0  0  0  0  0  0  # atno 8010 bound_to 7997
  140.6929  143.6420  150.8427 H   0  0  0  0  0  0  0  0  0  0  0  0  # atno 10167 bound_to 10162
  156.8978  130.9868  151.3040 H   0  0  0  0  0  0  0  0  0  0  0  0  # atno 10718 bound_to 10713
  154.1992  135.2791  155.2996 H   0  0  0  0  0  0  0  0  0  0  0  0  # atno 10763 bound_to 10752
  154.5868  135.5572  153.7242 H   0  0  0  0  0  0  0  0  0  0  0  0  # atno 10764 bound_to 10752
  153.0092  135.6358  154.2130 H   0  0  0  0  0  0  0  0  0  0  0  0  # atno 10765 bound_to 10752
  139.8770  134.9104  156.4635 H   0  0  0  0  0  0  0  0  0  0  0  0  # atno 11005 bound_to 11000
  145.6860  139.1628  143.2674 LP  0  0  0  0  0  0  0  0  0  0  0  0  # atno 17320 bound_to 7965
  146.1517  140.6916  142.9319 LP  0  0  0  0  0  0  0  0  0  0  0  0  # atno 17321 bound_to 7965
  140.0134  143.5618  152.2830 LP  0  0  0  0  0  0  0  0  0  0  0  0  # atno 17342 bound_to 10162
  139.6350  144.7649  151.2456 LP  0  0  0  0  0  0  0  0  0  0  0  0  # atno 17343 bound_to 10162
  157.6045  130.8537  149.8853 LP  0  0  0  0  0  0  0  0  0  0  0  0  # atno 17370 bound_to 10713
  156.0597  130.3702  150.1010 LP  0  0  0  0  0  0  0  0  0  0  0  0  # atno 17371 bound_to 10713
  140.8847  133.7892  155.9505 LP  0  0  0  0  0  0  0  0  0  0  0  0  # atno 17394 bound_to 11000
  140.8817  134.2603  157.5140 LP  0  0  0  0  0  0  0  0  0  0  0  0  # atno 17395 bound_to 11000

$$$$
