AV-unprocessed.smi:1056|AV-procd|sdf|4648|dock5
  -GOLD-   22720 3153D 1   1.00000     0.00000
 Structure written by MMmdl.
 45 47  0  0  0  0  0  0  0  0  4 V2000
  153.4352  143.2242  163.0637 C   0  0  0  0  0  0  0  0  0  0  0  0
  153.0070  142.7445  161.6872 C   0  0  0  0  0  0  0  0  0  0  0  0
  153.3671  141.4383  161.2858 C   0  0  0  0  0  0  0  0  0  0  0  0
  152.9615  141.0287  160.0212 C   0  0  0  0  0  0  0  0  0  0  0  0
  153.1574  139.8230  159.3447 N   0  3  0  0  0  0  0  0  0  0  0  0
  152.5703  139.8893  158.1178 C   0  0  0  0  0  0  0  0  0  0  0  0
  152.0014  141.1200  157.9999 N   0  0  0  0  0  0  0  0  0  0  0  0
  151.2406  141.6992  156.8822 C   0  0  0  0  0  0  0  0  0  0  0  0
  150.5945  140.6341  155.9732 C   0  0  2  0  0  0  0  0  0  0  0  0
  151.6066  139.9365  155.2719 O   0  0  0  0  0  0  0  0  0  0  0  0
  149.6306  141.2753  154.9537 C   0  0  0  0  0  0  0  0  0  0  0  0
  148.4122  141.8389  155.5879 N   0  3  1  0  0  0  0  0  0  0  0  0
  147.2618  141.9744  154.6562 C   0  0  0  0  0  0  0  0  0  0  0  0
  146.1590  142.8407  155.2943 C   0  0  0  0  0  0  0  0  0  0  0  0
  145.8943  142.3988  156.6688 N   0  5  0  0  0  0  0  0  0  0  0  0
  146.7467  141.6933  157.4764 C   0  0  0  0  0  0  0  0  0  0  0  0
  146.5617  141.4473  158.6662 O   0  0  0  0  0  0  0  0  0  0  0  0
  148.0317  141.1095  156.8294 C   0  0  0  0  0  0  0  0  0  0  0  0
  152.2205  141.8665  159.1648 C   0  0  0  0  0  0  0  0  0  0  0  0
  151.8579  143.1566  159.5457 C   0  0  0  0  0  0  0  0  0  0  0  0
  152.2621  143.5927  160.8277 C   0  0  0  0  0  0  0  0  0  0  0  0
  151.8815  144.9958  161.2690 C   0  0  0  0  0  0  0  0  0  0  0  0
  154.0263  142.4696  163.5834 H   0  0  0  0  0  0  0  0  0  0  0  0
  152.5630  143.4464  163.6790 H   0  0  0  0  0  0  0  0  0  0  0  0
  154.0429  144.1259  162.9849 H   0  0  0  0  0  0  0  0  0  0  0  0
  153.9340  140.7871  161.9350 H   0  0  0  0  0  0  0  0  0  0  0  0
  152.5568  139.1052  157.3745 H   0  0  0  0  0  0  0  0  0  0  0  0
  150.4651  142.3293  157.3197 H   0  0  0  0  0  0  0  0  0  0  0  0
  151.8884  142.3675  156.3140 H   0  0  0  0  0  0  0  0  0  0  0  0
  150.0667  139.9197  156.6044 H   0  0  0  0  0  0  0  0  0  0  0  0
  152.4305  140.0594  155.7184 H   0  0  0  0  0  0  0  0  0  0  0  0
  150.1332  142.0649  154.3930 H   0  0  0  0  0  0  0  0  0  0  0  0
  149.3483  140.5174  154.2208 H   0  0  0  0  0  0  0  0  0  0  0  0
  147.5686  142.4297  153.7155 H   0  0  0  0  0  0  0  0  0  0  0  0
  146.8742  140.9839  154.4117 H   0  0  0  0  0  0  0  0  0  0  0  0
  146.4855  143.8808  155.2800 H   0  0  0  0  0  0  0  0  0  0  0  0
  145.2645  142.8010  154.6733 H   0  0  0  0  0  0  0  0  0  0  0  0
  147.8635  140.0552  156.6048 H   0  0  0  0  0  0  0  0  0  0  0  0
  148.8486  141.1634  157.5502 H   0  0  0  0  0  0  0  0  0  0  0  0
  151.2961  143.8059  158.8909 H   0  0  0  0  0  0  0  0  0  0  0  0
  151.2951  145.5090  160.5063 H   0  0  0  0  0  0  0  0  0  0  0  0
  152.7739  145.5920  161.4603 H   0  0  0  0  0  0  0  0  0  0  0  0
  151.2844  144.9618  162.1804 H   0  0  0  0  0  0  0  0  0  0  0  0
  148.6439  142.7748  155.8870 H   0  0  0  0  0  0  0  0  0  0  0  0
  153.6530  139.0124  159.6938 H   0  0  0  0  0  0  0  0  0  0  0  0
  1  2  1  0  0  0  0
  1 23  1  0  0  0  0
  1 24  1  0  0  0  0
  1 25  1  0  0  0  0
  2 21  1  0  0  0  0
  2  3  2  0  0  0  0
  3  4  1  0  0  0  0
  3 26  1  0  0  0  0
  4 19  2  0  0  0  0
  4  5  1  0  0  0  0
  5  6  2  0  0  0  0
  5 45  1  0  0  0  0
  6  7  1  0  0  0  0
  6 27  1  0  0  0  0
  7  8  1  0  0  0  0
  7 19  1  0  0  0  0
  8  9  1  0  0  0  0
  8 28  1  0  0  0  0
  8 29  1  0  0  0  0
  9 10  1  0  0  0  0
  9 11  1  0  0  0  0
  9 30  1  0  0  0  0
 10 31  1  0  0  0  0
 11 12  1  0  0  0  0
 11 32  1  0  0  0  0
 11 33  1  0  0  0  0
 12 18  1  0  0  0  0
 12 13  1  0  0  0  0
 12 44  1  0  0  0  0
 13 14  1  0  0  0  0
 13 34  1  0  0  0  0
 13 35  1  0  0  0  0
 14 15  1  0  0  0  0
 14 36  1  0  0  0  0
 14 37  1  0  0  0  0
 15 16  1  0  0  0  0
 16 17  2  0  0  0  0
 16 18  1  0  0  0  0
 18 38  1  0  0  0  0
 18 39  1  0  0  0  0
 19 20  1  0  0  0  0
 20 21  2  0  0  0  0
 20 40  1  0  0  0  0
 21 22  1  0  0  0  0
 22 41  1  0  0  0  0
 22 42  1  0  0  0  0
 22 43  1  0  0  0  0
M  CHG  1   5   1
M  CHG  1  12   1
M  CHG  1  15  -1
M  END
> <s_m_source_file>
AV-unprocessed.smi

> <i_m_source_file_index>
1056

> <i_lp_mmshare_version>
43012

> <i_f3d_flags>
0

> <s_epik_input>
W0NIM11jKFtjSF0xKWMoW0NIM10pW2NIXWMoYzEyKW4oW2NIXW4yKVtDSDJdW0NASF0oW09IXSlbQ0gyXU4zW0NIMl1bQ0gyXVtOSF1DKD1PKVtDSDJdMw==

> <s_epik_cmdline>
J2VwaWtfcHl0aG9uJywgJy1waCcsICc3LjAnLCAnLXRuJywgJzgnLCAnLW1hJywgJzIwMCcsICctbWV0YWxfYmluZGluZycsICctaW1hZScsICc8aW5maWxlLm1hZT4nLCAnLW9tYWUnLCAnPG91dGZpbGUubWFlPic=

> <r_epik_Ionization_Penalty>
6.22415

> <r_epik_Ionization_Penalty_Charging>
6.22415

> <r_epik_Ionization_Penalty_Neutral>
4.02797e-07

> <r_epik_State_Penalty>
6.37716

> <r_epik_Charging_Adjusted_Penalty>
12.6013

> <i_epik_Tot_Q>
1

> <i_epik_Tot_abs_Q>
3

> <r_epik_Metal_State_Penalty>
2.53509

> <b_epik_Metal_Only>
1

> <s_lp_Force_Field>
OPLS_2005

> <r_lp_Energy>
27.8537

> <b_lp_Chiralities_Consistent>
1

> <s_lp_Variant>
AV-unprocessed.smi:1056-19

> <Gold.Version>
5.8.1

> <Gold.Id.Protein>
6NUR|6NUR_protein|mol2

> <Gold.PLP.Fitness>
53.8196

> <Gold.PLP.PLP>
-45.4587

> <Gold.PLP.part.hbond>
-3.0000

> <Gold.PLP.part.metal>
0.0000

> <Gold.PLP.part.buried>
-3.3558

> <Gold.PLP.part.nonpolar>
-38.6137

> <Gold.PLP.part.repulsive>
0.3150

> <Gold.PLP.ligand.clash>
0.2339

> <Gold.PLP.ligand.torsion>
0.7250

> <Gold.PLP.Chemscore.Hbond>
3.3359

> <Gold.PLP.Chemscore.CHOScore>
0.0000

> <Gold.PLP.Chemscore.Metal>
0.0000

> <Gold.Chemscore.Hbonds>
donor molecule, donor type, donor heavy atom, donor atom, acceptor molecule, acceptor atom, score
      L1  H    12    44       P1  8028  2.00
      P1  H  6934  6946       L1    17  0.42
      P1  H  7989  7998       L1    10  1.00

> <Gold.PLP.Chemscore.Internal.Correction>
0.0370

> <Gold.Rescore>
     Score         DG    S(hbond)    S(metal)    S(lipo)     H(rot)  DE(clash)    DE(int)     intcor
     18.33     -20.95       2.19        0.00     121.45       2.37       1.58       1.04       ----

> <Gold.Chemscore.Fitness>
18.3263

> <Gold.Chemscore.DG>
-20.9472

> <Gold.Chemscore.ZeroCoef>
-5.4800

> <Gold.Chemscore.Hbond>
2.1947

> <Gold.Chemscore.Metal>
0.0000

> <Gold.Chemscore.Lipo>
121.4545

> <Gold.Chemscore.Internal_Hbond>
0.0000

> <Gold.Chemscore.DEClash>
1.5850

> <Gold.Chemscore.DEInternal>
1.0359

> <Gold.Chemscore.Rot>
2.3724

> <Gold.Chemscore.Internal.Correction>
   9.000000E+99

> <Gold.Chemscore.Hbonds>
donor molecule, donor type, donor heavy atom, donor atom, acceptor molecule, acceptor atom, score
      L1  H    12    44       P1  8028  0.96
      P1  H  6934  6946       L1    17  0.41
      P1  H  7989  7998       L1    10  0.26

> <Gold.Chemscore.Hbond.Weighted>
-7.3304

> <Gold.Chemscore.Metal.Weighted>
-0.0000

> <Gold.Chemscore.Lipo.Weighted>
-14.2102

> <Gold.Chemscore.Internal_Hbond.Weighted>
0.0000

> <Gold.Chemscore.DEClash.Weighted>
1.5850

> <Gold.Chemscore.DEInternal.Weighted>
1.0359

> <Gold.Chemscore.Rot.Weighted>
6.0734

> <Gold.Chemscore.Internal.Correction.Weighted>
   9.000000E+99

> <Gold.Protein.RotatedTorsions>
[ 6907 6896 6895 6894 ] final   83.49 input  -60.11 | X-H torsion
[ 7974 7965 7964 7962 ] final   77.56 input  175.53 | X-H torsion
[ 8008 7997 7996 7995 ] final  127.39 input   59.86 | X-H torsion
[ 10167 10162 10161 10158 ] final -141.07 input  -65.29 | X-H torsion
[ 10718 10713 10712 10709 ] final   40.79 input   66.30 | X-H torsion
[ 10763 10752 10751 10750 ] final    5.35 input  -60.55 | X-H torsion
[ 11005 11000 10999 10996 ] final  156.77 input  -57.11 | X-H torsion

> <Gold.Protein.ActiveResidues>
 VAL166  LYS551  ARG553  GLY616  TRP617  ASP618  TYR619  PRO620  LYS621  CYS622 
 ASP623  PHE694  ASN695  SER759  ASP760  ASP761  ALA762  ILE779  LEU786  VAL792 
 PHE793  MET794  SER795  GLU796  ALA797  LYS798  CYS799  TRP800  GLU811  SER814 

> <Gold.Protein.RotatedAtoms>
  152.5328  134.2888  159.9034 H   0  0  0  0  0  0  0  0  0  0  0  0  # atno 6907 bound_to 6896
  151.2840  133.4189  159.2636 H   0  0  0  0  0  0  0  0  0  0  0  0  # atno 6908 bound_to 6896
  151.0258  134.9519  159.8141 H   0  0  0  0  0  0  0  0  0  0  0  0  # atno 6909 bound_to 6896
  145.6884  139.2545  143.1774 H   0  0  0  0  0  0  0  0  0  0  0  0  # atno 7974 bound_to 7965
  156.2889  140.2670  156.2266 H   0  0  0  0  0  0  0  0  0  0  0  0  # atno 8008 bound_to 7997
  155.0114  140.0387  157.2419 H   0  0  0  0  0  0  0  0  0  0  0  0  # atno 8009 bound_to 7997
  154.7514  140.2744  155.6294 H   0  0  0  0  0  0  0  0  0  0  0  0  # atno 8010 bound_to 7997
  139.8220  143.7561  152.2666 H   0  0  0  0  0  0  0  0  0  0  0  0  # atno 10167 bound_to 10162
  157.3861  130.7780  149.7232 H   0  0  0  0  0  0  0  0  0  0  0  0  # atno 10718 bound_to 10713
  153.2604  135.6922  153.7584 H   0  0  0  0  0  0  0  0  0  0  0  0  # atno 10763 bound_to 10752
  153.6645  135.3354  155.3137 H   0  0  0  0  0  0  0  0  0  0  0  0  # atno 10764 bound_to 10752
  154.8428  135.4485  154.1592 H   0  0  0  0  0  0  0  0  0  0  0  0  # atno 10765 bound_to 10752
  140.1707  134.8545  157.2686 H   0  0  0  0  0  0  0  0  0  0  0  0  # atno 11005 bound_to 11000
  146.0903  140.7663  142.9598 LP  0  0  0  0  0  0  0  0  0  0  0  0  # atno 17320 bound_to 7965
  144.7004  140.3627  143.7161 LP  0  0  0  0  0  0  0  0  0  0  0  0  # atno 17321 bound_to 7965
  139.7742  144.7466  151.0181 LP  0  0  0  0  0  0  0  0  0  0  0  0  # atno 17342 bound_to 10162
  140.7812  143.4612  151.0275 LP  0  0  0  0  0  0  0  0  0  0  0  0  # atno 17343 bound_to 10162
  155.9787  130.4048  150.3632 LP  0  0  0  0  0  0  0  0  0  0  0  0  # atno 17370 bound_to 10713
  157.1742  131.0376  151.2780 LP  0  0  0  0  0  0  0  0  0  0  0  0  # atno 17371 bound_to 10713
  140.2381  134.3828  155.7492 LP  0  0  0  0  0  0  0  0  0  0  0  0  # atno 17394 bound_to 11000
  141.2217  133.7250  156.8746 LP  0  0  0  0  0  0  0  0  0  0  0  0  # atno 17395 bound_to 11000

$$$$
