AV-unprocessed.smi:935|AV-procd|sdf|4207|dock1
  -GOLD-   22720 2113D 1   1.00000     0.00000
 Structure written by MMmdl.
 34 35  0  0  0  0  0  0  0  0  1 V2000
  153.8487  140.9287  160.3754 C   0  0  0  0  0  0  0  0  0  0  0  0
  153.4632  142.3945  160.6205 C   0  0  0  0  0  0  0  0  0  0  0  0
  152.8417  142.6307  162.0047 C   0  0  0  0  0  0  0  0  0  0  0  0
  152.6110  142.9442  159.5200 C   0  0  0  0  0  0  0  0  0  0  0  0
  152.1906  142.2230  158.4762 N   0  0  0  0  0  0  0  0  0  0  0  0
  151.4062  142.9643  157.5873 C   0  0  0  0  0  0  0  0  0  0  0  0
  150.8420  142.3099  156.3633 C   0  0  0  0  0  0  0  0  0  0  0  0
  149.7700  141.2627  156.7081 C   0  0  0  0  0  0  0  0  0  0  0  0
  148.5809  141.4151  155.8778 N   0  0  0  0  0  0  0  0  0  0  0  0
  148.5586  141.3333  154.5389 C   0  0  0  0  0  0  0  0  0  0  0  0
  149.5657  141.1169  153.8631 O   0  0  0  0  0  0  0  0  0  0  0  0
  147.2029  141.5262  153.9424 C   0  0  0  0  0  0  0  0  0  0  0  0
  146.5017  142.8441  154.2029 C   0  0  0  0  0  0  0  0  0  0  0  0
  146.0209  141.5898  154.8886 C   0  0  0  0  0  0  0  0  0  0  0  0
  151.2368  144.2699  157.9749 C   0  0  0  0  0  0  0  0  0  0  0  0
  152.0579  144.6148  159.4719 S   0  0  0  0  0  0  0  0  0  0  0  0
  154.3621  140.8127  159.4204 H   0  0  0  0  0  0  0  0  0  0  0  0
  152.9692  140.2841  160.3614 H   0  0  0  0  0  0  0  0  0  0  0  0
  154.5161  140.5626  161.1559 H   0  0  0  0  0  0  0  0  0  0  0  0
  154.3934  142.9638  160.6009 H   0  0  0  0  0  0  0  0  0  0  0  0
  152.6564  143.6917  162.1751 H   0  0  0  0  0  0  0  0  0  0  0  0
  153.5027  142.2796  162.7975 H   0  0  0  0  0  0  0  0  0  0  0  0
  151.8916  142.1056  162.1079 H   0  0  0  0  0  0  0  0  0  0  0  0
  150.4172  143.0682  155.7047 H   0  0  0  0  0  0  0  0  0  0  0  0
  151.6430  141.8362  155.7944 H   0  0  0  0  0  0  0  0  0  0  0  0
  150.1652  140.2591  156.5480 H   0  0  0  0  0  0  0  0  0  0  0  0
  149.5007  141.3247  157.7641 H   0  0  0  0  0  0  0  0  0  0  0  0
  147.7106  141.5972  156.3563 H   0  0  0  0  0  0  0  0  0  0  0  0
  147.0273  141.0628  152.9726 H   0  0  0  0  0  0  0  0  0  0  0  0
  147.0042  143.5891  154.8175 H   0  0  0  0  0  0  0  0  0  0  0  0
  145.8958  143.2491  153.3949 H   0  0  0  0  0  0  0  0  0  0  0  0
  145.0896  141.1442  154.5451 H   0  0  0  0  0  0  0  0  0  0  0  0
  146.2048  141.5023  155.9581 H   0  0  0  0  0  0  0  0  0  0  0  0
  150.6791  145.0465  157.4730 H   0  0  0  0  0  0  0  0  0  0  0  0
  1  2  1  0  0  0  0
  1 17  1  0  0  0  0
  1 18  1  0  0  0  0
  1 19  1  0  0  0  0
  2  3  1  0  0  0  0
  2  4  1  0  0  0  0
  2 20  1  0  0  0  0
  3 21  1  0  0  0  0
  3 22  1  0  0  0  0
  3 23  1  0  0  0  0
  4 16  1  0  0  0  0
  4  5  2  0  0  0  0
  5  6  1  0  0  0  0
  6  7  1  0  0  0  0
  6 15  2  0  0  0  0
  7  8  1  0  0  0  0
  7 24  1  0  0  0  0
  7 25  1  0  0  0  0
  8  9  1  0  0  0  0
  8 26  1  0  0  0  0
  8 27  1  0  0  0  0
  9 10  1  0  0  0  0
  9 28  1  0  0  0  0
 10 11  2  0  0  0  0
 10 12  1  0  0  0  0
 12 14  1  0  0  0  0
 12 13  1  0  0  0  0
 12 29  1  0  0  0  0
 13 14  1  0  0  0  0
 13 30  1  0  0  0  0
 13 31  1  0  0  0  0
 14 32  1  0  0  0  0
 14 33  1  0  0  0  0
 15 16  1  0  0  0  0
 15 34  1  0  0  0  0
M  END
> <s_m_source_file>
AV-unprocessed.smi

> <i_m_source_file_index>
935

> <i_lp_mmshare_version>
43012

> <i_f3d_flags>
0

> <s_epik_input>
W0NIM11bQ0hdKFtDSDNdKWMxbmMoW2NIXXMxKVtDSDJdW0NIMl1bTkhdQyg9TylbQ0hdMltDSDJdW0NIMl0y

> <s_epik_cmdline>
J2VwaWtfcHl0aG9uJywgJy1waCcsICc3LjAnLCAnLXRuJywgJzgnLCAnLW1hJywgJzIwMCcsICctbWV0YWxfYmluZGluZycsICctaW1hZScsICc8aW5maWxlLm1hZT4nLCAnLW9tYWUnLCAnPG91dGZpbGUubWFlPic=

> <r_epik_Ionization_Penalty>
0.000842127

> <r_epik_Ionization_Penalty_Charging>
0

> <r_epik_Ionization_Penalty_Neutral>
0.000842127

> <r_epik_State_Penalty>
0.000542609

> <r_epik_Charging_Adjusted_Penalty>
0.000542609

> <i_epik_Tot_Q>
0

> <i_epik_Tot_abs_Q>
0

> <r_epik_Metal_State_Penalty>
-0

> <b_epik_Metal_Only>
0

> <s_lp_Force_Field>
OPLS_2005

> <r_lp_Energy>
-5.7146

> <b_lp_Chiralities_Consistent>
1

> <s_lp_Variant>
AV-unprocessed.smi:935-1

> <Gold.Version>
5.8.1

> <Gold.Id.Protein>
6NUR|6NUR_protein|mol2

> <Gold.PLP.Fitness>
49.3123

> <Gold.PLP.PLP>
-43.5506

> <Gold.PLP.part.hbond>
-2.1496

> <Gold.PLP.part.metal>
0.0000

> <Gold.PLP.part.buried>
-4.5159

> <Gold.PLP.part.nonpolar>
-38.4673

> <Gold.PLP.part.repulsive>
1.7333

> <Gold.PLP.ligand.clash>
0.0000

> <Gold.PLP.ligand.torsion>
0.5089

> <Gold.PLP.Chemscore.Hbond>
1.2392

> <Gold.PLP.Chemscore.CHOScore>
0.9499

> <Gold.PLP.Chemscore.Metal>
0.0000

> <Gold.Chemscore.Hbonds>
donor molecule, donor type, donor heavy atom, donor atom, acceptor molecule, acceptor atom, score
      P1  H  7989  7998       L1    11  0.29
      P1  H  8011  8017       L1    11  0.88
      L1  C    15    34       P1  8028  0.93
      L1  C    15    34       P1  8029  0.01

> <Gold.PLP.Chemscore.Internal.Correction>
0.2120

> <Gold.Rescore>
     Score         DG    S(hbond)    S(metal)    S(lipo)     H(rot)  DE(clash)    DE(int)     intcor
     16.65     -18.17       1.04        0.00     112.87       1.55       0.46       1.06       ----

> <Gold.Chemscore.Fitness>
16.6513

> <Gold.Chemscore.DG>
-18.1694

> <Gold.Chemscore.ZeroCoef>
-5.4800

> <Gold.Chemscore.Hbond>
1.0360

> <Gold.Chemscore.Metal>
0.0000

> <Gold.Chemscore.Lipo>
112.8696

> <Gold.Chemscore.Internal_Hbond>
0.0000

> <Gold.Chemscore.DEClash>
0.4554

> <Gold.Chemscore.DEInternal>
1.0627

> <Gold.Chemscore.Rot>
1.5534

> <Gold.Chemscore.Internal.Correction>
   9.000000E+99

> <Gold.Chemscore.Hbonds>
donor molecule, donor type, donor heavy atom, donor atom, acceptor molecule, acceptor atom, score
      P1  H  7989  7998       L1    11  0.29
      P1  H  8011  8017       L1    11  0.72

> <Gold.Chemscore.Hbond.Weighted>
-3.4603

> <Gold.Chemscore.Metal.Weighted>
-0.0000

> <Gold.Chemscore.Lipo.Weighted>
-13.2057

> <Gold.Chemscore.Internal_Hbond.Weighted>
0.0000

> <Gold.Chemscore.DEClash.Weighted>
0.4554

> <Gold.Chemscore.DEInternal.Weighted>
1.0627

> <Gold.Chemscore.Rot.Weighted>
3.9767

> <Gold.Chemscore.Internal.Correction.Weighted>
   9.000000E+99

> <Gold.Protein.RotatedTorsions>
[ 6907 6896 6895 6894 ] final -123.01 input  -60.11 | X-H torsion
[ 7974 7965 7964 7962 ] final  131.84 input  175.53 | X-H torsion
[ 8008 7997 7996 7995 ] final  -11.03 input   59.86 | X-H torsion
[ 10167 10162 10161 10158 ] final  -25.67 input  -65.29 | X-H torsion
[ 10718 10713 10712 10709 ] final   91.74 input   66.30 | X-H torsion
[ 10763 10752 10751 10750 ] final   49.96 input  -60.55 | X-H torsion
[ 11005 11000 10999 10996 ] final  155.35 input  -57.11 | X-H torsion

> <Gold.Protein.ActiveResidues>
 VAL166  LYS551  ARG553  GLY616  TRP617  ASP618  TYR619  PRO620  LYS621  CYS622 
 ASP623  PHE694  ASN695  SER759  ASP760  ASP761  ALA762  ILE779  LEU786  VAL792 
 PHE793  MET794  SER795  GLU796  ALA797  LYS798  CYS799  TRP800  GLU811  SER814 

> <Gold.Protein.RotatedAtoms>
  150.8630  133.7616  159.2985 H   0  0  0  0  0  0  0  0  0  0  0  0  # atno 6907 bound_to 6896
  151.5252  135.1066  159.9898 H   0  0  0  0  0  0  0  0  0  0  0  0  # atno 6908 bound_to 6896
  152.4640  133.7839  159.6921 H   0  0  0  0  0  0  0  0  0  0  0  0  # atno 6909 bound_to 6896
  145.0031  139.4292  143.5282 H   0  0  0  0  0  0  0  0  0  0  0  0  # atno 7974 bound_to 7965
  154.5501  140.2313  155.8499 H   0  0  0  0  0  0  0  0  0  0  0  0  # atno 8008 bound_to 7997
  156.1939  140.3070  155.9348 H   0  0  0  0  0  0  0  0  0  0  0  0  # atno 8009 bound_to 7997
  155.3087  140.0434  157.3024 H   0  0  0  0  0  0  0  0  0  0  0  0  # atno 8010 bound_to 7997
  140.7285  143.4245  151.0899 H   0  0  0  0  0  0  0  0  0  0  0  0  # atno 10167 bound_to 10162
  157.6960  131.0418  150.3775 H   0  0  0  0  0  0  0  0  0  0  0  0  # atno 10718 bound_to 10713
  152.9785  135.5894  154.4174 H   0  0  0  0  0  0  0  0  0  0  0  0  # atno 10763 bound_to 10752
  154.3802  135.2767  155.2217 H   0  0  0  0  0  0  0  0  0  0  0  0  # atno 10764 bound_to 10752
  154.4134  135.6076  153.6021 H   0  0  0  0  0  0  0  0  0  0  0  0  # atno 10765 bound_to 10752
  140.1573  134.8633  157.2531 H   0  0  0  0  0  0  0  0  0  0  0  0  # atno 11005 bound_to 11000
  146.3456  139.9431  142.8738 LP  0  0  0  0  0  0  0  0  0  0  0  0  # atno 17320 bound_to 7965
  145.2126  140.9902  143.4092 LP  0  0  0  0  0  0  0  0  0  0  0  0  # atno 17321 bound_to 7965
  139.7895  143.8239  152.3149 LP  0  0  0  0  0  0  0  0  0  0  0  0  # atno 17342 bound_to 10162
  139.8218  144.7292  150.9562 LP  0  0  0  0  0  0  0  0  0  0  0  0  # atno 17343 bound_to 10162
  156.4192  130.3949  149.6837 LP  0  0  0  0  0  0  0  0  0  0  0  0  # atno 17370 bound_to 10713
  156.4093  130.7714  151.2726 LP  0  0  0  0  0  0  0  0  0  0  0  0  # atno 17371 bound_to 10713
  140.2531  134.3659  155.7434 LP  0  0  0  0  0  0  0  0  0  0  0  0  # atno 17394 bound_to 11000
  141.2206  133.7328  156.8966 LP  0  0  0  0  0  0  0  0  0  0  0  0  # atno 17395 bound_to 11000

$$$$
