AV-unprocessed.smi:1131|AV-procd|sdf|4853|dock9
  -GOLD-   22720 3423D 1   1.00000     0.00000
 Structure written by MMmdl.
 32 33  0  0  0  0  0  0  0  0  2 V2000
  152.4778  136.2418  155.0714 O   0  0  0  0  0  0  0  0  0  0  0  0
  151.5971  136.5021  154.2503 C   0  0  0  0  0  0  0  0  0  0  0  0
  151.6184  137.8236  153.4700 C   0  0  0  0  0  0  0  0  0  0  0  0
  151.0250  138.9439  154.2177 N   0  0  0  0  0  0  0  0  0  0  0  0
  149.6385  139.1464  154.1017 C   0  0  0  0  0  0  0  0  0  0  0  0
  149.0103  140.1480  154.7465 C   0  0  0  0  0  0  0  0  0  0  0  0
  149.8068  141.0362  155.5840 C   0  0  0  0  0  0  0  0  0  0  0  0
  149.2492  141.9522  156.1854 O   0  0  0  0  0  0  0  0  0  0  0  0
  151.1496  140.8020  155.6599 N   0  5  0  0  0  0  0  0  0  0  0  0
  151.7754  139.7808  154.9962 C   0  0  0  0  0  0  0  0  0  0  0  0
  152.9893  139.5883  155.0769 O   0  0  0  0  0  0  0  0  0  0  0  0
  150.5943  135.6610  153.9547 N   0  0  0  0  0  0  0  0  0  0  0  0
  150.3821  134.3490  154.5576 C   0  0  0  0  0  0  0  0  0  0  0  0
  150.4607  133.2182  153.5146 C   0  0  1  0  0  0  0  0  0  0  0  0
  151.1056  131.9332  153.9984 C   0  0  0  0  0  0  0  0  0  0  0  0
  150.6032  130.9195  152.9746 C   0  0  0  0  0  0  0  0  0  0  0  0
  149.3306  131.3950  152.5441 O   0  0  0  0  0  0  0  0  0  0  0  0
  149.0959  132.7006  153.0628 C   0  0  0  0  0  0  0  0  0  0  0  0
  152.6540  138.0459  153.2108 H   0  0  0  0  0  0  0  0  0  0  0  0
  151.1053  137.6971  152.5149 H   0  0  0  0  0  0  0  0  0  0  0  0
  149.1238  138.4488  153.4576 H   0  0  0  0  0  0  0  0  0  0  0  0
  147.9449  140.2921  154.6446 H   0  0  0  0  0  0  0  0  0  0  0  0
  149.9197  135.9586  153.2648 H   0  0  0  0  0  0  0  0  0  0  0  0
  151.0892  134.1752  155.3708 H   0  0  0  0  0  0  0  0  0  0  0  0
  149.3917  134.3526  155.0134 H   0  0  0  0  0  0  0  0  0  0  0  0
  151.0038  133.5721  152.6366 H   0  0  0  0  0  0  0  0  0  0  0  0
  152.1939  131.9862  154.0413 H   0  0  0  0  0  0  0  0  0  0  0  0
  150.7376  131.6737  154.9920 H   0  0  0  0  0  0  0  0  0  0  0  0
  151.2695  130.8877  152.1116 H   0  0  0  0  0  0  0  0  0  0  0  0
  150.5344  129.9124  153.3868 H   0  0  0  0  0  0  0  0  0  0  0  0
  148.4145  132.6154  153.9106 H   0  0  0  0  0  0  0  0  0  0  0  0
  148.6289  133.3462  152.3189 H   0  0  0  0  0  0  0  0  0  0  0  0
  1  2  2  0  0  0  0
  2  3  1  0  0  0  0
  2 12  1  0  0  0  0
  3  4  1  0  0  0  0
  3 19  1  0  0  0  0
  3 20  1  0  0  0  0
  4 10  1  0  0  0  0
  4  5  1  0  0  0  0
  5  6  2  0  0  0  0
  5 21  1  0  0  0  0
  6  7  1  0  0  0  0
  6 22  1  0  0  0  0
  7  8  2  0  0  0  0
  7  9  1  0  0  0  0
  9 10  1  0  0  0  0
 10 11  2  0  0  0  0
 12 13  1  0  0  0  0
 12 23  1  0  0  0  0
 13 14  1  0  0  0  0
 13 24  1  0  0  0  0
 13 25  1  0  0  0  0
 14 18  1  0  0  0  0
 14 15  1  0  0  0  0
 14 26  1  0  0  0  0
 15 16  1  0  0  0  0
 15 27  1  0  0  0  0
 15 28  1  0  0  0  0
 16 17  1  0  0  0  0
 16 29  1  0  0  0  0
 16 30  1  0  0  0  0
 17 18  1  0  0  0  0
 18 31  1  0  0  0  0
 18 32  1  0  0  0  0
M  CHG  1   9  -1
M  END
> <s_m_source_file>
AV-unprocessed.smi

> <i_m_source_file_index>
1131

> <i_lp_mmshare_version>
43012

> <i_f3d_flags>
0

> <s_epik_input>
W0NIMl0xT1tDSDJdW0NIMl1bQ0BIXTFbQ0gyXVtOSF1DKD1PKVtDSDJdbjJbY0hdW2NIXWMoPU8pW25IXWMyPU8=

> <s_epik_cmdline>
J2VwaWtfcHl0aG9uJywgJy1waCcsICc3LjAnLCAnLXRuJywgJzgnLCAnLW1hJywgJzIwMCcsICctbWV0YWxfYmluZGluZycsICctaW1hZScsICc8aW5maWxlLm1hZT4nLCAnLW9tYWUnLCAnPG91dGZpbGUubWFlPic=

> <r_lp_tautomer_probability>
0.999537

> <r_epik_Ionization_Penalty>
3.07866

> <r_epik_Ionization_Penalty_Charging>
2.6898e-08

> <r_epik_Ionization_Penalty_Neutral>
3.07866

> <r_epik_State_Penalty>
3.07769

> <r_epik_Charging_Adjusted_Penalty>
3.07769

> <i_epik_Tot_Q>
-1

> <i_epik_Tot_abs_Q>
1

> <r_epik_Metal_State_Penalty>
0.459839

> <b_epik_Metal_Only>
1

> <s_lp_Force_Field>
OPLS_2005

> <r_lp_Energy>
26.9978

> <b_lp_Chiralities_Consistent>
1

> <s_lp_Variant>
AV-unprocessed.smi:1131-4

> <Gold.Version>
5.8.1

> <Gold.Id.Protein>
6NUR|6NUR_protein|mol2

> <Gold.PLP.Fitness>
38.0478

> <Gold.PLP.PLP>
-29.1546

> <Gold.PLP.part.hbond>
-4.3307

> <Gold.PLP.part.metal>
0.0000

> <Gold.PLP.part.buried>
1.3944

> <Gold.PLP.part.nonpolar>
-30.7611

> <Gold.PLP.part.repulsive>
5.1224

> <Gold.PLP.ligand.clash>
0.0000

> <Gold.PLP.ligand.torsion>
1.2373

> <Gold.PLP.Chemscore.Hbond>
3.0000

> <Gold.PLP.Chemscore.CHOScore>
0.7854

> <Gold.PLP.Chemscore.Metal>
0.0000

> <Gold.Chemscore.Hbonds>
donor molecule, donor type, donor heavy atom, donor atom, acceptor molecule, acceptor atom, score
      L1  H    12    23       P1  7948  0.40
      P1  H  7997  8008       L1    11  1.00
      L1  C     5    21       P1  7948  0.55
      L1  C     5    21       P1  7957  0.07

> <Gold.PLP.Chemscore.Internal.Correction>
0.0116

> <Gold.Rescore>
     Score         DG    S(hbond)    S(metal)    S(lipo)     H(rot)  DE(clash)    DE(int)     intcor
     11.75     -14.05       2.54        0.00      45.51       2.05       1.22       1.08       ----

> <Gold.Chemscore.Fitness>
11.7502

> <Gold.Chemscore.DG>
-14.0546

> <Gold.Chemscore.ZeroCoef>
-5.4800

> <Gold.Chemscore.Hbond>
2.5414

> <Gold.Chemscore.Metal>
0.0000

> <Gold.Chemscore.Lipo>
45.5116

> <Gold.Chemscore.Internal_Hbond>
0.0000

> <Gold.Chemscore.DEClash>
1.2211

> <Gold.Chemscore.DEInternal>
1.0832

> <Gold.Chemscore.Rot>
2.0463

> <Gold.Chemscore.Internal.Correction>
   9.000000E+99

> <Gold.Chemscore.Hbonds>
donor molecule, donor type, donor heavy atom, donor atom, acceptor molecule, acceptor atom, score
      L1  H    12    23       P1  7948  0.01
      P1  H  7997  8008       L1    11  1.00

> <Gold.Chemscore.Hbond.Weighted>
-8.4883

> <Gold.Chemscore.Metal.Weighted>
-0.0000

> <Gold.Chemscore.Lipo.Weighted>
-5.3249

> <Gold.Chemscore.Internal_Hbond.Weighted>
0.0000

> <Gold.Chemscore.DEClash.Weighted>
1.2211

> <Gold.Chemscore.DEInternal.Weighted>
1.0832

> <Gold.Chemscore.Rot.Weighted>
5.2386

> <Gold.Chemscore.Internal.Correction.Weighted>
   9.000000E+99

> <Gold.Protein.RotatedTorsions>
[ 6907 6896 6895 6894 ] final   59.24 input  -60.11 | X-H torsion
[ 7974 7965 7964 7962 ] final -173.75 input  175.53 | X-H torsion
[ 8008 7997 7996 7995 ] final  -30.75 input   59.86 | X-H torsion
[ 10167 10162 10161 10158 ] final  106.93 input  -65.29 | X-H torsion
[ 10718 10713 10712 10709 ] final -106.28 input   66.30 | X-H torsion
[ 10763 10752 10751 10750 ] final -145.47 input  -60.55 | X-H torsion
[ 11005 11000 10999 10996 ] final  -50.95 input  -57.11 | X-H torsion

> <Gold.Protein.ActiveResidues>
 VAL166  LYS551  ARG553  GLY616  TRP617  ASP618  TYR619  PRO620  LYS621  CYS622 
 ASP623  PHE694  ASN695  SER759  ASP760  ASP761  ALA762  ILE779  LEU786  VAL792 
 PHE793  MET794  SER795  GLU796  ALA797  LYS798  CYS799  TRP800  GLU811  SER814 

> <Gold.Protein.RotatedAtoms>
  152.3897  134.6461  160.0111 H   0  0  0  0  0  0  0  0  0  0  0  0  # atno 6907 bound_to 6896
  151.6698  133.3309  159.3202 H   0  0  0  0  0  0  0  0  0  0  0  0  # atno 6908 bound_to 6896
  150.7816  134.6809  159.6488 H   0  0  0  0  0  0  0  0  0  0  0  0  # atno 6909 bound_to 6896
  144.7136  140.1574  143.6379 H   0  0  0  0  0  0  0  0  0  0  0  0  # atno 7974 bound_to 7965
  154.4239  140.1783  156.1457 H   0  0  0  0  0  0  0  0  0  0  0  0  # atno 8008 bound_to 7997
  155.9955  140.3365  155.6770 H   0  0  0  0  0  0  0  0  0  0  0  0  # atno 8009 bound_to 7997
  155.6314  140.0670  157.2638 H   0  0  0  0  0  0  0  0  0  0  0  0  # atno 8010 bound_to 7997
  139.6969  144.7100  151.1252 H   0  0  0  0  0  0  0  0  0  0  0  0  # atno 10167 bound_to 10162
  156.0383  130.5605  150.7659 H   0  0  0  0  0  0  0  0  0  0  0  0  # atno 10718 bound_to 10713
  154.8382  135.3412  154.6510 H   0  0  0  0  0  0  0  0  0  0  0  0  # atno 10763 bound_to 10752
  153.7123  135.6963  153.5039 H   0  0  0  0  0  0  0  0  0  0  0  0  # atno 10764 bound_to 10752
  153.2443  135.4374  155.0684 H   0  0  0  0  0  0  0  0  0  0  0  0  # atno 10765 bound_to 10752
  141.0844  133.6646  156.3806 H   0  0  0  0  0  0  0  0  0  0  0  0  # atno 11005 bound_to 11000
  145.9061  139.2459  143.1465 LP  0  0  0  0  0  0  0  0  0  0  0  0  # atno 17320 bound_to 7965
  145.9762  140.8720  143.0137 LP  0  0  0  0  0  0  0  0  0  0  0  0  # atno 17321 bound_to 7965
  140.7699  143.5479  150.9238 LP  0  0  0  0  0  0  0  0  0  0  0  0  # atno 17342 bound_to 10162
  139.9159  143.6664  152.3106 LP  0  0  0  0  0  0  0  0  0  0  0  0  # atno 17343 bound_to 10162
  157.5166  131.0929  151.0132 LP  0  0  0  0  0  0  0  0  0  0  0  0  # atno 17370 bound_to 10713
  157.0473  130.5773  149.5365 LP  0  0  0  0  0  0  0  0  0  0  0  0  # atno 17371 bound_to 10713
  140.5395  134.6134  157.5375 LP  0  0  0  0  0  0  0  0  0  0  0  0  # atno 17394 bound_to 11000
  139.9661  134.7370  156.0135 LP  0  0  0  0  0  0  0  0  0  0  0  0  # atno 17395 bound_to 11000

$$$$
