#       Name:                AV-unprocessed.smi:2040
#       Creating user name   scv26
#       Creation time:       Fri Mar 27 10:55:30 2020


#       File generated by GOLD software.
#

@<TRIPOS>MOLECULE
AV-unprocessed.smi:2040
    43    44     1
SMALL
NO_CHARGES


@<TRIPOS>ATOM
      1 ****        -5.9589  -0.3584   1.0787 C.3            1 S1                 0.0000
      2 ****        -4.5901   0.2549   1.0505 C.2            1 S1                 0.0000
      3 ****        -3.3391  -0.4004   0.8591 C.2            1 S1                 0.0000
      4 ****        -2.4443   0.6324   0.9274 C.2            1 S1                 0.0000
      5 ****        -1.0905   0.6003   0.8072 N.am           1 S1                 0.0000
      6 ****        -0.2871  -0.4646   0.6400 C.2            1 S1                 0.0000
      7 ****        -0.6584  -1.6373   0.5924 O.2            1 S1                 0.0000
      8 ****         0.9952  -0.0874   0.5313 N.am           1 S1                 0.0000
      9 ****         2.1346  -0.9806   0.3292 C.3            1 S1                 0.0000
     10 ****         2.8959  -1.1410   1.6538 C.3            1 S1                 0.0000
     11 ****         3.0350  -0.4343  -0.7956 C.3            1 S1                 0.0000
     12 ****         2.3214  -0.2191  -2.1332 C.3            1 S1                 0.0000
     13 ****         3.4642  -0.3316  -3.1149 C.3            1 S1                 0.0000
     14 ****         4.2908  -1.4522  -2.4940 C.3            1 S1                 0.0000
     15 ****         4.0874  -1.3527  -1.0868 O.3            1 S1                 0.0000
     16 ****        -3.1341   1.8051   1.1409 N.pl3          1 S1                 0.0000
     17 ****        -2.6300   3.1572   1.2823 C.3            1 S1                 0.0000
     18 ****        -4.4612   1.5663   1.2185 N.2            1 S1                 0.0000
     19 ****        -5.9178  -1.4236   0.8503 H              1 S1                 0.0000
     20 ****        -6.6164   0.1118   0.3470 H              1 S1                 0.0000
     21 ****        -6.4178  -0.2475   2.0613 H              1 S1                 0.0000
     22 ****        -3.1534  -1.4518   0.6990 H              1 S1                 0.0000
     23 ****        -0.6340   1.4996   0.8456 H              1 S1                 0.0000
     24 ****         1.2028   0.8991   0.5852 H              1 S1                 0.0000
     25 ****         1.7830  -1.9667   0.0205 H              1 S1                 0.0000
     26 ****         3.7372  -1.8256   1.5441 H              1 S1                 0.0000
     27 ****         2.2474  -1.5431   2.4330 H              1 S1                 0.0000
     28 ****         3.2879  -0.1862   2.0056 H              1 S1                 0.0000
     29 ****         3.4954   0.5058  -0.4866 H              1 S1                 0.0000
     30 ****         1.5957  -1.0136  -2.3148 H              1 S1                 0.0000
     31 ****         1.8017   0.7378  -2.1905 H              1 S1                 0.0000
     32 ****         3.1391  -0.5534  -4.1317 H              1 S1                 0.0000
     33 ****         4.0376   0.5962  -3.1315 H              1 S1                 0.0000
     34 ****         3.9248  -2.4239  -2.8277 H              1 S1                 0.0000
     35 ****         5.3480  -1.3818  -2.7511 H              1 S1                 0.0000
     36 ****        -2.0026   3.2223   2.1714 H              1 S1                 0.0000
     37 ****        -3.4530   3.8667   1.3774 H              1 S1                 0.0000
     38 ****        -2.0368   3.4206   0.4064 H              1 S1                 0.0000
     39 ****        -1.6296  -1.8582   0.6814 LP             1 S1                 0.0000
     40 ****         0.0112  -2.3690   0.4647 LP             1 S1                 0.0000
     41 ****         3.8472  -2.2534  -0.7249 LP             1 S1                 0.0000
     42 ****         4.9309  -1.0339  -0.6545 LP             1 S1                 0.0000
     43 ****        -5.1904   2.2337   1.3700 LP             1 S1                 0.0000
@<TRIPOS>BOND
    1    1    2 1     
    2    1   19 1     
    3    1   20 1     
    4    1   21 1     
    5    2   18 2     
    6    2    3 1     
    7    3    4 2     
    8    3   22 1     
    9    4    5 1     
   10    4   16 1     
   11    5    6 am    
   12    5   23 1     
   13    6    7 2     
   14    6    8 am    
   15    8    9 1     
   16    8   24 1     
   17    9   10 1     
   18    9   11 1     
   19    9   25 1     
   20   10   26 1     
   21   10   27 1     
   22   10   28 1     
   23   11   15 1     
   24   11   12 1     
   25   11   29 1     
   26   12   13 1     
   27   12   30 1     
   28   12   31 1     
   29   13   14 1     
   30   13   32 1     
   31   13   33 1     
   32   14   15 1     
   33   14   34 1     
   34   14   35 1     
   35   16   17 1     
   36   16   18 1     
   37   17   36 1     
   38   17   37 1     
   39   17   38 1     
   40    7   39 1     
   41    7   40 1     
   42   15   41 1     
   43   15   42 1     
   44   18   43 1     
@<TRIPOS>SUBSTRUCTURE
      1 S1             1
@<TRIPOS>SET
LONE_PAIRS      STATIC     ATOMS    <user>   **** ""
5 39 40 41 42 43
DONOR_HYDROGENS      STATIC     ATOMS    <user>   **** ""
2 23 24
ATOM$BLUE        STATIC     ATOMS    COLORGROUP SYSTEM
5 39 40 41 42 43
ATOM$RED        STATIC     ATOMS    COLORGROUP SYSTEM
2 23 24
