AV-unprocessed.smi:1413|AV-procd|sdf|5750|dock1
  -GOLD-   22720 5383D 1   1.00000     0.00000
 Structure written by MMmdl.
 53 55  0  0  0  0  0  0  0  0  1 V2000
  154.0623  141.3696  159.5099 C   0  0  0  0  0  0  0  0  0  0  0  0
  152.5637  141.5714  159.7962 C   0  0  2  0  0  0  0  0  0  0  0  0
  151.6458  140.7021  158.9132 C   0  0  0  0  0  0  0  0  0  0  0  0
  151.5875  141.2280  157.5561 N   0  0  0  0  0  0  0  0  0  0  0  0
  150.8706  140.4083  156.6746 C   0  0  0  0  0  0  0  0  0  0  0  0
  151.5032  139.7449  155.5986 C   0  0  0  0  0  0  0  0  0  0  0  0
  150.7214  138.9396  154.7492 C   0  0  0  0  0  0  0  0  0  0  0  0
  149.3373  138.8274  154.9886 C   0  0  0  0  0  0  0  0  0  0  0  0
  148.5756  137.9958  154.1238 N   0  0  0  0  0  0  0  0  0  0  0  0
  147.2905  137.6204  154.2424 C   0  0  0  0  0  0  0  0  0  0  0  0
  146.5320  137.9611  155.1496 O   0  0  0  0  0  0  0  0  0  0  0  0
  146.9245  136.8315  153.2219 N   0  0  0  0  0  0  0  0  0  0  0  0
  145.6025  136.2397  153.0268 C   0  0  1  0  0  0  0  0  0  0  0  0
  144.5488  137.3576  153.0745 C   0  0  0  0  0  0  0  0  0  0  0  0
  145.5820  135.4630  151.6956 C   0  0  2  0  0  0  0  0  0  0  0  0
  144.2369  134.8179  151.3562 C   0  0  0  0  0  0  0  0  0  0  0  0
  144.6571  133.6884  150.4449 C   0  0  0  0  0  0  0  0  0  0  0  0
  145.9488  133.2218  151.1074 C   0  0  0  0  0  0  0  0  0  0  0  0
  146.5019  134.3726  151.7404 O   0  0  0  0  0  0  0  0  0  0  0  0
  148.8031  139.5226  156.1010 C   0  0  0  0  0  0  0  0  0  0  0  0
  149.5477  140.2955  156.9203 N   0  0  0  0  0  0  0  0  0  0  0  0
  151.1856  142.6264  157.5172 C   0  0  0  0  0  0  0  0  0  0  0  0
  152.1430  143.4719  158.3757 C   0  0  1  0  0  0  0  0  0  0  0  0
  151.6975  144.9359  158.4548 C   0  0  0  0  0  0  0  0  0  0  0  0
  152.1786  142.9462  159.7034 O   0  0  0  0  0  0  0  0  0  0  0  0
  154.3579  140.3398  159.7116 H   0  0  0  0  0  0  0  0  0  0  0  0
  154.6694  142.0167  160.1431 H   0  0  0  0  0  0  0  0  0  0  0  0
  154.3181  141.5810  158.4718 H   0  0  0  0  0  0  0  0  0  0  0  0
  152.3996  141.2785  160.8334 H   0  0  0  0  0  0  0  0  0  0  0  0
  151.9964  139.6690  158.9006 H   0  0  0  0  0  0  0  0  0  0  0  0
  150.6402  140.6921  159.3360 H   0  0  0  0  0  0  0  0  0  0  0  0
  152.5636  139.8493  155.4225 H   0  0  0  0  0  0  0  0  0  0  0  0
  151.1818  138.4208  153.9212 H   0  0  0  0  0  0  0  0  0  0  0  0
  149.0478  137.6989  153.2826 H   0  0  0  0  0  0  0  0  0  0  0  0
  147.6210  136.6106  152.5258 H   0  0  0  0  0  0  0  0  0  0  0  0
  145.3801  135.5375  153.8322 H   0  0  0  0  0  0  0  0  0  0  0  0
  143.5388  136.9572  152.9856 H   0  0  0  0  0  0  0  0  0  0  0  0
  144.6941  138.0768  152.2677 H   0  0  0  0  0  0  0  0  0  0  0  0
  144.5989  137.9019  154.0182 H   0  0  0  0  0  0  0  0  0  0  0  0
  145.8830  136.1133  150.8723 H   0  0  0  0  0  0  0  0  0  0  0  0
  143.7645  134.4148  152.2535 H   0  0  0  0  0  0  0  0  0  0  0  0
  143.5397  135.5093  150.8822 H   0  0  0  0  0  0  0  0  0  0  0  0
  143.9092  132.8993  150.3638 H   0  0  0  0  0  0  0  0  0  0  0  0
  144.8632  134.0710  149.4444 H   0  0  0  0  0  0  0  0  0  0  0  0
  145.7361  132.4757  151.8738 H   0  0  0  0  0  0  0  0  0  0  0  0
  146.6475  132.7849  150.3935 H   0  0  0  0  0  0  0  0  0  0  0  0
  147.7610  139.4558  156.3715 H   0  0  0  0  0  0  0  0  0  0  0  0
  151.1911  142.9819  156.4859 H   0  0  0  0  0  0  0  0  0  0  0  0
  150.1651  142.7278  157.8892 H   0  0  0  0  0  0  0  0  0  0  0  0
  153.1435  143.4459  157.9432 H   0  0  0  0  0  0  0  0  0  0  0  0
  151.6602  145.3886  157.4636 H   0  0  0  0  0  0  0  0  0  0  0  0
  152.3889  145.5212  159.0617 H   0  0  0  0  0  0  0  0  0  0  0  0
  150.7062  145.0229  158.9007 H   0  0  0  0  0  0  0  0  0  0  0  0
  1  2  1  0  0  0  0
  1 26  1  0  0  0  0
  1 27  1  0  0  0  0
  1 28  1  0  0  0  0
  2 25  1  0  0  0  0
  2  3  1  0  0  0  0
  2 29  1  0  0  0  0
  3  4  1  0  0  0  0
  3 30  1  0  0  0  0
  3 31  1  0  0  0  0
  4  5  1  0  0  0  0
  4 22  1  0  0  0  0
  5 21  1  0  0  0  0
  5  6  2  0  0  0  0
  6  7  1  0  0  0  0
  6 32  1  0  0  0  0
  7  8  2  0  0  0  0
  7 33  1  0  0  0  0
  8  9  1  0  0  0  0
  8 20  1  0  0  0  0
  9 10  1  0  0  0  0
  9 34  1  0  0  0  0
 10 11  2  0  0  0  0
 10 12  1  0  0  0  0
 12 13  1  0  0  0  0
 12 35  1  0  0  0  0
 13 14  1  0  0  0  0
 13 15  1  0  0  0  0
 13 36  1  0  0  0  0
 14 37  1  0  0  0  0
 14 38  1  0  0  0  0
 14 39  1  0  0  0  0
 15 19  1  0  0  0  0
 15 16  1  0  0  0  0
 15 40  1  0  0  0  0
 16 17  1  0  0  0  0
 16 41  1  0  0  0  0
 16 42  1  0  0  0  0
 17 18  1  0  0  0  0
 17 43  1  0  0  0  0
 17 44  1  0  0  0  0
 18 19  1  0  0  0  0
 18 45  1  0  0  0  0
 18 46  1  0  0  0  0
 20 21  2  0  0  0  0
 20 47  1  0  0  0  0
 22 23  1  0  0  0  0
 22 48  1  0  0  0  0
 22 49  1  0  0  0  0
 23 24  1  0  0  0  0
 23 25  1  0  0  0  0
 23 50  1  0  0  0  0
 24 51  1  0  0  0  0
 24 52  1  0  0  0  0
 24 53  1  0  0  0  0
M  END
> <s_m_source_file>
AV-unprocessed.smi

> <i_m_source_file_index>
1413

> <i_lp_mmshare_version>
43012

> <i_f3d_flags>
0

> <s_epik_input>
W0NIM11bQ0BASF0xW0NIMl1OKFtDSDJdW0NASF0oTzEpW0NIM10pYzJbY0hdW2NIXWMoW2NIXW4yKVtOSF1DKD1PKVtOSF1bQ0BIXShbQ0gzXSlbQ0BASF0zW0NIMl1bQ0gyXVtDSDJdTzM=

> <s_epik_cmdline>
J2VwaWtfcHl0aG9uJywgJy1waCcsICc3LjAnLCAnLXRuJywgJzgnLCAnLW1hJywgJzIwMCcsICctbWV0YWxfYmluZGluZycsICctaW1hZScsICc8aW5maWxlLm1hZT4nLCAnLW9tYWUnLCAnPG91dGZpbGUubWFlPic=

> <r_lp_tautomer_probability>
1

> <r_epik_Ionization_Penalty>
0.00271172

> <r_epik_Ionization_Penalty_Charging>
0

> <r_epik_Ionization_Penalty_Neutral>
0.00271172

> <r_epik_State_Penalty>
0.00186503

> <r_epik_Charging_Adjusted_Penalty>
0.00186503

> <i_epik_Tot_Q>
0

> <i_epik_Tot_abs_Q>
0

> <r_epik_Metal_State_Penalty>
-0

> <b_epik_Metal_Only>
0

> <s_lp_Force_Field>
OPLS_2005

> <r_lp_Energy>
38.8285

> <b_lp_Chiralities_Consistent>
1

> <s_lp_Variant>
AV-unprocessed.smi:1413-3

> <Gold.Version>
5.8.1

> <Gold.Id.Protein>
6NUR|6NUR_protein|mol2

> <Gold.PLP.Fitness>
46.2861

> <Gold.PLP.PLP>
-40.7786

> <Gold.PLP.part.hbond>
-1.9671

> <Gold.PLP.part.metal>
0.0000

> <Gold.PLP.part.buried>
-6.6180

> <Gold.PLP.part.nonpolar>
-33.0510

> <Gold.PLP.part.repulsive>
0.6699

> <Gold.PLP.ligand.clash>
0.0000

> <Gold.PLP.ligand.torsion>
0.1013

> <Gold.PLP.Chemscore.Hbond>
1.8640

> <Gold.PLP.Chemscore.CHOScore>
0.0000

> <Gold.PLP.Chemscore.Metal>
0.0000

> <Gold.Chemscore.Hbonds>
donor molecule, donor type, donor heavy atom, donor atom, acceptor molecule, acceptor atom, score
      L1  H     9    34       P1  7948  0.83
      L1  H    12    35       P1  7948  1.00

> <Gold.PLP.Chemscore.Internal.Correction>
0.1182

> <Gold.Rescore>
     Score         DG    S(hbond)    S(metal)    S(lipo)     H(rot)  DE(clash)    DE(int)     intcor
     19.64     -21.03       1.88        0.00     108.62       1.35       0.04       1.35       ----

> <Gold.Chemscore.Fitness>
19.6403

> <Gold.Chemscore.DG>
-21.0290

> <Gold.Chemscore.ZeroCoef>
-5.4800

> <Gold.Chemscore.Hbond>
1.8830

> <Gold.Chemscore.Metal>
0.0000

> <Gold.Chemscore.Lipo>
108.6177

> <Gold.Chemscore.Internal_Hbond>
0.0000

> <Gold.Chemscore.DEClash>
0.0371

> <Gold.Chemscore.DEInternal>
1.3517

> <Gold.Chemscore.Rot>
1.3471

> <Gold.Chemscore.Internal.Correction>
   9.000000E+99

> <Gold.Chemscore.Hbonds>
donor molecule, donor type, donor heavy atom, donor atom, acceptor molecule, acceptor atom, score
      L1  H     9    34       P1  7948  0.78
      L1  H    12    35       P1  7948  0.93

> <Gold.Chemscore.Hbond.Weighted>
-6.2893

> <Gold.Chemscore.Metal.Weighted>
-0.0000

> <Gold.Chemscore.Lipo.Weighted>
-12.7083

> <Gold.Chemscore.Internal_Hbond.Weighted>
0.0000

> <Gold.Chemscore.DEClash.Weighted>
0.0371

> <Gold.Chemscore.DEInternal.Weighted>
1.3517

> <Gold.Chemscore.Rot.Weighted>
3.4485

> <Gold.Chemscore.Internal.Correction.Weighted>
   9.000000E+99

> <Gold.Protein.RotatedTorsions>
[ 6907 6896 6895 6894 ] final  -83.54 input  -60.11 | X-H torsion
[ 7974 7965 7964 7962 ] final  158.82 input  175.53 | X-H torsion
[ 8008 7997 7996 7995 ] final  -88.58 input   59.86 | X-H torsion
[ 10167 10162 10161 10158 ] final  115.08 input  -65.29 | X-H torsion
[ 10718 10713 10712 10709 ] final   13.15 input   66.30 | X-H torsion
[ 10763 10752 10751 10750 ] final   12.12 input  -60.55 | X-H torsion
[ 11005 11000 10999 10996 ] final  -90.60 input  -57.11 | X-H torsion

> <Gold.Protein.ActiveResidues>
 VAL166  LYS551  ARG553  GLY616  TRP617  ASP618  TYR619  PRO620  LYS621  CYS622 
 ASP623  PHE694  ASN695  SER759  ASP760  ASP761  ALA762  ILE779  LEU786  VAL792 
 PHE793  MET794  SER795  GLU796  ALA797  LYS798  CYS799  TRP800  GLU811  SER814 

> <Gold.Protein.RotatedAtoms>
  150.6884  134.3495  159.4902 H   0  0  0  0  0  0  0  0  0  0  0  0  # atno 6907 bound_to 6896
  152.1338  134.9112  160.0566 H   0  0  0  0  0  0  0  0  0  0  0  0  # atno 6908 bound_to 6896
  152.0271  133.3887  159.4319 H   0  0  0  0  0  0  0  0  0  0  0  0  # atno 6909 bound_to 6896
  144.7824  139.7531  143.6254 H   0  0  0  0  0  0  0  0  0  0  0  0  # atno 7974 bound_to 7965
  154.6765  140.0552  157.0221 H   0  0  0  0  0  0  0  0  0  0  0  0  # atno 8008 bound_to 7997
  155.1013  140.3229  155.4527 H   0  0  0  0  0  0  0  0  0  0  0  0  # atno 8009 bound_to 7997
  156.2678  140.2030  156.6139 H   0  0  0  0  0  0  0  0  0  0  0  0  # atno 8010 bound_to 7997
  139.6343  144.7118  151.2368 H   0  0  0  0  0  0  0  0  0  0  0  0  # atno 10167 bound_to 10162
  157.0205  130.6153  149.5720 H   0  0  0  0  0  0  0  0  0  0  0  0  # atno 10718 bound_to 10713
  153.1855  135.6834  153.8421 H   0  0  0  0  0  0  0  0  0  0  0  0  # atno 10763 bound_to 10752
  153.7738  135.3192  155.3357 H   0  0  0  0  0  0  0  0  0  0  0  0  # atno 10764 bound_to 10752
  154.8086  135.4732  154.0553 H   0  0  0  0  0  0  0  0  0  0  0  0  # atno 10765 bound_to 10752
  141.1562  133.7702  156.9761 H   0  0  0  0  0  0  0  0  0  0  0  0  # atno 11005 bound_to 11000
  146.2039  139.5351  142.9725 LP  0  0  0  0  0  0  0  0  0  0  0  0  # atno 17320 bound_to 7965
  145.6013  141.0355  143.2016 LP  0  0  0  0  0  0  0  0  0  0  0  0  # atno 17321 bound_to 7965
  140.7456  143.6425  150.8322 LP  0  0  0  0  0  0  0  0  0  0  0  0  # atno 17342 bound_to 10162
  140.0054  143.5699  152.2860 LP  0  0  0  0  0  0  0  0  0  0  0  0  # atno 17343 bound_to 10162
  156.0104  130.5195  150.7969 LP  0  0  0  0  0  0  0  0  0  0  0  0  # atno 17370 bound_to 10713
  157.5253  131.0934  151.0026 LP  0  0  0  0  0  0  0  0  0  0  0  0  # atno 17371 bound_to 10713
  140.1097  134.9485  157.2046 LP  0  0  0  0  0  0  0  0  0  0  0  0  # atno 17394 bound_to 11000
  140.3210  134.2916  155.7246 LP  0  0  0  0  0  0  0  0  0  0  0  0  # atno 17395 bound_to 11000

$$$$
