AV-unprocessed.smi:44|AV-procd|sdf|395|dock6
  -GOLD-   2262016253D 1   1.00000     0.00000
 Structure written by MMmdl.
 29 31  0  0  0  0  0  0  0  0  1 V2000
  151.2675  138.9699  154.3408 O   0  0  0  0  0  0  0  0  0  0  0  0
  151.7382  139.1760  155.4575 C   0  0  0  0  0  0  0  0  0  0  0  0
  152.5404  138.2990  156.1091 N   0  0  0  0  0  0  0  0  0  0  0  0
  153.0863  138.5305  157.3966 C   0  0  0  0  0  0  0  0  0  0  0  0
  152.8865  139.6059  158.1137 N   0  0  0  0  0  0  0  0  0  0  0  0
  152.0710  140.5180  157.4741 C   0  0  0  0  0  0  0  0  0  0  0  0
  151.4898  140.4105  156.2386 C   0  0  0  0  0  0  0  0  0  0  0  0
  150.7384  141.5377  155.9316 N   0  0  0  0  0  0  0  0  0  0  0  0
  150.9030  142.2909  157.0169 C   0  0  0  0  0  0  0  0  0  0  0  0
  151.6767  141.7550  157.9809 N   0  0  0  0  0  0  0  0  0  0  0  0
  152.0226  142.3862  159.2911 C   0  0  1  0  0  0  0  0  0  0  0  0
  153.0094  143.5464  159.1028 C   0  0  0  0  0  0  0  0  0  0  0  0
  152.1906  144.7529  159.5215 C   0  0  0  0  0  0  0  0  0  0  0  0
  151.1597  144.1480  160.4720 C   0  0  1  0  0  0  0  0  0  0  0  0
  149.8920  145.0022  160.6183 C   0  0  0  0  0  0  0  0  0  0  0  0
  149.0054  144.4006  161.5373 O   0  0  0  0  0  0  0  0  0  0  0  0
  150.8540  142.9117  159.8410 O   0  0  0  0  0  0  0  0  0  0  0  0
  152.7575  137.4304  155.6424 H   0  0  0  0  0  0  0  0  0  0  0  0
  152.4198  141.5782  159.9073 H   0  0  0  0  0  0  0  0  0  0  0  0
  151.6275  143.9625  161.4412 H   0  0  0  0  0  0  0  0  0  0  0  0
  153.7077  137.7061  157.7491 H   0  0  0  0  0  0  0  0  0  0  0  0
  150.4433  143.2633  157.1152 H   0  0  0  0  0  0  0  0  0  0  0  0
  153.8546  143.3969  159.7757 H   0  0  0  0  0  0  0  0  0  0  0  0
  153.3810  143.6134  158.0792 H   0  0  0  0  0  0  0  0  0  0  0  0
  152.7929  145.5310  159.9911 H   0  0  0  0  0  0  0  0  0  0  0  0
  151.6983  145.1893  158.6519 H   0  0  0  0  0  0  0  0  0  0  0  0
  150.1475  145.9877  161.0086 H   0  0  0  0  0  0  0  0  0  0  0  0
  149.4015  145.1515  159.6556 H   0  0  0  0  0  0  0  0  0  0  0  0
  148.5358  145.0822  161.9932 H   0  0  0  0  0  0  0  0  0  0  0  0
  1  2  2  0  0  0  0
  2  7  1  0  0  0  0
  2  3  1  0  0  0  0
  3 18  1  0  0  0  0
  3  4  1  0  0  0  0
  4  5  2  0  0  0  0
  4 21  1  0  0  0  0
  5  6  1  0  0  0  0
  6 10  1  0  0  0  0
  6  7  2  0  0  0  0
  7  8  1  0  0  0  0
  8  9  2  0  0  0  0
  9 10  1  0  0  0  0
  9 22  1  0  0  0  0
 10 11  1  0  0  0  0
 11 19  1  0  0  0  0
 11 17  1  0  0  0  0
 11 12  1  0  0  0  0
 12 13  1  0  0  0  0
 12 23  1  0  0  0  0
 12 24  1  0  0  0  0
 13 14  1  0  0  0  0
 13 25  1  0  0  0  0
 13 26  1  0  0  0  0
 14 20  1  0  0  0  0
 14 15  1  0  0  0  0
 14 17  1  0  0  0  0
 15 16  1  0  0  0  0
 15 27  1  0  0  0  0
 15 28  1  0  0  0  0
 16 29  1  0  0  0  0
M  END
> <s_m_source_file>
AV-unprocessed.smi

> <i_m_source_file_index>
44

> <i_lp_mmshare_version>
43012

> <i_f3d_flags>
0

> <s_epik_input>
bjFbY0hdW25IXWMoPU8pYyhjMTIpbltjSF1uMltDQEhdM1tDSDJdW0NIMl1bQ0BIXShPMylbQ0gyXVtPSF0=

> <s_epik_cmdline>
J2VwaWtfcHl0aG9uJywgJy1waCcsICc3LjAnLCAnLXRuJywgJzgnLCAnLW1hJywgJzIwMCcsICctbWV0YWxfYmluZGluZycsICctaW1hZScsICc8aW5maWxlLm1hZT4nLCAnLW9tYWUnLCAnPG91dGZpbGUubWFlPic=

> <r_lp_tautomer_probability>
0.85571

> <r_epik_Ionization_Penalty>
0.00801444

> <r_epik_Ionization_Penalty_Charging>
0.00794574

> <r_epik_Ionization_Penalty_Neutral>
6.87072e-05

> <r_epik_State_Penalty>
0.0826172

> <r_epik_Charging_Adjusted_Penalty>
0.090563

> <i_epik_Tot_Q>
0

> <i_epik_Tot_abs_Q>
0

> <r_epik_Metal_State_Penalty>
0.440697

> <b_epik_Metal_Only>
0

> <s_epik_Chemistry_Notes>
This compound contains an acetal/aminal-like group ( X-CH(R)-Y where X, Y are N, S, or O) that may be acid/base labile, releasing an aldehyde.

> <s_lp_Force_Field>
OPLS_2005

> <r_lp_Energy>
43.2881

> <b_lp_Chiralities_Consistent>
1

> <s_lp_Variant>
AV-unprocessed.smi:44-1

> <Gold.Version>
5.8.1

> <Gold.Id.Protein>
6NUR|6NUR_protein|mol2

> <Gold.PLP.Fitness>
39.3612

> <Gold.PLP.PLP>
-32.6819

> <Gold.PLP.part.hbond>
-5.2161

> <Gold.PLP.part.metal>
0.0000

> <Gold.PLP.part.buried>
-2.0980

> <Gold.PLP.part.nonpolar>
-26.1447

> <Gold.PLP.part.repulsive>
0.4202

> <Gold.PLP.ligand.clash>
0.0000

> <Gold.PLP.ligand.torsion>
0.3226

> <Gold.PLP.Chemscore.Hbond>
1.4369

> <Gold.PLP.Chemscore.CHOScore>
1.0000

> <Gold.PLP.Chemscore.Metal>
0.0000

> <Gold.Chemscore.Hbonds>
donor molecule, donor type, donor heavy atom, donor atom, acceptor molecule, acceptor atom, score
      P1  H  6933  6944       L1    16  0.50
      P1  H  7989  7998       L1     1  0.79
      L1  C     9    22       P1  8028  0.90

> <Gold.PLP.Chemscore.Internal.Correction>
0.0139

> <Gold.Rescore>
     Score         DG    S(hbond)    S(metal)    S(lipo)     H(rot)  DE(clash)    DE(int)     intcor
     10.69     -10.91       1.71        0.00      47.18       2.27       0.07       0.15       ----

> <Gold.Chemscore.Fitness>
10.6908

> <Gold.Chemscore.DG>
-10.9097

> <Gold.Chemscore.ZeroCoef>
-5.4800

> <Gold.Chemscore.Hbond>
1.7144

> <Gold.Chemscore.Metal>
0.0000

> <Gold.Chemscore.Lipo>
47.1800

> <Gold.Chemscore.Internal_Hbond>
0.0000

> <Gold.Chemscore.DEClash>
0.0686

> <Gold.Chemscore.DEInternal>
0.1503

> <Gold.Chemscore.Rot>
2.2720

> <Gold.Chemscore.Internal.Correction>
   9.000000E+99

> <Gold.Chemscore.Hbonds>
donor molecule, donor type, donor heavy atom, donor atom, acceptor molecule, acceptor atom, score
      P1  H  6933  6944       L1    16  0.48
      P1  H  7989  7998       L1     1  0.18

> <Gold.Chemscore.Hbond.Weighted>
-5.7261

> <Gold.Chemscore.Metal.Weighted>
-0.0000

> <Gold.Chemscore.Lipo.Weighted>
-5.5201

> <Gold.Chemscore.Internal_Hbond.Weighted>
0.0000

> <Gold.Chemscore.DEClash.Weighted>
0.0686

> <Gold.Chemscore.DEInternal.Weighted>
0.1503

> <Gold.Chemscore.Rot.Weighted>
5.8164

> <Gold.Chemscore.Internal.Correction.Weighted>
   9.000000E+99

> <Gold.Protein.RotatedTorsions>
[ 6907 6896 6895 6894 ] final   67.04 input  -60.11 | X-H torsion
[ 7974 7965 7964 7962 ] final  -66.88 input  175.53 | X-H torsion
[ 8008 7997 7996 7995 ] final   24.78 input   59.86 | X-H torsion
[ 10167 10162 10161 10158 ] final  171.14 input  -65.29 | X-H torsion
[ 10718 10713 10712 10709 ] final  177.96 input   66.30 | X-H torsion
[ 10763 10752 10751 10750 ] final   24.41 input  -60.55 | X-H torsion
[ 11005 11000 10999 10996 ] final   53.03 input  -57.11 | X-H torsion

> <Gold.Protein.ActiveResidues>
 VAL166  LYS551  ARG553  GLY616  TRP617  ASP618  TYR619  PRO620  LYS621  CYS622 
 ASP623  PHE694  ASN695  SER759  ASP760  ASP761  ALA762  ILE779  LEU786  VAL792 
 PHE793  MET794  SER795  GLU796  ALA797  LYS798  CYS799  TRP800  GLU811  SER814 

> <Gold.Protein.RotatedAtoms>
  152.4524  134.5365  159.9826 H   0  0  0  0  0  0  0  0  0  0  0  0  # atno 6907 bound_to 6896
  151.5434  133.3423  159.2947 H   0  0  0  0  0  0  0  0  0  0  0  0  # atno 6908 bound_to 6896
  150.8457  134.7797  159.7032 H   0  0  0  0  0  0  0  0  0  0  0  0  # atno 6909 bound_to 6896
  145.7362  140.8974  143.0554 H   0  0  0  0  0  0  0  0  0  0  0  0  # atno 7974 bound_to 7965
  155.0016  140.3126  155.4865 H   0  0  0  0  0  0  0  0  0  0  0  0  # atno 8008 bound_to 7997
  156.2924  140.2231  156.5067 H   0  0  0  0  0  0  0  0  0  0  0  0  # atno 8009 bound_to 7997
  154.7613  140.0459  157.0964 H   0  0  0  0  0  0  0  0  0  0  0  0  # atno 8010 bound_to 7997
  139.5038  144.3519  151.9914 H   0  0  0  0  0  0  0  0  0  0  0  0  # atno 10167 bound_to 10162
  156.8976  130.9868  151.3040 H   0  0  0  0  0  0  0  0  0  0  0  0  # atno 10718 bound_to 10713
  153.0766  135.6606  154.0133 H   0  0  0  0  0  0  0  0  0  0  0  0  # atno 10763 bound_to 10752
  153.9765  135.2959  155.3425 H   0  0  0  0  0  0  0  0  0  0  0  0  # atno 10764 bound_to 10752
  154.7155  135.5187  153.8802 H   0  0  0  0  0  0  0  0  0  0  0  0  # atno 10765 bound_to 10752
  140.0800  134.5351  155.8956 H   0  0  0  0  0  0  0  0  0  0  0  0  # atno 11005 bound_to 11000
  144.6881  139.9398  143.7474 LP  0  0  0  0  0  0  0  0  0  0  0  0  # atno 17320 bound_to 7965
  146.0491  139.3494  143.0650 LP  0  0  0  0  0  0  0  0  0  0  0  0  # atno 17321 bound_to 7965
  140.2956  144.3705  150.6075 LP  0  0  0  0  0  0  0  0  0  0  0  0  # atno 17342 bound_to 10162
  140.5913  143.2168  151.7247 LP  0  0  0  0  0  0  0  0  0  0  0  0  # atno 17343 bound_to 10162
  157.6046  130.8537  149.8854 LP  0  0  0  0  0  0  0  0  0  0  0  0  # atno 17370 bound_to 10713
  156.0598  130.3702  150.1009 LP  0  0  0  0  0  0  0  0  0  0  0  0  # atno 17371 bound_to 10713
  141.2043  133.6638  156.6115 LP  0  0  0  0  0  0  0  0  0  0  0  0  # atno 17394 bound_to 11000
  140.3501  134.7776  157.4461 LP  0  0  0  0  0  0  0  0  0  0  0  0  # atno 17395 bound_to 11000

$$$$
