AV-unprocessed.smi:126|AV-procd|sdf|1152|dock9
  -GOLD-   2262018293D 1   1.00000     0.00000
 Structure written by MMmdl.
 40 42  0  0  0  0  0  0  0  0  1 V2000
  150.4520  136.6032  156.3744 O   0  0  0  0  0  0  0  0  0  0  0  0
  150.8477  136.6123  155.2079 C   0  0  0  0  0  0  0  0  0  0  0  0
  151.4920  137.8756  154.6156 C   0  0  0  0  0  0  0  0  0  0  0  0
  150.7368  139.1133  154.9100 N   0  0  0  0  0  0  0  0  0  0  0  0
  151.3781  140.1343  155.6545 C   0  0  0  0  0  0  0  0  0  0  0  0
  152.5403  140.0063  156.0431 O   0  0  0  0  0  0  0  0  0  0  0  0
  150.5718  141.3196  155.9236 C   0  0  0  0  0  0  0  0  0  0  0  0
  151.1022  142.3419  156.6161 F   0  0  0  0  0  0  0  0  0  0  0  0
  149.2990  141.4084  155.4861 C   0  0  0  0  0  0  0  0  0  0  0  0
  148.6818  140.3989  154.7691 N   0  0  0  0  0  0  0  0  0  0  0  0
  147.2510  140.5134  154.2878 C   0  0  1  0  0  0  0  0  0  0  0  0
  146.2989  140.7594  155.4727 C   0  0  0  0  0  0  0  0  0  0  0  0
  145.4913  141.9544  155.0072 C   0  0  0  0  0  0  0  0  0  0  0  0
  146.4878  142.6765  154.1130 C   0  0  0  0  0  0  0  0  0  0  0  0
  147.1253  141.6082  153.4250 O   0  0  0  0  0  0  0  0  0  0  0  0
  149.3975  139.2203  154.4660 C   0  0  0  0  0  0  0  0  0  0  0  0
  148.8614  138.3065  153.8352 O   0  0  0  0  0  0  0  0  0  0  0  0
  150.7253  135.5792  154.3547 N   0  0  0  0  0  0  0  0  0  0  0  0
  150.2085  134.2794  154.6058 C   0  0  0  0  0  0  0  0  0  0  0  0
  150.4373  133.7271  155.8837 C   0  0  0  0  0  0  0  0  0  0  0  0
  149.9360  132.4526  156.2115 C   0  0  0  0  0  0  0  0  0  0  0  0
  149.1897  131.7247  155.2659 C   0  0  0  0  0  0  0  0  0  0  0  0
  148.9410  132.2749  153.9944 C   0  0  0  0  0  0  0  0  0  0  0  0
  149.4431  133.5488  153.6642 C   0  0  0  0  0  0  0  0  0  0  0  0
  152.5156  137.9598  154.9851 H   0  0  0  0  0  0  0  0  0  0  0  0
  151.6112  137.7248  153.5417 H   0  0  0  0  0  0  0  0  0  0  0  0
  148.7580  142.3132  155.7166 H   0  0  0  0  0  0  0  0  0  0  0  0
  147.0489  139.5948  153.7345 H   0  0  0  0  0  0  0  0  0  0  0  0
  145.6898  139.8782  155.6759 H   0  0  0  0  0  0  0  0  0  0  0  0
  146.8688  141.0116  156.3686 H   0  0  0  0  0  0  0  0  0  0  0  0
  144.6336  141.6232  154.4203 H   0  0  0  0  0  0  0  0  0  0  0  0
  145.1283  142.5720  155.8289 H   0  0  0  0  0  0  0  0  0  0  0  0
  146.0105  143.3709  153.4215 H   0  0  0  0  0  0  0  0  0  0  0  0
  147.2153  143.2287  154.7097 H   0  0  0  0  0  0  0  0  0  0  0  0
  150.9901  135.7628  153.3979 H   0  0  0  0  0  0  0  0  0  0  0  0
  151.0054  134.2784  156.6189 H   0  0  0  0  0  0  0  0  0  0  0  0
  150.1224  132.0344  157.1896 H   0  0  0  0  0  0  0  0  0  0  0  0
  148.8032  130.7480  155.5178 H   0  0  0  0  0  0  0  0  0  0  0  0
  148.3590  131.7218  153.2720 H   0  0  0  0  0  0  0  0  0  0  0  0
  149.2156  133.9519  152.6895 H   0  0  0  0  0  0  0  0  0  0  0  0
  1  2  2  0  0  0  0
  2  3  1  0  0  0  0
  2 18  1  0  0  0  0
  3  4  1  0  0  0  0
  3 25  1  0  0  0  0
  3 26  1  0  0  0  0
  4 16  1  0  0  0  0
  4  5  1  0  0  0  0
  5  6  2  0  0  0  0
  5  7  1  0  0  0  0
  7  8  1  0  0  0  0
  7  9  2  0  0  0  0
  9 10  1  0  0  0  0
  9 27  1  0  0  0  0
 10 11  1  0  0  0  0
 10 16  1  0  0  0  0
 11 15  1  0  0  0  0
 11 12  1  0  0  0  0
 11 28  1  0  0  0  0
 12 13  1  0  0  0  0
 12 29  1  0  0  0  0
 12 30  1  0  0  0  0
 13 14  1  0  0  0  0
 13 31  1  0  0  0  0
 13 32  1  0  0  0  0
 14 15  1  0  0  0  0
 14 33  1  0  0  0  0
 14 34  1  0  0  0  0
 16 17  2  0  0  0  0
 18 19  1  0  0  0  0
 18 35  1  0  0  0  0
 19 24  1  0  0  0  0
 19 20  2  0  0  0  0
 20 21  1  0  0  0  0
 20 36  1  0  0  0  0
 21 22  2  0  0  0  0
 21 37  1  0  0  0  0
 22 23  1  0  0  0  0
 22 38  1  0  0  0  0
 23 24  2  0  0  0  0
 23 39  1  0  0  0  0
 24 40  1  0  0  0  0
M  END
> <s_m_source_file>
AV-unprocessed.smi

> <i_m_source_file_index>
126

> <i_lp_mmshare_version>
43012

> <i_f3d_flags>
0

> <s_epik_input>
W2NIXTFbY0hdW2NIXVtjSF1bY0hdYzFbTkhdQyg9TylbQ0gyXW4yYyg9TyljKEYpW2NIXW4oYzI9TylbQ0BASF0zW0NIMl1bQ0gyXVtDSDJdTzM=

> <s_epik_cmdline>
J2VwaWtfcHl0aG9uJywgJy1waCcsICc3LjAnLCAnLXRuJywgJzgnLCAnLW1hJywgJzIwMCcsICctbWV0YWxfYmluZGluZycsICctaW1hZScsICc8aW5maWxlLm1hZT4nLCAnLW9tYWUnLCAnPG91dGZpbGUubWFlPic=

> <r_lp_tautomer_probability>
1

> <r_epik_Ionization_Penalty>
1.86934e-06

> <r_epik_Ionization_Penalty_Charging>
3.88729e-08

> <r_epik_Ionization_Penalty_Neutral>
1.83046e-06

> <r_epik_State_Penalty>
-0

> <r_epik_Charging_Adjusted_Penalty>
3.88729e-08

> <i_epik_Tot_Q>
0

> <i_epik_Tot_abs_Q>
0

> <r_epik_Metal_State_Penalty>
-0

> <b_epik_Metal_Only>
0

> <s_epik_Chemistry_Notes>
This compound contains an acetal/aminal-like group ( X-CH(R)-Y where X, Y are N, S, or O) that may be acid/base labile, releasing an aldehyde.

> <s_lp_Force_Field>
OPLS_2005

> <r_lp_Energy>
33.9476

> <b_lp_Chiralities_Consistent>
1

> <s_lp_Variant>
AV-unprocessed.smi:126-2

> <Gold.Version>
5.8.1

> <Gold.Id.Protein>
6NUR|6NUR_protein|mol2

> <Gold.PLP.Fitness>
47.6210

> <Gold.PLP.PLP>
-40.3066

> <Gold.PLP.part.hbond>
-2.8790

> <Gold.PLP.part.metal>
0.0000

> <Gold.PLP.part.buried>
-3.0749

> <Gold.PLP.part.nonpolar>
-36.2515

> <Gold.PLP.part.repulsive>
2.2698

> <Gold.PLP.ligand.clash>
0.0000

> <Gold.PLP.ligand.torsion>
0.4046

> <Gold.PLP.Chemscore.Hbond>
1.7000

> <Gold.PLP.Chemscore.CHOScore>
1.0000

> <Gold.PLP.Chemscore.Metal>
0.0000

> <Gold.Chemscore.Hbonds>
donor molecule, donor type, donor heavy atom, donor atom, acceptor molecule, acceptor atom, score
      L1  H    18    35       P1  7949  0.80
      P1  H  7997  8010       L1     6  1.00
      L1  C     9    27       P1  8028  1.00

> <Gold.PLP.Chemscore.Internal.Correction>
0.0236

> <Gold.Rescore>
     Score         DG    S(hbond)    S(metal)    S(lipo)     H(rot)  DE(clash)    DE(int)     intcor
      9.46     -12.60       1.17        0.00      63.91       1.66       0.14       3.00       ----

> <Gold.Chemscore.Fitness>
9.4565

> <Gold.Chemscore.DG>
-12.5956

> <Gold.Chemscore.ZeroCoef>
-5.4800

> <Gold.Chemscore.Hbond>
1.1655

> <Gold.Chemscore.Metal>
0.0000

> <Gold.Chemscore.Lipo>
63.9130

> <Gold.Chemscore.Internal_Hbond>
0.0000

> <Gold.Chemscore.DEClash>
0.1358

> <Gold.Chemscore.DEInternal>
3.0034

> <Gold.Chemscore.Rot>
1.6621

> <Gold.Chemscore.Internal.Correction>
   9.000000E+99

> <Gold.Chemscore.Hbonds>
donor molecule, donor type, donor heavy atom, donor atom, acceptor molecule, acceptor atom, score
      L1  H    18    35       P1  7949  0.12
      P1  H  7997  8010       L1     6  1.00

> <Gold.Chemscore.Hbond.Weighted>
-3.8928

> <Gold.Chemscore.Metal.Weighted>
-0.0000

> <Gold.Chemscore.Lipo.Weighted>
-7.4778

> <Gold.Chemscore.Internal_Hbond.Weighted>
0.0000

> <Gold.Chemscore.DEClash.Weighted>
0.1358

> <Gold.Chemscore.DEInternal.Weighted>
3.0034

> <Gold.Chemscore.Rot.Weighted>
4.2550

> <Gold.Chemscore.Internal.Correction.Weighted>
   9.000000E+99

> <Gold.Protein.RotatedTorsions>
[ 6907 6896 6895 6894 ] final  124.11 input  -60.11 | X-H torsion
[ 7974 7965 7964 7962 ] final -141.79 input  175.53 | X-H torsion
[ 8008 7997 7996 7995 ] final   82.19 input   59.86 | X-H torsion
[ 10167 10162 10161 10158 ] final  -71.37 input  -65.29 | X-H torsion
[ 10718 10713 10712 10709 ] final   69.31 input   66.30 | X-H torsion
[ 10763 10752 10751 10750 ] final  -35.64 input  -60.55 | X-H torsion
[ 11005 11000 10999 10996 ] final -158.23 input  -57.11 | X-H torsion

> <Gold.Protein.ActiveResidues>
 VAL166  LYS551  ARG553  GLY616  TRP617  ASP618  TYR619  PRO620  LYS621  CYS622 
 ASP623  PHE694  ASN695  SER759  ASP760  ASP761  ALA762  ILE779  LEU786  VAL792 
 PHE793  MET794  SER795  GLU796  ALA797  LYS798  CYS799  TRP800  GLU811  SER814 

> <Gold.Protein.RotatedAtoms>
  152.4105  133.6957  159.6393 H   0  0  0  0  0  0  0  0  0  0  0  0  # atno 6907 bound_to 6896
  150.7986  133.8632  159.3246 H   0  0  0  0  0  0  0  0  0  0  0  0  # atno 6908 bound_to 6896
  151.6375  135.1018  160.0186 H   0  0  0  0  0  0  0  0  0  0  0  0  # atno 6909 bound_to 6896
  144.8492  140.6037  143.5401 H   0  0  0  0  0  0  0  0  0  0  0  0  # atno 7974 bound_to 7965
  155.9073  140.3429  155.6072 H   0  0  0  0  0  0  0  0  0  0  0  0  # atno 8008 bound_to 7997
  155.7429  140.0810  157.2256 H   0  0  0  0  0  0  0  0  0  0  0  0  # atno 8009 bound_to 7997
  154.4051  140.1567  156.2623 H   0  0  0  0  0  0  0  0  0  0  0  0  # atno 8010 bound_to 7997
  140.5278  143.2324  151.7316 H   0  0  0  0  0  0  0  0  0  0  0  0  # atno 10167 bound_to 10162
  157.6339  130.9419  150.0497 H   0  0  0  0  0  0  0  0  0  0  0  0  # atno 10718 bound_to 10713
  153.8665  135.6835  153.4778 H   0  0  0  0  0  0  0  0  0  0  0  0  # atno 10763 bound_to 10752
  153.1312  135.4697  154.9349 H   0  0  0  0  0  0  0  0  0  0  0  0  # atno 10764 bound_to 10752
  154.7734  135.3246  154.8092 H   0  0  0  0  0  0  0  0  0  0  0  0  # atno 10765 bound_to 10752
  140.6559  134.4400  157.5235 H   0  0  0  0  0  0  0  0  0  0  0  0  # atno 11005 bound_to 11000
  145.4533  139.1521  143.3906 LP  0  0  0  0  0  0  0  0  0  0  0  0  # atno 17320 bound_to 7965
  146.2771  140.4660  142.8791 LP  0  0  0  0  0  0  0  0  0  0  0  0  # atno 17321 bound_to 7965
  139.4944  144.4159  152.0030 LP  0  0  0  0  0  0  0  0  0  0  0  0  # atno 17342 bound_to 10162
  140.3260  144.3373  150.5998 LP  0  0  0  0  0  0  0  0  0  0  0  0  # atno 17343 bound_to 10162
  156.1563  130.3643  149.9365 LP  0  0  0  0  0  0  0  0  0  0  0  0  # atno 17370 bound_to 10713
  156.7373  130.9066  151.3630 LP  0  0  0  0  0  0  0  0  0  0  0  0  # atno 17371 bound_to 10713
  139.9029  134.8514  156.1820 LP  0  0  0  0  0  0  0  0  0  0  0  0  # atno 17394 bound_to 11000
  141.0501  133.6893  156.1757 LP  0  0  0  0  0  0  0  0  0  0  0  0  # atno 17395 bound_to 11000

$$$$
