AV-unprocessed.smi:3317|AV-procd|sdf|12761|dock7
  -GOLD-   2272019103D 1   1.00000     0.00000
 Structure written by MMmdl.
 36 37  0  0  0  0  0  0  0  0  1 V2000
  145.9815  143.1447  153.7504 C   0  0  0  0  0  0  0  0  0  0  0  0
  147.1118  142.6875  154.4783 O   0  0  0  0  0  0  0  0  0  0  0  0
  147.5845  141.4152  154.2214 C   0  0  0  0  0  0  0  0  0  0  0  0
  147.0148  140.5469  153.2554 C   0  0  0  0  0  0  0  0  0  0  0  0
  147.5678  139.2689  153.0653 C   0  0  0  0  0  0  0  0  0  0  0  0
  148.6737  138.9007  153.8489 C   0  0  0  0  0  0  0  0  0  0  0  0
  149.2240  139.7146  154.7708 N   0  0  0  0  0  0  0  0  0  0  0  0
  148.7011  140.9511  154.9647 C   0  0  0  0  0  0  0  0  0  0  0  0
  149.2211  141.8680  155.9186 N   0  0  0  0  0  0  0  0  0  0  0  0
  149.9400  141.6135  157.0283 C   0  0  0  0  0  0  0  0  0  0  0  0
  150.2661  140.4904  157.4121 O   0  0  0  0  0  0  0  0  0  0  0  0
  150.3425  142.8335  157.8561 C   0  0  0  0  0  0  0  0  0  0  0  0
  151.0906  142.4044  158.9861 O   0  0  0  0  0  0  0  0  0  0  0  0
  152.3667  143.0192  159.1040 C   0  0  0  0  0  0  0  0  0  0  0  0
  152.8428  142.8334  160.5448 C   0  0  0  0  0  0  0  0  0  0  0  0
  152.1363  143.9315  161.3474 C   0  0  0  0  0  0  0  0  0  0  0  0
  151.7811  145.0371  160.3414 C   0  0  0  0  0  0  0  0  0  0  0  0
  152.2581  144.5427  158.9707 C   0  0  0  0  0  0  0  0  0  0  0  0
  145.7386  144.1597  154.0647 H   0  0  0  0  0  0  0  0  0  0  0  0
  145.1064  142.5222  153.9423 H   0  0  0  0  0  0  0  0  0  0  0  0
  146.1794  143.1711  152.6780 H   0  0  0  0  0  0  0  0  0  0  0  0
  146.1648  140.8348  152.6555 H   0  0  0  0  0  0  0  0  0  0  0  0
  147.1538  138.5879  152.3366 H   0  0  0  0  0  0  0  0  0  0  0  0
  149.1281  137.9279  153.7334 H   0  0  0  0  0  0  0  0  0  0  0  0
  149.0303  142.8412  155.7286 H   0  0  0  0  0  0  0  0  0  0  0  0
  150.9418  143.4987  157.2331 H   0  0  0  0  0  0  0  0  0  0  0  0
  149.4485  143.3782  158.1615 H   0  0  0  0  0  0  0  0  0  0  0  0
  153.0758  142.5840  158.3977 H   0  0  0  0  0  0  0  0  0  0  0  0
  152.6428  141.8334  160.9313 H   0  0  0  0  0  0  0  0  0  0  0  0
  153.9210  142.9920  160.5903 H   0  0  0  0  0  0  0  0  0  0  0  0
  151.2235  143.5373  161.7956 H   0  0  0  0  0  0  0  0  0  0  0  0
  152.7649  144.3008  162.1582 H   0  0  0  0  0  0  0  0  0  0  0  0
  150.7013  145.1912  160.3301 H   0  0  0  0  0  0  0  0  0  0  0  0
  152.2437  145.9893  160.6023 H   0  0  0  0  0  0  0  0  0  0  0  0
  153.2487  144.9524  158.7688 H   0  0  0  0  0  0  0  0  0  0  0  0
  151.6059  144.8679  158.1606 H   0  0  0  0  0  0  0  0  0  0  0  0
  1  2  1  0  0  0  0
  1 19  1  0  0  0  0
  1 20  1  0  0  0  0
  1 21  1  0  0  0  0
  2  3  1  0  0  0  0
  3  8  1  0  0  0  0
  3  4  2  0  0  0  0
  4  5  1  0  0  0  0
  4 22  1  0  0  0  0
  5  6  2  0  0  0  0
  5 23  1  0  0  0  0
  6  7  1  0  0  0  0
  6 24  1  0  0  0  0
  7  8  2  0  0  0  0
  8  9  1  0  0  0  0
  9 10  1  0  0  0  0
  9 25  1  0  0  0  0
 10 11  2  0  0  0  0
 10 12  1  0  0  0  0
 12 13  1  0  0  0  0
 12 26  1  0  0  0  0
 12 27  1  0  0  0  0
 13 14  1  0  0  0  0
 14 18  1  0  0  0  0
 14 15  1  0  0  0  0
 14 28  1  0  0  0  0
 15 16  1  0  0  0  0
 15 29  1  0  0  0  0
 15 30  1  0  0  0  0
 16 17  1  0  0  0  0
 16 31  1  0  0  0  0
 16 32  1  0  0  0  0
 17 18  1  0  0  0  0
 17 33  1  0  0  0  0
 17 34  1  0  0  0  0
 18 35  1  0  0  0  0
 18 36  1  0  0  0  0
M  END
> <s_m_source_file>
AV-unprocessed.smi

> <i_m_source_file_index>
3317

> <i_lp_mmshare_version>
43012

> <i_f3d_flags>
0

> <s_epik_input>
W0NIM11PYzFbY0hdW2NIXVtjSF1uYzFbTkhdQyg9TylbQ0gyXU9bQ0hdMltDSDJdW0NIMl1bQ0gyXVtDSDJdMg==

> <s_epik_cmdline>
J2VwaWtfcHl0aG9uJywgJy1waCcsICc3LjAnLCAnLXRuJywgJzgnLCAnLW1hJywgJzIwMCcsICctbWV0YWxfYmluZGluZycsICctaW1hZScsICc8aW5maWxlLm1hZT4nLCAnLW9tYWUnLCAnPG91dGZpbGUubWFlPic=

> <r_lp_tautomer_probability>
1

> <r_epik_Ionization_Penalty>
0.000545986

> <r_epik_Ionization_Penalty_Charging>
0

> <r_epik_Ionization_Penalty_Neutral>
0.000545986

> <r_epik_State_Penalty>
-0

> <r_epik_Charging_Adjusted_Penalty>
0

> <i_epik_Tot_Q>
0

> <i_epik_Tot_abs_Q>
0

> <r_epik_Metal_State_Penalty>
-0

> <b_epik_Metal_Only>
0

> <s_lp_Force_Field>
OPLS_2005

> <r_lp_Energy>
28.4297

> <b_lp_Chiralities_Consistent>
1

> <s_lp_Variant>
AV-unprocessed.smi:3317-1

> <Gold.Version>
5.8.1

> <Gold.Id.Protein>
6NUR|6NUR_protein|mol2

> <Gold.PLP.Fitness>
43.9933

> <Gold.PLP.PLP>
-39.1542

> <Gold.PLP.part.hbond>
-1.0000

> <Gold.PLP.part.metal>
0.0000

> <Gold.PLP.part.buried>
-2.9989

> <Gold.PLP.part.nonpolar>
-37.3773

> <Gold.PLP.part.repulsive>
1.6881

> <Gold.PLP.ligand.clash>
0.0000

> <Gold.PLP.ligand.torsion>
0.5992

> <Gold.PLP.Chemscore.Hbond>
1.0000

> <Gold.PLP.Chemscore.CHOScore>
1.0000

> <Gold.PLP.Chemscore.Metal>
0.0000

> <Gold.Chemscore.Hbonds>
donor molecule, donor type, donor heavy atom, donor atom, acceptor molecule, acceptor atom, score
      L1  H     9    25       P1  8028  1.00
      L1  C     6    24       P1  7948  1.00

> <Gold.PLP.Chemscore.Internal.Correction>
0.0375

> <Gold.Rescore>
     Score         DG    S(hbond)    S(metal)    S(lipo)     H(rot)  DE(clash)    DE(int)     intcor
     14.78     -16.52       0.99        0.00     101.43       1.61       0.02       1.72       ----

> <Gold.Chemscore.Fitness>
14.7795

> <Gold.Chemscore.DG>
-16.5183

> <Gold.Chemscore.ZeroCoef>
-5.4800

> <Gold.Chemscore.Hbond>
0.9879

> <Gold.Chemscore.Metal>
0.0000

> <Gold.Chemscore.Lipo>
101.4292

> <Gold.Chemscore.Internal_Hbond>
0.0000

> <Gold.Chemscore.DEClash>
0.0234

> <Gold.Chemscore.DEInternal>
1.7154

> <Gold.Chemscore.Rot>
1.6127

> <Gold.Chemscore.Internal.Correction>
   9.000000E+99

> <Gold.Chemscore.Hbonds>
donor molecule, donor type, donor heavy atom, donor atom, acceptor molecule, acceptor atom, score
      L1  H     9    25       P1  8028  1.00

> <Gold.Chemscore.Hbond.Weighted>
-3.2996

> <Gold.Chemscore.Metal.Weighted>
-0.0000

> <Gold.Chemscore.Lipo.Weighted>
-11.8672

> <Gold.Chemscore.Internal_Hbond.Weighted>
0.0000

> <Gold.Chemscore.DEClash.Weighted>
0.0234

> <Gold.Chemscore.DEInternal.Weighted>
1.7154

> <Gold.Chemscore.Rot.Weighted>
4.1285

> <Gold.Chemscore.Internal.Correction.Weighted>
   9.000000E+99

> <Gold.Protein.RotatedTorsions>
[ 6907 6896 6895 6894 ] final   48.81 input  -60.11 | X-H torsion
[ 7974 7965 7964 7962 ] final  -21.33 input  175.53 | X-H torsion
[ 8008 7997 7996 7995 ] final  -65.36 input   59.86 | X-H torsion
[ 10167 10162 10161 10158 ] final   70.66 input  -65.29 | X-H torsion
[ 10718 10713 10712 10709 ] final  -17.84 input   66.30 | X-H torsion
[ 10763 10752 10751 10750 ] final    8.66 input  -60.55 | X-H torsion
[ 11005 11000 10999 10996 ] final   68.14 input  -57.11 | X-H torsion

> <Gold.Protein.ActiveResidues>
 VAL166  LYS551  ARG553  GLY616  TRP617  ASP618  TYR619  PRO620  LYS621  CYS622 
 ASP623  PHE694  ASN695  SER759  ASP760  ASP761  ALA762  ILE779  LEU786  VAL792 
 PHE793  MET794  SER795  GLU796  ALA797  LYS798  CYS799  TRP800  GLU811  SER814 

> <Gold.Protein.RotatedAtoms>
  152.2837  134.7800  160.0391 H   0  0  0  0  0  0  0  0  0  0  0  0  # atno 6907 bound_to 6896
  151.8371  133.3412  159.3639 H   0  0  0  0  0  0  0  0  0  0  0  0  # atno 6908 bound_to 6896
  150.7200  134.5356  159.5766 H   0  0  0  0  0  0  0  0  0  0  0  0  # atno 6909 bound_to 6896
  146.1739  140.4327  142.8521 H   0  0  0  0  0  0  0  0  0  0  0  0  # atno 7974 bound_to 7965
  154.4667  140.0934  156.7039 H   0  0  0  0  0  0  0  0  0  0  0  0  # atno 8008 bound_to 7997
  155.4837  140.3468  155.4325 H   0  0  0  0  0  0  0  0  0  0  0  0  # atno 8009 bound_to 7997
  156.0969  140.1412  156.9508 H   0  0  0  0  0  0  0  0  0  0  0  0  # atno 8010 bound_to 7997
  140.0545  144.5284  150.7339 H   0  0  0  0  0  0  0  0  0  0  0  0  # atno 10167 bound_to 10162
  156.5679  130.4742  149.6376 H   0  0  0  0  0  0  0  0  0  0  0  0  # atno 10718 bound_to 10713
  153.2225  135.6883  153.7983 H   0  0  0  0  0  0  0  0  0  0  0  0  # atno 10763 bound_to 10752
  153.7176  135.3272  155.3261 H   0  0  0  0  0  0  0  0  0  0  0  0  # atno 10764 bound_to 10752
  154.8276  135.4605  154.1079 H   0  0  0  0  0  0  0  0  0  0  0  0  # atno 10765 bound_to 10752
  139.9729  134.6870  156.0411 H   0  0  0  0  0  0  0  0  0  0  0  0  # atno 11005 bound_to 11000
  144.8205  140.6541  143.6356 LP  0  0  0  0  0  0  0  0  0  0  0  0  # atno 17320 bound_to 7965
  145.4266  139.1555  143.4045 LP  0  0  0  0  0  0  0  0  0  0  0  0  # atno 17321 bound_to 7965
  140.7201  143.2580  151.4307 LP  0  0  0  0  0  0  0  0  0  0  0  0  # atno 17342 bound_to 10162
  139.5932  144.1454  152.2113 LP  0  0  0  0  0  0  0  0  0  0  0  0  # atno 17343 bound_to 10162
  156.2741  130.7033  151.1839 LP  0  0  0  0  0  0  0  0  0  0  0  0  # atno 17370 bound_to 10713
  157.7354  131.0572  150.5469 LP  0  0  0  0  0  0  0  0  0  0  0  0  # atno 17371 bound_to 10713
  141.1408  133.6565  156.3724 LP  0  0  0  0  0  0  0  0  0  0  0  0  # atno 17394 bound_to 11000
  140.5255  134.6263  157.5332 LP  0  0  0  0  0  0  0  0  0  0  0  0  # atno 17395 bound_to 11000

$$$$
