#       Name:                AV-unprocessed.smi:1830
#       Creating user name   scv26
#       Creation time:       Fri Mar 27 09:14:14 2020


#       File generated by GOLD software.
#

@<TRIPOS>MOLECULE
AV-unprocessed.smi:1830
    59    62     1
SMALL
NO_CHARGES


@<TRIPOS>ATOM
      1 ****         0.7720   2.0521  -0.8829 O.2            1 S1                 0.0000
      2 ****         0.1647   0.9851  -0.9647 C.2            1 S1                 0.0000
      3 ****         0.7726  -0.2078  -1.0252 N.am           1 S1                 0.0000
      4 ****         2.2183  -0.4061  -1.0664 C.3            1 S1                 0.0000
      5 ****         2.8918  -0.2200   0.3066 C.3            1 S1                 0.0000
      6 ****         2.3722  -1.2121   1.3777 C.3            1 S1                 0.0000
      7 ****         3.1852  -1.0489   2.5971 N.4            1 S1                 1.0000
      8 ****         2.8703  -1.8891   3.7654 C.3            1 S1                 0.0000
      9 ****         4.1771  -1.9325   4.5829 C.3            1 S1                 0.0000
     10 ****         5.2398  -1.2396   3.7103 C.3            1 S1                 0.0000
     11 ****         4.6088  -1.2541   2.3215 C.3            1 S1                 0.0000
     12 ****         5.0747  -0.2075   1.3023 C.3            1 S1                 0.0000
     13 ****         4.3004  -0.3917   0.1160 O.3            1 S1                 0.0000
     14 ****        -1.1716   0.8567  -1.0255 N.am           1 S1                 0.0000
     15 ****        -2.1516   1.8894  -1.0736 C.ar           1 S1                 0.0000
     16 ****        -1.9571   3.1214  -0.3972 C.ar           1 S1                 0.0000
     17 ****        -2.9314   4.1334  -0.4831 C.ar           1 S1                 0.0000
     18 ****        -4.0905   3.8983  -1.2415 C.ar           1 S1                 0.0000
     19 ****        -4.2566   2.7092  -1.8560 N.pl3          1 S1                 1.0000
     20 ****        -3.3631   1.6899  -1.7990 C.ar           1 S1                 0.0000
     21 ****        -3.6835   0.4958  -2.4851 N.3            1 S1                 0.0000
     22 ****        -4.8356   0.4427  -3.3782 C.3            1 S1                 0.0000
     23 ****        -5.0680  -1.0431  -3.6383 C.3            1 S1                 0.0000
     24 ****        -4.6846  -1.6735  -2.3030 C.3            1 S1                 0.0000
     25 ****        -3.5472  -0.7820  -1.7932 C.3            1 S1                 0.0000
     26 ****         0.1985  -1.0357  -1.0911 H              1 S1                 0.0000
     27 ****         2.4112  -1.4126  -1.4391 H              1 S1                 0.0000
     28 ****         2.6579   0.2776  -1.7947 H              1 S1                 0.0000
     29 ****         2.7224   0.8015   0.6520 H              1 S1                 0.0000
     30 ****         1.3249  -1.0187   1.6121 H              1 S1                 0.0000
     31 ****         2.4427  -2.2400   1.0184 H              1 S1                 0.0000
     32 ****         2.0347  -1.4771   4.3315 H              1 S1                 0.0000
     33 ****         2.5991  -2.8944   3.4394 H              1 S1                 0.0000
     34 ****         4.0701  -1.4240   5.5416 H              1 S1                 0.0000
     35 ****         4.4569  -2.9661   4.7893 H              1 S1                 0.0000
     36 ****         5.3853  -0.2124   4.0478 H              1 S1                 0.0000
     37 ****         6.2061  -1.7440   3.7394 H              1 S1                 0.0000
     38 ****         4.7430  -2.2506   1.8947 H              1 S1                 0.0000
     39 ****         4.9531   0.8075   1.6839 H              1 S1                 0.0000
     40 ****         6.1302  -0.3444   1.0669 H              1 S1                 0.0000
     41 ****        -1.5183  -0.0781  -1.1825 H              1 S1                 0.0000
     42 ****        -1.0732   3.3070   0.1939 H              1 S1                 0.0000
     43 ****        -2.7895   5.0767   0.0239 H              1 S1                 0.0000
     44 ****        -4.8885   4.6157  -1.3680 H              1 S1                 0.0000
     45 ****        -5.7143   0.8706  -2.8942 H              1 S1                 0.0000
     46 ****        -4.6497   0.9905  -4.3027 H              1 S1                 0.0000
     47 ****        -6.0913  -1.2673  -3.9402 H              1 S1                 0.0000
     48 ****        -4.3968  -1.3957  -4.4229 H              1 S1                 0.0000
     49 ****        -5.5308  -1.6184  -1.6168 H              1 S1                 0.0000
     50 ****        -4.3945  -2.7206  -2.3934 H              1 S1                 0.0000
     51 ****        -2.5846  -1.2214  -2.0560 H              1 S1                 0.0000
     52 ****        -3.5875  -0.6700  -0.7087 H              1 S1                 0.0000
     53 ****         3.0888  -0.0899   2.8993 H              1 S1                 0.0000
     54 ****        -5.1134   2.5659  -2.3909 H              1 S1                 0.0000
     55 ****         1.7717   2.0579  -0.8585 LP             1 S1                 0.0000
     56 ****         0.2659   2.9136  -0.8408 LP             1 S1                 0.0000
     57 ****         4.6084   0.2712  -0.5664 LP             1 S1                 0.0000
     58 ****         4.4610  -1.3185  -0.2234 LP             1 S1                 0.0000
     59 ****        -2.8844   0.6105  -3.0753 LP             1 S1                 0.0000
@<TRIPOS>BOND
    1    1    2 2     
    2    2    3 am    
    3    2   14 am    
    4    3    4 1     
    5    3   26 1     
    6    4    5 1     
    7    4   27 1     
    8    4   28 1     
    9    5   13 1     
   10    5    6 1     
   11    5   29 1     
   12    6    7 1     
   13    6   30 1     
   14    6   31 1     
   15    7   11 1     
   16    7    8 1     
   17    7   53 1     
   18    8    9 1     
   19    8   32 1     
   20    8   33 1     
   21    9   10 1     
   22    9   34 1     
   23    9   35 1     
   24   10   11 1     
   25   10   36 1     
   26   10   37 1     
   27   11   12 1     
   28   11   38 1     
   29   12   13 1     
   30   12   39 1     
   31   12   40 1     
   32   14   15 1     
   33   14   41 1     
   34   15   20 ar    
   35   15   16 ar    
   36   16   17 ar    
   37   16   42 1     
   38   17   18 ar    
   39   17   43 1     
   40   18   19 ar    
   41   18   44 1     
   42   19   20 ar    
   43   19   54 1     
   44   20   21 1     
   45   21   25 1     
   46   21   22 1     
   47   22   23 1     
   48   22   45 1     
   49   22   46 1     
   50   23   24 1     
   51   23   47 1     
   52   23   48 1     
   53   24   25 1     
   54   24   49 1     
   55   24   50 1     
   56   25   51 1     
   57   25   52 1     
   58    1   55 1     
   59    1   56 1     
   60   13   57 1     
   61   13   58 1     
   62   21   59 1     
@<TRIPOS>SUBSTRUCTURE
      1 S1             1
@<TRIPOS>SET
LONE_PAIRS      STATIC     ATOMS    <user>   **** ""
5 55 56 57 58 59
DONOR_HYDROGENS      STATIC     ATOMS    <user>   **** ""
4 26 53 41 54
ATOM$BLUE        STATIC     ATOMS    COLORGROUP SYSTEM
5 55 56 57 58 59
ATOM$RED        STATIC     ATOMS    COLORGROUP SYSTEM
4 26 53 41 54
