AV-unprocessed.smi:370|AV-procd|sdf|2436|dock3
  -GOLD-   2262022373D 1   1.00000     0.00000
 Structure written by MMmdl.
 42 43  0  0  0  0  0  0  0  0  1 V2000
  153.4160  142.2174  161.0907 C   0  0  0  0  0  0  0  0  0  0  0  0
  152.5090  142.6679  159.9974 C   0  0  0  0  0  0  0  0  0  0  0  0
  151.9609  142.0282  158.9218 C   0  0  0  0  0  0  0  0  0  0  0  0
  151.1981  143.0556  158.2940 C   0  0  0  0  0  0  0  0  0  0  0  0
  150.4262  142.9247  157.1108 N   0  0  0  0  0  0  0  0  0  0  0  0
  150.2408  141.8316  156.3519 C   0  0  0  0  0  0  0  0  0  0  0  0
  150.7050  140.7156  156.5847 O   0  0  0  0  0  0  0  0  0  0  0  0
  149.4630  142.1056  155.2951 N   0  0  0  0  0  0  0  0  0  0  0  0
  149.0309  141.1486  154.2765 C   0  0  0  0  0  0  0  0  0  0  0  0
  148.5175  139.8115  154.8875 C   0  0  0  0  0  0  0  0  0  0  0  0
  147.6340  140.1759  156.1053 C   0  0  0  0  0  0  0  0  0  0  0  0
  147.5876  139.1705  153.8259 C   0  0  0  0  0  0  0  0  0  0  0  0
  149.6425  138.8982  155.2357 N   0  0  0  0  0  0  0  0  0  0  0  0
  149.2368  137.5576  155.6751 C   0  0  0  0  0  0  0  0  0  0  0  0
  150.4359  136.7121  156.1357 C   0  0  0  0  0  0  0  0  0  0  0  0
  151.3899  136.6233  155.0847 O   0  0  0  0  0  0  0  0  0  0  0  0
  151.8563  137.9005  154.6673 C   0  0  0  0  0  0  0  0  0  0  0  0
  150.6698  138.7592  154.1972 C   0  0  0  0  0  0  0  0  0  0  0  0
  151.2827  144.2111  158.9274 N   0  0  0  0  0  0  0  0  0  0  0  0
  152.1193  143.9706  160.0236 O   0  0  0  0  0  0  0  0  0  0  0  0
  153.5335  141.1335  161.0773 H   0  0  0  0  0  0  0  0  0  0  0  0
  153.0194  142.5020  162.0653 H   0  0  0  0  0  0  0  0  0  0  0  0
  154.4036  142.6658  160.9821 H   0  0  0  0  0  0  0  0  0  0  0  0
  152.0972  140.9942  158.6433 H   0  0  0  0  0  0  0  0  0  0  0  0
  149.9553  143.7649  156.8090 H   0  0  0  0  0  0  0  0  0  0  0  0
  149.1185  143.0492  155.1954 H   0  0  0  0  0  0  0  0  0  0  0  0
  148.2558  141.6278  153.6791 H   0  0  0  0  0  0  0  0  0  0  0  0
  149.8356  140.9528  153.5655 H   0  0  0  0  0  0  0  0  0  0  0  0
  146.8173  140.8361  155.8114 H   0  0  0  0  0  0  0  0  0  0  0  0
  148.1953  140.6980  156.8798 H   0  0  0  0  0  0  0  0  0  0  0  0
  147.1769  139.2983  156.5617 H   0  0  0  0  0  0  0  0  0  0  0  0
  146.8725  139.8937  153.4318 H   0  0  0  0  0  0  0  0  0  0  0  0
  146.9960  138.3515  154.2346 H   0  0  0  0  0  0  0  0  0  0  0  0
  148.1520  138.7780  152.9794 H   0  0  0  0  0  0  0  0  0  0  0  0
  148.5354  137.6149  156.5052 H   0  0  0  0  0  0  0  0  0  0  0  0
  148.7280  137.0333  154.8661 H   0  0  0  0  0  0  0  0  0  0  0  0
  150.8984  137.1489  157.0223 H   0  0  0  0  0  0  0  0  0  0  0  0
  150.1102  135.7078  156.4065 H   0  0  0  0  0  0  0  0  0  0  0  0
  152.3855  138.3888  155.4870 H   0  0  0  0  0  0  0  0  0  0  0  0
  152.5733  137.7697  153.8569 H   0  0  0  0  0  0  0  0  0  0  0  0
  150.2427  138.3068  153.3021 H   0  0  0  0  0  0  0  0  0  0  0  0
  151.0615  139.7318  153.9053 H   0  0  0  0  0  0  0  0  0  0  0  0
  1  2  1  0  0  0  0
  1 21  1  0  0  0  0
  1 22  1  0  0  0  0
  1 23  1  0  0  0  0
  2 20  1  0  0  0  0
  2  3  2  0  0  0  0
  3  4  1  0  0  0  0
  3 24  1  0  0  0  0
  4  5  1  0  0  0  0
  4 19  2  0  0  0  0
  5  6  1  0  0  0  0
  5 25  1  0  0  0  0
  6  7  2  0  0  0  0
  6  8  1  0  0  0  0
  8  9  1  0  0  0  0
  8 26  1  0  0  0  0
  9 10  1  0  0  0  0
  9 27  1  0  0  0  0
  9 28  1  0  0  0  0
 10 11  1  0  0  0  0
 10 12  1  0  0  0  0
 10 13  1  0  0  0  0
 11 29  1  0  0  0  0
 11 30  1  0  0  0  0
 11 31  1  0  0  0  0
 12 32  1  0  0  0  0
 12 33  1  0  0  0  0
 12 34  1  0  0  0  0
 13 18  1  0  0  0  0
 13 14  1  0  0  0  0
 14 15  1  0  0  0  0
 14 35  1  0  0  0  0
 14 36  1  0  0  0  0
 15 16  1  0  0  0  0
 15 37  1  0  0  0  0
 15 38  1  0  0  0  0
 16 17  1  0  0  0  0
 17 18  1  0  0  0  0
 17 39  1  0  0  0  0
 17 40  1  0  0  0  0
 18 41  1  0  0  0  0
 18 42  1  0  0  0  0
 19 20  1  0  0  0  0
M  END
> <s_m_source_file>
AV-unprocessed.smi

> <i_m_source_file_index>
370

> <i_lp_mmshare_version>
43012

> <i_f3d_flags>
0

> <s_epik_input>
W0NIM11jMVtjSF1jKG5vMSlbTkhdQyg9TylbTkhdW0NIMl1DKFtDSDNdKShbQ0gzXSlOMltDSDJdW0NIMl1PW0NIMl1bQ0gyXTI=

> <s_epik_cmdline>
J2VwaWtfcHl0aG9uJywgJy1waCcsICc3LjAnLCAnLXRuJywgJzgnLCAnLW1hJywgJzIwMCcsICctbWV0YWxfYmluZGluZycsICctaW1hZScsICc8aW5maWxlLm1hZT4nLCAnLW9tYWUnLCAnPG91dGZpbGUubWFlPic=

> <r_epik_Ionization_Penalty>
0.214074

> <r_epik_Ionization_Penalty_Charging>
0

> <r_epik_Ionization_Penalty_Neutral>
0.214074

> <r_epik_State_Penalty>
0.204211

> <r_epik_Charging_Adjusted_Penalty>
0.204211

> <i_epik_Tot_Q>
0

> <i_epik_Tot_abs_Q>
0

> <r_epik_Metal_State_Penalty>
0.217151

> <b_epik_Metal_Only>
0

> <s_lp_Force_Field>
OPLS_2005

> <r_lp_Energy>
40.6457

> <b_lp_Chiralities_Consistent>
1

> <s_lp_Variant>
AV-unprocessed.smi:370-1

> <Gold.Version>
5.8.1

> <Gold.Id.Protein>
6NUR|6NUR_protein|mol2

> <Gold.PLP.Fitness>
41.2140

> <Gold.PLP.PLP>
-33.2101

> <Gold.PLP.part.hbond>
-3.0000

> <Gold.PLP.part.metal>
0.0000

> <Gold.PLP.part.buried>
-7.7787

> <Gold.PLP.part.nonpolar>
-24.5161

> <Gold.PLP.part.repulsive>
0.5453

> <Gold.PLP.ligand.clash>
0.0000

> <Gold.PLP.ligand.torsion>
0.5312

> <Gold.PLP.Chemscore.Hbond>
3.0000

> <Gold.PLP.Chemscore.CHOScore>
0.0000

> <Gold.PLP.Chemscore.Metal>
0.0000

> <Gold.Chemscore.Hbonds>
donor molecule, donor type, donor heavy atom, donor atom, acceptor molecule, acceptor atom, score
      L1  H     5    25       P1  8028  1.00
      L1  H     8    26       P1  8028  1.00
      P1  H 10752 10765       L1    16  0.90

> <Gold.PLP.Chemscore.Internal.Correction>
0.0662

> <Gold.Rescore>
     Score         DG    S(hbond)    S(metal)    S(lipo)     H(rot)  DE(clash)    DE(int)     intcor
     15.26     -19.97       2.84        0.00      76.76       1.55       0.11       4.60       ----

> <Gold.Chemscore.Fitness>
15.2591

> <Gold.Chemscore.DG>
-19.9671

> <Gold.Chemscore.ZeroCoef>
-5.4800

> <Gold.Chemscore.Hbond>
2.8403

> <Gold.Chemscore.Metal>
0.0000

> <Gold.Chemscore.Lipo>
76.7594

> <Gold.Chemscore.Internal_Hbond>
0.0000

> <Gold.Chemscore.DEClash>
0.1052

> <Gold.Chemscore.DEInternal>
4.6028

> <Gold.Chemscore.Rot>
1.5548

> <Gold.Chemscore.Internal.Correction>
   9.000000E+99

> <Gold.Chemscore.Hbonds>
donor molecule, donor type, donor heavy atom, donor atom, acceptor molecule, acceptor atom, score
      L1  H     5    25       P1  8028  0.97
      L1  H     8    26       P1  8028  0.99
      P1  H 10752 10765       L1    16  0.18

> <Gold.Chemscore.Hbond.Weighted>
-9.4865

> <Gold.Chemscore.Metal.Weighted>
-0.0000

> <Gold.Chemscore.Lipo.Weighted>
-8.9808

> <Gold.Chemscore.Internal_Hbond.Weighted>
0.0000

> <Gold.Chemscore.DEClash.Weighted>
0.1052

> <Gold.Chemscore.DEInternal.Weighted>
4.6028

> <Gold.Chemscore.Rot.Weighted>
3.9802

> <Gold.Chemscore.Internal.Correction.Weighted>
   9.000000E+99

> <Gold.Protein.RotatedTorsions>
[ 6907 6896 6895 6894 ] final   48.40 input  -60.11 | X-H torsion
[ 7974 7965 7964 7962 ] final -140.66 input  175.53 | X-H torsion
[ 8008 7997 7996 7995 ] final -130.98 input   59.86 | X-H torsion
[ 10167 10162 10161 10158 ] final  -68.18 input  -65.29 | X-H torsion
[ 10718 10713 10712 10709 ] final   95.27 input   66.30 | X-H torsion
[ 10763 10752 10751 10750 ] final  178.02 input  -60.55 | X-H torsion
[ 11005 11000 10999 10996 ] final -104.12 input  -57.11 | X-H torsion

> <Gold.Protein.ActiveResidues>
 VAL166  LYS551  ARG553  GLY616  TRP617  ASP618  TYR619  PRO620  LYS621  CYS622 
 ASP623  PHE694  ASN695  SER759  ASP760  ASP761  ALA762  ILE779  LEU786  VAL792 
 PHE793  MET794  SER795  GLU796  ALA797  LYS798  CYS799  TRP800  GLU811  SER814 

> <Gold.Protein.RotatedAtoms>
  152.2791  134.7848  160.0399 H   0  0  0  0  0  0  0  0  0  0  0  0  # atno 6907 bound_to 6896
  151.8434  133.3422  159.3658 H   0  0  0  0  0  0  0  0  0  0  0  0  # atno 6908 bound_to 6896
  150.7182  134.5297  159.5739 H   0  0  0  0  0  0  0  0  0  0  0  0  # atno 6909 bound_to 6896
  144.8579  140.6173  143.5347 H   0  0  0  0  0  0  0  0  0  0  0  0  # atno 7974 bound_to 7965
  155.3047  140.0454  157.3031 H   0  0  0  0  0  0  0  0  0  0  0  0  # atno 8008 bound_to 7997
  154.5466  140.2304  155.8519 H   0  0  0  0  0  0  0  0  0  0  0  0  # atno 8009 bound_to 7997
  156.1930  140.3046  155.9377 H   0  0  0  0  0  0  0  0  0  0  0  0  # atno 8010 bound_to 7997
  140.5527  143.2312  151.6881 H   0  0  0  0  0  0  0  0  0  0  0  0  # atno 10167 bound_to 10162
  157.6940  131.0540  150.4313 H   0  0  0  0  0  0  0  0  0  0  0  0  # atno 10718 bound_to 10713
  154.5022  135.2784  155.1411 H   0  0  0  0  0  0  0  0  0  0  0  0  # atno 10763 bound_to 10752
  154.3040  135.6242  153.5440 H   0  0  0  0  0  0  0  0  0  0  0  0  # atno 10764 bound_to 10752
  152.9904  135.5703  154.5468 H   0  0  0  0  0  0  0  0  0  0  0  0  # atno 10765 bound_to 10752
  141.1115  133.8697  157.1571 H   0  0  0  0  0  0  0  0  0  0  0  0  # atno 11005 bound_to 11000
  145.4369  139.1541  143.3991 LP  0  0  0  0  0  0  0  0  0  0  0  0  # atno 17320 bound_to 7965
  146.2838  140.4488  142.8766 LP  0  0  0  0  0  0  0  0  0  0  0  0  # atno 17321 bound_to 7965
  139.5034  144.3792  152.0393 LP  0  0  0  0  0  0  0  0  0  0  0  0  # atno 17342 bound_to 10162
  140.2911  144.3753  150.6088 LP  0  0  0  0  0  0  0  0  0  0  0  0  # atno 17343 bound_to 10162
  156.4679  130.4046  149.6536 LP  0  0  0  0  0  0  0  0  0  0  0  0  # atno 17370 bound_to 10713
  156.3627  130.7490  151.2464 LP  0  0  0  0  0  0  0  0  0  0  0  0  # atno 17371 bound_to 10713
  140.0011  135.0027  157.0192 LP  0  0  0  0  0  0  0  0  0  0  0  0  # atno 17394 bound_to 11000
  140.4762  134.1335  155.7210 LP  0  0  0  0  0  0  0  0  0  0  0  0  # atno 17395 bound_to 11000

$$$$
