AV-unprocessed.smi:1062|AV-procd|sdf|4661|dock3
  -GOLD-   22720 3173D 1   1.00000     0.00000
 Structure written by MMmdl.
 38 40  0  0  0  0  0  0  0  0  1 V2000
  154.0745  141.5791  160.0630 C   0  0  0  0  0  0  0  0  0  0  0  0
  152.6401  142.1249  159.9684 C   0  0  0  0  0  0  0  0  0  0  0  0
  152.2901  142.5300  158.5977 N   0  0  0  0  0  0  0  0  0  0  0  0
  152.1173  141.5970  157.6273 C   0  0  0  0  0  0  0  0  0  0  0  0
  152.4520  140.4210  157.7887 O   0  0  0  0  0  0  0  0  0  0  0  0
  151.4688  142.0114  156.2906 C   0  0  0  0  0  0  0  0  0  0  0  0
  150.3737  141.0650  155.8849 C   0  0  0  0  0  0  0  0  0  0  0  0
  149.0538  141.3760  155.6658 C   0  0  0  0  0  0  0  0  0  0  0  0
  148.1212  139.9785  155.2044 S   0  0  0  0  0  0  0  0  0  0  0  0
  149.5857  139.0000  155.3361 C   0  0  0  0  0  0  0  0  0  0  0  0
  149.6924  137.5982  155.0945 N   0  0  0  0  0  0  0  0  0  0  0  0
  148.5450  136.7070  155.2342 C   0  0  0  0  0  0  0  0  0  0  0  0
  149.1063  135.3307  154.8911 C   0  0  0  0  0  0  0  0  0  0  0  0
  150.4890  135.6304  154.6028 N   0  0  0  0  0  0  0  0  0  0  0  0
  150.7993  136.9227  154.7271 C   0  0  0  0  0  0  0  0  0  0  0  0
  151.9226  137.3817  154.5292 O   0  0  0  0  0  0  0  0  0  0  0  0
  150.6598  139.7080  155.7007 N   0  0  0  0  0  0  0  0  0  0  0  0
  151.9351  143.9180  158.4615 C   0  0  0  0  0  0  0  0  0  0  0  0
  152.1330  144.8749  159.6232 C   0  0  0  0  0  0  0  0  0  0  0  0
  150.7419  144.4646  159.2215 C   0  0  0  0  0  0  0  0  0  0  0  0
  154.2935  141.2454  161.0773 H   0  0  0  0  0  0  0  0  0  0  0  0
  154.8142  142.3357  159.8005 H   0  0  0  0  0  0  0  0  0  0  0  0
  154.2156  140.7273  159.3971 H   0  0  0  0  0  0  0  0  0  0  0  0
  151.9542  141.3603  160.3331 H   0  0  0  0  0  0  0  0  0  0  0  0
  152.5173  142.9685  160.6495 H   0  0  0  0  0  0  0  0  0  0  0  0
  151.0599  143.0195  156.3605 H   0  0  0  0  0  0  0  0  0  0  0  0
  152.2429  142.0394  155.5235 H   0  0  0  0  0  0  0  0  0  0  0  0
  148.5766  142.3417  155.7413 H   0  0  0  0  0  0  0  0  0  0  0  0
  148.1558  136.7364  156.2530 H   0  0  0  0  0  0  0  0  0  0  0  0
  147.7472  136.9945  154.5478 H   0  0  0  0  0  0  0  0  0  0  0  0
  149.0306  134.6361  155.7283 H   0  0  0  0  0  0  0  0  0  0  0  0
  148.6174  134.8934  154.0197 H   0  0  0  0  0  0  0  0  0  0  0  0
  151.1523  134.9175  154.3352 H   0  0  0  0  0  0  0  0  0  0  0  0
  152.0934  144.3388  157.4701 H   0  0  0  0  0  0  0  0  0  0  0  0
  152.5060  144.4800  160.5662 H   0  0  0  0  0  0  0  0  0  0  0  0
  152.4464  145.8899  159.3879 H   0  0  0  0  0  0  0  0  0  0  0  0
  150.1245  145.2064  158.7190 H   0  0  0  0  0  0  0  0  0  0  0  0
  150.2100  143.7988  159.8987 H   0  0  0  0  0  0  0  0  0  0  0  0
  1  2  1  0  0  0  0
  1 21  1  0  0  0  0
  1 22  1  0  0  0  0
  1 23  1  0  0  0  0
  2  3  1  0  0  0  0
  2 24  1  0  0  0  0
  2 25  1  0  0  0  0
  3  4  1  0  0  0  0
  3 18  1  0  0  0  0
  4  5  2  0  0  0  0
  4  6  1  0  0  0  0
  6  7  1  0  0  0  0
  6 26  1  0  0  0  0
  6 27  1  0  0  0  0
  7 17  1  0  0  0  0
  7  8  2  0  0  0  0
  8  9  1  0  0  0  0
  8 28  1  0  0  0  0
  9 10  1  0  0  0  0
 10 11  1  0  0  0  0
 10 17  2  0  0  0  0
 11 15  1  0  0  0  0
 11 12  1  0  0  0  0
 12 13  1  0  0  0  0
 12 29  1  0  0  0  0
 12 30  1  0  0  0  0
 13 14  1  0  0  0  0
 13 31  1  0  0  0  0
 13 32  1  0  0  0  0
 14 15  1  0  0  0  0
 14 33  1  0  0  0  0
 15 16  2  0  0  0  0
 18 20  1  0  0  0  0
 18 19  1  0  0  0  0
 18 34  1  0  0  0  0
 19 20  1  0  0  0  0
 19 35  1  0  0  0  0
 19 36  1  0  0  0  0
 20 37  1  0  0  0  0
 20 38  1  0  0  0  0
M  END
> <s_m_source_file>
AV-unprocessed.smi

> <i_m_source_file_index>
1062

> <i_lp_mmshare_version>
43012

> <i_f3d_flags>
0

> <s_epik_input>
W0NIMl0xW0NIMl1bQ0hdMU4oW0NIMl1bQ0gzXSlDKD1PKVtDSDJdYzJbY0hdc2MobjIpTjNbQ0gyXVtDSDJdW05IXUMzPU8=

> <s_epik_cmdline>
J2VwaWtfcHl0aG9uJywgJy1waCcsICc3LjAnLCAnLXRuJywgJzgnLCAnLW1hJywgJzIwMCcsICctbWV0YWxfYmluZGluZycsICctaW1hZScsICc8aW5maWxlLm1hZT4nLCAnLW9tYWUnLCAnPG91dGZpbGUubWFlPic=

> <r_lp_tautomer_probability>
1

> <r_epik_Ionization_Penalty>
0.000125669

> <r_epik_Ionization_Penalty_Charging>
0

> <r_epik_Ionization_Penalty_Neutral>
0.000125669

> <r_epik_State_Penalty>
-0

> <r_epik_Charging_Adjusted_Penalty>
0

> <i_epik_Tot_Q>
0

> <i_epik_Tot_abs_Q>
0

> <r_epik_Metal_State_Penalty>
-0

> <b_epik_Metal_Only>
0

> <s_lp_Force_Field>
OPLS_2005

> <r_lp_Energy>
60.5217

> <b_lp_Chiralities_Consistent>
1

> <s_lp_Variant>
AV-unprocessed.smi:1062-1

> <Gold.Version>
5.8.1

> <Gold.Id.Protein>
6NUR|6NUR_protein|mol2

> <Gold.PLP.Fitness>
39.6209

> <Gold.PLP.PLP>
-33.2924

> <Gold.PLP.part.hbond>
-2.6100

> <Gold.PLP.part.metal>
0.0000

> <Gold.PLP.part.buried>
-6.1846

> <Gold.PLP.part.nonpolar>
-24.5895

> <Gold.PLP.part.repulsive>
0.2327

> <Gold.PLP.ligand.clash>
0.0000

> <Gold.PLP.ligand.torsion>
0.5852

> <Gold.PLP.Chemscore.Hbond>
1.3738

> <Gold.PLP.Chemscore.CHOScore>
1.0000

> <Gold.PLP.Chemscore.Metal>
0.0000

> <Gold.Chemscore.Hbonds>
donor molecule, donor type, donor heavy atom, donor atom, acceptor molecule, acceptor atom, score
      P1  H  7997  8010       L1     5  0.43
      P1  H 10752 10764       L1    16  0.88
      L1  C     8    28       P1  8028  1.00

> <Gold.PLP.Chemscore.Internal.Correction>
0.3776

> <Gold.Rescore>
     Score         DG    S(hbond)    S(metal)    S(lipo)     H(rot)  DE(clash)    DE(int)     intcor
      9.14     -14.80       0.96        0.00      88.19       1.65       2.02       3.64       ----

> <Gold.Chemscore.Fitness>
9.1407

> <Gold.Chemscore.DG>
-14.8020

> <Gold.Chemscore.ZeroCoef>
-5.4800

> <Gold.Chemscore.Hbond>
0.9647

> <Gold.Chemscore.Metal>
0.0000

> <Gold.Chemscore.Lipo>
88.1872

> <Gold.Chemscore.Internal_Hbond>
0.0000

> <Gold.Chemscore.DEClash>
2.0197

> <Gold.Chemscore.DEInternal>
3.6415

> <Gold.Chemscore.Rot>
1.6477

> <Gold.Chemscore.Internal.Correction>
   9.000000E+99

> <Gold.Chemscore.Hbonds>
donor molecule, donor type, donor heavy atom, donor atom, acceptor molecule, acceptor atom, score
      P1  H  7997  8010       L1     5  0.29
      P1  H 10752 10764       L1    16  0.18

> <Gold.Chemscore.Hbond.Weighted>
-3.2222

> <Gold.Chemscore.Metal.Weighted>
-0.0000

> <Gold.Chemscore.Lipo.Weighted>
-10.3179

> <Gold.Chemscore.Internal_Hbond.Weighted>
0.0000

> <Gold.Chemscore.DEClash.Weighted>
2.0197

> <Gold.Chemscore.DEInternal.Weighted>
3.6415

> <Gold.Chemscore.Rot.Weighted>
4.2181

> <Gold.Chemscore.Internal.Correction.Weighted>
   9.000000E+99

> <Gold.Protein.RotatedTorsions>
[ 6907 6896 6895 6894 ] final   49.56 input  -60.11 | X-H torsion
[ 7974 7965 7964 7962 ] final   -6.94 input  175.53 | X-H torsion
[ 8008 7997 7996 7995 ] final   50.72 input   59.86 | X-H torsion
[ 10167 10162 10161 10158 ] final  156.89 input  -65.29 | X-H torsion
[ 10718 10713 10712 10709 ] final    2.15 input   66.30 | X-H torsion
[ 10763 10752 10751 10750 ] final  -73.01 input  -60.55 | X-H torsion
[ 11005 11000 10999 10996 ] final  119.92 input  -57.11 | X-H torsion

> <Gold.Protein.ActiveResidues>
 VAL166  LYS551  ARG553  GLY616  TRP617  ASP618  TYR619  PRO620  LYS621  CYS622 
 ASP623  PHE694  ASN695  SER759  ASP760  ASP761  ALA762  ILE779  LEU786  VAL792 
 PHE793  MET794  SER795  GLU796  ALA797  LYS798  CYS799  TRP800  GLU811  SER814 

> <Gold.Protein.RotatedAtoms>
  152.2921  134.7709  160.0375 H   0  0  0  0  0  0  0  0  0  0  0  0  # atno 6907 bound_to 6896
  151.8252  133.3395  159.3604 H   0  0  0  0  0  0  0  0  0  0  0  0  # atno 6908 bound_to 6896
  150.7235  134.5465  159.5817 H   0  0  0  0  0  0  0  0  0  0  0  0  # atno 6909 bound_to 6896
  146.2319  140.2246  142.8338 H   0  0  0  0  0  0  0  0  0  0  0  0  # atno 7974 bound_to 7965
  155.4234  140.3447  155.4273 H   0  0  0  0  0  0  0  0  0  0  0  0  # atno 8008 bound_to 7997
  156.1379  140.1533  156.8997 H   0  0  0  0  0  0  0  0  0  0  0  0  # atno 8009 bound_to 7997
  154.4947  140.0831  156.7651 H   0  0  0  0  0  0  0  0  0  0  0  0  # atno 8010 bound_to 7997
  139.4822  144.4968  151.8228 H   0  0  0  0  0  0  0  0  0  0  0  0  # atno 10167 bound_to 10162
  156.8588  130.5579  149.5664 H   0  0  0  0  0  0  0  0  0  0  0  0  # atno 10718 bound_to 10713
  154.4536  135.5911  153.6208 H   0  0  0  0  0  0  0  0  0  0  0  0  # atno 10763 bound_to 10752
  152.9816  135.6027  154.3574 H   0  0  0  0  0  0  0  0  0  0  0  0  # atno 10764 bound_to 10752
  154.3438  135.2841  155.2387 H   0  0  0  0  0  0  0  0  0  0  0  0  # atno 10765 bound_to 10752
  139.9165  134.9631  156.7728 H   0  0  0  0  0  0  0  0  0  0  0  0  # atno 11005 bound_to 11000
  144.9605  140.8270  143.5516 LP  0  0  0  0  0  0  0  0  0  0  0  0  # atno 17320 bound_to 7965
  145.2216  139.2156  143.5090 LP  0  0  0  0  0  0  0  0  0  0  0  0  # atno 17321 bound_to 7965
  140.4457  144.1925  150.5894 LP  0  0  0  0  0  0  0  0  0  0  0  0  # atno 17342 bound_to 10162
  140.4637  143.2439  151.9185 LP  0  0  0  0  0  0  0  0  0  0  0  0  # atno 17343 bound_to 10162
  156.0788  130.5803  150.9524 LP  0  0  0  0  0  0  0  0  0  0  0  0  # atno 17370 bound_to 10713
  157.6262  131.0925  150.8529 LP  0  0  0  0  0  0  0  0  0  0  0  0  # atno 17371 bound_to 10713
  140.6607  133.9648  155.7803 LP  0  0  0  0  0  0  0  0  0  0  0  0  # atno 17394 bound_to 11000
  141.0645  134.0296  157.3612 LP  0  0  0  0  0  0  0  0  0  0  0  0  # atno 17395 bound_to 11000

$$$$
