AV-unprocessed.smi:241|AV-procd|sdf|1841|dock4
  -GOLD-   2262020453D 1   1.00000     0.00000
 Structure written by MMmdl.
 54 57  0  0  0  0  0  0  0  0  1 V2000
  152.5701  137.8976  159.6781 C   0  0  0  0  0  0  0  0  0  0  0  0
  153.1661  138.9012  158.8757 O   0  0  0  0  0  0  0  0  0  0  0  0
  153.4107  140.0995  159.5923 C   0  0  0  0  0  0  0  0  0  0  0  0
  152.2823  141.1185  159.3437 C   0  0  1  0  0  0  0  0  0  0  0  0
  152.5046  142.4280  160.1045 C   0  0  0  0  0  0  0  0  0  0  0  0
  151.6619  143.4242  159.3087 C   0  0  1  0  0  0  0  0  0  0  0  0
  152.0872  144.7712  159.4546 O   0  0  0  0  0  0  0  0  0  0  0  0
  151.9804  145.2582  160.7825 C   0  0  0  0  0  0  0  0  0  0  0  0
  151.8500  142.9496  157.8655 C   0  0  0  0  0  0  0  0  0  0  0  0
  152.1833  141.5310  157.9429 N   0  0  0  0  0  0  0  0  0  0  0  0
  151.6011  140.7387  157.0071 C   0  0  0  0  0  0  0  0  0  0  0  0
  152.3647  139.9607  156.1954 N   0  0  0  0  0  0  0  0  0  0  0  0
  151.7933  139.1711  155.2818 C   0  0  0  0  0  0  0  0  0  0  0  0
  150.4961  139.0018  155.0203 N   0  0  0  0  0  0  0  0  0  0  0  0
  149.7229  139.7745  155.8356 C   0  0  0  0  0  0  0  0  0  0  0  0
  150.1893  140.6664  156.8423 C   0  0  0  0  0  0  0  0  0  0  0  0
  149.1111  141.2980  157.4511 N   0  0  0  0  0  0  0  0  0  0  0  0
  148.0678  140.8069  156.8400 C   0  0  0  0  0  0  0  0  0  0  0  0
  148.3427  139.8619  155.8772 N   0  0  0  0  0  0  0  0  0  0  0  0
  147.3966  139.1889  155.0373 C   0  0  0  0  0  0  0  0  0  0  0  0
  147.8469  138.4132  153.7979 C   0  0  0  0  0  0  0  0  0  0  0  0
  146.5316  138.8008  153.0846 C   0  0  0  0  0  0  0  0  0  0  0  0
  146.6557  139.2245  151.6109 C   0  0  0  0  0  0  0  0  0  0  0  0
  146.5304  138.1210  150.7386 O   0  0  0  0  0  0  0  0  0  0  0  0
  145.3534  137.8160  153.2339 C   0  0  0  0  0  0  0  0  0  0  0  0
  145.6628  136.5320  152.7317 O   0  0  0  0  0  0  0  0  0  0  0  0
  146.4922  139.9760  154.0863 C   0  0  0  0  0  0  0  0  0  0  0  0
  151.3296  140.7015  159.6741 H   0  0  0  0  0  0  0  0  0  0  0  0
  150.6094  143.3177  159.5786 H   0  0  0  0  0  0  0  0  0  0  0  0
  152.4042  137.0017  159.0801 H   0  0  0  0  0  0  0  0  0  0  0  0
  151.6059  138.2250  160.0689 H   0  0  0  0  0  0  0  0  0  0  0  0
  153.2152  137.6282  160.5155 H   0  0  0  0  0  0  0  0  0  0  0  0
  153.4539  139.8600  160.6561 H   0  0  0  0  0  0  0  0  0  0  0  0
  154.3772  140.5265  159.3182 H   0  0  0  0  0  0  0  0  0  0  0  0
  152.2130  142.3611  161.1530 H   0  0  0  0  0  0  0  0  0  0  0  0
  153.5561  142.7172  160.0622 H   0  0  0  0  0  0  0  0  0  0  0  0
  152.2928  146.3020  160.8135 H   0  0  0  0  0  0  0  0  0  0  0  0
  152.6189  144.6994  161.4672 H   0  0  0  0  0  0  0  0  0  0  0  0
  150.9515  145.2059  161.1409 H   0  0  0  0  0  0  0  0  0  0  0  0
  150.9584  143.1454  157.2678 H   0  0  0  0  0  0  0  0  0  0  0  0
  152.6875  143.4683  157.3976 H   0  0  0  0  0  0  0  0  0  0  0  0
  152.4726  138.5893  154.6767 H   0  0  0  0  0  0  0  0  0  0  0  0
  147.0624  141.1181  157.0836 H   0  0  0  0  0  0  0  0  0  0  0  0
  146.8051  138.5524  155.6977 H   0  0  0  0  0  0  0  0  0  0  0  0
  148.7273  138.8529  153.3253 H   0  0  0  0  0  0  0  0  0  0  0  0
  147.9864  137.3442  153.9616 H   0  0  0  0  0  0  0  0  0  0  0  0
  145.9065  139.9715  151.3478 H   0  0  0  0  0  0  0  0  0  0  0  0
  147.6259  139.6828  151.4175 H   0  0  0  0  0  0  0  0  0  0  0  0
  145.7399  138.2315  150.2316 H   0  0  0  0  0  0  0  0  0  0  0  0
  145.0705  137.6979  154.2800 H   0  0  0  0  0  0  0  0  0  0  0  0
  144.4649  138.1869  152.7219 H   0  0  0  0  0  0  0  0  0  0  0  0
  145.4185  135.8892  153.3802 H   0  0  0  0  0  0  0  0  0  0  0  0
  145.5054  140.2043  154.4903 H   0  0  0  0  0  0  0  0  0  0  0  0
  146.9763  140.8801  153.7123 H   0  0  0  0  0  0  0  0  0  0  0  0
  1  2  1  0  0  0  0
  1 30  1  0  0  0  0
  1 31  1  0  0  0  0
  1 32  1  0  0  0  0
  2  3  1  0  0  0  0
  3  4  1  0  0  0  0
  3 33  1  0  0  0  0
  3 34  1  0  0  0  0
  4 28  1  0  0  0  0
  4 10  1  0  0  0  0
  4  5  1  0  0  0  0
  5  6  1  0  0  0  0
  5 35  1  0  0  0  0
  5 36  1  0  0  0  0
  6 29  1  0  0  0  0
  6  7  1  0  0  0  0
  6  9  1  0  0  0  0
  7  8  1  0  0  0  0
  8 37  1  0  0  0  0
  8 38  1  0  0  0  0
  8 39  1  0  0  0  0
  9 10  1  0  0  0  0
  9 40  1  0  0  0  0
  9 41  1  0  0  0  0
 10 11  1  0  0  0  0
 11 16  1  0  0  0  0
 11 12  2  0  0  0  0
 12 13  1  0  0  0  0
 13 14  2  0  0  0  0
 13 42  1  0  0  0  0
 14 15  1  0  0  0  0
 15 19  1  0  0  0  0
 15 16  2  0  0  0  0
 16 17  1  0  0  0  0
 17 18  2  0  0  0  0
 18 19  1  0  0  0  0
 18 43  1  0  0  0  0
 19 20  1  0  0  0  0
 20 27  1  0  0  0  0
 20 21  1  0  0  0  0
 20 44  1  0  0  0  0
 21 22  1  0  0  0  0
 21 45  1  0  0  0  0
 21 46  1  0  0  0  0
 22 23  1  0  0  0  0
 22 25  1  0  0  0  0
 22 27  1  0  0  0  0
 23 24  1  0  0  0  0
 23 47  1  0  0  0  0
 23 48  1  0  0  0  0
 24 49  1  0  0  0  0
 25 26  1  0  0  0  0
 25 50  1  0  0  0  0
 25 51  1  0  0  0  0
 26 52  1  0  0  0  0
 27 53  1  0  0  0  0
 27 54  1  0  0  0  0
M  END
> <s_m_source_file>
AV-unprocessed.smi

> <i_m_source_file_index>
241

> <i_lp_mmshare_version>
43012

> <i_f3d_flags>
0

> <s_epik_input>
W0NIM11PW0NIMl1bQ0BASF0xW0NIMl1bQ0BASF0oT1tDSDNdKVtDSDJdTjFjKG5bY0hdbjIpYyhjMjMpbltjSF1uM1tDSF0oW0NIMl00KVtDSDJdQzQoW0NIMl1bT0hdKVtDSDJdW09IXQ==

> <s_epik_cmdline>
J2VwaWtfcHl0aG9uJywgJy1waCcsICc3LjAnLCAnLXRuJywgJzgnLCAnLW1hJywgJzIwMCcsICctbWV0YWxfYmluZGluZycsICctaW1hZScsICc8aW5maWxlLm1hZT4nLCAnLW9tYWUnLCAnPG91dGZpbGUubWFlPic=

> <r_lp_tautomer_probability>
1

> <r_epik_Ionization_Penalty>
0.00568677

> <r_epik_Ionization_Penalty_Charging>
0

> <r_epik_Ionization_Penalty_Neutral>
0.00568677

> <r_epik_State_Penalty>
0.00400877

> <r_epik_Charging_Adjusted_Penalty>
0.00400877

> <i_epik_Tot_Q>
0

> <i_epik_Tot_abs_Q>
0

> <r_epik_Metal_State_Penalty>
-0

> <b_epik_Metal_Only>
0

> <s_lp_Force_Field>
OPLS_2005

> <r_lp_Energy>
53.235

> <b_lp_Chiralities_Consistent>
1

> <s_lp_Variant>
AV-unprocessed.smi:241-2

> <Gold.Version>
5.8.1

> <Gold.Id.Protein>
6NUR|6NUR_protein|mol2

> <Gold.PLP.Fitness>
45.6452

> <Gold.PLP.PLP>
-38.1767

> <Gold.PLP.part.hbond>
-3.8013

> <Gold.PLP.part.metal>
0.0000

> <Gold.PLP.part.buried>
-3.3672

> <Gold.PLP.part.nonpolar>
-31.7139

> <Gold.PLP.part.repulsive>
0.1857

> <Gold.PLP.ligand.clash>
0.0000

> <Gold.PLP.ligand.torsion>
1.1623

> <Gold.PLP.Chemscore.Hbond>
2.9750

> <Gold.PLP.Chemscore.CHOScore>
0.0000

> <Gold.PLP.Chemscore.Metal>
0.0000

> <Gold.Chemscore.Hbonds>
donor molecule, donor type, donor heavy atom, donor atom, acceptor molecule, acceptor atom, score
      L1  H    24    49       P1 10171  1.00
      P1  H  7954  7966       L1    24  1.00
      P1  H  7997  8008       L1    12  0.89

> <Gold.PLP.Chemscore.Internal.Correction>
0.8682

> <Gold.Rescore>
     Score         DG    S(hbond)    S(metal)    S(lipo)     H(rot)  DE(clash)    DE(int)     intcor
     12.88     -15.74       2.56        0.00     101.58       3.97       0.58       2.28       ----

> <Gold.Chemscore.Fitness>
12.8839

> <Gold.Chemscore.DG>
-15.7441

> <Gold.Chemscore.ZeroCoef>
-5.4800

> <Gold.Chemscore.Hbond>
2.5596

> <Gold.Chemscore.Metal>
0.0000

> <Gold.Chemscore.Lipo>
101.5845

> <Gold.Chemscore.Internal_Hbond>
0.0000

> <Gold.Chemscore.DEClash>
0.5833

> <Gold.Chemscore.DEInternal>
2.2769

> <Gold.Chemscore.Rot>
3.9727

> <Gold.Chemscore.Internal.Correction>
   9.000000E+99

> <Gold.Chemscore.Hbonds>
donor molecule, donor type, donor heavy atom, donor atom, acceptor molecule, acceptor atom, score
      L1  H    24    49       P1 10171  0.99
      P1  H  7954  7966       L1    24  0.61
      P1  H  7997  8008       L1    12  0.70

> <Gold.Chemscore.Hbond.Weighted>
-8.5489

> <Gold.Chemscore.Metal.Weighted>
-0.0000

> <Gold.Chemscore.Lipo.Weighted>
-11.8854

> <Gold.Chemscore.Internal_Hbond.Weighted>
0.0000

> <Gold.Chemscore.DEClash.Weighted>
0.5833

> <Gold.Chemscore.DEInternal.Weighted>
2.2769

> <Gold.Chemscore.Rot.Weighted>
10.1702

> <Gold.Chemscore.Internal.Correction.Weighted>
   9.000000E+99

> <Gold.Protein.RotatedTorsions>
[ 6907 6896 6895 6894 ] final   93.85 input  -60.11 | X-H torsion
[ 7974 7965 7964 7962 ] final   41.86 input  175.53 | X-H torsion
[ 8008 7997 7996 7995 ] final  -60.73 input   59.86 | X-H torsion
[ 10167 10162 10161 10158 ] final  118.09 input  -65.29 | X-H torsion
[ 10718 10713 10712 10709 ] final  -20.93 input   66.30 | X-H torsion
[ 10763 10752 10751 10750 ] final  -90.73 input  -60.55 | X-H torsion
[ 11005 11000 10999 10996 ] final   69.95 input  -57.11 | X-H torsion

> <Gold.Protein.ActiveResidues>
 VAL166  LYS551  ARG553  GLY616  TRP617  ASP618  TYR619  PRO620  LYS621  CYS622 
 ASP623  PHE694  ASN695  SER759  ASP760  ASP761  ALA762  ILE779  LEU786  VAL792 
 PHE793  MET794  SER795  GLU796  ALA797  LYS798  CYS799  TRP800  GLU811  SER814 

> <Gold.Protein.RotatedAtoms>
  152.5451  134.1283  159.8428 H   0  0  0  0  0  0  0  0  0  0  0  0  # atno 6907 bound_to 6896
  151.1332  133.5015  159.2606 H   0  0  0  0  0  0  0  0  0  0  0  0  # atno 6908 bound_to 6896
  151.1653  135.0302  159.8783 H   0  0  0  0  0  0  0  0  0  0  0  0  # atno 6909 bound_to 6896
  146.0788  139.5366  142.9550 H   0  0  0  0  0  0  0  0  0  0  0  0  # atno 7974 bound_to 7965
  154.4413  140.1033  156.6320 H   0  0  0  0  0  0  0  0  0  0  0  0  # atno 8008 bound_to 7997
  155.5595  140.3487  155.4469 H   0  0  0  0  0  0  0  0  0  0  0  0  # atno 8009 bound_to 7997
  156.0470  140.1295  157.0082 H   0  0  0  0  0  0  0  0  0  0  0  0  # atno 8010 bound_to 7997
  139.6134  144.7087  151.2792 H   0  0  0  0  0  0  0  0  0  0  0  0  # atno 10167 bound_to 10162
  156.5251  130.4641  149.6576 H   0  0  0  0  0  0  0  0  0  0  0  0  # atno 10718 bound_to 10713
  154.6688  135.5293  153.8112 H   0  0  0  0  0  0  0  0  0  0  0  0  # atno 10763 bound_to 10752
  153.0488  135.6524  154.0757 H   0  0  0  0  0  0  0  0  0  0  0  0  # atno 10764 bound_to 10752
  154.0658  135.2958  155.3297 H   0  0  0  0  0  0  0  0  0  0  0  0  # atno 10765 bound_to 10752
  139.9625  134.7037  156.0615 H   0  0  0  0  0  0  0  0  0  0  0  0  # atno 11005 bound_to 11000
  145.6256  141.0314  143.1891 LP  0  0  0  0  0  0  0  0  0  0  0  0  # atno 17320 bound_to 7965
  144.7279  139.7816  143.7358 LP  0  0  0  0  0  0  0  0  0  0  0  0  # atno 17321 bound_to 7965
  140.7335  143.6793  150.8014 LP  0  0  0  0  0  0  0  0  0  0  0  0  # atno 17342 bound_to 10162
  140.0392  143.5363  152.2725 LP  0  0  0  0  0  0  0  0  0  0  0  0  # atno 17343 bound_to 10162
  156.3113  130.7230  151.2123 LP  0  0  0  0  0  0  0  0  0  0  0  0  # atno 17370 bound_to 10713
  157.7431  131.0480  150.4975 LP  0  0  0  0  0  0  0  0  0  0  0  0  # atno 17371 bound_to 10713
  141.1303  133.6588  156.3447 LP  0  0  0  0  0  0  0  0  0  0  0  0  # atno 17394 bound_to 11000
  140.5469  134.6066  157.5396 LP  0  0  0  0  0  0  0  0  0  0  0  0  # atno 17395 bound_to 11000

$$$$
