AV-unprocessed.smi:1994|AV-procd|sdf|8074|dock7
  -GOLD-   2272010283D 1   1.00000     0.00000
 Structure written by MMmdl.
 40 42  0  0  0  0  0  0  0  0  2 V2000
  149.4772  140.7159  155.5340 C   0  0  0  0  0  0  0  0  0  0  0  0
  150.2730  141.2132  156.6939 C   0  0  0  0  0  0  0  0  0  0  0  0
  150.4061  142.5141  157.0770 N   0  3  0  0  0  0  0  0  0  0  0  0
  151.2288  142.5933  158.2015 C   0  0  0  0  0  0  0  0  0  0  0  0
  151.6520  143.6915  158.9438 C   0  0  0  0  0  0  0  0  0  0  0  0
  152.4945  143.4259  160.0431 C   0  0  0  0  0  0  0  0  0  0  0  0
  152.8826  142.1101  160.3691 C   0  0  0  0  0  0  0  0  0  0  0  0
  152.4461  141.0043  159.6097 C   0  0  0  0  0  0  0  0  0  0  0  0
  151.6160  141.2753  158.5218 C   0  0  0  0  0  0  0  0  0  0  0  0
  151.0018  140.4580  157.5644 N   0  0  0  0  0  0  0  0  0  0  0  0
  151.2033  139.0006  157.6046 C   0  0  0  0  0  0  0  0  0  0  0  0
  150.5336  138.3393  158.8254 C   0  0  2  0  0  0  0  0  0  0  0  0
  151.2067  137.1415  159.1567 O   0  0  0  0  0  0  0  0  0  0  0  0
  149.0525  138.0173  158.5797 C   0  0  0  0  0  0  0  0  0  0  0  0
  148.4812  137.5428  159.7916 O   0  0  0  0  0  0  0  0  0  0  0  0
  148.2242  136.1936  159.9111 C   0  0  0  0  0  0  0  0  0  0  0  0
  148.4327  135.2491  158.8738 C   0  0  0  0  0  0  0  0  0  0  0  0
  148.1447  133.8861  159.0817 C   0  0  0  0  0  0  0  0  0  0  0  0
  147.6465  133.4501  160.3232 C   0  0  0  0  0  0  0  0  0  0  0  0
  147.4354  134.3799  161.3578 C   0  0  0  0  0  0  0  0  0  0  0  0
  147.7231  135.7431  161.1514 C   0  0  0  0  0  0  0  0  0  0  0  0
  147.5151  136.6283  162.1554 F   0  0  0  0  0  0  0  0  0  0  0  0
  148.9733  141.5419  155.0314 H   0  0  0  0  0  0  0  0  0  0  0  0
  148.7236  140.0041  155.8707 H   0  0  0  0  0  0  0  0  0  0  0  0
  150.1299  140.2191  154.8159 H   0  0  0  0  0  0  0  0  0  0  0  0
  151.3545  144.7001  158.6966 H   0  0  0  0  0  0  0  0  0  0  0  0
  152.8493  144.2475  160.6488 H   0  0  0  0  0  0  0  0  0  0  0  0
  153.5282  141.9451  161.2198 H   0  0  0  0  0  0  0  0  0  0  0  0
  152.7469  140.0010  159.8732 H   0  0  0  0  0  0  0  0  0  0  0  0
  150.7819  138.5947  156.6842 H   0  0  0  0  0  0  0  0  0  0  0  0
  152.2698  138.7789  157.5688 H   0  0  0  0  0  0  0  0  0  0  0  0
  150.6092  139.0032  159.6875 H   0  0  0  0  0  0  0  0  0  0  0  0
  152.0135  137.1066  158.6661 H   0  0  0  0  0  0  0  0  0  0  0  0
  148.5279  138.9061  158.2240 H   0  0  0  0  0  0  0  0  0  0  0  0
  148.9690  137.2438  157.8141 H   0  0  0  0  0  0  0  0  0  0  0  0
  148.8141  135.5444  157.9082 H   0  0  0  0  0  0  0  0  0  0  0  0
  148.3071  133.1735  158.2864 H   0  0  0  0  0  0  0  0  0  0  0  0
  147.4269  132.4048  160.4817 H   0  0  0  0  0  0  0  0  0  0  0  0
  147.0525  134.0478  162.3116 H   0  0  0  0  0  0  0  0  0  0  0  0
  149.9656  143.2908  156.6007 H   0  0  0  0  0  0  0  0  0  0  0  0
  1  2  1  0  0  0  0
  1 23  1  0  0  0  0
  1 24  1  0  0  0  0
  1 25  1  0  0  0  0
  2 10  1  0  0  0  0
  2  3  2  0  0  0  0
  3  4  1  0  0  0  0
  3 40  1  0  0  0  0
  4  9  2  0  0  0  0
  4  5  1  0  0  0  0
  5  6  2  0  0  0  0
  5 26  1  0  0  0  0
  6  7  1  0  0  0  0
  6 27  1  0  0  0  0
  7  8  2  0  0  0  0
  7 28  1  0  0  0  0
  8  9  1  0  0  0  0
  8 29  1  0  0  0  0
  9 10  1  0  0  0  0
 10 11  1  0  0  0  0
 11 12  1  0  0  0  0
 11 30  1  0  0  0  0
 11 31  1  0  0  0  0
 12 13  1  0  0  0  0
 12 14  1  0  0  0  0
 12 32  1  0  0  0  0
 13 33  1  0  0  0  0
 14 15  1  0  0  0  0
 14 34  1  0  0  0  0
 14 35  1  0  0  0  0
 15 16  1  0  0  0  0
 16 21  1  0  0  0  0
 16 17  2  0  0  0  0
 17 18  1  0  0  0  0
 17 36  1  0  0  0  0
 18 19  2  0  0  0  0
 18 37  1  0  0  0  0
 19 20  1  0  0  0  0
 19 38  1  0  0  0  0
 20 21  2  0  0  0  0
 20 39  1  0  0  0  0
 21 22  1  0  0  0  0
M  CHG  1   3   1
M  END
> <s_m_source_file>
AV-unprocessed.smi

> <i_m_source_file_index>
1994

> <i_lp_mmshare_version>
43012

> <i_f3d_flags>
0

> <s_epik_input>
W2NIXTFbY0hdW2NIXVtjSF1jKGMxMiluKGMobjIpW0NIM10pW0NIMl1bQ0BIXShbT0hdKVtDSDJdT2MzW2NIXVtjSF1bY0hdW2NIXWMzRg==

> <s_epik_cmdline>
J2VwaWtfcHl0aG9uJywgJy1waCcsICc3LjAnLCAnLXRuJywgJzgnLCAnLW1hJywgJzIwMCcsICctbWV0YWxfYmluZGluZycsICctaW1hZScsICc8aW5maWxlLm1hZT4nLCAnLW9tYWUnLCAnPG91dGZpbGUubWFlPic=

> <r_lp_tautomer_probability>
1

> <r_epik_Ionization_Penalty>
1.03916

> <r_epik_Ionization_Penalty_Charging>
1.03916

> <r_epik_Ionization_Penalty_Neutral>
2.3993e-06

> <r_epik_State_Penalty>
1.09101

> <r_epik_Charging_Adjusted_Penalty>
2.13018

> <i_epik_Tot_Q>
1

> <i_epik_Tot_abs_Q>
1

> <r_epik_Metal_State_Penalty>
5.08156

> <b_epik_Metal_Only>
0

> <s_lp_Force_Field>
OPLS_2005

> <r_lp_Energy>
18.7982

> <b_lp_Chiralities_Consistent>
1

> <s_lp_Variant>
AV-unprocessed.smi:1994-3

> <Gold.Version>
5.8.1

> <Gold.Id.Protein>
6NUR|6NUR_protein|mol2

> <Gold.PLP.Fitness>
51.2720

> <Gold.PLP.PLP>
-43.4228

> <Gold.PLP.part.hbond>
-3.7672

> <Gold.PLP.part.metal>
0.0000

> <Gold.PLP.part.buried>
-4.4157

> <Gold.PLP.part.nonpolar>
-35.9713

> <Gold.PLP.part.repulsive>
0.0185

> <Gold.PLP.ligand.clash>
0.0000

> <Gold.PLP.ligand.torsion>
0.7005

> <Gold.PLP.Chemscore.Hbond>
3.0744

> <Gold.PLP.Chemscore.CHOScore>
0.0000

> <Gold.PLP.Chemscore.Metal>
0.0000

> <Gold.Chemscore.Hbonds>
donor molecule, donor type, donor heavy atom, donor atom, acceptor molecule, acceptor atom, score
      L1  H     3    40       P1  8028  2.00
      P1  H  6896  6909       L1    13  0.61
      P1  H  6931  6943       L1    15  0.14
      P1  H  6934  6947       L1    15  0.18

> <Gold.PLP.Chemscore.Internal.Correction>
0.0270

> <Gold.Rescore>
     Score         DG    S(hbond)    S(metal)    S(lipo)     H(rot)  DE(clash)    DE(int)     intcor
     16.23     -16.94       1.44        0.00     106.68       2.27       0.03       0.68       ----

> <Gold.Chemscore.Fitness>
16.2285

> <Gold.Chemscore.DG>
-16.9447

> <Gold.Chemscore.ZeroCoef>
-5.4800

> <Gold.Chemscore.Hbond>
1.4358

> <Gold.Chemscore.Metal>
0.0000

> <Gold.Chemscore.Lipo>
106.6848

> <Gold.Chemscore.Internal_Hbond>
0.0000

> <Gold.Chemscore.DEClash>
0.0318

> <Gold.Chemscore.DEInternal>
0.6844

> <Gold.Chemscore.Rot>
2.2706

> <Gold.Chemscore.Internal.Correction>
   9.000000E+99

> <Gold.Chemscore.Hbonds>
donor molecule, donor type, donor heavy atom, donor atom, acceptor molecule, acceptor atom, score
      L1  H     3    40       P1  8028  0.94
      P1  H  6896  6909       L1    13  0.10
      P1  H  6931  6943       L1    15  0.09
      P1  H  6934  6947       L1    15  0.17

> <Gold.Chemscore.Hbond.Weighted>
-4.7954

> <Gold.Chemscore.Metal.Weighted>
-0.0000

> <Gold.Chemscore.Lipo.Weighted>
-12.4821

> <Gold.Chemscore.Internal_Hbond.Weighted>
0.0000

> <Gold.Chemscore.DEClash.Weighted>
0.0318

> <Gold.Chemscore.DEInternal.Weighted>
0.6844

> <Gold.Chemscore.Rot.Weighted>
5.8128

> <Gold.Chemscore.Internal.Correction.Weighted>
   9.000000E+99

> <Gold.Protein.RotatedTorsions>
[ 6907 6896 6895 6894 ] final   99.72 input  -60.11 | X-H torsion
[ 7974 7965 7964 7962 ] final   38.74 input  175.53 | X-H torsion
[ 8008 7997 7996 7995 ] final   84.89 input   59.86 | X-H torsion
[ 10167 10162 10161 10158 ] final -125.30 input  -65.29 | X-H torsion
[ 10718 10713 10712 10709 ] final -106.59 input   66.30 | X-H torsion
[ 10763 10752 10751 10750 ] final -149.46 input  -60.55 | X-H torsion
[ 11005 11000 10999 10996 ] final -173.16 input  -57.11 | X-H torsion

> <Gold.Protein.ActiveResidues>
 VAL166  LYS551  ARG553  GLY616  TRP617  ASP618  TYR619  PRO620  LYS621  CYS622 
 ASP623  PHE694  ASN695  SER759  ASP760  ASP761  ALA762  ILE779  LEU786  VAL792 
 PHE793  MET794  SER795  GLU796  ALA797  LYS798  CYS799  TRP800  GLU811  SER814 

> <Gold.Protein.RotatedAtoms>
  152.5386  134.0386  159.8057 H   0  0  0  0  0  0  0  0  0  0  0  0  # atno 6907 bound_to 6896
  151.0546  133.5588  159.2646 H   0  0  0  0  0  0  0  0  0  0  0  0  # atno 6908 bound_to 6896
  151.2509  135.0629  159.9115 H   0  0  0  0  0  0  0  0  0  0  0  0  # atno 6909 bound_to 6896
  146.1038  139.5735  142.9397 H   0  0  0  0  0  0  0  0  0  0  0  0  # atno 7974 bound_to 7965
  155.9430  140.3406  155.6343 H   0  0  0  0  0  0  0  0  0  0  0  0  # atno 8008 bound_to 7997
  155.7016  140.0761  157.2426 H   0  0  0  0  0  0  0  0  0  0  0  0  # atno 8009 bound_to 7997
  154.4106  140.1639  156.2185 H   0  0  0  0  0  0  0  0  0  0  0  0  # atno 8010 bound_to 7997
  139.9836  143.5716  152.2369 H   0  0  0  0  0  0  0  0  0  0  0  0  # atno 10167 bound_to 10162
  156.0397  130.5620  150.7702 H   0  0  0  0  0  0  0  0  0  0  0  0  # atno 10718 bound_to 10713
  154.8176  135.3308  154.7132 H   0  0  0  0  0  0  0  0  0  0  0  0  # atno 10763 bound_to 10752
  153.7770  135.6921  153.4900 H   0  0  0  0  0  0  0  0  0  0  0  0  # atno 10764 bound_to 10752
  153.2006  135.4518  155.0209 H   0  0  0  0  0  0  0  0  0  0  0  0  # atno 10765 bound_to 10752
  140.4888  134.6004  157.4947 H   0  0  0  0  0  0  0  0  0  0  0  0  # atno 11005 bound_to 11000
  145.5801  141.0383  143.2127 LP  0  0  0  0  0  0  0  0  0  0  0  0  # atno 17320 bound_to 7965
  144.7454  139.7334  143.7294 LP  0  0  0  0  0  0  0  0  0  0  0  0  # atno 17321 bound_to 7965
  139.6392  144.7653  151.2375 LP  0  0  0  0  0  0  0  0  0  0  0  0  # atno 17342 bound_to 10162
  140.7480  143.6347  150.8390 LP  0  0  0  0  0  0  0  0  0  0  0  0  # atno 17343 bound_to 10162
  157.5198  131.0931  151.0093 LP  0  0  0  0  0  0  0  0  0  0  0  0  # atno 17370 bound_to 10713
  157.0426  130.5755  149.5358 LP  0  0  0  0  0  0  0  0  0  0  0  0  # atno 17371 bound_to 10713
  139.9781  134.7181  155.9910 LP  0  0  0  0  0  0  0  0  0  0  0  0  # atno 17394 bound_to 11000
  141.1494  133.6551  156.3967 LP  0  0  0  0  0  0  0  0  0  0  0  0  # atno 17395 bound_to 11000

$$$$
