AV-unprocessed.smi:823|AV-procd|sdf|3845|dock4
  -GOLD-   22720 1293D 1   1.00000     0.00000
 Structure written by MMmdl.
 46 47  0  0  0  0  0  0  0  0  1 V2000
  151.9486  145.3295  159.4755 C   0  0  0  0  0  0  0  0  0  0  0  0
  151.9132  143.8041  159.6177 C   0  0  1  0  0  0  0  0  0  0  0  0
  151.9757  143.0942  158.2517 C   0  0  0  0  0  0  0  0  0  0  0  0
  152.0537  141.6451  158.4287 N   0  0  0  0  0  0  0  0  0  0  0  0
  151.8655  140.8286  157.2922 C   0  0  0  0  0  0  0  0  0  0  0  0
  150.8748  141.1565  156.3360 C   0  0  0  0  0  0  0  0  0  0  0  0
  150.6986  140.3234  155.2153 C   0  0  0  0  0  0  0  0  0  0  0  0
  151.5148  139.1820  155.0752 C   0  0  0  0  0  0  0  0  0  0  0  0
  151.3773  138.2395  153.8887 C   0  0  0  0  0  0  0  0  0  0  0  0
  150.5415  137.0744  154.1572 N   0  0  0  0  0  0  0  0  0  0  0  0
  150.7460  136.1973  155.1515 C   0  0  0  0  0  0  0  0  0  0  0  0
  151.6860  136.2829  155.9437 O   0  0  0  0  0  0  0  0  0  0  0  0
  149.7120  135.0680  155.2826 C   0  0  2  0  0  0  0  0  0  0  0  0
  150.4716  133.7309  155.3092 C   0  0  0  0  0  0  0  0  0  0  0  0
  148.8135  135.0569  154.1295 N   0  0  0  0  0  0  0  0  0  0  0  0
  147.5641  134.5694  154.1331 C   0  0  0  0  0  0  0  0  0  0  0  0
  146.9635  134.7041  152.9503 N   0  0  0  0  0  0  0  0  0  0  0  0
  147.0194  134.0543  155.1075 O   0  0  0  0  0  0  0  0  0  0  0  0
  152.4846  138.9418  156.0688 C   0  0  0  0  0  0  0  0  0  0  0  0
  152.6582  139.7378  157.1449 N   0  0  0  0  0  0  0  0  0  0  0  0
  153.1235  141.2313  159.3331 C   0  0  0  0  0  0  0  0  0  0  0  0
  153.0302  142.0014  160.6608 C   0  0  0  0  0  0  0  0  0  0  0  0
  153.0298  143.4022  160.4064 O   0  0  0  0  0  0  0  0  0  0  0  0
  151.1033  145.6883  158.8878 H   0  0  0  0  0  0  0  0  0  0  0  0
  152.8634  145.6587  158.9816 H   0  0  0  0  0  0  0  0  0  0  0  0
  151.9038  145.8132  160.4515 H   0  0  0  0  0  0  0  0  0  0  0  0
  150.9925  143.5257  160.1340 H   0  0  0  0  0  0  0  0  0  0  0  0
  151.0898  143.3533  157.6701 H   0  0  0  0  0  0  0  0  0  0  0  0
  152.8466  143.4345  157.6894 H   0  0  0  0  0  0  0  0  0  0  0  0
  150.2610  142.0387  156.4401 H   0  0  0  0  0  0  0  0  0  0  0  0
  149.9483  140.5646  154.4765 H   0  0  0  0  0  0  0  0  0  0  0  0
  150.9336  138.7935  153.0613 H   0  0  0  0  0  0  0  0  0  0  0  0
  152.3636  137.9167  153.5503 H   0  0  0  0  0  0  0  0  0  0  0  0
  149.7467  136.9303  153.5511 H   0  0  0  0  0  0  0  0  0  0  0  0
  149.1374  135.1824  156.2041 H   0  0  0  0  0  0  0  0  0  0  0  0
  151.1613  133.6833  156.1532 H   0  0  0  0  0  0  0  0  0  0  0  0
  151.0509  133.5733  154.3979 H   0  0  0  0  0  0  0  0  0  0  0  0
  149.7808  132.8930  155.4088 H   0  0  0  0  0  0  0  0  0  0  0  0
  149.1644  135.4671  153.2767 H   0  0  0  0  0  0  0  0  0  0  0  0
  146.0187  134.3745  152.8184 H   0  0  0  0  0  0  0  0  0  0  0  0
  147.4623  135.1364  152.1862 H   0  0  0  0  0  0  0  0  0  0  0  0
  153.1397  138.0855  156.0029 H   0  0  0  0  0  0  0  0  0  0  0  0
  153.0887  140.1632  159.5420 H   0  0  0  0  0  0  0  0  0  0  0  0
  154.0833  141.4299  158.8546 H   0  0  0  0  0  0  0  0  0  0  0  0
  152.1315  141.7194  161.2118 H   0  0  0  0  0  0  0  0  0  0  0  0
  153.8817  141.7569  161.2959 H   0  0  0  0  0  0  0  0  0  0  0  0
  1  2  1  0  0  0  0
  1 24  1  0  0  0  0
  1 25  1  0  0  0  0
  1 26  1  0  0  0  0
  2 23  1  0  0  0  0
  2  3  1  0  0  0  0
  2 27  1  0  0  0  0
  3  4  1  0  0  0  0
  3 28  1  0  0  0  0
  3 29  1  0  0  0  0
  4  5  1  0  0  0  0
  4 21  1  0  0  0  0
  5 20  1  0  0  0  0
  5  6  2  0  0  0  0
  6  7  1  0  0  0  0
  6 30  1  0  0  0  0
  7  8  2  0  0  0  0
  7 31  1  0  0  0  0
  8  9  1  0  0  0  0
  8 19  1  0  0  0  0
  9 10  1  0  0  0  0
  9 32  1  0  0  0  0
  9 33  1  0  0  0  0
 10 11  1  0  0  0  0
 10 34  1  0  0  0  0
 11 12  2  0  0  0  0
 11 13  1  0  0  0  0
 13 14  1  0  0  0  0
 13 15  1  0  0  0  0
 13 35  1  0  0  0  0
 14 36  1  0  0  0  0
 14 37  1  0  0  0  0
 14 38  1  0  0  0  0
 15 16  1  0  0  0  0
 15 39  1  0  0  0  0
 16 17  1  0  0  0  0
 16 18  2  0  0  0  0
 17 40  1  0  0  0  0
 17 41  1  0  0  0  0
 19 20  2  0  0  0  0
 19 42  1  0  0  0  0
 21 22  1  0  0  0  0
 21 43  1  0  0  0  0
 21 44  1  0  0  0  0
 22 23  1  0  0  0  0
 22 45  1  0  0  0  0
 22 46  1  0  0  0  0
M  END
> <s_m_source_file>
AV-unprocessed.smi

> <i_m_source_file_index>
823

> <i_lp_mmshare_version>
43012

> <i_f3d_flags>
0

> <s_epik_input>
W0NIM11bQ0BASF0xW0NIMl1OKFtDSDJdW0NIMl1PMSljMltjSF1bY0hdYyhbY0hdbjIpW0NIMl1bTkhdQyg9TylbQ0BIXShbQ0gzXSlbTkhdQyg9TylbTkgyXQ==

> <s_epik_cmdline>
J2VwaWtfcHl0aG9uJywgJy1waCcsICc3LjAnLCAnLXRuJywgJzgnLCAnLW1hJywgJzIwMCcsICctbWV0YWxfYmluZGluZycsICctaW1hZScsICc8aW5maWxlLm1hZT4nLCAnLW9tYWUnLCAnPG91dGZpbGUubWFlPic=

> <r_lp_tautomer_probability>
1

> <r_epik_Ionization_Penalty>
0.00555043

> <r_epik_Ionization_Penalty_Charging>
0

> <r_epik_Ionization_Penalty_Neutral>
0.00555043

> <r_epik_State_Penalty>
0.00402575

> <r_epik_Charging_Adjusted_Penalty>
0.00402575

> <i_epik_Tot_Q>
0

> <i_epik_Tot_abs_Q>
0

> <r_epik_Metal_State_Penalty>
-0

> <b_epik_Metal_Only>
0

> <s_lp_Force_Field>
OPLS_2005

> <r_lp_Energy>
8.16045

> <b_lp_Chiralities_Consistent>
1

> <s_lp_Variant>
AV-unprocessed.smi:823-2

> <Gold.Version>
5.8.1

> <Gold.Id.Protein>
6NUR|6NUR_protein|mol2

> <Gold.PLP.Fitness>
56.3040

> <Gold.PLP.PLP>
-44.1389

> <Gold.PLP.part.hbond>
-6.0000

> <Gold.PLP.part.metal>
0.0000

> <Gold.PLP.part.buried>
-2.6501

> <Gold.PLP.part.nonpolar>
-33.8509

> <Gold.PLP.part.repulsive>
0.1304

> <Gold.PLP.ligand.clash>
0.0000

> <Gold.PLP.ligand.torsion>
1.1088

> <Gold.PLP.Chemscore.Hbond>
4.6640

> <Gold.PLP.Chemscore.CHOScore>
0.0000

> <Gold.PLP.Chemscore.Metal>
0.0000

> <Gold.Chemscore.Hbonds>
donor molecule, donor type, donor heavy atom, donor atom, acceptor molecule, acceptor atom, score
      L1  H    10    34       P1  7948  0.98
      L1  H    15    39       P1  7948  1.00
      L1  H    17    41       P1  7948  0.83
      P1  H  7997  8010       L1    20  0.80
      P1  H 10752 10764       L1    12  0.70

> <Gold.PLP.Chemscore.Internal.Correction>
0.3907

> <Gold.Rescore>
     Score         DG    S(hbond)    S(metal)    S(lipo)     H(rot)  DE(clash)    DE(int)     intcor
     17.00     -20.38       2.91        0.00     101.58       2.62       0.09       3.28       ----

> <Gold.Chemscore.Fitness>
17.0022

> <Gold.Chemscore.DG>
-20.3802

> <Gold.Chemscore.ZeroCoef>
-5.4800

> <Gold.Chemscore.Hbond>
2.9083

> <Gold.Chemscore.Metal>
0.0000

> <Gold.Chemscore.Lipo>
101.5757

> <Gold.Chemscore.Internal_Hbond>
0.0000

> <Gold.Chemscore.DEClash>
0.0934

> <Gold.Chemscore.DEInternal>
3.2846

> <Gold.Chemscore.Rot>
2.6163

> <Gold.Chemscore.Internal.Correction>
   9.000000E+99

> <Gold.Chemscore.Hbonds>
donor molecule, donor type, donor heavy atom, donor atom, acceptor molecule, acceptor atom, score
      L1  H    10    34       P1  7948  0.56
      L1  H    15    39       P1  7948  0.33
      L1  H    17    41       P1  7948  0.82
      P1  H  7997  8010       L1    20  0.11
      P1  H 10752 10764       L1    12  0.07

> <Gold.Chemscore.Hbond.Weighted>
-9.7136

> <Gold.Chemscore.Metal.Weighted>
-0.0000

> <Gold.Chemscore.Lipo.Weighted>
-11.8844

> <Gold.Chemscore.Internal_Hbond.Weighted>
0.0000

> <Gold.Chemscore.DEClash.Weighted>
0.0934

> <Gold.Chemscore.DEInternal.Weighted>
3.2846

> <Gold.Chemscore.Rot.Weighted>
6.6978

> <Gold.Chemscore.Internal.Correction.Weighted>
   9.000000E+99

> <Gold.Protein.RotatedTorsions>
[ 6907 6896 6895 6894 ] final  103.83 input  -60.11 | X-H torsion
[ 7974 7965 7964 7962 ] final   31.03 input  175.53 | X-H torsion
[ 8008 7997 7996 7995 ] final   43.54 input   59.86 | X-H torsion
[ 10167 10162 10161 10158 ] final  138.64 input  -65.29 | X-H torsion
[ 10718 10713 10712 10709 ] final   30.95 input   66.30 | X-H torsion
[ 10763 10752 10751 10750 ] final  -52.48 input  -60.55 | X-H torsion
[ 11005 11000 10999 10996 ] final   -5.95 input  -57.11 | X-H torsion

> <Gold.Protein.ActiveResidues>
 VAL166  LYS551  ARG553  GLY616  TRP617  ASP618  TYR619  PRO620  LYS621  CYS622 
 ASP623  PHE694  ASN695  SER759  ASP760  ASP761  ALA762  ILE779  LEU786  VAL792 
 PHE793  MET794  SER795  GLU796  ALA797  LYS798  CYS799  TRP800  GLU811  SER814 

> <Gold.Protein.RotatedAtoms>
  152.5283  133.9768  159.7787 H   0  0  0  0  0  0  0  0  0  0  0  0  # atno 6907 bound_to 6896
  151.0029  133.6031  159.2699 H   0  0  0  0  0  0  0  0  0  0  0  0  # atno 6908 bound_to 6896
  151.3133  135.0806  159.9333 H   0  0  0  0  0  0  0  0  0  0  0  0  # atno 6909 bound_to 6896
  146.1575  139.6710  142.9056 H   0  0  0  0  0  0  0  0  0  0  0  0  # atno 7974 bound_to 7965
  155.3044  140.3387  155.4246 H   0  0  0  0  0  0  0  0  0  0  0  0  # atno 8008 bound_to 7997
  156.1986  140.1724  156.7985 H   0  0  0  0  0  0  0  0  0  0  0  0  # atno 8009 bound_to 7997
  154.5530  140.0702  156.8682 H   0  0  0  0  0  0  0  0  0  0  0  0  # atno 8010 bound_to 7997
  139.5104  144.6342  151.5740 H   0  0  0  0  0  0  0  0  0  0  0  0  # atno 10167 bound_to 10162
  157.2662  130.7185  149.6480 H   0  0  0  0  0  0  0  0  0  0  0  0  # atno 10718 bound_to 10713
  154.1435  135.6501  153.4947 H   0  0  0  0  0  0  0  0  0  0  0  0  # atno 10763 bound_to 10752
  153.0159  135.5321  154.6881 H   0  0  0  0  0  0  0  0  0  0  0  0  # atno 10764 bound_to 10752
  154.6149  135.2958  155.0362 H   0  0  0  0  0  0  0  0  0  0  0  0  # atno 10765 bound_to 10752
  140.6967  133.9024  155.8655 H   0  0  0  0  0  0  0  0  0  0  0  0  # atno 11005 bound_to 11000
  145.4671  141.0435  143.2719 LP  0  0  0  0  0  0  0  0  0  0  0  0  # atno 17320 bound_to 7965
  144.7983  139.6190  143.7083 LP  0  0  0  0  0  0  0  0  0  0  0  0  # atno 17321 bound_to 7965
  140.6085  143.9480  150.6436 LP  0  0  0  0  0  0  0  0  0  0  0  0  # atno 17342 bound_to 10162
  140.2715  143.3452  152.1233 LP  0  0  0  0  0  0  0  0  0  0  0  0  # atno 17343 bound_to 10162
  155.9663  130.4382  150.5206 LP  0  0  0  0  0  0  0  0  0  0  0  0  # atno 17370 bound_to 10713
  157.3121  131.0666  151.1993 LP  0  0  0  0  0  0  0  0  0  0  0  0  # atno 17371 bound_to 10713
  141.0197  134.0906  157.4134 LP  0  0  0  0  0  0  0  0  0  0  0  0  # atno 17394 bound_to 11000
  139.8908  135.0114  156.6756 LP  0  0  0  0  0  0  0  0  0  0  0  0  # atno 17395 bound_to 11000

$$$$
