#       Name:                AV-unprocessed.smi:2667
#       Creating user name   scv26
#       Creation time:       Fri Mar 27 14:35:57 2020


#       File generated by GOLD software.
#

@<TRIPOS>MOLECULE
AV-unprocessed.smi:2667
    51    53     1
SMALL
NO_CHARGES


@<TRIPOS>ATOM
      1 ****        -4.5784   5.6066   0.6816 C.3            1 S1                 0.0000
      2 ****        -3.7024   4.3447   0.6355 C.3            1 S1                 0.0000
      3 ****        -2.2166   4.6260   0.3623 C.2            1 S1                 0.0000
      4 ****        -1.8327   5.7856   0.2022 O.2            1 S1                 0.0000
      5 ****        -1.2964   3.4532   0.3026 C.ar           1 S1                 0.0000
      6 ****        -1.7585   2.1284   0.4827 C.ar           1 S1                 0.0000
      7 ****        -0.8622   1.0446   0.4175 C.ar           1 S1                 0.0000
      8 ****         0.5087   1.2526   0.1709 C.ar           1 S1                 0.0000
      9 ****         1.3095   0.1334   0.1179 O.3            1 S1                 0.0000
     10 ****         2.6881   0.2982  -0.1850 C.3            1 S1                 0.0000
     11 ****         3.3961  -1.0660  -0.3006 C.3            1 S1                 0.0000
     12 ****         3.4546  -1.6661   0.9767 O.3            1 S1                 0.0000
     13 ****         2.8573  -2.0341  -1.3835 C.3            1 S1                 0.0000
     14 ****         1.4476  -2.4293  -1.2329 N.pl3          1 S1                 0.0000
     15 ****         0.3306  -1.8992  -1.8039 C.2            1 S1                 0.0000
     16 ****        -0.7405  -2.6085  -1.3535 N.pl3          1 S1                 1.0000
     17 ****        -0.3019  -3.6205  -0.4974 C.ar           1 S1                 0.0000
     18 ****        -1.0110  -4.5964   0.1965 C.ar           1 S1                 0.0000
     19 ****        -0.2547  -5.4887   0.9845 C.ar           1 S1                 0.0000
     20 ****         1.1499  -5.3926   1.0590 C.ar           1 S1                 0.0000
     21 ****         1.8582  -4.3995   0.3508 C.ar           1 S1                 0.0000
     22 ****         1.1037  -3.5170  -0.4215 C.ar           1 S1                 0.0000
     23 ****         0.9748   2.5777  -0.0063 C.ar           1 S1                 0.0000
     24 ****         0.0798   3.6629   0.0587 C.ar           1 S1                 0.0000
     25 ****        -5.6189   5.3434   0.8722 H              1 S1                 0.0000
     26 ****        -4.5447   6.1504  -0.2634 H              1 S1                 0.0000
     27 ****        -4.2598   6.2841   1.4746 H              1 S1                 0.0000
     28 ****        -3.7874   3.8143   1.5842 H              1 S1                 0.0000
     29 ****        -4.0777   3.6765  -0.1398 H              1 S1                 0.0000
     30 ****        -2.7998   1.9161   0.6728 H              1 S1                 0.0000
     31 ****        -1.2321   0.0393   0.5573 H              1 S1                 0.0000
     32 ****         2.7916   0.8240  -1.1356 H              1 S1                 0.0000
     33 ****         3.1721   0.9046   0.5825 H              1 S1                 0.0000
     34 ****         4.4338  -0.8553  -0.5616 H              1 S1                 0.0000
     35 ****         4.0396  -2.4067   0.9342 H              1 S1                 0.0000
     36 ****         2.9485  -1.5621  -2.3627 H              1 S1                 0.0000
     37 ****         3.4664  -2.9375  -1.4309 H              1 S1                 0.0000
     38 ****         0.2990  -1.0555  -2.4780 H              1 S1                 0.0000
     39 ****        -2.0868  -4.6742   0.1389 H              1 S1                 0.0000
     40 ****        -0.7619  -6.2632   1.5418 H              1 S1                 0.0000
     41 ****         1.6959  -6.0944   1.6727 H              1 S1                 0.0000
     42 ****         2.9338  -4.3352   0.4155 H              1 S1                 0.0000
     43 ****         2.0164   2.7902  -0.1928 H              1 S1                 0.0000
     44 ****         0.4671   4.6618  -0.0818 H              1 S1                 0.0000
     45 ****        -1.6987  -2.4158  -1.6159 H              1 S1                 0.0000
     46 ****        -2.4872   6.5401   0.2502 LP             1 S1                 0.0000
     47 ****        -0.8665   5.9723   0.0243 LP             1 S1                 0.0000
     48 ****         0.9247  -0.4719  -0.5789 LP             1 S1                 0.0000
     49 ****         1.2551  -0.3109   1.0122 LP             1 S1                 0.0000
     50 ****         2.5420  -1.9725   1.2474 LP             1 S1                 0.0000
     51 ****         3.7959  -1.0048   1.6446 LP             1 S1                 0.0000
@<TRIPOS>BOND
    1    1    2 1     
    2    1   25 1     
    3    1   26 1     
    4    1   27 1     
    5    2    3 1     
    6    2   28 1     
    7    2   29 1     
    8    3    4 2     
    9    3    5 1     
   10    5   24 ar    
   11    5    6 ar    
   12    6    7 ar    
   13    6   30 1     
   14    7    8 ar    
   15    7   31 1     
   16    8    9 1     
   17    8   23 ar    
   18    9   10 1     
   19   10   11 1     
   20   10   32 1     
   21   10   33 1     
   22   11   12 1     
   23   11   13 1     
   24   11   34 1     
   25   12   35 1     
   26   13   14 1     
   27   13   36 1     
   28   13   37 1     
   29   14   22 1     
   30   14   15 1     
   31   15   16 2     
   32   15   38 1     
   33   16   17 1     
   34   16   45 1     
   35   17   22 ar    
   36   17   18 ar    
   37   18   19 ar    
   38   18   39 1     
   39   19   20 ar    
   40   19   40 1     
   41   20   21 ar    
   42   20   41 1     
   43   21   22 ar    
   44   21   42 1     
   45   23   24 ar    
   46   23   43 1     
   47   24   44 1     
   48    4   46 1     
   49    4   47 1     
   50    9   48 1     
   51    9   49 1     
   52   12   50 1     
   53   12   51 1     
@<TRIPOS>SUBSTRUCTURE
      1 S1             1
@<TRIPOS>SET
LONE_PAIRS      STATIC     ATOMS    <user>   **** ""
6 46 47 48 49 50 51
DONOR_HYDROGENS      STATIC     ATOMS    <user>   **** ""
2 35 45
ATOM$BLUE        STATIC     ATOMS    COLORGROUP SYSTEM
6 46 47 48 49 50 51
ATOM$RED        STATIC     ATOMS    COLORGROUP SYSTEM
2 35 45
