AV-unprocessed.smi:1464|AV-procd|sdf|5940|dock5
  -GOLD-   22720 6 23D 1   1.00000     0.00000
 Structure written by MMmdl.
 40 41  0  0  0  0  0  0  0  0  2 V2000
  151.2492  145.3389  159.2239 C   0  0  0  0  0  0  0  0  0  0  0  0
  152.0920  144.1326  159.6774 C   0  0  1  0  0  0  0  0  0  0  0  0
  152.1539  144.0982  161.2177 C   0  0  0  0  0  0  0  0  0  0  0  0
  153.0106  142.9347  161.7285 C   0  0  0  0  0  0  0  0  0  0  0  0
  152.4786  141.6004  161.1982 C   0  0  0  0  0  0  0  0  0  0  0  0
  152.4180  141.5926  159.6586 C   0  0  1  0  0  0  0  0  0  0  0  0
  151.8659  140.3170  159.2057 N   0  0  0  0  0  0  0  0  0  0  0  0
  152.5665  139.3130  158.6558 C   0  0  0  0  0  0  0  0  0  0  0  0
  153.7872  139.3550  158.4928 O   0  0  0  0  0  0  0  0  0  0  0  0
  151.7478  138.0765  158.2521 C   0  0  0  0  0  0  0  0  0  0  0  0
  151.4856  137.9784  156.8089 N   0  0  0  0  0  0  0  0  0  0  0  0
  151.0362  139.2315  156.2080 N   0  5  0  0  0  0  0  0  0  0  0  0
  150.7861  139.2736  154.8725 C   0  0  0  0  0  0  0  0  0  0  0  0
  150.4221  140.2951  154.2945 O   0  0  0  0  0  0  0  0  0  0  0  0
  150.9561  138.0506  154.1056 C   0  0  0  0  0  0  0  0  0  0  0  0
  151.3506  136.9026  154.6907 C   0  0  0  0  0  0  0  0  0  0  0  0
  151.6362  136.8126  156.1176 C   0  0  0  0  0  0  0  0  0  0  0  0
  151.9907  135.7653  156.6588 O   0  0  0  0  0  0  0  0  0  0  0  0
  151.5812  142.7788  159.1059 C   0  0  2  0  0  0  0  0  0  0  0  0
  151.5654  142.7720  157.5612 C   0  0  0  0  0  0  0  0  0  0  0  0
  150.1973  145.2065  159.4785 H   0  0  0  0  0  0  0  0  0  0  0  0
  151.3185  145.5039  158.1492 H   0  0  0  0  0  0  0  0  0  0  0  0
  151.5915  146.2568  159.7029 H   0  0  0  0  0  0  0  0  0  0  0  0
  153.1082  144.2895  159.3124 H   0  0  0  0  0  0  0  0  0  0  0  0
  152.5610  145.0366  161.5961 H   0  0  0  0  0  0  0  0  0  0  0  0
  151.1456  144.0137  161.6259 H   0  0  0  0  0  0  0  0  0  0  0  0
  154.0459  143.0708  161.4134 H   0  0  0  0  0  0  0  0  0  0  0  0
  153.0155  142.9258  162.8188 H   0  0  0  0  0  0  0  0  0  0  0  0
  153.1149  140.7890  161.5540 H   0  0  0  0  0  0  0  0  0  0  0  0
  151.4851  141.4164  161.6100 H   0  0  0  0  0  0  0  0  0  0  0  0
  153.4349  141.6968  159.2742 H   0  0  0  0  0  0  0  0  0  0  0  0
  150.8686  140.1940  159.3029 H   0  0  0  0  0  0  0  0  0  0  0  0
  152.2716  137.1855  158.6019 H   0  0  0  0  0  0  0  0  0  0  0  0
  150.8026  138.0884  158.7987 H   0  0  0  0  0  0  0  0  0  0  0  0
  150.7596  138.0623  153.0437 H   0  0  0  0  0  0  0  0  0  0  0  0
  151.4625  136.0176  154.0823 H   0  0  0  0  0  0  0  0  0  0  0  0
  150.5522  142.6440  159.4435 H   0  0  0  0  0  0  0  0  0  0  0  0
  152.5621  142.9500  157.1563 H   0  0  0  0  0  0  0  0  0  0  0  0
  150.8992  143.5333  157.1577 H   0  0  0  0  0  0  0  0  0  0  0  0
  151.2141  141.8209  157.1615 H   0  0  0  0  0  0  0  0  0  0  0  0
  1  2  1  0  0  0  0
  1 21  1  0  0  0  0
  1 22  1  0  0  0  0
  1 23  1  0  0  0  0
  2 19  1  0  0  0  0
  2  3  1  0  0  0  0
  2 24  1  0  0  0  0
  3  4  1  0  0  0  0
  3 25  1  0  0  0  0
  3 26  1  0  0  0  0
  4  5  1  0  0  0  0
  4 27  1  0  0  0  0
  4 28  1  0  0  0  0
  5  6  1  0  0  0  0
  5 29  1  0  0  0  0
  5 30  1  0  0  0  0
  6  7  1  0  0  0  0
  6 19  1  0  0  0  0
  6 31  1  0  0  0  0
  7  8  1  0  0  0  0
  7 32  1  0  0  0  0
  8  9  2  0  0  0  0
  8 10  1  0  0  0  0
 10 33  1  0  0  0  0
 10 34  1  0  0  0  0
 10 11  1  0  0  0  0
 11 12  1  0  0  0  0
 11 17  1  0  0  0  0
 12 13  1  0  0  0  0
 13 14  2  0  0  0  0
 13 15  1  0  0  0  0
 15 35  1  0  0  0  0
 15 16  2  0  0  0  0
 16 36  1  0  0  0  0
 16 17  1  0  0  0  0
 17 18  2  0  0  0  0
 19 20  1  0  0  0  0
 19 37  1  0  0  0  0
 20 38  1  0  0  0  0
 20 39  1  0  0  0  0
 20 40  1  0  0  0  0
M  CHG  1  12  -1
M  END
> <s_m_source_file>
AV-unprocessed.smi

> <i_m_source_file_index>
1464

> <i_lp_mmshare_version>
43012

> <i_f3d_flags>
0

> <s_epik_input>
W0NIM11bQ0BASF0xW0NIMl1bQ0gyXVtDSDJdW0NASF0oW0NASF0xW0NIM10pW05IXUMoPU8pW0NIMl1uMltuSF1jKD1PKVtjSF1bY0hdYzI9Tw==

> <s_epik_cmdline>
J2VwaWtfcHl0aG9uJywgJy1waCcsICc3LjAnLCAnLXRuJywgJzgnLCAnLW1hJywgJzIwMCcsICctbWV0YWxfYmluZGluZycsICctaW1hZScsICc8aW5maWxlLm1hZT4nLCAnLW9tYWUnLCAnPG91dGZpbGUubWFlPic=

> <r_lp_tautomer_probability>
1

> <r_epik_Ionization_Penalty>
0.101366

> <r_epik_Ionization_Penalty_Charging>
0.101366

> <r_epik_Ionization_Penalty_Neutral>
1.90469e-08

> <r_epik_State_Penalty>
0.035861

> <r_epik_Charging_Adjusted_Penalty>
0.137227

> <i_epik_Tot_Q>
-1

> <i_epik_Tot_abs_Q>
1

> <r_epik_Metal_State_Penalty>
0.035861

> <b_epik_Metal_Only>
0

> <s_lp_Force_Field>
OPLS_2005

> <r_lp_Energy>
28.8284

> <b_lp_Chiralities_Consistent>
1

> <s_lp_Variant>
AV-unprocessed.smi:1464-6

> <Gold.Version>
5.8.1

> <Gold.Id.Protein>
6NUR|6NUR_protein|mol2

> <Gold.PLP.Fitness>
45.6268

> <Gold.PLP.PLP>
-37.9134

> <Gold.PLP.part.hbond>
-3.0000

> <Gold.PLP.part.metal>
0.0000

> <Gold.PLP.part.buried>
-6.3918

> <Gold.PLP.part.nonpolar>
-30.2115

> <Gold.PLP.part.repulsive>
0.2788

> <Gold.PLP.ligand.clash>
0.0000

> <Gold.PLP.ligand.torsion>
0.5655

> <Gold.PLP.Chemscore.Hbond>
2.9440

> <Gold.PLP.Chemscore.CHOScore>
0.0000

> <Gold.PLP.Chemscore.Metal>
0.0000

> <Gold.Chemscore.Hbonds>
donor molecule, donor type, donor heavy atom, donor atom, acceptor molecule, acceptor atom, score
      P1  H  7989  7998       L1    14  1.00
      P1  H  7997  8010       L1     9  1.00
      P1  H 10752 10764       L1    18  0.73

> <Gold.PLP.Chemscore.Internal.Correction>
0.0124

> <Gold.Rescore>
     Score         DG    S(hbond)    S(metal)    S(lipo)     H(rot)  DE(clash)    DE(int)     intcor
     19.43     -20.15       1.97        0.00     105.18       1.64       0.17       0.54       ----

> <Gold.Chemscore.Fitness>
19.4350

> <Gold.Chemscore.DG>
-20.1491

> <Gold.Chemscore.ZeroCoef>
-5.4800

> <Gold.Chemscore.Hbond>
1.9674

> <Gold.Chemscore.Metal>
0.0000

> <Gold.Chemscore.Lipo>
105.1798

> <Gold.Chemscore.Internal_Hbond>
0.0000

> <Gold.Chemscore.DEClash>
0.1737

> <Gold.Chemscore.DEInternal>
0.5404

> <Gold.Chemscore.Rot>
1.6438

> <Gold.Chemscore.Internal.Correction>
   9.000000E+99

> <Gold.Chemscore.Hbonds>
donor molecule, donor type, donor heavy atom, donor atom, acceptor molecule, acceptor atom, score
      P1  H  7989  7998       L1    14  0.65
      P1  H  7997  8010       L1     9  1.00
      P1  H 10752 10764       L1    18  0.08

> <Gold.Chemscore.Hbond.Weighted>
-6.5710

> <Gold.Chemscore.Metal.Weighted>
-0.0000

> <Gold.Chemscore.Lipo.Weighted>
-12.3060

> <Gold.Chemscore.Internal_Hbond.Weighted>
0.0000

> <Gold.Chemscore.DEClash.Weighted>
0.1737

> <Gold.Chemscore.DEInternal.Weighted>
0.5404

> <Gold.Chemscore.Rot.Weighted>
4.2080

> <Gold.Chemscore.Internal.Correction.Weighted>
   9.000000E+99

> <Gold.Protein.RotatedTorsions>
[ 6907 6896 6895 6894 ] final -101.85 input  -60.11 | X-H torsion
[ 7974 7965 7964 7962 ] final -139.53 input  175.53 | X-H torsion
[ 8008 7997 7996 7995 ] final   23.30 input   59.86 | X-H torsion
[ 10167 10162 10161 10158 ] final  -40.30 input  -65.29 | X-H torsion
[ 10718 10713 10712 10709 ] final -157.74 input   66.30 | X-H torsion
[ 10763 10752 10751 10750 ] final   -4.39 input  -60.55 | X-H torsion
[ 11005 11000 10999 10996 ] final   26.62 input  -57.11 | X-H torsion

> <Gold.Protein.ActiveResidues>
 VAL166  LYS551  ARG553  GLY616  TRP617  ASP618  TYR619  PRO620  LYS621  CYS622 
 ASP623  PHE694  ASN695  SER759  ASP760  ASP761  ALA762  ILE779  LEU786  VAL792 
 PHE793  MET794  SER795  GLU796  ALA797  LYS798  CYS799  TRP800  GLU811  SER814 

> <Gold.Protein.RotatedAtoms>
  150.7171  134.0671  159.3851 H   0  0  0  0  0  0  0  0  0  0  0  0  # atno 6907 bound_to 6896
  151.8652  135.0507  160.0483 H   0  0  0  0  0  0  0  0  0  0  0  0  # atno 6908 bound_to 6896
  152.2686  133.5326  159.5461 H   0  0  0  0  0  0  0  0  0  0  0  0  # atno 6909 bound_to 6896
  144.8670  140.6308  143.5291 H   0  0  0  0  0  0  0  0  0  0  0  0  # atno 7974 bound_to 7965
  154.9788  140.3099  155.4955 H   0  0  0  0  0  0  0  0  0  0  0  0  # atno 8008 bound_to 7997
  156.2956  140.2270  156.4825 H   0  0  0  0  0  0  0  0  0  0  0  0  # atno 8009 bound_to 7997
  154.7809  140.0446  157.1114 H   0  0  0  0  0  0  0  0  0  0  0  0  # atno 8010 bound_to 7997
  140.7038  143.3162  151.2905 H   0  0  0  0  0  0  0  0  0  0  0  0  # atno 10167 bound_to 10162
  156.5444  130.8577  151.2759 H   0  0  0  0  0  0  0  0  0  0  0  0  # atno 10718 bound_to 10713
  153.3842  135.6999  153.6542 H   0  0  0  0  0  0  0  0  0  0  0  0  # atno 10763 bound_to 10752
  153.5141  135.3625  155.2601 H   0  0  0  0  0  0  0  0  0  0  0  0  # atno 10764 bound_to 10752
  154.8696  135.4142  154.3146 H   0  0  0  0  0  0  0  0  0  0  0  0  # atno 10765 bound_to 10752
  140.3351  134.2395  155.7697 H   0  0  0  0  0  0  0  0  0  0  0  0  # atno 11005 bound_to 11000
  145.4203  139.1565  143.4078 LP  0  0  0  0  0  0  0  0  0  0  0  0  # atno 17320 bound_to 7965
  146.2903  140.4313  142.8742 LP  0  0  0  0  0  0  0  0  0  0  0  0  # atno 17321 bound_to 7965
  139.6601  144.0205  152.2686 LP  0  0  0  0  0  0  0  0  0  0  0  0  # atno 17342 bound_to 10162
  139.9769  144.6455  150.7936 LP  0  0  0  0  0  0  0  0  0  0  0  0  # atno 17343 bound_to 10162
  157.7399  130.9840  150.2345 LP  0  0  0  0  0  0  0  0  0  0  0  0  # atno 17370 bound_to 10713
  156.2942  130.3749  149.7812 LP  0  0  0  0  0  0  0  0  0  0  0  0  # atno 17371 bound_to 10713
  141.2053  133.7863  157.0238 LP  0  0  0  0  0  0  0  0  0  0  0  0  # atno 17394 bound_to 11000
  140.0828  134.9638  157.1652 LP  0  0  0  0  0  0  0  0  0  0  0  0  # atno 17395 bound_to 11000

$$$$
