AV-unprocessed.smi:1005|AV-procd|sdf|4366|dock6
  -GOLD-   22720 2273D 1   1.00000     0.00000
 Structure written by MMmdl.
 57 59  0  0  0  0  0  0  0  0  3 V2000
  153.2830  142.6843  161.6498 C   0  0  0  0  0  0  0  0  0  0  0  0
  152.6466  142.4238  160.2957 C   0  0  0  0  0  0  0  0  0  0  0  0
  152.9648  141.2330  159.6045 C   0  0  0  0  0  0  0  0  0  0  0  0
  152.3966  140.9543  158.3426 C   0  0  0  0  0  0  0  0  0  0  0  0
  152.5661  139.8689  157.5001 N   0  0  0  0  0  0  0  0  0  0  0  0
  151.7753  140.1934  156.4819 C   0  0  0  0  0  0  0  0  0  0  0  0
  151.1158  141.3651  156.5621 N   0  0  0  0  0  0  0  0  0  0  0  0
  150.2107  141.9266  155.5751 C   0  0  0  0  0  0  0  0  0  0  0  0
  149.4751  140.8394  154.7689 C   0  0  2  0  0  0  0  0  0  0  0  0
  149.5011  141.1742  153.3940 O   0  0  0  0  0  0  0  0  0  0  0  0
  148.0051  140.6959  155.2084 C   0  0  0  0  0  0  0  0  0  0  0  0
  147.2927  141.9988  155.2306 N   0  3  1  0  0  0  0  0  0  0  0  0
  146.5747  142.3057  153.9695 C   0  0  0  0  0  0  0  0  0  0  0  0
  145.9122  143.6897  154.0574 C   0  0  0  0  0  0  0  0  0  0  0  0
  145.0391  143.7291  155.1799 O   0  0  0  0  0  0  0  0  0  0  0  0
  145.7263  143.5302  156.4116 C   0  0  1  0  0  0  0  0  0  0  0  0
  144.7041  143.6614  157.5568 C   0  0  0  0  0  0  0  0  0  0  0  0
  144.3464  145.0720  157.8576 N   0  3  0  0  0  0  0  0  0  0  0  0
  143.3930  145.2133  158.9828 C   0  0  0  0  0  0  0  0  0  0  0  0
  143.8716  145.7920  156.6548 C   0  0  0  0  0  0  0  0  0  0  0  0
  146.3782  142.1324  156.3895 C   0  0  0  0  0  0  0  0  0  0  0  0
  151.4941  141.9073  157.7859 C   0  0  0  0  0  0  0  0  0  0  0  0
  151.1689  143.0952  158.4641 C   0  0  0  0  0  0  0  0  0  0  0  0
  151.7449  143.3575  159.7247 C   0  0  0  0  0  0  0  0  0  0  0  0
  151.3859  144.6420  160.4502 C   0  0  0  0  0  0  0  0  0  0  0  0
  153.9551  141.8751  161.9365 H   0  0  0  0  0  0  0  0  0  0  0  0
  152.5176  142.7728  162.4211 H   0  0  0  0  0  0  0  0  0  0  0  0
  153.8623  143.6076  161.6283 H   0  0  0  0  0  0  0  0  0  0  0  0
  153.6515  140.5215  160.0393 H   0  0  0  0  0  0  0  0  0  0  0  0
  151.6728  139.5439  155.6245 H   0  0  0  0  0  0  0  0  0  0  0  0
  149.4915  142.5603  156.0960 H   0  0  0  0  0  0  0  0  0  0  0  0
  150.7774  142.5812  154.9116 H   0  0  0  0  0  0  0  0  0  0  0  0
  150.0050  139.8962  154.8996 H   0  0  0  0  0  0  0  0  0  0  0  0
  149.6236  140.3806  152.8940 H   0  0  0  0  0  0  0  0  0  0  0  0
  147.4730  140.0041  154.5534 H   0  0  0  0  0  0  0  0  0  0  0  0
  147.9845  140.2470  156.2030 H   0  0  0  0  0  0  0  0  0  0  0  0
  147.2600  142.2859  153.1228 H   0  0  0  0  0  0  0  0  0  0  0  0
  145.8163  141.5432  153.7840 H   0  0  0  0  0  0  0  0  0  0  0  0
  146.6628  144.4781  154.1345 H   0  0  0  0  0  0  0  0  0  0  0  0
  145.3348  143.8871  153.1541 H   0  0  0  0  0  0  0  0  0  0  0  0
  146.5094  144.2815  156.5192 H   0  0  0  0  0  0  0  0  0  0  0  0
  143.8040  143.1130  157.2737 H   0  0  0  0  0  0  0  0  0  0  0  0
  145.0801  143.1840  158.4632 H   0  0  0  0  0  0  0  0  0  0  0  0
  142.4496  144.7116  158.7624 H   0  0  0  0  0  0  0  0  0  0  0  0
  143.1787  146.2659  159.1722 H   0  0  0  0  0  0  0  0  0  0  0  0
  143.7944  144.7975  159.9060 H   0  0  0  0  0  0  0  0  0  0  0  0
  142.9507  145.3497  156.2724 H   0  0  0  0  0  0  0  0  0  0  0  0
  144.6208  145.7626  155.8628 H   0  0  0  0  0  0  0  0  0  0  0  0
  143.6781  146.8408  156.8836 H   0  0  0  0  0  0  0  0  0  0  0  0
  145.6131  141.3557  156.3393 H   0  0  0  0  0  0  0  0  0  0  0  0
  146.9352  141.9754  157.3142 H   0  0  0  0  0  0  0  0  0  0  0  0
  150.4821  143.7992  158.0181 H   0  0  0  0  0  0  0  0  0  0  0  0
  150.6805  145.2409  159.8735 H   0  0  0  0  0  0  0  0  0  0  0  0
  152.2767  145.2466  160.6209 H   0  0  0  0  0  0  0  0  0  0  0  0
  150.9270  144.4207  161.4140 H   0  0  0  0  0  0  0  0  0  0  0  0
  145.2007  145.5338  158.1362 H   0  0  0  0  0  0  0  0  0  0  0  0
  148.0060  142.7050  155.3486 H   0  0  0  0  0  0  0  0  0  0  0  0
  1  2  1  0  0  0  0
  1 26  1  0  0  0  0
  1 27  1  0  0  0  0
  1 28  1  0  0  0  0
  2 24  1  0  0  0  0
  2  3  2  0  0  0  0
  3  4  1  0  0  0  0
  3 29  1  0  0  0  0
  4 22  2  0  0  0  0
  4  5  1  0  0  0  0
  5  6  2  0  0  0  0
  6  7  1  0  0  0  0
  6 30  1  0  0  0  0
  7  8  1  0  0  0  0
  7 22  1  0  0  0  0
  8  9  1  0  0  0  0
  8 31  1  0  0  0  0
  8 32  1  0  0  0  0
  9 10  1  0  0  0  0
  9 11  1  0  0  0  0
  9 33  1  0  0  0  0
 10 34  1  0  0  0  0
 11 12  1  0  0  0  0
 11 35  1  0  0  0  0
 11 36  1  0  0  0  0
 12 21  1  0  0  0  0
 12 13  1  0  0  0  0
 12 57  1  0  0  0  0
 13 14  1  0  0  0  0
 13 37  1  0  0  0  0
 13 38  1  0  0  0  0
 14 15  1  0  0  0  0
 14 39  1  0  0  0  0
 14 40  1  0  0  0  0
 15 16  1  0  0  0  0
 16 17  1  0  0  0  0
 16 21  1  0  0  0  0
 16 41  1  0  0  0  0
 17 18  1  0  0  0  0
 17 42  1  0  0  0  0
 17 43  1  0  0  0  0
 18 19  1  0  0  0  0
 18 20  1  0  0  0  0
 18 56  1  0  0  0  0
 19 44  1  0  0  0  0
 19 45  1  0  0  0  0
 19 46  1  0  0  0  0
 20 47  1  0  0  0  0
 20 48  1  0  0  0  0
 20 49  1  0  0  0  0
 21 50  1  0  0  0  0
 21 51  1  0  0  0  0
 22 23  1  0  0  0  0
 23 24  2  0  0  0  0
 23 52  1  0  0  0  0
 24 25  1  0  0  0  0
 25 53  1  0  0  0  0
 25 54  1  0  0  0  0
 25 55  1  0  0  0  0
M  CHG  1  12   1
M  CHG  1  18   1
M  END
> <s_m_source_file>
AV-unprocessed.smi

> <i_m_source_file_index>
1005

> <i_lp_mmshare_version>
43012

> <i_f3d_flags>
0

> <s_epik_input>
W0NIM11jKFtjSF0xKWMoW0NIM10pW2NIXWMoYzEyKW4oW2NIXW4yKVtDSDJdW0NASF0oW09IXSlbQ0gyXU4zW0NIMl1bQ0gyXU9bQ0BIXShbQ0gyXTMpW0NIMl1OKFtDSDNdKVtDSDNd

> <s_epik_cmdline>
J2VwaWtfcHl0aG9uJywgJy1waCcsICc3LjAnLCAnLXRuJywgJzgnLCAnLW1hJywgJzIwMCcsICctbWV0YWxfYmluZGluZycsICctaW1hZScsICc8aW5maWxlLm1hZT4nLCAnLW9tYWUnLCAnPG91dGZpbGUubWFlPic=

> <r_epik_Ionization_Penalty>
1.0968

> <r_epik_Ionization_Penalty_Charging>
1.0096

> <r_epik_Ionization_Penalty_Neutral>
0.0871956

> <r_epik_State_Penalty>
1.31185

> <r_epik_Charging_Adjusted_Penalty>
2.32145

> <i_epik_Tot_Q>
2

> <i_epik_Tot_abs_Q>
2

> <r_epik_Metal_State_Penalty>
1.22442

> <b_epik_Metal_Only>
0

> <s_lp_Force_Field>
OPLS_2005

> <r_lp_Energy>
32.7622

> <b_lp_Chiralities_Consistent>
1

> <s_lp_Variant>
AV-unprocessed.smi:1005-5

> <Gold.Version>
5.8.1

> <Gold.Id.Protein>
6NUR|6NUR_protein|mol2

> <Gold.PLP.Fitness>
55.9208

> <Gold.PLP.PLP>
-47.5465

> <Gold.PLP.part.hbond>
-4.5728

> <Gold.PLP.part.metal>
0.0000

> <Gold.PLP.part.buried>
-5.0606

> <Gold.PLP.part.nonpolar>
-35.4115

> <Gold.PLP.part.repulsive>
0.2384

> <Gold.PLP.ligand.clash>
0.0000

> <Gold.PLP.ligand.torsion>
1.7023

> <Gold.PLP.Chemscore.Hbond>
3.8580

> <Gold.PLP.Chemscore.CHOScore>
0.0000

> <Gold.PLP.Chemscore.Metal>
0.0000

> <Gold.Chemscore.Hbonds>
donor molecule, donor type, donor heavy atom, donor atom, acceptor molecule, acceptor atom, score
      L1  H    10    34       P1  7957  0.66
      L1  H    12    57       P1  8028  1.17
      P1  H  7997  8010       L1     5  1.00
      P1  H  8011  8017       L1    10  1.00

> <Gold.PLP.Chemscore.Internal.Correction>
0.2050

> <Gold.Rescore>
     Score         DG    S(hbond)    S(metal)    S(lipo)     H(rot)  DE(clash)    DE(int)     intcor
     17.20     -20.57       2.17        0.00     121.20       2.48       0.18       3.19       ----

> <Gold.Chemscore.Fitness>
17.1995

> <Gold.Chemscore.DG>
-20.5665

> <Gold.Chemscore.ZeroCoef>
-5.4800

> <Gold.Chemscore.Hbond>
2.1734

> <Gold.Chemscore.Metal>
0.0000

> <Gold.Chemscore.Lipo>
121.1951

> <Gold.Chemscore.Internal_Hbond>
0.0000

> <Gold.Chemscore.DEClash>
0.1814

> <Gold.Chemscore.DEInternal>
3.1856

> <Gold.Chemscore.Rot>
2.4814

> <Gold.Chemscore.Internal.Correction>
   9.000000E+99

> <Gold.Chemscore.Hbonds>
donor molecule, donor type, donor heavy atom, donor atom, acceptor molecule, acceptor atom, score
      L1  H    10    34       P1  7957  0.64
      L1  H    12    57       P1  8028  0.53
      P1  H  7997  8010       L1     5  0.21
      P1  H  8011  8017       L1    10  0.48

> <Gold.Chemscore.Hbond.Weighted>
-7.2591

> <Gold.Chemscore.Metal.Weighted>
-0.0000

> <Gold.Chemscore.Lipo.Weighted>
-14.1798

> <Gold.Chemscore.Internal_Hbond.Weighted>
0.0000

> <Gold.Chemscore.DEClash.Weighted>
0.1814

> <Gold.Chemscore.DEInternal.Weighted>
3.1856

> <Gold.Chemscore.Rot.Weighted>
6.3524

> <Gold.Chemscore.Internal.Correction.Weighted>
   9.000000E+99

> <Gold.Protein.RotatedTorsions>
[ 6907 6896 6895 6894 ] final  -19.96 input  -60.11 | X-H torsion
[ 7974 7965 7964 7962 ] final  -50.32 input  175.53 | X-H torsion
[ 8008 7997 7996 7995 ] final   52.45 input   59.86 | X-H torsion
[ 10167 10162 10161 10158 ] final   53.67 input  -65.29 | X-H torsion
[ 10718 10713 10712 10709 ] final -170.79 input   66.30 | X-H torsion
[ 10763 10752 10751 10750 ] final -151.61 input  -60.55 | X-H torsion
[ 11005 11000 10999 10996 ] final  -64.82 input  -57.11 | X-H torsion

> <Gold.Protein.ActiveResidues>
 VAL166  LYS551  ARG553  GLY616  TRP617  ASP618  TYR619  PRO620  LYS621  CYS622 
 ASP623  PHE694  ASN695  SER759  ASP760  ASP761  ALA762  ILE779  LEU786  VAL792 
 PHE793  MET794  SER795  GLU796  ALA797  LYS798  CYS799  TRP800  GLU811  SER814 

> <Gold.Protein.RotatedAtoms>
  151.2553  135.0636  159.9077 H   0  0  0  0  0  0  0  0  0  0  0  0  # atno 6907 bound_to 6896
  152.5374  134.0288  159.8025 H   0  0  0  0  0  0  0  0  0  0  0  0  # atno 6908 bound_to 6896
  151.0503  133.5581  159.2674 H   0  0  0  0  0  0  0  0  0  0  0  0  # atno 6909 bound_to 6896
  145.9311  140.7748  142.9599 H   0  0  0  0  0  0  0  0  0  0  0  0  # atno 7974 bound_to 7965
  155.4520  140.3458  155.4302 H   0  0  0  0  0  0  0  0  0  0  0  0  # atno 8008 bound_to 7997
  156.1214  140.1488  156.9228 H   0  0  0  0  0  0  0  0  0  0  0  0  # atno 8009 bound_to 7997
  154.4826  140.0865  156.7393 H   0  0  0  0  0  0  0  0  0  0  0  0  # atno 8010 bound_to 7997
  140.2383  144.3611  150.6389 H   0  0  0  0  0  0  0  0  0  0  0  0  # atno 10167 bound_to 10162
  156.7314  130.9308  151.3104 H   0  0  0  0  0  0  0  0  0  0  0  0  # atno 10718 bound_to 10713
  154.8047  135.3256  154.7462 H   0  0  0  0  0  0  0  0  0  0  0  0  # atno 10763 bound_to 10752
  153.8123  135.6894  153.4843 H   0  0  0  0  0  0  0  0  0  0  0  0  # atno 10764 bound_to 10752
  153.1784  135.4596  154.9941 H   0  0  0  0  0  0  0  0  0  0  0  0  # atno 10765 bound_to 10752
  141.1436  133.6671  156.5892 H   0  0  0  0  0  0  0  0  0  0  0  0  # atno 11005 bound_to 11000
  144.6765  140.2128  143.7375 LP  0  0  0  0  0  0  0  0  0  0  0  0  # atno 17320 bound_to 7965
  145.8425  139.2136  143.1819 LP  0  0  0  0  0  0  0  0  0  0  0  0  # atno 17321 bound_to 7965
  140.6133  143.2171  151.6842 LP  0  0  0  0  0  0  0  0  0  0  0  0  # atno 17342 bound_to 10162
  139.5086  144.3606  152.0566 LP  0  0  0  0  0  0  0  0  0  0  0  0  # atno 17343 bound_to 10162
  157.6857  130.9183  150.0381 LP  0  0  0  0  0  0  0  0  0  0  0  0  # atno 17370 bound_to 10713
  156.1526  130.3642  149.9415 LP  0  0  0  0  0  0  0  0  0  0  0  0  # atno 17371 bound_to 10713
  140.3777  134.7551  157.4640 LP  0  0  0  0  0  0  0  0  0  0  0  0  # atno 17394 bound_to 11000
  140.0662  134.5926  155.8693 LP  0  0  0  0  0  0  0  0  0  0  0  0  # atno 17395 bound_to 11000

$$$$
