AV-unprocessed.smi:444|AV-procd|sdf|2588|dock10
  -GOLD-   2262022583D 1   1.00000     0.00000
 Structure written by MMmdl.
 45 46  0  0  0  0  0  0  0  0  1 V2000
  151.7285  144.3322  159.3473 C   0  0  0  0  0  0  0  0  0  0  0  0
  152.1789  142.8882  159.4307 C   0  0  0  0  0  0  0  0  0  0  0  0
  153.4544  142.5693  159.9348 C   0  0  0  0  0  0  0  0  0  0  0  0
  153.8653  141.2262  160.0072 C   0  0  0  0  0  0  0  0  0  0  0  0
  153.0052  140.1947  159.5766 C   0  0  0  0  0  0  0  0  0  0  0  0
  153.4644  138.7512  159.6621 C   0  0  0  0  0  0  0  0  0  0  0  0
  151.7211  140.5007  159.0687 C   0  0  0  0  0  0  0  0  0  0  0  0
  150.9292  139.4443  158.6675 O   0  0  0  0  0  0  0  0  0  0  0  0
  149.5334  139.6611  158.5092 C   0  0  0  0  0  0  0  0  0  0  0  0
  148.7905  138.3540  158.8340 C   0  0  1  0  0  0  0  0  0  0  0  0
  148.1674  137.9227  157.6396 O   0  0  0  0  0  0  0  0  0  0  0  0
  149.7576  137.2452  159.3055 C   0  0  0  0  0  0  0  0  0  0  0  0
  149.0655  136.2071  160.0800 N   0  0  0  0  0  0  0  0  0  0  0  0
  148.6844  136.6108  161.3451 N   0  0  0  0  0  0  0  0  0  0  0  0
  148.0455  135.8180  162.1411 C   0  0  0  0  0  0  0  0  0  0  0  0
  147.6818  136.3671  163.4943 C   0  0  0  0  0  0  0  0  0  0  0  0
  147.7157  134.4657  161.7033 C   0  0  0  0  0  0  0  0  0  0  0  0
  146.9604  133.5772  162.6826 C   0  0  0  0  0  0  0  0  0  0  0  0
  148.1005  134.0790  160.4611 C   0  0  0  0  0  0  0  0  0  0  0  0
  147.8260  132.7751  159.9492 C   0  0  0  0  0  0  0  0  0  0  0  0
  147.6247  131.7138  159.5331 N   0  0  0  0  0  0  0  0  0  0  0  0
  148.8254  134.9719  159.5541 C   0  0  0  0  0  0  0  0  0  0  0  0
  149.1873  134.6500  158.4214 O   0  0  0  0  0  0  0  0  0  0  0  0
  151.3183  141.8589  158.9987 C   0  0  0  0  0  0  0  0  0  0  0  0
  152.3867  144.9868  159.9195 H   0  0  0  0  0  0  0  0  0  0  0  0
  150.7181  144.4399  159.7426 H   0  0  0  0  0  0  0  0  0  0  0  0
  151.7294  144.6672  158.3099 H   0  0  0  0  0  0  0  0  0  0  0  0
  154.1216  143.3512  160.2671 H   0  0  0  0  0  0  0  0  0  0  0  0
  154.8454  140.9912  160.3957 H   0  0  0  0  0  0  0  0  0  0  0  0
  152.8061  138.1840  160.3209 H   0  0  0  0  0  0  0  0  0  0  0  0
  154.4801  138.6762  160.0518 H   0  0  0  0  0  0  0  0  0  0  0  0
  153.4449  138.2886  158.6751 H   0  0  0  0  0  0  0  0  0  0  0  0
  149.1750  140.4777  159.1390 H   0  0  0  0  0  0  0  0  0  0  0  0
  149.3507  139.9363  157.4693 H   0  0  0  0  0  0  0  0  0  0  0  0
  148.0368  138.5448  159.5993 H   0  0  0  0  0  0  0  0  0  0  0  0
  148.6943  137.2399  157.2534 H   0  0  0  0  0  0  0  0  0  0  0  0
  150.3185  136.8309  158.4656 H   0  0  0  0  0  0  0  0  0  0  0  0
  150.5180  137.6829  159.9550 H   0  0  0  0  0  0  0  0  0  0  0  0
  148.1099  135.7551  164.2884 H   0  0  0  0  0  0  0  0  0  0  0  0
  146.5997  136.3847  163.6261 H   0  0  0  0  0  0  0  0  0  0  0  0
  148.0469  137.3861  163.6320 H   0  0  0  0  0  0  0  0  0  0  0  0
  146.7181  132.6044  162.2554 H   0  0  0  0  0  0  0  0  0  0  0  0
  146.0209  134.0444  162.9797 H   0  0  0  0  0  0  0  0  0  0  0  0
  147.5572  133.4033  163.5786 H   0  0  0  0  0  0  0  0  0  0  0  0
  150.3486  142.1375  158.6152 H   0  0  0  0  0  0  0  0  0  0  0  0
  1  2  1  0  0  0  0
  1 25  1  0  0  0  0
  1 26  1  0  0  0  0
  1 27  1  0  0  0  0
  2 24  1  0  0  0  0
  2  3  2  0  0  0  0
  3  4  1  0  0  0  0
  3 28  1  0  0  0  0
  4  5  2  0  0  0  0
  4 29  1  0  0  0  0
  5  6  1  0  0  0  0
  5  7  1  0  0  0  0
  6 30  1  0  0  0  0
  6 31  1  0  0  0  0
  6 32  1  0  0  0  0
  7  8  1  0  0  0  0
  7 24  2  0  0  0  0
  8  9  1  0  0  0  0
  9 10  1  0  0  0  0
  9 33  1  0  0  0  0
  9 34  1  0  0  0  0
 10 11  1  0  0  0  0
 10 12  1  0  0  0  0
 10 35  1  0  0  0  0
 11 36  1  0  0  0  0
 12 13  1  0  0  0  0
 12 37  1  0  0  0  0
 12 38  1  0  0  0  0
 13 22  1  0  0  0  0
 13 14  1  0  0  0  0
 14 15  2  0  0  0  0
 15 16  1  0  0  0  0
 15 17  1  0  0  0  0
 16 39  1  0  0  0  0
 16 40  1  0  0  0  0
 16 41  1  0  0  0  0
 17 18  1  0  0  0  0
 17 19  2  0  0  0  0
 18 42  1  0  0  0  0
 18 43  1  0  0  0  0
 18 44  1  0  0  0  0
 19 20  1  0  0  0  0
 19 22  1  0  0  0  0
 20 21  3  0  0  0  0
 22 23  2  0  0  0  0
 24 45  1  0  0  0  0
M  END
> <s_m_source_file>
AV-unprocessed.smi

> <i_m_source_file_index>
444

> <i_lp_mmshare_version>
43012

> <i_f3d_flags>
0

> <s_epik_input>
W0NIM11jMVtjSF1bY0hdYyhbQ0gzXSljKFtjSF0xKU9bQ0gyXVtDQEhdKFtPSF0pW0NIMl1uMm5jKFtDSDNdKWMoW0NIM10pYyhDI04pYzI9Tw==

> <s_epik_cmdline>
J2VwaWtfcHl0aG9uJywgJy1waCcsICc3LjAnLCAnLXRuJywgJzgnLCAnLW1hJywgJzIwMCcsICctbWV0YWxfYmluZGluZycsICctaW1hZScsICc8aW5maWxlLm1hZT4nLCAnLW9tYWUnLCAnPG91dGZpbGUubWFlPic=

> <r_lp_tautomer_probability>
1

> <r_epik_Ionization_Penalty>
1.17331e-07

> <r_epik_Ionization_Penalty_Charging>
1.57223e-10

> <r_epik_Ionization_Penalty_Neutral>
1.17174e-07

> <r_epik_State_Penalty>
-0

> <r_epik_Charging_Adjusted_Penalty>
1.57223e-10

> <i_epik_Tot_Q>
0

> <i_epik_Tot_abs_Q>
0

> <r_epik_Metal_State_Penalty>
-0

> <b_epik_Metal_Only>
0

> <s_lp_Force_Field>
OPLS_2005

> <r_lp_Energy>
32.4142

> <b_lp_Chiralities_Consistent>
1

> <s_lp_Variant>
AV-unprocessed.smi:444-2

> <Gold.Version>
5.8.1

> <Gold.Id.Protein>
6NUR|6NUR_protein|mol2

> <Gold.PLP.Fitness>
50.0188

> <Gold.PLP.PLP>
-45.6403

> <Gold.PLP.part.hbond>
-3.0000

> <Gold.PLP.part.metal>
0.0000

> <Gold.PLP.part.buried>
-3.1351

> <Gold.PLP.part.nonpolar>
-40.1824

> <Gold.PLP.part.repulsive>
0.0000

> <Gold.PLP.ligand.clash>
0.0000

> <Gold.PLP.ligand.torsion>
1.5524

> <Gold.PLP.Chemscore.Hbond>
2.4775

> <Gold.PLP.Chemscore.CHOScore>
0.0000

> <Gold.PLP.Chemscore.Metal>
0.0000

> <Gold.Chemscore.Hbonds>
donor molecule, donor type, donor heavy atom, donor atom, acceptor molecule, acceptor atom, score
      P1  H  6896  6909       L1    23  0.10
      P1  H  6931  6943       L1    14  1.00

> <Gold.PLP.Chemscore.Internal.Correction>
0.0507

> <Gold.Rescore>
     Score         DG    S(hbond)    S(metal)    S(lipo)     H(rot)  DE(clash)    DE(int)     intcor
     17.77     -19.12       1.65        0.00     119.64       2.29       0.08       1.27       ----

> <Gold.Chemscore.Fitness>
17.7698

> <Gold.Chemscore.DG>
-19.1228

> <Gold.Chemscore.ZeroCoef>
-5.4800

> <Gold.Chemscore.Hbond>
1.6494

> <Gold.Chemscore.Metal>
0.0000

> <Gold.Chemscore.Lipo>
119.6355

> <Gold.Chemscore.Internal_Hbond>
0.0000

> <Gold.Chemscore.DEClash>
0.0795

> <Gold.Chemscore.DEInternal>
1.2735

> <Gold.Chemscore.Rot>
2.2905

> <Gold.Chemscore.Internal.Correction>
   9.000000E+99

> <Gold.Chemscore.Hbonds>
donor molecule, donor type, donor heavy atom, donor atom, acceptor molecule, acceptor atom, score
      P1  H  6931  6943       L1    14  0.94

> <Gold.Chemscore.Hbond.Weighted>
-5.5090

> <Gold.Chemscore.Metal.Weighted>
-0.0000

> <Gold.Chemscore.Lipo.Weighted>
-13.9974

> <Gold.Chemscore.Internal_Hbond.Weighted>
0.0000

> <Gold.Chemscore.DEClash.Weighted>
0.0795

> <Gold.Chemscore.DEInternal.Weighted>
1.2735

> <Gold.Chemscore.Rot.Weighted>
5.8636

> <Gold.Chemscore.Internal.Correction.Weighted>
   9.000000E+99

> <Gold.Protein.RotatedTorsions>
[ 6907 6896 6895 6894 ] final   14.49 input  -60.11 | X-H torsion
[ 7974 7965 7964 7962 ] final  -31.24 input  175.53 | X-H torsion
[ 8008 7997 7996 7995 ] final   97.08 input   59.86 | X-H torsion
[ 10167 10162 10161 10158 ] final -113.66 input  -65.29 | X-H torsion
[ 10718 10713 10712 10709 ] final   88.14 input   66.30 | X-H torsion
[ 10763 10752 10751 10750 ] final  -35.42 input  -60.55 | X-H torsion
[ 11005 11000 10999 10996 ] final -130.36 input  -57.11 | X-H torsion

> <Gold.Protein.ActiveResidues>
 VAL166  LYS551  ARG553  GLY616  TRP617  ASP618  TYR619  PRO620  LYS621  CYS622 
 ASP623  PHE694  ASN695  SER759  ASP760  ASP761  ALA762  ILE779  LEU786  VAL792 
 PHE793  MET794  SER795  GLU796  ALA797  LYS798  CYS799  TRP800  GLU811  SER814 

> <Gold.Protein.RotatedAtoms>
  151.8030  135.0703  160.0402 H   0  0  0  0  0  0  0  0  0  0  0  0  # atno 6907 bound_to 6896
  152.3075  133.5714  159.5667 H   0  0  0  0  0  0  0  0  0  0  0  0  # atno 6908 bound_to 6896
  150.7303  134.0117  159.3714 H   0  0  0  0  0  0  0  0  0  0  0  0  # atno 6909 bound_to 6896
  146.1082  140.5642  142.8790 H   0  0  0  0  0  0  0  0  0  0  0  0  # atno 7974 bound_to 7965
  156.0863  140.3263  155.7758 H   0  0  0  0  0  0  0  0  0  0  0  0  # atno 8008 bound_to 7997
  155.5070  140.0574  157.2947 H   0  0  0  0  0  0  0  0  0  0  0  0  # atno 8009 bound_to 7997
  154.4611  140.1967  156.0258 H   0  0  0  0  0  0  0  0  0  0  0  0  # atno 8010 bound_to 7997
  140.1094  143.4541  152.1762 H   0  0  0  0  0  0  0  0  0  0  0  0  # atno 10167 bound_to 10162
  157.6946  131.0283  150.3229 H   0  0  0  0  0  0  0  0  0  0  0  0  # atno 10718 bound_to 10713
  153.8629  135.6838  153.4781 H   0  0  0  0  0  0  0  0  0  0  0  0  # atno 10763 bound_to 10752
  153.1331  135.4689  154.9378 H   0  0  0  0  0  0  0  0  0  0  0  0  # atno 10764 bound_to 10752
  154.7750  135.3250  154.8060 H   0  0  0  0  0  0  0  0  0  0  0  0  # atno 10765 bound_to 10752
  140.9352  134.1267  157.4200 H   0  0  0  0  0  0  0  0  0  0  0  0  # atno 11005 bound_to 11000
  144.7489  140.5140  143.6816 LP  0  0  0  0  0  0  0  0  0  0  0  0  # atno 17320 bound_to 7965
  145.5717  139.1484  143.3284 LP  0  0  0  0  0  0  0  0  0  0  0  0  # atno 17321 bound_to 7965
  139.5628  144.7416  151.4108 LP  0  0  0  0  0  0  0  0  0  0  0  0  # atno 17342 bound_to 10162
  140.6934  143.7807  150.7290 LP  0  0  0  0  0  0  0  0  0  0  0  0  # atno 17343 bound_to 10162
  156.3714  130.3864  149.7173 LP  0  0  0  0  0  0  0  0  0  0  0  0  # atno 17370 bound_to 10713
  156.4586  130.7941  151.2961 LP  0  0  0  0  0  0  0  0  0  0  0  0  # atno 17371 bound_to 10713
  139.8806  135.0018  156.6091 LP  0  0  0  0  0  0  0  0  0  0  0  0  # atno 17394 bound_to 11000
  140.7809  133.8661  155.8567 LP  0  0  0  0  0  0  0  0  0  0  0  0  # atno 17395 bound_to 11000

$$$$
