AV-unprocessed.smi:1005|AV-procd|sdf|4378|dock1
  -GOLD-   22720 2293D 1   1.00000     0.00000
 Structure written by MMmdl.
 58 60  0  0  0  0  0  0  0  0  4 V2000
  153.3572  142.6788  160.6904 C   0  0  0  0  0  0  0  0  0  0  0  0
  152.4647  142.2568  159.5356 C   0  0  0  0  0  0  0  0  0  0  0  0
  152.6840  140.9935  158.9410 C   0  0  0  0  0  0  0  0  0  0  0  0
  151.8503  140.6346  157.8885 C   0  0  0  0  0  0  0  0  0  0  0  0
  151.8109  139.4795  157.1044 N   0  3  0  0  0  0  0  0  0  0  0  0
  150.8085  139.5854  156.1886 C   0  0  0  0  0  0  0  0  0  0  0  0
  150.2028  140.7893  156.3814 N   0  0  0  0  0  0  0  0  0  0  0  0
  149.0712  141.4043  155.6744 C   0  0  0  0  0  0  0  0  0  0  0  0
  148.6823  140.6453  154.3899 C   0  0  2  0  0  0  0  0  0  0  0  0
  149.7010  140.8167  153.4233 O   0  0  0  0  0  0  0  0  0  0  0  0
  147.3519  141.1579  153.8041 C   0  0  0  0  0  0  0  0  0  0  0  0
  146.5960  140.0989  153.0867 N   0  3  1  0  0  0  0  0  0  0  0  0
  147.0882  139.8422  151.7108 C   0  0  0  0  0  0  0  0  0  0  0  0
  146.2289  138.7666  151.0279 C   0  0  0  0  0  0  0  0  0  0  0  0
  146.2331  137.5831  151.8167 O   0  0  0  0  0  0  0  0  0  0  0  0
  145.6702  137.7858  153.1082 C   0  0  1  0  0  0  0  0  0  0  0  0
  145.6501  136.4169  153.8178 C   0  0  0  0  0  0  0  0  0  0  0  0
  146.9730  135.7394  153.8361 N   0  3  0  0  0  0  0  0  0  0  0  0
  146.8406  134.2654  153.8354 C   0  0  0  0  0  0  0  0  0  0  0  0
  147.8568  136.2021  154.9315 C   0  0  0  0  0  0  0  0  0  0  0  0
  146.5247  138.8326  153.8549 C   0  0  0  0  0  0  0  0  0  0  0  0
  150.8251  141.4818  157.4255 C   0  0  0  0  0  0  0  0  0  0  0  0
  150.5977  142.7314  157.9970 C   0  0  0  0  0  0  0  0  0  0  0  0
  151.4363  143.1156  159.0677 C   0  0  0  0  0  0  0  0  0  0  0  0
  151.2131  144.4738  159.7111 C   0  0  0  0  0  0  0  0  0  0  0  0
  154.0736  141.8980  160.9472 H   0  0  0  0  0  0  0  0  0  0  0  0
  152.7616  142.8880  161.5792 H   0  0  0  0  0  0  0  0  0  0  0  0
  153.9202  143.5756  160.4306 H   0  0  0  0  0  0  0  0  0  0  0  0
  153.4666  140.3359  159.2904 H   0  0  0  0  0  0  0  0  0  0  0  0
  150.5411  138.8458  155.4474 H   0  0  0  0  0  0  0  0  0  0  0  0
  148.2280  141.4647  156.3638 H   0  0  0  0  0  0  0  0  0  0  0  0
  149.3521  142.4319  155.4391 H   0  0  0  0  0  0  0  0  0  0  0  0
  148.6098  139.5832  154.6203 H   0  0  0  0  0  0  0  0  0  0  0  0
  149.5701  140.1828  152.7341 H   0  0  0  0  0  0  0  0  0  0  0  0
  146.7239  141.5787  154.5910 H   0  0  0  0  0  0  0  0  0  0  0  0
  147.5707  141.9790  153.1194 H   0  0  0  0  0  0  0  0  0  0  0  0
  147.0595  140.7540  151.1153 H   0  0  0  0  0  0  0  0  0  0  0  0
  148.1293  139.5175  151.7472 H   0  0  0  0  0  0  0  0  0  0  0  0
  145.2069  139.1189  150.8798 H   0  0  0  0  0  0  0  0  0  0  0  0
  146.6311  138.5350  150.0414 H   0  0  0  0  0  0  0  0  0  0  0  0
  144.6518  138.1555  152.9824 H   0  0  0  0  0  0  0  0  0  0  0  0
  145.2922  136.5282  154.8425 H   0  0  0  0  0  0  0  0  0  0  0  0
  144.9222  135.7805  153.3115 H   0  0  0  0  0  0  0  0  0  0  0  0
  146.3368  133.9180  154.7384 H   0  0  0  0  0  0  0  0  0  0  0  0
  147.8203  133.7884  153.7855 H   0  0  0  0  0  0  0  0  0  0  0  0
  146.2678  133.9270  152.9713 H   0  0  0  0  0  0  0  0  0  0  0  0
  147.4057  136.0104  155.9061 H   0  0  0  0  0  0  0  0  0  0  0  0
  148.0672  137.2682  154.8553 H   0  0  0  0  0  0  0  0  0  0  0  0
  148.8152  135.6828  154.8953 H   0  0  0  0  0  0  0  0  0  0  0  0
  147.5339  138.4511  154.0194 H   0  0  0  0  0  0  0  0  0  0  0  0
  146.0922  139.0286  154.8369 H   0  0  0  0  0  0  0  0  0  0  0  0
  149.8156  143.3852  157.6406 H   0  0  0  0  0  0  0  0  0  0  0  0
  150.4071  145.0205  159.2206 H   0  0  0  0  0  0  0  0  0  0  0  0
  152.1151  145.0829  159.6456 H   0  0  0  0  0  0  0  0  0  0  0  0
  150.9471  144.3600  160.7622 H   0  0  0  0  0  0  0  0  0  0  0  0
  147.4341  135.9740  152.9685 H   0  0  0  0  0  0  0  0  0  0  0  0
  145.6471  140.4363  153.0056 H   0  0  0  0  0  0  0  0  0  0  0  0
  152.4235  138.6778  157.1844 H   0  0  0  0  0  0  0  0  0  0  0  0
  1  2  1  0  0  0  0
  1 26  1  0  0  0  0
  1 27  1  0  0  0  0
  1 28  1  0  0  0  0
  2 24  1  0  0  0  0
  2  3  2  0  0  0  0
  3  4  1  0  0  0  0
  3 29  1  0  0  0  0
  4 22  2  0  0  0  0
  4  5  1  0  0  0  0
  5  6  2  0  0  0  0
  5 58  1  0  0  0  0
  6  7  1  0  0  0  0
  6 30  1  0  0  0  0
  7  8  1  0  0  0  0
  7 22  1  0  0  0  0
  8  9  1  0  0  0  0
  8 31  1  0  0  0  0
  8 32  1  0  0  0  0
  9 10  1  0  0  0  0
  9 11  1  0  0  0  0
  9 33  1  0  0  0  0
 10 34  1  0  0  0  0
 11 12  1  0  0  0  0
 11 35  1  0  0  0  0
 11 36  1  0  0  0  0
 12 21  1  0  0  0  0
 12 13  1  0  0  0  0
 12 57  1  0  0  0  0
 13 14  1  0  0  0  0
 13 37  1  0  0  0  0
 13 38  1  0  0  0  0
 14 15  1  0  0  0  0
 14 39  1  0  0  0  0
 14 40  1  0  0  0  0
 15 16  1  0  0  0  0
 16 17  1  0  0  0  0
 16 21  1  0  0  0  0
 16 41  1  0  0  0  0
 17 18  1  0  0  0  0
 17 42  1  0  0  0  0
 17 43  1  0  0  0  0
 18 19  1  0  0  0  0
 18 20  1  0  0  0  0
 18 56  1  0  0  0  0
 19 44  1  0  0  0  0
 19 45  1  0  0  0  0
 19 46  1  0  0  0  0
 20 47  1  0  0  0  0
 20 48  1  0  0  0  0
 20 49  1  0  0  0  0
 21 50  1  0  0  0  0
 21 51  1  0  0  0  0
 22 23  1  0  0  0  0
 23 24  2  0  0  0  0
 23 52  1  0  0  0  0
 24 25  1  0  0  0  0
 25 53  1  0  0  0  0
 25 54  1  0  0  0  0
 25 55  1  0  0  0  0
M  CHG  1   5   1
M  CHG  1  12   1
M  CHG  1  18   1
M  END
> <s_m_source_file>
AV-unprocessed.smi

> <i_m_source_file_index>
1005

> <i_lp_mmshare_version>
43012

> <i_f3d_flags>
0

> <s_epik_input>
W0NIM11jKFtjSF0xKWMoW0NIM10pW2NIXWMoYzEyKW4oW2NIXW4yKVtDSDJdW0NASF0oW09IXSlbQ0gyXU4zW0NIMl1bQ0gyXU9bQ0BIXShbQ0gyXTMpW0NIMl1OKFtDSDNdKVtDSDNd

> <s_epik_cmdline>
J2VwaWtfcHl0aG9uJywgJy1waCcsICc3LjAnLCAnLXRuJywgJzgnLCAnLW1hJywgJzIwMCcsICctbWV0YWxfYmluZGluZycsICctaW1hZScsICc8aW5maWxlLm1hZT4nLCAnLW9tYWUnLCAnPG91dGZpbGUubWFlPic=

> <r_epik_Ionization_Penalty>
2.30802

> <r_epik_Ionization_Penalty_Charging>
2.30798

> <r_epik_Ionization_Penalty_Neutral>
3.4851e-05

> <r_epik_State_Penalty>
2.52618

> <r_epik_Charging_Adjusted_Penalty>
4.83416

> <i_epik_Tot_Q>
3

> <i_epik_Tot_abs_Q>
3

> <r_epik_Metal_State_Penalty>
6.53149

> <b_epik_Metal_Only>
0

> <s_lp_Force_Field>
OPLS_2005

> <r_lp_Energy>
43.2014

> <b_lp_Chiralities_Consistent>
1

> <s_lp_Variant>
AV-unprocessed.smi:1005-17

> <Gold.Version>
5.8.1

> <Gold.Id.Protein>
6NUR|6NUR_protein|mol2

> <Gold.PLP.Fitness>
58.2704

> <Gold.PLP.PLP>
-41.0464

> <Gold.PLP.part.hbond>
-4.3978

> <Gold.PLP.part.metal>
0.0000

> <Gold.PLP.part.buried>
0.4595

> <Gold.PLP.part.nonpolar>
-39.5207

> <Gold.PLP.part.repulsive>
1.1030

> <Gold.PLP.ligand.clash>
0.0000

> <Gold.PLP.ligand.torsion>
1.0069

> <Gold.PLP.Chemscore.Hbond>
6.1040

> <Gold.PLP.Chemscore.CHOScore>
0.0000

> <Gold.PLP.Chemscore.Metal>
0.0000

> <Gold.Chemscore.Hbonds>
donor molecule, donor type, donor heavy atom, donor atom, acceptor molecule, acceptor atom, score
      L1  H    10    34       P1  7957  0.82
      L1  H    12    57       P1 10175  2.00
      L1  H    18    56       P1  7948  2.00
      P1  H  7989  7998       L1    10  0.30
      P1  H  8011  8017       L1    10  0.90

> <Gold.PLP.Chemscore.Internal.Correction>
0.9259

> <Gold.Rescore>
     Score         DG    S(hbond)    S(metal)    S(lipo)     H(rot)  DE(clash)    DE(int)     intcor
     20.96     -25.55       3.27        0.00     134.00       2.56       3.59       1.00       ----

> <Gold.Chemscore.Fitness>
20.9554

> <Gold.Chemscore.DG>
-25.5469

> <Gold.Chemscore.ZeroCoef>
-5.4800

> <Gold.Chemscore.Hbond>
3.2737

> <Gold.Chemscore.Metal>
0.0000

> <Gold.Chemscore.Lipo>
133.9978

> <Gold.Chemscore.Internal_Hbond>
0.0000

> <Gold.Chemscore.DEClash>
3.5918

> <Gold.Chemscore.DEInternal>
0.9998

> <Gold.Chemscore.Rot>
2.5566

> <Gold.Chemscore.Internal.Correction>
   9.000000E+99

> <Gold.Chemscore.Hbonds>
donor molecule, donor type, donor heavy atom, donor atom, acceptor molecule, acceptor atom, score
      L1  H    10    34       P1  7957  0.79
      L1  H    12    57       P1 10175  0.82
      L1  H    18    56       P1  7948  0.97
      P1  H  7989  7998       L1    10  0.08
      P1  H  8011  8017       L1    10  0.17

> <Gold.Chemscore.Hbond.Weighted>
-10.9342

> <Gold.Chemscore.Metal.Weighted>
-0.0000

> <Gold.Chemscore.Lipo.Weighted>
-15.6777

> <Gold.Chemscore.Internal_Hbond.Weighted>
0.0000

> <Gold.Chemscore.DEClash.Weighted>
3.5918

> <Gold.Chemscore.DEInternal.Weighted>
0.9998

> <Gold.Chemscore.Rot.Weighted>
6.5450

> <Gold.Chemscore.Internal.Correction.Weighted>
   9.000000E+99

> <Gold.Protein.RotatedTorsions>
[ 6907 6896 6895 6894 ] final -117.91 input  -60.11 | X-H torsion
[ 7974 7965 7964 7962 ] final  -42.79 input  175.53 | X-H torsion
[ 8008 7997 7996 7995 ] final   47.53 input   59.86 | X-H torsion
[ 10167 10162 10161 10158 ] final  149.05 input  -65.29 | X-H torsion
[ 10718 10713 10712 10709 ] final  135.08 input   66.30 | X-H torsion
[ 10763 10752 10751 10750 ] final  -55.73 input  -60.55 | X-H torsion
[ 11005 11000 10999 10996 ] final  112.10 input  -57.11 | X-H torsion

> <Gold.Protein.ActiveResidues>
 VAL166  LYS551  ARG553  GLY616  TRP617  ASP618  TYR619  PRO620  LYS621  CYS622 
 ASP623  PHE694  ASN695  SER759  ASP760  ASP761  ALA762  ILE779  LEU786  VAL792 
 PHE793  MET794  SER795  GLU796  ALA797  LYS798  CYS799  TRP800  GLU811  SER814 

> <Gold.Protein.RotatedAtoms>
  150.8176  133.8310  159.3153 H   0  0  0  0  0  0  0  0  0  0  0  0  # atno 6907 bound_to 6896
  151.6077  135.1041  160.0084 H   0  0  0  0  0  0  0  0  0  0  0  0  # atno 6908 bound_to 6896
  152.4267  133.7166  159.6566 H   0  0  0  0  0  0  0  0  0  0  0  0  # atno 6909 bound_to 6896
  146.0081  140.6996  142.9237 H   0  0  0  0  0  0  0  0  0  0  0  0  # atno 7974 bound_to 7965
  155.3706  140.3423  155.4243 H   0  0  0  0  0  0  0  0  0  0  0  0  # atno 8008 bound_to 7997
  156.1664  140.1617  156.8557 H   0  0  0  0  0  0  0  0  0  0  0  0  # atno 8009 bound_to 7997
  154.5190  140.0771  156.8117 H   0  0  0  0  0  0  0  0  0  0  0  0  # atno 8010 bound_to 7997
  139.4866  144.5631  151.7194 H   0  0  0  0  0  0  0  0  0  0  0  0  # atno 10167 bound_to 10162
  157.4607  131.1073  150.9923 H   0  0  0  0  0  0  0  0  0  0  0  0  # atno 10718 bound_to 10713
  154.1954  135.6420  153.5072 H   0  0  0  0  0  0  0  0  0  0  0  0  # atno 10763 bound_to 10752
  153.0025  135.5438  154.6371 H   0  0  0  0  0  0  0  0  0  0  0  0  # atno 10764 bound_to 10752
  154.5770  135.2922  155.0743 H   0  0  0  0  0  0  0  0  0  0  0  0  # atno 10765 bound_to 10752
  139.8919  134.9522  156.6534 H   0  0  0  0  0  0  0  0  0  0  0  0  # atno 11005 bound_to 11000
  144.6943  140.3351  143.7209 LP  0  0  0  0  0  0  0  0  0  0  0  0  # atno 17320 bound_to 7965
  145.7384  139.1757  143.2390 LP  0  0  0  0  0  0  0  0  0  0  0  0  # atno 17321 bound_to 7965
  140.5205  144.0886  150.6021 LP  0  0  0  0  0  0  0  0  0  0  0  0  # atno 17342 bound_to 10162
  140.3843  143.2786  152.0135 LP  0  0  0  0  0  0  0  0  0  0  0  0  # atno 17343 bound_to 10162
  157.0722  130.5868  149.5404 LP  0  0  0  0  0  0  0  0  0  0  0  0  # atno 17370 bound_to 10713
  156.0027  130.5109  150.7722 LP  0  0  0  0  0  0  0  0  0  0  0  0  # atno 17371 bound_to 10713
  140.7503  133.8903  155.8342 LP  0  0  0  0  0  0  0  0  0  0  0  0  # atno 17394 bound_to 11000
  141.0006  134.1155  157.4321 LP  0  0  0  0  0  0  0  0  0  0  0  0  # atno 17395 bound_to 11000

$$$$
