#       Name:                AV-unprocessed.smi:1538
#       Creating user name   scv26
#       Creation time:       Fri Mar 27 06:35:53 2020


#       File generated by GOLD software.
#

@<TRIPOS>MOLECULE
AV-unprocessed.smi:1538
    41    42     1
SMALL
NO_CHARGES


@<TRIPOS>ATOM
      1 ****        -4.6703   2.4925   1.6806 C.3            1 S1                 0.0000
      2 ****        -3.8531   1.4081   1.1331 N.am           1 S1                 0.0000
      3 ****        -3.2377   1.6934  -0.1688 C.3            1 S1                 0.0000
      4 ****        -2.8202   0.4279  -0.9298 C.3            1 S1                 0.0000
      5 ****        -2.0327  -0.5456  -0.0410 C.3            1 S1                 0.0000
      6 ****        -0.5950  -0.0735   0.2401 C.2            1 S1                 0.0000
      7 ****        -0.3816   0.8440   1.0330 O.2            1 S1                 0.0000
      8 ****         0.3868  -0.7178  -0.4079 N.am           1 S1                 0.0000
      9 ****         1.8028  -0.4117  -0.2629 C.3            1 S1                 0.0000
     10 ****         2.6529  -1.3609  -1.1179 C.3            1 S1                 0.0000
     11 ****         4.0818  -1.0667  -0.9944 N.pl3          1 S1                 0.0000
     12 ****         4.8265  -0.2211  -1.7757 C.2            1 S1                 0.0000
     13 ****         6.1062  -0.2612  -1.2846 C.2            1 S1                 0.0000
     14 ****         6.0877  -1.1275  -0.2244 N.pl3          1 S1                 1.0000
     15 ****         4.8555  -1.6163  -0.0492 C.2            1 S1                 0.0000
     16 ****        -2.8038  -0.8702   1.2591 C.3            1 S1                 0.0000
     17 ****        -3.6647   0.2678   1.8404 C.2            1 S1                 0.0000
     18 ****        -4.1756   0.0897   2.9465 O.2            1 S1                 0.0000
     19 ****        -4.3413   2.7604   2.6857 H              1 S1                 0.0000
     20 ****        -5.7171   2.1905   1.7332 H              1 S1                 0.0000
     21 ****        -4.6153   3.3973   1.0739 H              1 S1                 0.0000
     22 ****        -3.9296   2.2620  -0.7918 H              1 S1                 0.0000
     23 ****        -2.3738   2.3384  -0.0051 H              1 S1                 0.0000
     24 ****        -3.7142  -0.0764  -1.2994 H              1 S1                 0.0000
     25 ****        -2.2411   0.6994  -1.8134 H              1 S1                 0.0000
     26 ****        -1.9472  -1.4808  -0.5974 H              1 S1                 0.0000
     27 ****         0.1348  -1.4643  -1.0399 H              1 S1                 0.0000
     28 ****         1.9801   0.6228  -0.5617 H              1 S1                 0.0000
     29 ****         2.0859  -0.4977   0.7876 H              1 S1                 0.0000
     30 ****         2.4910  -2.3997  -0.8255 H              1 S1                 0.0000
     31 ****         2.3841  -1.2765  -2.1719 H              1 S1                 0.0000
     32 ****         4.4020   0.3325  -2.6009 H              1 S1                 0.0000
     33 ****         7.0042   0.2491  -1.6014 H              1 S1                 0.0000
     34 ****         4.5472  -2.3155   0.7077 H              1 S1                 0.0000
     35 ****        -3.4811  -1.7016   1.0605 H              1 S1                 0.0000
     36 ****        -2.1247  -1.2271   2.0355 H              1 S1                 0.0000
     37 ****         6.8891  -1.3649   0.3470 H              1 S1                 0.0000
     38 ****        -1.1456   1.2889   1.5004 LP             1 S1                 0.0000
     39 ****         0.5558   1.1444   1.2097 LP             1 S1                 0.0000
     40 ****        -4.7516   0.7998   3.3514 LP             1 S1                 0.0000
     41 ****        -4.0144  -0.7650   3.4400 LP             1 S1                 0.0000
@<TRIPOS>BOND
    1    1    2 1     
    2    1   19 1     
    3    1   20 1     
    4    1   21 1     
    5    2   17 am    
    6    2    3 1     
    7    3    4 1     
    8    3   22 1     
    9    3   23 1     
   10    4    5 1     
   11    4   24 1     
   12    4   25 1     
   13    5    6 1     
   14    5   16 1     
   15    5   26 1     
   16    6    7 2     
   17    6    8 am    
   18    8    9 1     
   19    8   27 1     
   20    9   10 1     
   21    9   28 1     
   22    9   29 1     
   23   10   11 1     
   24   10   30 1     
   25   10   31 1     
   26   11   15 1     
   27   11   12 1     
   28   12   13 2     
   29   12   32 1     
   30   13   14 1     
   31   13   33 1     
   32   14   15 2     
   33   14   37 1     
   34   15   34 1     
   35   16   17 1     
   36   16   35 1     
   37   16   36 1     
   38   17   18 2     
   39    7   38 1     
   40    7   39 1     
   41   18   40 1     
   42   18   41 1     
@<TRIPOS>SUBSTRUCTURE
      1 S1             1
@<TRIPOS>SET
LONE_PAIRS      STATIC     ATOMS    <user>   **** ""
4 38 39 40 41
DONOR_HYDROGENS      STATIC     ATOMS    <user>   **** ""
2 27 37
ATOM$BLUE        STATIC     ATOMS    COLORGROUP SYSTEM
4 38 39 40 41
ATOM$RED        STATIC     ATOMS    COLORGROUP SYSTEM
2 27 37
