#       Name:                AV-unprocessed.smi:2840
#       Creating user name   scv26
#       Creation time:       Fri Mar 27 15:38:03 2020


#       File generated by GOLD software.
#

@<TRIPOS>MOLECULE
AV-unprocessed.smi:2840
    39    40     1
SMALL
NO_CHARGES


@<TRIPOS>ATOM
      1 ****        -1.8817  -0.1960   2.3322 C.3            1 S1                 0.0000
      2 ****        -2.3749  -0.8905   1.0514 C.3            1 S1                 0.0000
      3 ****        -1.9879  -2.3838   1.0310 C.3            1 S1                 0.0000
      4 ****        -2.5373  -3.0923  -0.2173 C.3            1 S1                 0.0000
      5 ****        -2.0762  -2.3939  -1.5050 C.3            1 S1                 0.0000
      6 ****        -2.4544  -0.9024  -1.4959 C.3            1 S1                 0.0000
      7 ****        -1.9220  -0.1722  -0.2461 C.3            1 S1                 0.0000
      8 ****        -0.4642  -0.0537  -0.3269 N.am           1 S1                 0.0000
      9 ****         0.2502   1.0672  -0.1453 C.2            1 S1                 0.0000
     10 ****        -0.2478   2.1540   0.1498 O.2            1 S1                 0.0000
     11 ****         1.5624   0.8377  -0.3279 N.am           1 S1                 0.0000
     12 ****         2.6353   1.7659  -0.2568 C.ar           1 S1                 0.0000
     13 ****         3.9105   1.2296  -0.5464 C.ar           1 S1                 0.0000
     14 ****         5.0405   2.0696  -0.5101 C.ar           1 S1                 0.0000
     15 ****         4.8662   3.4260  -0.1828 C.ar           1 S1                 0.0000
     16 ****         3.5633   3.8789   0.0949 C.ar           1 S1                 0.0000
     17 ****         2.4789   3.0759   0.0596 N.ar           1 S1                 0.0000
     18 ****        -0.7979  -0.2554   2.4324 H              1 S1                 0.0000
     19 ****        -2.3187  -0.6563   3.2186 H              1 S1                 0.0000
     20 ****        -2.1606   0.8581   2.3381 H              1 S1                 0.0000
     21 ****        -3.4648  -0.8431   1.0745 H              1 S1                 0.0000
     22 ****        -0.9026  -2.4882   1.0625 H              1 S1                 0.0000
     23 ****        -2.3689  -2.8787   1.9250 H              1 S1                 0.0000
     24 ****        -2.2162  -4.1342  -0.2246 H              1 S1                 0.0000
     25 ****        -3.6273  -3.1049  -0.1795 H              1 S1                 0.0000
     26 ****        -0.9966  -2.5023  -1.6138 H              1 S1                 0.0000
     27 ****        -2.5219  -2.8834  -2.3713 H              1 S1                 0.0000
     28 ****        -2.0870  -0.4184  -2.4018 H              1 S1                 0.0000
     29 ****        -3.5410  -0.8127  -1.5260 H              1 S1                 0.0000
     30 ****        -2.3618   0.8266  -0.2489 H              1 S1                 0.0000
     31 ****         0.0390  -0.8979  -0.5570 H              1 S1                 0.0000
     32 ****         1.8227  -0.1080  -0.5649 H              1 S1                 0.0000
     33 ****         4.0264   0.1850  -0.7966 H              1 S1                 0.0000
     34 ****         6.0232   1.6794  -0.7306 H              1 S1                 0.0000
     35 ****         5.7081   4.1012  -0.1451 H              1 S1                 0.0000
     36 ****         3.3866   4.9131   0.3512 H              1 S1                 0.0000
     37 ****        -1.2376   2.2351   0.2670 LP             1 S1                 0.0000
     38 ****         0.3375   2.9555   0.2722 LP             1 S1                 0.0000
     39 ****         1.5711   3.4422   0.2642 LP             1 S1                 0.0000
@<TRIPOS>BOND
    1    1    2 1     
    2    1   18 1     
    3    1   19 1     
    4    1   20 1     
    5    2    7 1     
    6    2    3 1     
    7    2   21 1     
    8    3    4 1     
    9    3   22 1     
   10    3   23 1     
   11    4    5 1     
   12    4   24 1     
   13    4   25 1     
   14    5    6 1     
   15    5   26 1     
   16    5   27 1     
   17    6    7 1     
   18    6   28 1     
   19    6   29 1     
   20    7    8 1     
   21    7   30 1     
   22    8    9 am    
   23    8   31 1     
   24    9   10 2     
   25    9   11 am    
   26   11   12 1     
   27   11   32 1     
   28   12   17 ar    
   29   12   13 ar    
   30   13   14 ar    
   31   13   33 1     
   32   14   15 ar    
   33   14   34 1     
   34   15   16 ar    
   35   15   35 1     
   36   16   17 ar    
   37   16   36 1     
   38   10   37 1     
   39   10   38 1     
   40   17   39 1     
@<TRIPOS>SUBSTRUCTURE
      1 S1             1
@<TRIPOS>SET
LONE_PAIRS      STATIC     ATOMS    <user>   **** ""
3 37 38 39
DONOR_HYDROGENS      STATIC     ATOMS    <user>   **** ""
2 31 32
ATOM$BLUE        STATIC     ATOMS    COLORGROUP SYSTEM
3 37 38 39
ATOM$RED        STATIC     ATOMS    COLORGROUP SYSTEM
2 31 32
