AV-unprocessed.smi:2520|AV-procd|sdf|9911|dock7
  -GOLD-   2272013543D 1   1.00000     0.00000
 Structure written by MMmdl.
 41 44  0  0  0  0  0  0  0  0  1 V2000
  149.5387  136.5038  157.8652 O   0  0  0  0  0  0  0  0  0  0  0  0
  149.1618  137.4229  158.5899 C   0  0  0  0  0  0  0  0  0  0  0  0
  148.5147  137.1759  159.7484 N   0  0  0  0  0  0  0  0  0  0  0  0
  148.1349  135.9510  160.3704 C   0  0  0  0  0  0  0  0  0  0  0  0
  147.6136  136.0864  161.6749 C   0  0  0  0  0  0  0  0  0  0  0  0
  147.2237  134.9255  162.3642 C   0  0  0  0  0  0  0  0  0  0  0  0
  147.3854  133.6980  161.7000 C   0  0  0  0  0  0  0  0  0  0  0  0
  147.8935  133.6118  160.4518 N   0  0  0  0  0  0  0  0  0  0  0  0
  148.2625  134.7214  159.8036 N   0  0  0  0  0  0  0  0  0  0  0  0
  149.3666  138.7147  158.2882 N   0  0  0  0  0  0  0  0  0  0  0  0
  150.0151  139.1924  157.0734 C   0  0  2  0  0  0  0  0  0  0  0  0
  151.2613  138.3681  156.7117 C   0  0  1  0  0  0  0  0  0  0  0  0
  151.2707  137.5404  155.4558 C   0  0  0  0  0  0  0  0  0  0  0  0
  151.9387  138.4713  154.4397 C   0  0  0  0  0  0  0  0  0  0  0  0
  151.7585  139.7802  154.9768 O   0  0  0  0  0  0  0  0  0  0  0  0
  151.9380  139.6919  156.3885 C   0  0  1  0  0  0  0  0  0  0  0  0
  150.9139  140.4352  157.2729 C   0  0  0  0  0  0  0  0  0  0  0  0
  151.4063  140.7986  158.6768 C   0  0  0  0  0  0  0  0  0  0  0  0
  152.0233  142.1938  158.5720 C   0  0  0  0  0  0  0  0  0  0  0  0
  151.3094  142.8657  157.3948 C   0  0  0  0  0  0  0  0  0  0  0  0
  150.4093  141.7884  156.7794 C   0  0  0  0  0  0  0  0  0  0  0  0
  148.2970  138.0010  160.2878 H   0  0  0  0  0  0  0  0  0  0  0  0
  147.5122  137.0566  162.1393 H   0  0  0  0  0  0  0  0  0  0  0  0
  146.8165  134.9743  163.3633 H   0  0  0  0  0  0  0  0  0  0  0  0
  147.1043  132.7703  162.1761 H   0  0  0  0  0  0  0  0  0  0  0  0
  149.0298  139.4137  158.9350 H   0  0  0  0  0  0  0  0  0  0  0  0
  149.3404  139.3056  156.2216 H   0  0  0  0  0  0  0  0  0  0  0  0
  151.7160  137.8876  157.5802 H   0  0  0  0  0  0  0  0  0  0  0  0
  151.8247  136.6084  155.5710 H   0  0  0  0  0  0  0  0  0  0  0  0
  150.2553  137.2911  155.1467 H   0  0  0  0  0  0  0  0  0  0  0  0
  153.0068  138.2602  154.3716 H   0  0  0  0  0  0  0  0  0  0  0  0
  151.5090  138.3833  153.4418 H   0  0  0  0  0  0  0  0  0  0  0  0
  152.9813  139.7497  156.7023 H   0  0  0  0  0  0  0  0  0  0  0  0
  150.5725  140.8394  159.3786 H   0  0  0  0  0  0  0  0  0  0  0  0
  152.1188  140.0747  159.0735 H   0  0  0  0  0  0  0  0  0  0  0  0
  151.9161  142.7572  159.4994 H   0  0  0  0  0  0  0  0  0  0  0  0
  153.0895  142.1128  158.3565 H   0  0  0  0  0  0  0  0  0  0  0  0
  150.7238  143.7280  157.7154 H   0  0  0  0  0  0  0  0  0  0  0  0
  152.0401  143.2181  156.6658 H   0  0  0  0  0  0  0  0  0  0  0  0
  150.3915  141.8601  155.6918 H   0  0  0  0  0  0  0  0  0  0  0  0
  149.3830  141.9418  157.1158 H   0  0  0  0  0  0  0  0  0  0  0  0
  1  2  2  0  0  0  0
  2  3  1  0  0  0  0
  2 10  1  0  0  0  0
  3  4  1  0  0  0  0
  3 22  1  0  0  0  0
  4  9  1  0  0  0  0
  4  5  2  0  0  0  0
  5  6  1  0  0  0  0
  5 23  1  0  0  0  0
  6  7  2  0  0  0  0
  6 24  1  0  0  0  0
  7  8  1  0  0  0  0
  7 25  1  0  0  0  0
  8  9  2  0  0  0  0
 10 11  1  0  0  0  0
 10 26  1  0  0  0  0
 11 17  1  0  0  0  0
 11 12  1  0  0  0  0
 11 27  1  0  0  0  0
 12 16  1  0  0  0  0
 12 13  1  0  0  0  0
 12 28  1  0  0  0  0
 13 14  1  0  0  0  0
 13 29  1  0  0  0  0
 13 30  1  0  0  0  0
 14 15  1  0  0  0  0
 14 31  1  0  0  0  0
 14 32  1  0  0  0  0
 15 16  1  0  0  0  0
 16 17  1  0  0  0  0
 16 33  1  0  0  0  0
 17 21  1  0  0  0  0
 17 18  1  0  0  0  0
 18 19  1  0  0  0  0
 18 34  1  0  0  0  0
 18 35  1  0  0  0  0
 19 20  1  0  0  0  0
 19 36  1  0  0  0  0
 19 37  1  0  0  0  0
 20 21  1  0  0  0  0
 20 38  1  0  0  0  0
 20 39  1  0  0  0  0
 21 40  1  0  0  0  0
 21 41  1  0  0  0  0
M  END
> <s_m_source_file>
AV-unprocessed.smi

> <i_m_source_file_index>
2520

> <i_lp_mmshare_version>
43012

> <i_f3d_flags>
0

> <s_epik_input>
bjFuW2NIXVtjSF1bY0hdYzFbTkhdQyg9TylbTkhdW0NAQEhdMltDQEBIXShbQ0gyXVtDSDJdTzMpW0NASF0zQzI0W0NIMl1bQ0gyXVtDSDJdW0NIMl00

> <s_epik_cmdline>
J2VwaWtfcHl0aG9uJywgJy1waCcsICc3LjAnLCAnLXRuJywgJzgnLCAnLW1hJywgJzIwMCcsICctbWV0YWxfYmluZGluZycsICctaW1hZScsICc8aW5maWxlLm1hZT4nLCAnLW9tYWUnLCAnPG91dGZpbGUubWFlPic=

> <r_lp_tautomer_probability>
1

> <r_epik_Ionization_Penalty>
0.00552561

> <r_epik_Ionization_Penalty_Charging>
0

> <r_epik_Ionization_Penalty_Neutral>
0.00552561

> <r_epik_State_Penalty>
-0

> <r_epik_Charging_Adjusted_Penalty>
0

> <i_epik_Tot_Q>
0

> <i_epik_Tot_abs_Q>
0

> <r_epik_Metal_State_Penalty>
-0

> <b_epik_Metal_Only>
0

> <s_lp_Force_Field>
OPLS_2005

> <r_lp_Energy>
61.2745

> <b_lp_Chiralities_Consistent>
1

> <s_lp_Variant>
AV-unprocessed.smi:2520-5

> <Gold.Version>
5.8.1

> <Gold.Id.Protein>
6NUR|6NUR_protein|mol2

> <Gold.PLP.Fitness>
38.6228

> <Gold.PLP.PLP>
-35.1757

> <Gold.PLP.part.hbond>
-1.5349

> <Gold.PLP.part.metal>
0.0000

> <Gold.PLP.part.buried>
-6.5985

> <Gold.PLP.part.nonpolar>
-27.9775

> <Gold.PLP.part.repulsive>
0.7073

> <Gold.PLP.ligand.clash>
0.0000

> <Gold.PLP.ligand.torsion>
0.2904

> <Gold.PLP.Chemscore.Hbond>
1.2808

> <Gold.PLP.Chemscore.CHOScore>
0.0000

> <Gold.PLP.Chemscore.Metal>
0.0000

> <Gold.Chemscore.Hbonds>
donor molecule, donor type, donor heavy atom, donor atom, acceptor molecule, acceptor atom, score
      P1  H  6896  6909       L1     9  0.07
      P1  H  7989  7998       L1    15  1.00

> <Gold.PLP.Chemscore.Internal.Correction>
0.1855

> <Gold.Rescore>
     Score         DG    S(hbond)    S(metal)    S(lipo)     H(rot)  DE(clash)    DE(int)     intcor
     14.13     -17.11       1.13        0.00      88.92       1.00       0.04       2.94       ----

> <Gold.Chemscore.Fitness>
14.1332

> <Gold.Chemscore.DG>
-17.1073

> <Gold.Chemscore.ZeroCoef>
-5.4800

> <Gold.Chemscore.Hbond>
1.1329

> <Gold.Chemscore.Metal>
0.0000

> <Gold.Chemscore.Lipo>
88.9176

> <Gold.Chemscore.Internal_Hbond>
0.0000

> <Gold.Chemscore.DEClash>
0.0381

> <Gold.Chemscore.DEInternal>
2.9360

> <Gold.Chemscore.Rot>
1.0000

> <Gold.Chemscore.Internal.Correction>
   9.000000E+99

> <Gold.Chemscore.Hbonds>
donor molecule, donor type, donor heavy atom, donor atom, acceptor molecule, acceptor atom, score
      P1  H  6896  6909       L1     9  0.02
      P1  H  7989  7998       L1    15  0.43

> <Gold.Chemscore.Hbond.Weighted>
-3.7839

> <Gold.Chemscore.Metal.Weighted>
-0.0000

> <Gold.Chemscore.Lipo.Weighted>
-10.4034

> <Gold.Chemscore.Internal_Hbond.Weighted>
0.0000

> <Gold.Chemscore.DEClash.Weighted>
0.0381

> <Gold.Chemscore.DEInternal.Weighted>
2.9360

> <Gold.Chemscore.Rot.Weighted>
2.5600

> <Gold.Chemscore.Internal.Correction.Weighted>
   9.000000E+99

> <Gold.Protein.RotatedTorsions>
[ 6907 6896 6895 6894 ] final   40.48 input  -60.11 | X-H torsion
[ 7974 7965 7964 7962 ] final  168.05 input  175.53 | X-H torsion
[ 8008 7997 7996 7995 ] final   -8.88 input   59.86 | X-H torsion
[ 10167 10162 10161 10158 ] final  -93.47 input  -65.29 | X-H torsion
[ 10718 10713 10712 10709 ] final  116.95 input   66.30 | X-H torsion
[ 10763 10752 10751 10750 ] final   84.61 input  -60.55 | X-H torsion
[ 11005 11000 10999 10996 ] final -172.75 input  -57.11 | X-H torsion

> <Gold.Protein.ActiveResidues>
 VAL166  LYS551  ARG553  GLY616  TRP617  ASP618  TYR619  PRO620  LYS621  CYS622 
 ASP623  PHE694  ASN695  SER759  ASP760  ASP761  ALA762  ILE779  LEU786  VAL792 
 PHE793  MET794  SER795  GLU796  ALA797  LYS798  CYS799  TRP800  GLU811  SER814 

> <Gold.Protein.RotatedAtoms>
  152.1830  134.8738  160.0524 H   0  0  0  0  0  0  0  0  0  0  0  0  # atno 6907 bound_to 6896
  151.9655  133.3704  159.4059 H   0  0  0  0  0  0  0  0  0  0  0  0  # atno 6908 bound_to 6896
  150.6921  134.4119  159.5209 H   0  0  0  0  0  0  0  0  0  0  0  0  # atno 6909 bound_to 6896
  144.7402  139.8850  143.6399 H   0  0  0  0  0  0  0  0  0  0  0  0  # atno 7974 bound_to 7965
  154.5699  140.2369  155.8207 H   0  0  0  0  0  0  0  0  0  0  0  0  # atno 8008 bound_to 7997
  156.2099  140.3029  155.9666 H   0  0  0  0  0  0  0  0  0  0  0  0  # atno 8009 bound_to 7997
  155.2731  140.0419  157.2999 H   0  0  0  0  0  0  0  0  0  0  0  0  # atno 8010 bound_to 7997
  140.3243  143.3031  152.0012 H   0  0  0  0  0  0  0  0  0  0  0  0  # atno 10167 bound_to 10162
  157.6128  131.1031  150.7546 H   0  0  0  0  0  0  0  0  0  0  0  0  # atno 10718 bound_to 10713
  153.1397  135.4648  154.9477 H   0  0  0  0  0  0  0  0  0  0  0  0  # atno 10763 bound_to 10752
  154.7737  135.3166  154.8140 H   0  0  0  0  0  0  0  0  0  0  0  0  # atno 10764 bound_to 10752
  153.8665  135.6907  153.4832 H   0  0  0  0  0  0  0  0  0  0  0  0  # atno 10765 bound_to 10752
  140.4935  134.5962  157.4963 H   0  0  0  0  0  0  0  0  0  0  0  0  # atno 11005 bound_to 11000
  146.1184  139.4198  143.0244 LP  0  0  0  0  0  0  0  0  0  0  0  0  # atno 17320 bound_to 7965
  145.7341  141.0032  143.1336 LP  0  0  0  0  0  0  0  0  0  0  0  0  # atno 17321 bound_to 7965
  139.4868  144.6286  151.7115 LP  0  0  0  0  0  0  0  0  0  0  0  0  # atno 17342 bound_to 10162
  140.5455  144.0510  150.6105 LP  0  0  0  0  0  0  0  0  0  0  0  0  # atno 17343 bound_to 10162
  156.7920  130.4893  149.5383 LP  0  0  0  0  0  0  0  0  0  0  0  0  # atno 17370 bound_to 10713
  156.1237  130.6128  151.0232 LP  0  0  0  0  0  0  0  0  0  0  0  0  # atno 17371 bound_to 10713
  139.9755  134.7222  155.9958 LP  0  0  0  0  0  0  0  0  0  0  0  0  # atno 17394 bound_to 11000
  141.1472  133.6554  156.3903 LP  0  0  0  0  0  0  0  0  0  0  0  0  # atno 17395 bound_to 11000

$$$$
