#       Name:                AV-unprocessed.smi:1433
#       Creating user name   scv26
#       Creation time:       Fri Mar 27 05:51:16 2020


#       File generated by GOLD software.
#

@<TRIPOS>MOLECULE
AV-unprocessed.smi:1433
    50    51     1
SMALL
NO_CHARGES


@<TRIPOS>ATOM
      1 ****        -0.4171  -1.6377  -4.2271 C.3            1 S1                 0.0000
      2 ****        -0.9972  -2.1884  -2.9118 C.3            1 S1                 0.0000
      3 ****        -0.4326  -1.4996  -1.6526 C.3            1 S1                 0.0000
      4 ****        -0.9938  -0.1323  -1.4763 N.4            1 S1                 1.0000
      5 ****        -0.4744   0.6523  -0.3089 C.3            1 S1                 0.0000
      6 ****        -0.5856   2.1634  -0.6084 C.3            1 S1                 0.0000
      7 ****         0.9775   0.2870   0.1115 C.3            1 S1                 0.0000
      8 ****         1.4579   1.0606   1.2529 N.am           1 S1                 0.0000
      9 ****         1.0743   0.8765   2.5259 C.2            1 S1                 0.0000
     10 ****         0.2465   0.0325   2.8691 O.2            1 S1                 0.0000
     11 ****         1.7275   1.7773   3.5743 C.3            1 S1                 0.0000
     12 ****         2.8559   1.1109   4.1978 N.pl3          1 S1                 0.0000
     13 ****         2.8594   0.2859   5.3034 C.2            1 S1                 0.0000
     14 ****         4.1496  -0.1101   5.5108 C.2            1 S1                 0.0000
     15 ****         4.8722   0.5309   4.4659 C.2            1 S1                 0.0000
     16 ****         4.0955   1.2602   3.6807 N.2            1 S1                 0.0000
     17 ****        -2.4785  -0.2018  -1.4909 C.3            1 S1                 0.0000
     18 ****        -2.9890  -0.8617  -2.7830 C.3            1 S1                 0.0000
     19 ****        -4.5142  -1.0138  -2.7861 C.3            1 S1                 0.0000
     20 ****        -2.4226  -2.1620  -2.9000 O.3            1 S1                 0.0000
     21 ****         0.6596  -1.8027  -4.2736 H              1 S1                 0.0000
     22 ****        -0.5840  -0.5667  -4.3390 H              1 S1                 0.0000
     23 ****        -0.8632  -2.1377  -5.0872 H              1 S1                 0.0000
     24 ****        -0.7174  -3.2414  -2.8649 H              1 S1                 0.0000
     25 ****        -0.6670  -2.0971  -0.7700 H              1 S1                 0.0000
     26 ****         0.6527  -1.4722  -1.7464 H              1 S1                 0.0000
     27 ****        -1.1181   0.4261   0.5426 H              1 S1                 0.0000
     28 ****        -0.2875   2.7683   0.2478 H              1 S1                 0.0000
     29 ****        -1.6026   2.4654  -0.8544 H              1 S1                 0.0000
     30 ****         0.0518   2.4444  -1.4476 H              1 S1                 0.0000
     31 ****         1.0612  -0.7675   0.3780 H              1 S1                 0.0000
     32 ****         1.6641   0.4583  -0.7184 H              1 S1                 0.0000
     33 ****         2.1495   1.7729   1.0657 H              1 S1                 0.0000
     34 ****         2.0602   2.7155   3.1264 H              1 S1                 0.0000
     35 ****         0.9987   2.0316   4.3450 H              1 S1                 0.0000
     36 ****         1.9531   0.0516   5.8424 H              1 S1                 0.0000
     37 ****         4.5209  -0.7595   6.2896 H              1 S1                 0.0000
     38 ****         5.9308   0.4875   4.2557 H              1 S1                 0.0000
     39 ****        -2.8220  -0.7668  -0.6224 H              1 S1                 0.0000
     40 ****        -2.9131   0.7932  -1.4082 H              1 S1                 0.0000
     41 ****        -2.7088  -0.2535  -3.6431 H              1 S1                 0.0000
     42 ****        -5.0066  -0.0445  -2.7050 H              1 S1                 0.0000
     43 ****        -4.8519  -1.6314  -1.9531 H              1 S1                 0.0000
     44 ****        -4.8572  -1.4838  -3.7082 H              1 S1                 0.0000
     45 ****        -0.7157   0.3814  -2.3004 H              1 S1                 0.0000
     46 ****        -0.1774  -0.5597   2.1838 LP             1 S1                 0.0000
     47 ****        -0.0020  -0.0610   3.8332 LP             1 S1                 0.0000
     48 ****         4.3654   1.8004   2.8837 LP             1 S1                 0.0000
     49 ****        -2.7385  -2.7109  -2.1261 LP             1 S1                 0.0000
     50 ****        -2.7494  -2.5692  -3.7528 LP             1 S1                 0.0000
@<TRIPOS>BOND
    1    1    2 1     
    2    1   21 1     
    3    1   22 1     
    4    1   23 1     
    5    2   20 1     
    6    2    3 1     
    7    2   24 1     
    8    3    4 1     
    9    3   25 1     
   10    3   26 1     
   11    4    5 1     
   12    4   17 1     
   13    4   45 1     
   14    5    6 1     
   15    5    7 1     
   16    5   27 1     
   17    6   28 1     
   18    6   29 1     
   19    6   30 1     
   20    7    8 1     
   21    7   31 1     
   22    7   32 1     
   23    8    9 am    
   24    8   33 1     
   25    9   10 2     
   26    9   11 1     
   27   11   12 1     
   28   11   34 1     
   29   11   35 1     
   30   12   16 1     
   31   12   13 1     
   32   13   14 2     
   33   13   36 1     
   34   14   15 1     
   35   14   37 1     
   36   15   16 2     
   37   15   38 1     
   38   17   18 1     
   39   17   39 1     
   40   17   40 1     
   41   18   19 1     
   42   18   20 1     
   43   18   41 1     
   44   19   42 1     
   45   19   43 1     
   46   19   44 1     
   47   10   46 1     
   48   10   47 1     
   49   16   48 1     
   50   20   49 1     
   51   20   50 1     
@<TRIPOS>SUBSTRUCTURE
      1 S1             1
@<TRIPOS>SET
LONE_PAIRS      STATIC     ATOMS    <user>   **** ""
5 46 47 48 49 50
DONOR_HYDROGENS      STATIC     ATOMS    <user>   **** ""
2 45 33
ATOM$BLUE        STATIC     ATOMS    COLORGROUP SYSTEM
5 46 47 48 49 50
ATOM$RED        STATIC     ATOMS    COLORGROUP SYSTEM
2 45 33
