AV-unprocessed.smi:1286|AV-procd|sdf|5377|dock1
  -GOLD-   22720 4523D 1   1.00000     0.00000
 Structure written by MMmdl.
 36 37  0  0  0  0  0  0  0  0  1 V2000
  151.6184  139.3758  156.3014 C   0  0  0  0  0  0  0  0  0  0  0  0
  150.5461  140.4197  155.9527 C   0  0  2  0  0  0  0  0  0  0  0  0
  150.1205  140.3190  154.4750 C   0  0  0  0  0  0  0  0  0  0  0  0
  148.7763  140.8205  154.2499 N   0  0  0  0  0  0  0  0  0  0  0  0
  148.2701  142.0725  154.5299 C   0  0  0  0  0  0  0  0  0  0  0  0
  146.9583  142.0740  154.1511 C   0  0  0  0  0  0  0  0  0  0  0  0
  146.7520  140.7611  153.6423 C   0  0  0  0  0  0  0  0  0  0  0  0
  147.8423  140.0136  153.7018 N   0  0  0  0  0  0  0  0  0  0  0  0
  151.0481  141.7623  156.2378 N   0  0  0  0  0  0  0  0  0  0  0  0
  151.0633  142.3494  157.4444 C   0  0  0  0  0  0  0  0  0  0  0  0
  150.6539  141.8033  158.4689 O   0  0  0  0  0  0  0  0  0  0  0  0
  151.6264  143.7738  157.5002 C   0  0  0  0  0  0  0  0  0  0  0  0
  152.5579  144.0270  158.7059 C   0  0  1  0  0  0  0  0  0  0  0  0
  151.8706  144.6982  159.8709 C   0  0  0  0  0  0  0  0  0  0  0  0
  152.0040  144.0198  161.0082 C   0  0  0  0  0  0  0  0  0  0  0  0
  152.8035  142.7584  160.8361 C   0  0  0  0  0  0  0  0  0  0  0  0
  153.1202  142.7209  159.3239 C   0  0  0  0  0  0  0  0  0  0  0  0
  151.2570  138.3651  156.1103 H   0  0  0  0  0  0  0  0  0  0  0  0
  151.8950  139.4299  157.3549 H   0  0  0  0  0  0  0  0  0  0  0  0
  152.5234  139.5231  155.7110 H   0  0  0  0  0  0  0  0  0  0  0  0
  149.6689  140.2227  156.5722 H   0  0  0  0  0  0  0  0  0  0  0  0
  150.8118  140.8715  153.8367 H   0  0  0  0  0  0  0  0  0  0  0  0
  150.1548  139.2803  154.1429 H   0  0  0  0  0  0  0  0  0  0  0  0
  148.8776  142.8476  154.9733 H   0  0  0  0  0  0  0  0  0  0  0  0
  146.2532  142.8884  154.2263 H   0  0  0  0  0  0  0  0  0  0  0  0
  145.8487  140.3321  153.2341 H   0  0  0  0  0  0  0  0  0  0  0  0
  151.4065  142.2885  155.4542 H   0  0  0  0  0  0  0  0  0  0  0  0
  152.1598  143.9912  156.5729 H   0  0  0  0  0  0  0  0  0  0  0  0
  150.7838  144.4652  157.5382 H   0  0  0  0  0  0  0  0  0  0  0  0
  153.3884  144.6663  158.4017 H   0  0  0  0  0  0  0  0  0  0  0  0
  151.3464  145.6374  159.7696 H   0  0  0  0  0  0  0  0  0  0  0  0
  151.6026  144.3219  161.9644 H   0  0  0  0  0  0  0  0  0  0  0  0
  153.7113  142.8065  161.4381 H   0  0  0  0  0  0  0  0  0  0  0  0
  152.2213  141.8916  161.1500 H   0  0  0  0  0  0  0  0  0  0  0  0
  152.6601  141.8414  158.8715 H   0  0  0  0  0  0  0  0  0  0  0  0
  154.1943  142.6396  159.1517 H   0  0  0  0  0  0  0  0  0  0  0  0
  1  2  1  0  0  0  0
  1 18  1  0  0  0  0
  1 19  1  0  0  0  0
  1 20  1  0  0  0  0
  2  3  1  0  0  0  0
  2  9  1  0  0  0  0
  2 21  1  0  0  0  0
  3  4  1  0  0  0  0
  3 22  1  0  0  0  0
  3 23  1  0  0  0  0
  4  8  1  0  0  0  0
  4  5  1  0  0  0  0
  5  6  2  0  0  0  0
  5 24  1  0  0  0  0
  6  7  1  0  0  0  0
  6 25  1  0  0  0  0
  7  8  2  0  0  0  0
  7 26  1  0  0  0  0
  9 10  1  0  0  0  0
  9 27  1  0  0  0  0
 10 11  2  0  0  0  0
 10 12  1  0  0  0  0
 12 13  1  0  0  0  0
 12 28  1  0  0  0  0
 12 29  1  0  0  0  0
 13 17  1  0  0  0  0
 13 14  1  0  0  0  0
 13 30  1  0  0  0  0
 14 15  2  0  0  0  0
 14 31  1  0  0  0  0
 15 16  1  0  0  0  0
 15 32  1  0  0  0  0
 16 17  1  0  0  0  0
 16 33  1  0  0  0  0
 16 34  1  0  0  0  0
 17 35  1  0  0  0  0
 17 36  1  0  0  0  0
M  END
> <s_m_source_file>
AV-unprocessed.smi

> <i_m_source_file_index>
1286

> <i_lp_mmshare_version>
43012

> <i_f3d_flags>
0

> <s_epik_input>
bjFbY0hdW2NIXVtjSF1uMVtDSDJdW0NAQEhdKFtDSDNdKVtOSF1DKD1PKVtDSDJdW0NAQEhdMltDSF09W0NIXVtDSDJdW0NIMl0y

> <s_epik_cmdline>
J2VwaWtfcHl0aG9uJywgJy1waCcsICc3LjAnLCAnLXRuJywgJzgnLCAnLW1hJywgJzIwMCcsICctbWV0YWxfYmluZGluZycsICctaW1hZScsICc8aW5maWxlLm1hZT4nLCAnLW9tYWUnLCAnPG91dGZpbGUubWFlPic=

> <r_lp_tautomer_probability>
1

> <r_epik_Ionization_Penalty>
0.000301761

> <r_epik_Ionization_Penalty_Charging>
0

> <r_epik_Ionization_Penalty_Neutral>
0.000301761

> <r_epik_State_Penalty>
-0

> <r_epik_Charging_Adjusted_Penalty>
0

> <i_epik_Tot_Q>
0

> <i_epik_Tot_abs_Q>
0

> <r_epik_Metal_State_Penalty>
-0

> <b_epik_Metal_Only>
0

> <s_lp_Force_Field>
OPLS_2005

> <r_lp_Energy>
17.4811

> <b_lp_Chiralities_Consistent>
1

> <s_lp_Variant>
AV-unprocessed.smi:1286-3

> <Gold.Version>
5.8.1

> <Gold.Id.Protein>
6NUR|6NUR_protein|mol2

> <Gold.PLP.Fitness>
46.2524

> <Gold.PLP.PLP>
-42.9846

> <Gold.PLP.part.hbond>
0.0000

> <Gold.PLP.part.metal>
0.0000

> <Gold.PLP.part.buried>
-0.8766

> <Gold.PLP.part.nonpolar>
-43.1026

> <Gold.PLP.part.repulsive>
0.3276

> <Gold.PLP.ligand.clash>
0.0000

> <Gold.PLP.ligand.torsion>
1.3763

> <Gold.PLP.Chemscore.Hbond>
0.0000

> <Gold.PLP.Chemscore.CHOScore>
2.0000

> <Gold.PLP.Chemscore.Metal>
0.0000

> <Gold.Chemscore.Hbonds>
donor molecule, donor type, donor heavy atom, donor atom, acceptor molecule, acceptor atom, score
      L1  C     5    24       P1  8028  0.87
      L1  C     7    26       P1 10175  1.00

> <Gold.PLP.Chemscore.Internal.Correction>
0.0204

> <Gold.Rescore>
     Score         DG    S(hbond)    S(metal)    S(lipo)     H(rot)  DE(clash)    DE(int)     intcor
     11.79     -14.84       0.00        0.00     115.87       1.64       1.76       1.29       ----

> <Gold.Chemscore.Fitness>
11.7915

> <Gold.Chemscore.DG>
-14.8400

> <Gold.Chemscore.ZeroCoef>
-5.4800

> <Gold.Chemscore.Hbond>
0.0000

> <Gold.Chemscore.Metal>
0.0000

> <Gold.Chemscore.Lipo>
115.8709

> <Gold.Chemscore.Internal_Hbond>
0.0000

> <Gold.Chemscore.DEClash>
1.7593

> <Gold.Chemscore.DEInternal>
1.2892

> <Gold.Chemscore.Rot>
1.6394

> <Gold.Chemscore.Internal.Correction>
   9.000000E+99

> <Gold.Chemscore.Hbond.Weighted>
-0.0000

> <Gold.Chemscore.Metal.Weighted>
-0.0000

> <Gold.Chemscore.Lipo.Weighted>
-13.5569

> <Gold.Chemscore.Internal_Hbond.Weighted>
0.0000

> <Gold.Chemscore.DEClash.Weighted>
1.7593

> <Gold.Chemscore.DEInternal.Weighted>
1.2892

> <Gold.Chemscore.Rot.Weighted>
4.1969

> <Gold.Chemscore.Internal.Correction.Weighted>
   9.000000E+99

> <Gold.Protein.RotatedTorsions>
[ 6907 6896 6895 6894 ] final   48.29 input  -60.11 | X-H torsion
[ 7974 7965 7964 7962 ] final -173.05 input  175.53 | X-H torsion
[ 8008 7997 7996 7995 ] final  -46.49 input   59.86 | X-H torsion
[ 10167 10162 10161 10158 ] final -132.28 input  -65.29 | X-H torsion
[ 10718 10713 10712 10709 ] final   97.91 input   66.30 | X-H torsion
[ 10763 10752 10751 10750 ] final -176.70 input  -60.55 | X-H torsion
[ 11005 11000 10999 10996 ] final   38.98 input  -57.11 | X-H torsion

> <Gold.Protein.ActiveResidues>
 VAL166  LYS551  ARG553  GLY616  TRP617  ASP618  TYR619  PRO620  LYS621  CYS622 
 ASP623  PHE694  ASN695  SER759  ASP760  ASP761  ALA762  ILE779  LEU786  VAL792 
 PHE793  MET794  SER795  GLU796  ALA797  LYS798  CYS799  TRP800  GLU811  SER814 

> <Gold.Protein.RotatedAtoms>
  152.2778  134.7862  160.0402 H   0  0  0  0  0  0  0  0  0  0  0  0  # atno 6907 bound_to 6896
  151.8452  133.3425  159.3664 H   0  0  0  0  0  0  0  0  0  0  0  0  # atno 6908 bound_to 6896
  150.7177  134.5280  159.5731 H   0  0  0  0  0  0  0  0  0  0  0  0  # atno 6909 bound_to 6896
  144.7141  140.1680  143.6370 H   0  0  0  0  0  0  0  0  0  0  0  0  # atno 7974 bound_to 7965
  154.4008  140.1370  156.4020 H   0  0  0  0  0  0  0  0  0  0  0  0  # atno 8008 bound_to 7997
  155.7815  140.3481  155.5279 H   0  0  0  0  0  0  0  0  0  0  0  0  # atno 8009 bound_to 7997
  155.8669  140.0965  157.1566 H   0  0  0  0  0  0  0  0  0  0  0  0  # atno 8010 bound_to 7997
  139.9102  143.6503  152.2577 H   0  0  0  0  0  0  0  0  0  0  0  0  # atno 10167 bound_to 10162
  157.6904  131.0624  150.4716 H   0  0  0  0  0  0  0  0  0  0  0  0  # atno 10718 bound_to 10713
  154.5692  135.2826  155.0844 H   0  0  0  0  0  0  0  0  0  0  0  0  # atno 10763 bound_to 10752
  154.2223  135.6389  153.5152 H   0  0  0  0  0  0  0  0  0  0  0  0  # atno 10764 bound_to 10752
  153.0052  135.5517  154.6310 H   0  0  0  0  0  0  0  0  0  0  0  0  # atno 10765 bound_to 10752
  140.2072  134.3798  155.8066 H   0  0  0  0  0  0  0  0  0  0  0  0  # atno 11005 bound_to 11000
  145.8969  139.2408  143.1516 LP  0  0  0  0  0  0  0  0  0  0  0  0  # atno 17320 bound_to 7965
  145.9848  140.8652  143.0096 LP  0  0  0  0  0  0  0  0  0  0  0  0  # atno 17321 bound_to 7965
  139.6949  144.7642  151.1373 LP  0  0  0  0  0  0  0  0  0  0  0  0  # atno 17342 bound_to 10162
  140.7687  143.5537  150.9176 LP  0  0  0  0  0  0  0  0  0  0  0  0  # atno 17343 bound_to 10162
  156.5054  130.4127  149.6330 LP  0  0  0  0  0  0  0  0  0  0  0  0  # atno 17370 bound_to 10713
  156.3290  130.7321  151.2247 LP  0  0  0  0  0  0  0  0  0  0  0  0  # atno 17371 bound_to 10713
  141.2227  133.7124  156.8358 LP  0  0  0  0  0  0  0  0  0  0  0  0  # atno 17394 bound_to 11000
  140.1989  134.8911  157.3147 LP  0  0  0  0  0  0  0  0  0  0  0  0  # atno 17395 bound_to 11000

$$$$
