AV-unprocessed.smi:34|AV-procd|sdf|231|dock2
  -GOLD-   2262015563D 1   1.00000     0.00000
 Structure written by MMmdl.
 54 58  0  0  0  0  0  0  0  0  2 V2000
  152.1440  139.2549  158.6985 O   0  0  0  0  0  0  0  0  0  0  0  0
  152.2267  140.2497  157.9750 C   0  0  0  0  0  0  0  0  0  0  0  0
  152.4199  140.2907  156.6325 N   0  5  0  0  0  0  0  0  0  0  0  0
  151.5142  139.7434  155.8079 C   0  0  0  0  0  0  0  0  0  0  0  0
  151.9119  139.0730  154.6962 N   0  0  0  0  0  0  0  0  0  0  0  0
  151.0061  138.5373  153.8693 C   0  0  0  0  0  0  0  0  0  0  0  0
  149.6721  138.5585  153.9556 N   0  0  0  0  0  0  0  0  0  0  0  0
  149.2605  139.2389  155.0648 C   0  0  0  0  0  0  0  0  0  0  0  0
  150.1138  139.8529  156.0269 C   0  0  0  0  0  0  0  0  0  0  0  0
  149.3694  140.4603  157.0265 N   0  0  0  0  0  0  0  0  0  0  0  0
  148.1254  140.1955  156.6336 C   0  0  0  0  0  0  0  0  0  0  0  0
  147.9688  139.4853  155.4960 N   0  0  0  0  0  0  0  0  0  0  0  0
  146.7103  139.0487  154.8139 C   0  0  2  0  0  0  0  0  0  0  0  0
  146.4062  137.7569  155.2553 O   0  0  0  0  0  0  0  0  0  0  0  0
  146.7071  136.8155  154.2290 C   0  0  1  0  0  0  0  0  0  0  0  0
  145.9167  135.5174  154.4299 C   0  0  0  0  0  0  0  0  0  0  0  0
  145.5647  135.0006  153.1572 O   0  0  0  0  0  0  0  0  0  0  0  0
  146.4943  134.4058  152.3864 C   0  0  0  0  0  0  0  0  0  0  0  0
  147.6877  134.3385  152.6867 O   0  0  0  0  0  0  0  0  0  0  0  0
  145.9264  133.8354  151.1306 C   0  0  0  0  0  0  0  0  0  0  0  0
  144.5403  133.5634  151.0569 C   0  0  0  0  0  0  0  0  0  0  0  0
  143.9768  133.0211  149.8855 C   0  0  0  0  0  0  0  0  0  0  0  0
  144.7925  132.7435  148.7733 C   0  0  0  0  0  0  0  0  0  0  0  0
  146.1729  133.0093  148.8339 C   0  0  0  0  0  0  0  0  0  0  0  0
  146.7381  133.5519  150.0043 C   0  0  0  0  0  0  0  0  0  0  0  0
  146.3498  137.5963  152.9671 C   0  0  1  0  0  0  0  0  0  0  0  0
  145.0189  137.6497  152.8546 F   0  0  0  0  0  0  0  0  0  0  0  0
  146.9228  138.9684  153.2929 C   0  0  1  0  0  0  0  0  0  0  0  0
  146.2512  139.9807  152.5712 O   0  0  0  0  0  0  0  0  0  0  0  0
  152.1770  141.6139  158.6082 C   0  0  0  0  0  0  0  0  0  0  0  0
  152.7196  141.8077  159.8990 C   0  0  0  0  0  0  0  0  0  0  0  0
  152.6608  143.0713  160.5184 C   0  0  0  0  0  0  0  0  0  0  0  0
  152.0490  144.1529  159.8577 C   0  0  0  0  0  0  0  0  0  0  0  0
  151.4924  143.9688  158.5782 C   0  0  0  0  0  0  0  0  0  0  0  0
  151.5519  142.7057  157.9576 C   0  0  0  0  0  0  0  0  0  0  0  0
  151.4091  138.0185  153.0123 H   0  0  0  0  0  0  0  0  0  0  0  0
  147.2850  140.5445  157.2125 H   0  0  0  0  0  0  0  0  0  0  0  0
  145.9371  139.7498  155.1304 H   0  0  0  0  0  0  0  0  0  0  0  0
  147.7754  136.5980  154.2210 H   0  0  0  0  0  0  0  0  0  0  0  0
  146.5040  134.7882  154.9898 H   0  0  0  0  0  0  0  0  0  0  0  0
  145.0078  135.7199  154.9981 H   0  0  0  0  0  0  0  0  0  0  0  0
  143.8937  133.7674  151.8982 H   0  0  0  0  0  0  0  0  0  0  0  0
  142.9173  132.8169  149.8411 H   0  0  0  0  0  0  0  0  0  0  0  0
  144.3603  132.3268  147.8755 H   0  0  0  0  0  0  0  0  0  0  0  0
  146.8006  132.7953  147.9817 H   0  0  0  0  0  0  0  0  0  0  0  0
  147.8016  133.7408  150.0174 H   0  0  0  0  0  0  0  0  0  0  0  0
  146.7518  137.1604  152.0522 H   0  0  0  0  0  0  0  0  0  0  0  0
  147.9892  138.9912  153.0621 H   0  0  0  0  0  0  0  0  0  0  0  0
  145.3203  139.8502  152.6700 H   0  0  0  0  0  0  0  0  0  0  0  0
  153.1908  140.9871  160.4205 H   0  0  0  0  0  0  0  0  0  0  0  0
  153.0842  143.2096  161.5021 H   0  0  0  0  0  0  0  0  0  0  0  0
  152.0031  145.1214  160.3332 H   0  0  0  0  0  0  0  0  0  0  0  0
  151.0165  144.7957  158.0722 H   0  0  0  0  0  0  0  0  0  0  0  0
  151.1095  142.5830  156.9795 H   0  0  0  0  0  0  0  0  0  0  0  0
  1  2  2  0  0  0  0
  2  3  1  0  0  0  0
  2 30  1  0  0  0  0
  3  4  1  0  0  0  0
  4  9  1  0  0  0  0
  4  5  2  0  0  0  0
  5  6  1  0  0  0  0
  6  7  2  0  0  0  0
  6 36  1  0  0  0  0
  7  8  1  0  0  0  0
  8 12  1  0  0  0  0
  8  9  2  0  0  0  0
  9 10  1  0  0  0  0
 10 11  2  0  0  0  0
 11 12  1  0  0  0  0
 11 37  1  0  0  0  0
 12 13  1  0  0  0  0
 13 28  1  0  0  0  0
 13 14  1  0  0  0  0
 13 38  1  0  0  0  0
 14 15  1  0  0  0  0
 15 16  1  0  0  0  0
 15 26  1  0  0  0  0
 15 39  1  0  0  0  0
 16 17  1  0  0  0  0
 16 40  1  0  0  0  0
 16 41  1  0  0  0  0
 17 18  1  0  0  0  0
 18 19  2  0  0  0  0
 18 20  1  0  0  0  0
 20 25  1  0  0  0  0
 20 21  2  0  0  0  0
 21 22  1  0  0  0  0
 21 42  1  0  0  0  0
 22 23  2  0  0  0  0
 22 43  1  0  0  0  0
 23 24  1  0  0  0  0
 23 44  1  0  0  0  0
 24 25  2  0  0  0  0
 24 45  1  0  0  0  0
 25 46  1  0  0  0  0
 26 27  1  0  0  0  0
 26 28  1  0  0  0  0
 26 47  1  0  0  0  0
 28 29  1  0  0  0  0
 28 48  1  0  0  0  0
 29 49  1  0  0  0  0
 30 35  1  0  0  0  0
 30 31  2  0  0  0  0
 31 32  1  0  0  0  0
 31 50  1  0  0  0  0
 32 33  2  0  0  0  0
 32 51  1  0  0  0  0
 33 34  1  0  0  0  0
 33 52  1  0  0  0  0
 34 35  2  0  0  0  0
 34 53  1  0  0  0  0
 35 54  1  0  0  0  0
M  CHG  1   3  -1
M  END
> <s_m_source_file>
AV-unprocessed.smi

> <i_m_source_file_index>
34

> <i_lp_mmshare_version>
43012

> <i_f3d_flags>
0

> <s_epik_input>
W2NIXTFbY0hdW2NIXVtjSF1bY0hdYzFDKD1PKVtOSF1jKG5bY0hdbjIpYyhjMjMpbltjSF1uM1tDQEBIXTRPW0NASF0oW0NAQEhdKEYpW0NASF00W09IXSlbQ0gyXU9DKD1PKWM1W2NIXVtjSF1bY0hdW2NIXVtjSF01

> <s_epik_cmdline>
J2VwaWtfcHl0aG9uJywgJy1waCcsICc3LjAnLCAnLXRuJywgJzgnLCAnLW1hJywgJzIwMCcsICctbWV0YWxfYmluZGluZycsICctaW1hZScsICc8aW5maWxlLm1hZT4nLCAnLW9tYWUnLCAnPG91dGZpbGUubWFlPic=

> <r_lp_tautomer_probability>
1

> <r_epik_Ionization_Penalty>
4.33227

> <r_epik_Ionization_Penalty_Charging>
3.41027

> <r_epik_Ionization_Penalty_Neutral>
0.922001

> <r_epik_State_Penalty>
3.41358

> <r_epik_Charging_Adjusted_Penalty>
6.82385

> <i_epik_Tot_Q>
-1

> <i_epik_Tot_abs_Q>
1

> <r_epik_Metal_State_Penalty>
0.496292

> <b_epik_Metal_Only>
1

> <s_epik_Chemistry_Notes>
This compound has an ester and may undergo hydrolysis at high or low pH. This compound contains an acetal/aminal-like group ( X-CH(R)-Y where X, Y are N, S, or O) that may be acid/base labile, releasing an aldehyde.

> <s_lp_Force_Field>
OPLS_2005

> <r_lp_Energy>
43.1366

> <b_lp_Chiralities_Consistent>
1

> <s_lp_Variant>
AV-unprocessed.smi:34-17

> <Gold.Version>
5.8.1

> <Gold.Id.Protein>
6NUR|6NUR_protein|mol2

> <Gold.PLP.Fitness>
61.6762

> <Gold.PLP.PLP>
-54.6838

> <Gold.PLP.part.hbond>
-2.0000

> <Gold.PLP.part.metal>
0.0000

> <Gold.PLP.part.buried>
-7.2379

> <Gold.PLP.part.nonpolar>
-46.7136

> <Gold.PLP.part.repulsive>
1.1276

> <Gold.PLP.ligand.clash>
0.0000

> <Gold.PLP.ligand.torsion>
2.7957

> <Gold.PLP.Chemscore.Hbond>
2.9856

> <Gold.PLP.Chemscore.CHOScore>
1.0000

> <Gold.PLP.Chemscore.Metal>
0.0000

> <Gold.Chemscore.Hbonds>
donor molecule, donor type, donor heavy atom, donor atom, acceptor molecule, acceptor atom, score
      L1  H    29    49       P1 10175  0.96
      P1  H  7989  7998       L1     5  0.09
      P1  H  7997  8009       L1     3  2.00
      L1  C     6    36       P1  7949  0.97

> <Gold.PLP.Chemscore.Internal.Correction>
0.6269

> <Gold.Rescore>
     Score         DG    S(hbond)    S(metal)    S(lipo)     H(rot)  DE(clash)    DE(int)     intcor
     14.37     -19.51       1.68        0.00     130.96       2.69       0.02       5.13       ----

> <Gold.Chemscore.Fitness>
14.3696

> <Gold.Chemscore.DG>
-19.5136

> <Gold.Chemscore.ZeroCoef>
-5.4800

> <Gold.Chemscore.Hbond>
1.6794

> <Gold.Chemscore.Metal>
0.0000

> <Gold.Chemscore.Lipo>
130.9563

> <Gold.Chemscore.Internal_Hbond>
0.0000

> <Gold.Chemscore.DEClash>
0.0180

> <Gold.Chemscore.DEInternal>
5.1260

> <Gold.Chemscore.Rot>
2.6944

> <Gold.Chemscore.Internal.Correction>
   9.000000E+99

> <Gold.Chemscore.Hbonds>
donor molecule, donor type, donor heavy atom, donor atom, acceptor molecule, acceptor atom, score
      L1  H    29    49       P1 10175  0.92
      P1  H  7997  8009       L1     3  0.38

> <Gold.Chemscore.Hbond.Weighted>
-5.6093

> <Gold.Chemscore.Metal.Weighted>
-0.0000

> <Gold.Chemscore.Lipo.Weighted>
-15.3219

> <Gold.Chemscore.Internal_Hbond.Weighted>
0.0000

> <Gold.Chemscore.DEClash.Weighted>
0.0180

> <Gold.Chemscore.DEInternal.Weighted>
5.1260

> <Gold.Chemscore.Rot.Weighted>
6.8975

> <Gold.Chemscore.Internal.Correction.Weighted>
   9.000000E+99

> <Gold.Protein.RotatedTorsions>
[ 6907 6896 6895 6894 ] final -176.07 input  -60.11 | X-H torsion
[ 7974 7965 7964 7962 ] final   81.27 input  175.53 | X-H torsion
[ 8008 7997 7996 7995 ] final -169.94 input   59.86 | X-H torsion
[ 10167 10162 10161 10158 ] final -111.94 input  -65.29 | X-H torsion
[ 10718 10713 10712 10709 ] final -154.68 input   66.30 | X-H torsion
[ 10763 10752 10751 10750 ] final  -62.54 input  -60.55 | X-H torsion
[ 11005 11000 10999 10996 ] final  -15.84 input  -57.11 | X-H torsion

> <Gold.Protein.ActiveResidues>
 VAL166  LYS551  ARG553  GLY616  TRP617  ASP618  TYR619  PRO620  LYS621  CYS622 
 ASP623  PHE694  ASN695  SER759  ASP760  ASP761  ALA762  ILE779  LEU786  VAL792 
 PHE793  MET794  SER795  GLU796  ALA797  LYS798  CYS799  TRP800  GLU811  SER814 

> <Gold.Protein.RotatedAtoms>
  151.5989  133.3358  159.3042 H   0  0  0  0  0  0  0  0  0  0  0  0  # atno 6907 bound_to 6896
  150.8219  134.7434  159.6791 H   0  0  0  0  0  0  0  0  0  0  0  0  # atno 6908 bound_to 6896
  152.4312  134.5780  159.9991 H   0  0  0  0  0  0  0  0  0  0  0  0  # atno 6909 bound_to 6896
  145.6403  139.2424  143.2034 H   0  0  0  0  0  0  0  0  0  0  0  0  # atno 7974 bound_to 7965
  155.9117  140.1058  157.1275 H   0  0  0  0  0  0  0  0  0  0  0  0  # atno 8008 bound_to 7997
  154.4040  140.1273  156.4630 H   0  0  0  0  0  0  0  0  0  0  0  0  # atno 8009 bound_to 7997
  155.7303  140.3468  155.5058 H   0  0  0  0  0  0  0  0  0  0  0  0  # atno 8010 bound_to 7997
  140.1281  143.4384  152.1646 H   0  0  0  0  0  0  0  0  0  0  0  0  # atno 10167 bound_to 10162
  156.5026  130.8398  151.2615 H   0  0  0  0  0  0  0  0  0  0  0  0  # atno 10718 bound_to 10713
  154.3015  135.6233  153.5427 H   0  0  0  0  0  0  0  0  0  0  0  0  # atno 10763 bound_to 10752
  152.9840  135.5679  154.5279 H   0  0  0  0  0  0  0  0  0  0  0  0  # atno 10764 bound_to 10752
  154.4910  135.2867  155.1473 H   0  0  0  0  0  0  0  0  0  0  0  0  # atno 10765 bound_to 10752
  140.8007  133.8216  155.9467 H   0  0  0  0  0  0  0  0  0  0  0  0  # atno 11005 bound_to 11000
  146.1286  140.7215  142.9423 LP  0  0  0  0  0  0  0  0  0  0  0  0  # atno 17320 bound_to 7965
  144.7160  140.4210  143.7044 LP  0  0  0  0  0  0  0  0  0  0  0  0  # atno 17321 bound_to 7965
  139.5533  144.7354  151.4368 LP  0  0  0  0  0  0  0  0  0  0  0  0  # atno 17342 bound_to 10162
  140.6833  143.8032  150.7151 LP  0  0  0  0  0  0  0  0  0  0  0  0  # atno 17343 bound_to 10162
  157.7461  130.9976  150.2824 LP  0  0  0  0  0  0  0  0  0  0  0  0  # atno 17370 bound_to 10713
  156.3318  130.3801  149.7484 LP  0  0  0  0  0  0  0  0  0  0  0  0  # atno 17371 bound_to 10713
  140.9298  134.2037  157.4872 LP  0  0  0  0  0  0  0  0  0  0  0  0  # atno 17394 bound_to 11000
  139.8722  134.9828  156.5170 LP  0  0  0  0  0  0  0  0  0  0  0  0  # atno 17395 bound_to 11000

$$$$
