AV-unprocessed.smi:1573|AV-procd|sdf|6334|dock9
  -GOLD-   22720 6543D 1   1.00000     0.00000
 Structure written by MMmdl.
 41 41  0  0  0  0  0  0  0  0  1 V2000
  150.4597  138.9930  154.2888 C   0  0  0  0  0  0  0  0  0  0  0  0
  151.3129  137.7185  154.3439 C   0  0  0  0  0  0  0  0  0  0  0  0
  150.4833  136.5198  154.3488 N   0  0  0  0  0  0  0  0  0  0  0  0
  150.4667  135.5969  155.3228 C   0  0  0  0  0  0  0  0  0  0  0  0
  151.1812  135.6601  156.3249 O   0  0  0  0  0  0  0  0  0  0  0  0
  149.5018  134.4173  155.1231 C   0  0  1  0  0  0  0  0  0  0  0  0
  150.2849  133.1140  155.3519 C   0  0  0  0  0  0  0  0  0  0  0  0
  148.4209  134.4693  156.1045 N   0  0  0  0  0  0  0  0  0  0  0  0
  148.5741  134.3981  157.4367 C   0  0  0  0  0  0  0  0  0  0  0  0
  149.6677  134.2831  157.9898 O   0  0  0  0  0  0  0  0  0  0  0  0
  147.2960  134.4681  158.2717 C   0  0  0  0  0  0  0  0  0  0  0  0
  147.5041  135.3930  159.4444 C   0  0  0  0  0  0  0  0  0  0  0  0
  147.9734  136.7400  159.4184 C   0  0  0  0  0  0  0  0  0  0  0  0
  148.3790  137.5623  158.2284 C   0  0  0  0  0  0  0  0  0  0  0  0
  148.0477  137.2717  160.6271 N   0  0  0  0  0  0  0  0  0  0  0  0
  147.6311  136.2962  161.4591 N   0  0  0  0  0  0  0  0  0  0  0  0
  147.5867  136.5488  162.8862 C   0  0  0  0  0  0  0  0  0  0  0  0
  147.2977  135.1435  160.7750 C   0  0  0  0  0  0  0  0  0  0  0  0
  146.8147  133.9138  161.4738 C   0  0  0  0  0  0  0  0  0  0  0  0
  151.0919  139.8804  154.2489 H   0  0  0  0  0  0  0  0  0  0  0  0
  149.8201  139.0821  155.1675 H   0  0  0  0  0  0  0  0  0  0  0  0
  149.8197  139.0008  153.4058 H   0  0  0  0  0  0  0  0  0  0  0  0
  151.9665  137.6761  153.4724 H   0  0  0  0  0  0  0  0  0  0  0  0
  151.9636  137.7336  155.2198 H   0  0  0  0  0  0  0  0  0  0  0  0
  149.8656  136.3886  153.5607 H   0  0  0  0  0  0  0  0  0  0  0  0
  149.0911  134.4267  154.1114 H   0  0  0  0  0  0  0  0  0  0  0  0
  151.1086  133.0168  154.6433 H   0  0  0  0  0  0  0  0  0  0  0  0
  149.6394  132.2452  155.2188 H   0  0  0  0  0  0  0  0  0  0  0  0
  150.7031  133.0611  156.3587 H   0  0  0  0  0  0  0  0  0  0  0  0
  147.4828  134.5570  155.7416 H   0  0  0  0  0  0  0  0  0  0  0  0
  146.4754  134.8031  157.6367 H   0  0  0  0  0  0  0  0  0  0  0  0
  147.0275  133.4631  158.5996 H   0  0  0  0  0  0  0  0  0  0  0  0
  149.3748  137.2826  157.8843 H   0  0  0  0  0  0  0  0  0  0  0  0
  148.3952  138.6277  158.4610 H   0  0  0  0  0  0  0  0  0  0  0  0
  147.6879  137.4187  157.3980 H   0  0  0  0  0  0  0  0  0  0  0  0
  146.5929  136.3162  163.2694 H   0  0  0  0  0  0  0  0  0  0  0  0
  147.8097  137.5951  163.0998 H   0  0  0  0  0  0  0  0  0  0  0  0
  148.3206  135.9206  163.3917 H   0  0  0  0  0  0  0  0  0  0  0  0
  146.7332  133.0734  160.7845 H   0  0  0  0  0  0  0  0  0  0  0  0
  145.8328  134.0812  161.9167 H   0  0  0  0  0  0  0  0  0  0  0  0
  147.5011  133.6235  162.2696 H   0  0  0  0  0  0  0  0  0  0  0  0
  1  2  1  0  0  0  0
  1 20  1  0  0  0  0
  1 21  1  0  0  0  0
  1 22  1  0  0  0  0
  2  3  1  0  0  0  0
  2 23  1  0  0  0  0
  2 24  1  0  0  0  0
  3  4  1  0  0  0  0
  3 25  1  0  0  0  0
  4  5  2  0  0  0  0
  4  6  1  0  0  0  0
  6  7  1  0  0  0  0
  6  8  1  0  0  0  0
  6 26  1  0  0  0  0
  7 27  1  0  0  0  0
  7 28  1  0  0  0  0
  7 29  1  0  0  0  0
  8  9  1  0  0  0  0
  8 30  1  0  0  0  0
  9 10  2  0  0  0  0
  9 11  1  0  0  0  0
 11 12  1  0  0  0  0
 11 31  1  0  0  0  0
 11 32  1  0  0  0  0
 12 18  2  0  0  0  0
 12 13  1  0  0  0  0
 13 14  1  0  0  0  0
 13 15  2  0  0  0  0
 14 33  1  0  0  0  0
 14 34  1  0  0  0  0
 14 35  1  0  0  0  0
 15 16  1  0  0  0  0
 16 17  1  0  0  0  0
 16 18  1  0  0  0  0
 17 36  1  0  0  0  0
 17 37  1  0  0  0  0
 17 38  1  0  0  0  0
 18 19  1  0  0  0  0
 19 39  1  0  0  0  0
 19 40  1  0  0  0  0
 19 41  1  0  0  0  0
M  END
> <s_m_source_file>
AV-unprocessed.smi

> <i_m_source_file_index>
1573

> <i_lp_mmshare_version>
43012

> <i_f3d_flags>
0

> <s_epik_input>
W0NIM11bQ0gyXVtOSF1DKD1PKVtDQEhdKFtDSDNdKVtOSF1DKD1PKVtDSDJdYzFjKFtDSDNdKW5uKFtDSDNdKWMxW0NIM10=

> <s_epik_cmdline>
J2VwaWtfcHl0aG9uJywgJy1waCcsICc3LjAnLCAnLXRuJywgJzgnLCAnLW1hJywgJzIwMCcsICctbWV0YWxfYmluZGluZycsICctaW1hZScsICc8aW5maWxlLm1hZT4nLCAnLW9tYWUnLCAnPG91dGZpbGUubWFlPic=

> <r_lp_tautomer_probability>
1

> <r_epik_Ionization_Penalty>
0.00278414

> <r_epik_Ionization_Penalty_Charging>
0

> <r_epik_Ionization_Penalty_Neutral>
0.00278414

> <r_epik_State_Penalty>
0.00194489

> <r_epik_Charging_Adjusted_Penalty>
0.00194489

> <i_epik_Tot_Q>
0

> <i_epik_Tot_abs_Q>
0

> <r_epik_Metal_State_Penalty>
-0

> <b_epik_Metal_Only>
0

> <s_lp_Force_Field>
OPLS_2005

> <r_lp_Energy>
-3.15373

> <b_lp_Chiralities_Consistent>
1

> <s_lp_Variant>
AV-unprocessed.smi:1573-2

> <Gold.Version>
5.8.1

> <Gold.Id.Protein>
6NUR|6NUR_protein|mol2

> <Gold.PLP.Fitness>
44.3341

> <Gold.PLP.PLP>
-34.0854

> <Gold.PLP.part.hbond>
-4.9236

> <Gold.PLP.part.metal>
0.0000

> <Gold.PLP.part.buried>
-4.2554

> <Gold.PLP.part.nonpolar>
-24.7887

> <Gold.PLP.part.repulsive>
0.0798

> <Gold.PLP.ligand.clash>
0.0000

> <Gold.PLP.ligand.torsion>
0.4210

> <Gold.PLP.Chemscore.Hbond>
3.6887

> <Gold.PLP.Chemscore.CHOScore>
0.0000

> <Gold.PLP.Chemscore.Metal>
0.0000

> <Gold.Chemscore.Hbonds>
donor molecule, donor type, donor heavy atom, donor atom, acceptor molecule, acceptor atom, score
      L1  H     3    25       P1  7948  0.95
      P1  H  6896  6907       L1    10  1.00
      P1  H  6931  6943       L1    15  0.69
      P1  H  6934  6947       L1    15  0.72
      P1  H 10752 10765       L1     5  0.14

> <Gold.PLP.Chemscore.Internal.Correction>
0.0245

> <Gold.Rescore>
     Score         DG    S(hbond)    S(metal)    S(lipo)     H(rot)  DE(clash)    DE(int)     intcor
     14.57     -17.87       3.08        0.00      59.84       1.91       0.00       3.30       ----

> <Gold.Chemscore.Fitness>
14.5673

> <Gold.Chemscore.DG>
-17.8670

> <Gold.Chemscore.ZeroCoef>
-5.4800

> <Gold.Chemscore.Hbond>
3.0764

> <Gold.Chemscore.Metal>
0.0000

> <Gold.Chemscore.Lipo>
59.8419

> <Gold.Chemscore.Internal_Hbond>
0.0000

> <Gold.Chemscore.DEClash>
0.0021

> <Gold.Chemscore.DEInternal>
3.2975

> <Gold.Chemscore.Rot>
1.9100

> <Gold.Chemscore.Internal.Correction>
   9.000000E+99

> <Gold.Chemscore.Hbonds>
donor molecule, donor type, donor heavy atom, donor atom, acceptor molecule, acceptor atom, score
      L1  H     3    25       P1  7948  0.22
      P1  H  6896  6907       L1    10  0.99
      P1  H  6931  6943       L1    15  0.14
      P1  H  6934  6947       L1    15  0.61
      P1  H 10752 10765       L1     5  0.01

> <Gold.Chemscore.Hbond.Weighted>
-10.2750

> <Gold.Chemscore.Metal.Weighted>
-0.0000

> <Gold.Chemscore.Lipo.Weighted>
-7.0015

> <Gold.Chemscore.Internal_Hbond.Weighted>
0.0000

> <Gold.Chemscore.DEClash.Weighted>
0.0021

> <Gold.Chemscore.DEInternal.Weighted>
3.2975

> <Gold.Chemscore.Rot.Weighted>
4.8896

> <Gold.Chemscore.Internal.Correction.Weighted>
   9.000000E+99

> <Gold.Protein.RotatedTorsions>
[ 6907 6896 6895 6894 ] final -109.49 input  -60.11 | X-H torsion
[ 7974 7965 7964 7962 ] final -175.02 input  175.53 | X-H torsion
[ 8008 7997 7996 7995 ] final -147.85 input   59.86 | X-H torsion
[ 10167 10162 10161 10158 ] final   81.25 input  -65.29 | X-H torsion
[ 10718 10713 10712 10709 ] final   67.87 input   66.30 | X-H torsion
[ 10763 10752 10751 10750 ] final -149.86 input  -60.55 | X-H torsion
[ 11005 11000 10999 10996 ] final  -90.65 input  -57.11 | X-H torsion

> <Gold.Protein.ActiveResidues>
 VAL166  LYS551  ARG553  GLY616  TRP617  ASP618  TYR619  PRO620  LYS621  CYS622 
 ASP623  PHE694  ASN695  SER759  ASP760  ASP761  ALA762  ILE779  LEU786  VAL792 
 PHE793  MET794  SER795  GLU796  ALA797  LYS798  CYS799  TRP800  GLU811  SER814 

> <Gold.Protein.RotatedAtoms>
  150.7565  133.9521  159.3488 H   0  0  0  0  0  0  0  0  0  0  0  0  # atno 6907 bound_to 6896
  151.7439  135.0846  160.0329 H   0  0  0  0  0  0  0  0  0  0  0  0  # atno 6908 bound_to 6896
  152.3510  133.6143  159.5981 H   0  0  0  0  0  0  0  0  0  0  0  0  # atno 6909 bound_to 6896
  144.7129  140.1384  143.6393 H   0  0  0  0  0  0  0  0  0  0  0  0  # atno 7974 bound_to 7965
  155.5821  140.0644  157.2780 H   0  0  0  0  0  0  0  0  0  0  0  0  # atno 8008 bound_to 7997
  154.4329  140.1850  156.1034 H   0  0  0  0  0  0  0  0  0  0  0  0  # atno 8009 bound_to 7997
  156.0297  140.3308  155.7130 H   0  0  0  0  0  0  0  0  0  0  0  0  # atno 8010 bound_to 7997
  139.9413  144.6088  150.8249 H   0  0  0  0  0  0  0  0  0  0  0  0  # atno 10167 bound_to 10162
  157.6256  130.9344  150.0301 H   0  0  0  0  0  0  0  0  0  0  0  0  # atno 10718 bound_to 10713
  154.8153  135.3298  154.7194 H   0  0  0  0  0  0  0  0  0  0  0  0  # atno 10763 bound_to 10752
  153.7836  135.6916  153.4888 H   0  0  0  0  0  0  0  0  0  0  0  0  # atno 10764 bound_to 10752
  153.1964  135.4532  155.0160 H   0  0  0  0  0  0  0  0  0  0  0  0  # atno 10765 bound_to 10752
  141.1561  133.7705  156.9768 H   0  0  0  0  0  0  0  0  0  0  0  0  # atno 11005 bound_to 11000
  145.9224  139.2554  143.1373 LP  0  0  0  0  0  0  0  0  0  0  0  0  # atno 17320 bound_to 7965
  145.9607  140.8838  143.0212 LP  0  0  0  0  0  0  0  0  0  0  0  0  # atno 17321 bound_to 7965
  140.7610  143.3164  151.2723 LP  0  0  0  0  0  0  0  0  0  0  0  0  # atno 17342 bound_to 10162
  139.6703  144.0033  152.2748 LP  0  0  0  0  0  0  0  0  0  0  0  0  # atno 17343 bound_to 10162
  156.1426  130.3642  149.9559 LP  0  0  0  0  0  0  0  0  0  0  0  0  # atno 17370 bound_to 10713
  156.7596  130.9146  151.3641 LP  0  0  0  0  0  0  0  0  0  0  0  0  # atno 17371 bound_to 10713
  140.1093  134.9487  157.2041 LP  0  0  0  0  0  0  0  0  0  0  0  0  # atno 17394 bound_to 11000
  140.3215  134.2911  155.7245 LP  0  0  0  0  0  0  0  0  0  0  0  0  # atno 17395 bound_to 11000

$$$$
