AV-unprocessed.smi:2489|AV-procd|sdf|9802|dock1
  -GOLD-   2272013433D 1   1.00000     0.00000
 Structure written by MMmdl.
 33 34  0  0  0  0  0  0  0  0  1 V2000
  153.3128  142.3034  161.2514 C   0  0  0  0  0  0  0  0  0  0  0  0
  152.2591  143.1648  160.8443 O   0  0  0  0  0  0  0  0  0  0  0  0
  151.9210  143.1683  159.5105 C   0  0  0  0  0  0  0  0  0  0  0  0
  151.9457  144.3683  158.6774 C   0  0  0  0  0  0  0  0  0  0  0  0
  151.6000  144.2525  157.3865 C   0  0  0  0  0  0  0  0  0  0  0  0
  151.2230  143.0404  156.8266 N   0  0  0  0  0  0  0  0  0  0  0  0
  151.1730  141.8480  157.5706 C   0  0  0  0  0  0  0  0  0  0  0  0
  150.8261  140.6824  157.1071 N   0  0  0  0  0  0  0  0  0  0  0  0
  150.4633  140.4783  155.7787 C   0  0  0  0  0  0  0  0  0  0  0  0
  151.1668  140.1612  154.8151 O   0  0  0  0  0  0  0  0  0  0  0  0
  148.9601  140.7001  155.5584 C   0  0  1  0  0  0  0  0  0  0  0  0
  148.6625  141.6856  154.4153 C   0  0  0  0  0  0  0  0  0  0  0  0
  147.5892  140.9792  153.6123 C   0  0  0  0  0  0  0  0  0  0  0  0
  147.9552  139.5143  153.8168 C   0  0  2  0  0  0  0  0  0  0  0  0
  146.8049  138.5367  153.5549 C   0  0  0  0  0  0  0  0  0  0  0  0
  148.3496  139.4644  155.1813 O   0  0  0  0  0  0  0  0  0  0  0  0
  151.5513  141.9834  158.9705 C   0  0  0  0  0  0  0  0  0  0  0  0
  153.4658  142.4075  162.3254 H   0  0  0  0  0  0  0  0  0  0  0  0
  154.2522  142.5610  160.7604 H   0  0  0  0  0  0  0  0  0  0  0  0
  153.0744  141.2572  161.0547 H   0  0  0  0  0  0  0  0  0  0  0  0
  152.2294  145.3365  159.0610 H   0  0  0  0  0  0  0  0  0  0  0  0
  151.5901  145.0861  156.6999 H   0  0  0  0  0  0  0  0  0  0  0  0
  148.4816  141.0319  156.4815 H   0  0  0  0  0  0  0  0  0  0  0  0
  148.3280  142.6567  154.7807 H   0  0  0  0  0  0  0  0  0  0  0  0
  149.5400  141.8530  153.7882 H   0  0  0  0  0  0  0  0  0  0  0  0
  146.6078  141.1895  154.0399 H   0  0  0  0  0  0  0  0  0  0  0  0
  147.5757  141.2742  152.5627 H   0  0  0  0  0  0  0  0  0  0  0  0
  148.8156  139.2591  153.1960 H   0  0  0  0  0  0  0  0  0  0  0  0
  146.4767  138.5867  152.5166 H   0  0  0  0  0  0  0  0  0  0  0  0
  145.9465  138.7584  154.1896 H   0  0  0  0  0  0  0  0  0  0  0  0
  147.1132  137.5110  153.7584 H   0  0  0  0  0  0  0  0  0  0  0  0
  151.5483  141.1229  159.6242 H   0  0  0  0  0  0  0  0  0  0  0  0
  150.9809  143.0533  155.8459 H   0  0  0  0  0  0  0  0  0  0  0  0
  1  2  1  0  0  0  0
  1 18  1  0  0  0  0
  1 19  1  0  0  0  0
  1 20  1  0  0  0  0
  2  3  1  0  0  0  0
  3 17  2  0  0  0  0
  3  4  1  0  0  0  0
  4  5  2  0  0  0  0
  4 21  1  0  0  0  0
  5  6  1  0  0  0  0
  5 22  1  0  0  0  0
  6  7  1  0  0  0  0
  6 33  1  0  0  0  0
  7  8  2  0  0  0  0
  7 17  1  0  0  0  0
  8  9  1  0  0  0  0
  9 10  2  0  0  0  0
  9 11  1  0  0  0  0
 11 16  1  0  0  0  0
 11 12  1  0  0  0  0
 11 23  1  0  0  0  0
 12 13  1  0  0  0  0
 12 24  1  0  0  0  0
 12 25  1  0  0  0  0
 13 14  1  0  0  0  0
 13 26  1  0  0  0  0
 13 27  1  0  0  0  0
 14 15  1  0  0  0  0
 14 16  1  0  0  0  0
 14 28  1  0  0  0  0
 15 29  1  0  0  0  0
 15 30  1  0  0  0  0
 15 31  1  0  0  0  0
 17 32  1  0  0  0  0
M  END
> <s_m_source_file>
AV-unprocessed.smi

> <i_m_source_file_index>
2489

> <i_lp_mmshare_version>
43012

> <i_f3d_flags>
0

> <s_epik_input>
W0NIM11PYzFbY0hdW2NIXW5jKFtjSF0xKVtOSF1DKD1PKVtDQEBIXTJbQ0gyXVtDSDJdW0NASF0oTzIpW0NIM10=

> <s_epik_cmdline>
J2VwaWtfcHl0aG9uJywgJy1waCcsICc3LjAnLCAnLXRuJywgJzgnLCAnLW1hJywgJzIwMCcsICctbWV0YWxfYmluZGluZycsICctaW1hZScsICc8aW5maWxlLm1hZT4nLCAnLW9tYWUnLCAnPG91dGZpbGUubWFlPic=

> <r_epik_Ionization_Penalty>
0.410206

> <r_epik_Ionization_Penalty_Charging>
0.410206

> <r_epik_Ionization_Penalty_Neutral>
6.57528e-13

> <r_epik_State_Penalty>
1.30987

> <r_epik_Charging_Adjusted_Penalty>
1.72007

> <i_epik_Tot_Q>
0

> <i_epik_Tot_abs_Q>
0

> <r_epik_Metal_State_Penalty>
1.32171

> <b_epik_Metal_Only>
0

> <s_lp_Force_Field>
OPLS_2005

> <r_lp_Energy>
36.1754

> <b_lp_Chiralities_Consistent>
1

> <s_lp_Variant>
AV-unprocessed.smi:2489-8

> <Gold.Version>
5.8.1

> <Gold.Id.Protein>
6NUR|6NUR_protein|mol2

> <Gold.PLP.Fitness>
36.3555

> <Gold.PLP.PLP>
-34.7408

> <Gold.PLP.part.hbond>
-1.8666

> <Gold.PLP.part.metal>
0.0000

> <Gold.PLP.part.buried>
-2.2719

> <Gold.PLP.part.nonpolar>
-30.5967

> <Gold.PLP.part.repulsive>
0.2543

> <Gold.PLP.ligand.clash>
0.0000

> <Gold.PLP.ligand.torsion>
0.8375

> <Gold.PLP.Chemscore.Hbond>
1.0000

> <Gold.PLP.Chemscore.CHOScore>
0.0855

> <Gold.PLP.Chemscore.Metal>
0.0000

> <Gold.Chemscore.Hbonds>
donor molecule, donor type, donor heavy atom, donor atom, acceptor molecule, acceptor atom, score
      P1  H  7989  7998       L1    10  1.00
      L1  C     5    22       P1  8028  0.06

> <Gold.PLP.Chemscore.Internal.Correction>
0.0333

> <Gold.Rescore>
     Score         DG    S(hbond)    S(metal)    S(lipo)     H(rot)  DE(clash)    DE(int)     intcor
     15.25     -16.28       0.99        0.00      90.85       1.23       0.26       0.76       ----

> <Gold.Chemscore.Fitness>
15.2540

> <Gold.Chemscore.DG>
-16.2779

> <Gold.Chemscore.ZeroCoef>
-5.4800

> <Gold.Chemscore.Hbond>
0.9906

> <Gold.Chemscore.Metal>
0.0000

> <Gold.Chemscore.Lipo>
90.8455

> <Gold.Chemscore.Internal_Hbond>
0.0000

> <Gold.Chemscore.DEClash>
0.2634

> <Gold.Chemscore.DEInternal>
0.7605

> <Gold.Chemscore.Rot>
1.2264

> <Gold.Chemscore.Internal.Correction>
   9.000000E+99

> <Gold.Chemscore.Hbonds>
donor molecule, donor type, donor heavy atom, donor atom, acceptor molecule, acceptor atom, score
      P1  H  7989  7998       L1    10  0.97

> <Gold.Chemscore.Hbond.Weighted>
-3.3086

> <Gold.Chemscore.Metal.Weighted>
-0.0000

> <Gold.Chemscore.Lipo.Weighted>
-10.6289

> <Gold.Chemscore.Internal_Hbond.Weighted>
0.0000

> <Gold.Chemscore.DEClash.Weighted>
0.2634

> <Gold.Chemscore.DEInternal.Weighted>
0.7605

> <Gold.Chemscore.Rot.Weighted>
3.1396

> <Gold.Chemscore.Internal.Correction.Weighted>
   9.000000E+99

> <Gold.Protein.RotatedTorsions>
[ 6907 6896 6895 6894 ] final   87.64 input  -60.11 | X-H torsion
[ 7974 7965 7964 7962 ] final  113.07 input  175.53 | X-H torsion
[ 8008 7997 7996 7995 ] final -113.67 input   59.86 | X-H torsion
[ 10167 10162 10161 10158 ] final   18.25 input  -65.29 | X-H torsion
[ 10718 10713 10712 10709 ] final -164.24 input   66.30 | X-H torsion
[ 10763 10752 10751 10750 ] final  -29.57 input  -60.55 | X-H torsion
[ 11005 11000 10999 10996 ] final   61.07 input  -57.11 | X-H torsion

> <Gold.Protein.ActiveResidues>
 VAL166  LYS551  ARG553  GLY616  TRP617  ASP618  TYR619  PRO620  LYS621  CYS622 
 ASP623  PHE694  ASN695  SER759  ASP760  ASP761  ALA762  ILE779  LEU786  VAL792 
 PHE793  MET794  SER795  GLU796  ALA797  LYS798  CYS799  TRP800  GLU811  SER814 

> <Gold.Protein.RotatedAtoms>
  152.5414  134.2245  159.8800 H   0  0  0  0  0  0  0  0  0  0  0  0  # atno 6907 bound_to 6896
  151.2220  133.4490  159.2608 H   0  0  0  0  0  0  0  0  0  0  0  0  # atno 6908 bound_to 6896
  151.0796  134.9863  159.8405 H   0  0  0  0  0  0  0  0  0  0  0  0  # atno 6909 bound_to 6896
  145.2216  139.2860  143.4215 H   0  0  0  0  0  0  0  0  0  0  0  0  # atno 7974 bound_to 7965
  155.0243  140.0393  157.2449 H   0  0  0  0  0  0  0  0  0  0  0  0  # atno 8008 bound_to 7997
  154.7351  140.2738  155.6398 H   0  0  0  0  0  0  0  0  0  0  0  0  # atno 8009 bound_to 7997
  156.2851  140.2676  156.2062 H   0  0  0  0  0  0  0  0  0  0  0  0  # atno 8010 bound_to 7997
  140.5667  143.9237  150.6682 H   0  0  0  0  0  0  0  0  0  0  0  0  # atno 10167 bound_to 10162
  156.6361  130.8950  151.2987 H   0  0  0  0  0  0  0  0  0  0  0  0  # atno 10718 bound_to 10713
  153.7667  135.6915  153.4914 H   0  0  0  0  0  0  0  0  0  0  0  0  # atno 10763 bound_to 10752
  153.1901  135.4474  155.0138 H   0  0  0  0  0  0  0  0  0  0  0  0  # atno 10764 bound_to 10752
  154.8133  135.3387  154.7179 H   0  0  0  0  0  0  0  0  0  0  0  0  # atno 10765 bound_to 10752
  140.0187  134.6186  155.9672 H   0  0  0  0  0  0  0  0  0  0  0  0  # atno 11005 bound_to 11000
  146.3375  140.2523  142.8599 LP  0  0  0  0  0  0  0  0  0  0  0  0  # atno 17320 bound_to 7965
  144.9760  140.8415  143.5426 LP  0  0  0  0  0  0  0  0  0  0  0  0  # atno 17321 bound_to 7965
  140.2702  143.3461  152.1245 LP  0  0  0  0  0  0  0  0  0  0  0  0  # atno 17342 bound_to 10162
  139.5096  144.6871  151.5859 LP  0  0  0  0  0  0  0  0  0  0  0  0  # atno 17343 bound_to 10162
  157.7185  130.9528  150.1346 LP  0  0  0  0  0  0  0  0  0  0  0  0  # atno 17370 bound_to 10713
  156.2195  130.3673  149.8572 LP  0  0  0  0  0  0  0  0  0  0  0  0  # atno 17371 bound_to 10713
  141.1759  133.6540  156.4829 LP  0  0  0  0  0  0  0  0  0  0  0  0  # atno 17394 bound_to 11000
  140.4426  134.7002  157.4999 LP  0  0  0  0  0  0  0  0  0  0  0  0  # atno 17395 bound_to 11000

$$$$
