#       Name:                AV-unprocessed.smi:2385
#       Creating user name   scv26
#       Creation time:       Fri Mar 27 13:09:13 2020


#       File generated by GOLD software.
#

@<TRIPOS>MOLECULE
AV-unprocessed.smi:2385
    55    57     1
SMALL
NO_CHARGES


@<TRIPOS>ATOM
      1 ****        -8.0134   4.5720   0.2665 C.3            1 S1                 0.0000
      2 ****        -6.7967   3.6721   0.3139 C.ar           1 S1                 0.0000
      3 ****        -6.9214   2.3035   0.6181 C.ar           1 S1                 0.0000
      4 ****        -5.7603   1.5076   0.6550 C.ar           1 S1                 0.0000
      5 ****        -4.5040   2.0972   0.3890 C.ar           1 S1                 0.0000
      6 ****        -3.3961   1.2106   0.4584 N.am           1 S1                 0.0000
      7 ****        -2.0942   1.4935   0.2759 C.2            1 S1                 0.0000
      8 ****        -1.6395   2.5983  -0.0225 O.2            1 S1                 0.0000
      9 ****        -1.3277   0.4082   0.4606 N.am           1 S1                 0.0000
     10 ****         0.1294   0.3899   0.3665 C.3            1 S1                 0.0000
     11 ****         0.5905   0.2765  -1.0975 C.3            1 S1                 0.0000
     12 ****         2.1227   0.1775  -1.1882 C.3            1 S1                 0.0000
     13 ****         2.6413  -0.9620  -0.3864 N.4            1 S1                 1.0000
     14 ****         4.1055  -1.1589  -0.5526 C.3            1 S1                 0.0000
     15 ****         4.4859  -2.6459  -0.6914 C.3            1 S1                 0.0000
     16 ****         5.9356  -2.8578  -1.0815 C.3            1 S1                 0.0000
     17 ****         6.1626  -4.3186  -0.7055 C.3            1 S1                 0.0000
     18 ****         5.3007  -4.5720   0.3995 O.3            1 S1                 0.0000
     19 ****         4.4216  -3.4697   0.5963 C.3            1 S1                 0.0000
     20 ****         2.2269  -0.8579   1.0382 C.3            1 S1                 0.0000
     21 ****         0.6966  -0.7893   1.1710 C.3            1 S1                 0.0000
     22 ****        -4.3942   3.4172   0.0961 N.ar           1 S1                 0.0000
     23 ****        -5.5073   4.1793   0.0605 C.ar           1 S1                 0.0000
     24 ****        -8.8601   4.0501  -0.1800 H              1 S1                 0.0000
     25 ****        -7.8160   5.4663  -0.3255 H              1 S1                 0.0000
     26 ****        -8.2916   4.8815   1.2741 H              1 S1                 0.0000
     27 ****        -7.8889   1.8683   0.8216 H              1 S1                 0.0000
     28 ****        -5.8388   0.4557   0.8880 H              1 S1                 0.0000
     29 ****        -3.6211   0.2550   0.6921 H              1 S1                 0.0000
     30 ****        -1.7824  -0.4605   0.7013 H              1 S1                 0.0000
     31 ****         0.5234   1.3144   0.7935 H              1 S1                 0.0000
     32 ****         0.1408  -0.6023  -1.5625 H              1 S1                 0.0000
     33 ****         0.2467   1.1385  -1.6704 H              1 S1                 0.0000
     34 ****         2.4076   0.0521  -2.2336 H              1 S1                 0.0000
     35 ****         2.5806   1.1056  -0.8420 H              1 S1                 0.0000
     36 ****         4.4342  -0.6557  -1.4632 H              1 S1                 0.0000
     37 ****         4.6563  -0.6816   0.2595 H              1 S1                 0.0000
     38 ****         3.8570  -3.1167  -1.4491 H              1 S1                 0.0000
     39 ****         6.1308  -2.6573  -2.1354 H              1 S1                 0.0000
     40 ****         6.5879  -2.2160  -0.4870 H              1 S1                 0.0000
     41 ****         5.8738  -4.9738  -1.5284 H              1 S1                 0.0000
     42 ****         7.2034  -4.5265  -0.4559 H              1 S1                 0.0000
     43 ****         4.7848  -2.8904   1.4464 H              1 S1                 0.0000
     44 ****         3.4120  -3.8124   0.8239 H              1 S1                 0.0000
     45 ****         2.5944  -1.7129   1.6031 H              1 S1                 0.0000
     46 ****         2.6788   0.0291   1.4854 H              1 S1                 0.0000
     47 ****         0.4230  -0.6913   2.2223 H              1 S1                 0.0000
     48 ****         0.2589  -1.7260   0.8222 H              1 S1                 0.0000
     49 ****        -5.3616   5.2231  -0.1762 H              1 S1                 0.0000
     50 ****         2.1993  -1.7883  -0.7634 H              1 S1                 0.0000
     51 ****        -2.2561   3.3754  -0.1486 LP             1 S1                 0.0000
     52 ****        -0.6535   2.7184  -0.1388 LP             1 S1                 0.0000
     53 ****         5.8506  -4.7079   1.2236 LP             1 S1                 0.0000
     54 ****         4.7633  -5.3955   0.2178 LP             1 S1                 0.0000
     55 ****        -3.4986   3.8209  -0.0913 LP             1 S1                 0.0000
@<TRIPOS>BOND
    1    1    2 1     
    2    1   24 1     
    3    1   25 1     
    4    1   26 1     
    5    2   23 ar    
    6    2    3 ar    
    7    3    4 ar    
    8    3   27 1     
    9    4    5 ar    
   10    4   28 1     
   11    5    6 1     
   12    5   22 ar    
   13    6    7 am    
   14    6   29 1     
   15    7    8 2     
   16    7    9 am    
   17    9   10 1     
   18    9   30 1     
   19   10   21 1     
   20   10   11 1     
   21   10   31 1     
   22   11   12 1     
   23   11   32 1     
   24   11   33 1     
   25   12   13 1     
   26   12   34 1     
   27   12   35 1     
   28   13   14 1     
   29   13   20 1     
   30   13   50 1     
   31   14   15 1     
   32   14   36 1     
   33   14   37 1     
   34   15   19 1     
   35   15   16 1     
   36   15   38 1     
   37   16   17 1     
   38   16   39 1     
   39   16   40 1     
   40   17   18 1     
   41   17   41 1     
   42   17   42 1     
   43   18   19 1     
   44   19   43 1     
   45   19   44 1     
   46   20   21 1     
   47   20   45 1     
   48   20   46 1     
   49   21   47 1     
   50   21   48 1     
   51   22   23 ar    
   52   23   49 1     
   53    8   51 1     
   54    8   52 1     
   55   18   53 1     
   56   18   54 1     
   57   22   55 1     
@<TRIPOS>SUBSTRUCTURE
      1 S1             1
@<TRIPOS>SET
LONE_PAIRS      STATIC     ATOMS    <user>   **** ""
5 51 52 53 54 55
DONOR_HYDROGENS      STATIC     ATOMS    <user>   **** ""
3 29 30 50
ATOM$BLUE        STATIC     ATOMS    COLORGROUP SYSTEM
5 51 52 53 54 55
ATOM$RED        STATIC     ATOMS    COLORGROUP SYSTEM
3 29 30 50
