AV-unprocessed.smi:2886|AV-procd|sdf|11089|dock2
  -GOLD-   2272015563D 1   1.00000     0.00000
 Structure written by MMmdl.
 28 30  0  0  0  0  0  0  0  0  1 V2000
  151.5389  136.9477  159.6399 O   0  0  0  0  0  0  0  0  0  0  0  0
  151.5242  137.9041  158.8674 C   0  0  0  0  0  0  0  0  0  0  0  0
  152.6704  138.4664  158.4170 N   0  0  0  0  0  0  0  0  0  0  0  0
  152.7763  139.5260  157.5495 N   0  0  0  0  0  0  0  0  0  0  0  0
  151.6931  140.0678  157.1076 C   0  0  0  0  0  0  0  0  0  0  0  0
  150.3634  139.6077  157.4942 C   0  0  0  0  0  0  0  0  0  0  0  0
  149.1973  140.1919  157.0169 N   0  0  0  0  0  0  0  0  0  0  0  0
  149.0505  141.3094  156.0940 C   0  0  2  0  0  0  0  0  0  0  0  0
  147.6012  141.7707  155.9362 C   0  0  0  0  0  0  0  0  0  0  0  0
  147.4242  141.7168  154.4117 C   0  0  2  0  0  0  0  0  0  0  0  0
  147.2842  140.2728  153.9127 C   0  0  0  0  0  0  0  0  0  0  0  0
  148.7105  139.7494  154.0717 C   0  0  0  0  0  0  0  0  0  0  0  0
  149.4388  140.9778  154.6430 C   0  0  1  0  0  0  0  0  0  0  0  0
  148.7402  142.0136  153.9726 O   0  0  0  0  0  0  0  0  0  0  0  0
  150.3097  138.5461  158.3458 C   0  0  0  0  0  0  0  0  0  0  0  0
  148.7836  137.9072  158.8586 Cl  0  0  0  0  0  0  0  0  0  0  0  0
  153.5568  138.0922  158.7239 H   0  0  0  0  0  0  0  0  0  0  0  0
  151.7288  140.9039  156.4101 H   0  0  0  0  0  0  0  0  0  0  0  0
  148.3372  139.9010  157.4604 H   0  0  0  0  0  0  0  0  0  0  0  0
  149.6369  142.1606  156.4399 H   0  0  0  0  0  0  0  0  0  0  0  0
  146.8795  141.1371  156.4539 H   0  0  0  0  0  0  0  0  0  0  0  0
  147.4849  142.7891  156.3078 H   0  0  0  0  0  0  0  0  0  0  0  0
  146.6581  142.3925  154.0304 H   0  0  0  0  0  0  0  0  0  0  0  0
  146.5557  139.7018  154.4891 H   0  0  0  0  0  0  0  0  0  0  0  0
  146.9842  140.2510  152.8644 H   0  0  0  0  0  0  0  0  0  0  0  0
  148.7739  138.8744  154.7190 H   0  0  0  0  0  0  0  0  0  0  0  0
  149.1235  139.4777  153.0998 H   0  0  0  0  0  0  0  0  0  0  0  0
  150.5148  140.9748  154.4658 H   0  0  0  0  0  0  0  0  0  0  0  0
  1  2  2  0  0  0  0
  2 15  1  0  0  0  0
  2  3  1  0  0  0  0
  3 17  1  0  0  0  0
  3  4  1  0  0  0  0
  4  5  2  0  0  0  0
  5  6  1  0  0  0  0
  5 18  1  0  0  0  0
  6  7  1  0  0  0  0
  6 15  2  0  0  0  0
  7  8  1  0  0  0  0
  7 19  1  0  0  0  0
  8 13  1  0  0  0  0
  8  9  1  0  0  0  0
  8 20  1  0  0  0  0
  9 10  1  0  0  0  0
  9 21  1  0  0  0  0
  9 22  1  0  0  0  0
 10 14  1  0  0  0  0
 10 11  1  0  0  0  0
 10 23  1  0  0  0  0
 11 12  1  0  0  0  0
 11 24  1  0  0  0  0
 11 25  1  0  0  0  0
 12 13  1  0  0  0  0
 12 26  1  0  0  0  0
 12 27  1  0  0  0  0
 13 14  1  0  0  0  0
 13 28  1  0  0  0  0
 15 16  1  0  0  0  0
M  END
> <s_m_source_file>
AV-unprocessed.smi

> <i_m_source_file_index>
2886

> <i_lp_mmshare_version>
43012

> <i_f3d_flags>
0

> <s_epik_input>
Tz1jMVtuSF1uW2NIXWMoYzFDbClbTkhdW0NASF0oW0NIMl1bQ0BASF0yMylbQ0BASF0oTzMpW0NIMl1bQ0gyXTI=

> <s_epik_cmdline>
J2VwaWtfcHl0aG9uJywgJy1waCcsICc3LjAnLCAnLXRuJywgJzgnLCAnLW1hJywgJzIwMCcsICctbWV0YWxfYmluZGluZycsICctaW1hZScsICc8aW5maWxlLm1hZT4nLCAnLW9tYWUnLCAnPG91dGZpbGUubWFlPic=

> <r_lp_tautomer_probability>
0.986175

> <r_epik_Ionization_Penalty>
0.000975594

> <r_epik_Ionization_Penalty_Charging>
0.000940184

> <r_epik_Ionization_Penalty_Neutral>
3.54099e-05

> <r_epik_State_Penalty>
0.00620319

> <r_epik_Charging_Adjusted_Penalty>
0.00714337

> <i_epik_Tot_Q>
0

> <i_epik_Tot_abs_Q>
0

> <r_epik_Metal_State_Penalty>
0.287699

> <b_epik_Metal_Only>
0

> <s_lp_Force_Field>
OPLS_2005

> <r_lp_Energy>
55.2825

> <b_lp_Chiralities_Consistent>
1

> <s_lp_Variant>
AV-unprocessed.smi:2886-3

> <Gold.Version>
5.8.1

> <Gold.Id.Protein>
6NUR|6NUR_protein|mol2

> <Gold.PLP.Fitness>
28.9809

> <Gold.PLP.PLP>
-21.8929

> <Gold.PLP.part.hbond>
-3.0000

> <Gold.PLP.part.metal>
0.0000

> <Gold.PLP.part.buried>
-2.2523

> <Gold.PLP.part.nonpolar>
-16.5555

> <Gold.PLP.part.repulsive>
0.3126

> <Gold.PLP.ligand.clash>
0.0000

> <Gold.PLP.ligand.torsion>
0.0791

> <Gold.PLP.Chemscore.Hbond>
2.4124

> <Gold.PLP.Chemscore.CHOScore>
0.0000

> <Gold.PLP.Chemscore.Metal>
0.0000

> <Gold.Chemscore.Hbonds>
donor molecule, donor type, donor heavy atom, donor atom, acceptor molecule, acceptor atom, score
      P1  H  6896  6908       L1     1  1.00
      P1  H  7997  8009       L1     4  1.00
      P1  H  8011  8017       L1    14  0.42

> <Gold.PLP.Chemscore.Internal.Correction>
0.0090

> <Gold.Rescore>
     Score         DG    S(hbond)    S(metal)    S(lipo)     H(rot)  DE(clash)    DE(int)     intcor
     17.59     -17.72       2.68        0.00      50.01       1.00       0.10       0.03       ----

> <Gold.Chemscore.Fitness>
17.5949

> <Gold.Chemscore.DG>
-17.7200

> <Gold.Chemscore.ZeroCoef>
-5.4800

> <Gold.Chemscore.Hbond>
2.6794

> <Gold.Chemscore.Metal>
0.0000

> <Gold.Chemscore.Lipo>
50.0068

> <Gold.Chemscore.Internal_Hbond>
0.0000

> <Gold.Chemscore.DEClash>
0.0956

> <Gold.Chemscore.DEInternal>
0.0294

> <Gold.Chemscore.Rot>
1.0000

> <Gold.Chemscore.Internal.Correction>
   9.000000E+99

> <Gold.Chemscore.Hbonds>
donor molecule, donor type, donor heavy atom, donor atom, acceptor molecule, acceptor atom, score
      P1  H  6896  6908       L1     1  1.00
      P1  H  7997  8009       L1     4  0.96
      P1  H  8011  8017       L1    14  0.25

> <Gold.Chemscore.Hbond.Weighted>
-8.9492

> <Gold.Chemscore.Metal.Weighted>
-0.0000

> <Gold.Chemscore.Lipo.Weighted>
-5.8508

> <Gold.Chemscore.Internal_Hbond.Weighted>
0.0000

> <Gold.Chemscore.DEClash.Weighted>
0.0956

> <Gold.Chemscore.DEInternal.Weighted>
0.0294

> <Gold.Chemscore.Rot.Weighted>
2.5600

> <Gold.Chemscore.Internal.Correction.Weighted>
   9.000000E+99

> <Gold.Protein.RotatedTorsions>
[ 6907 6896 6895 6894 ] final -115.21 input  -60.11 | X-H torsion
[ 7974 7965 7964 7962 ] final  114.69 input  175.53 | X-H torsion
[ 8008 7997 7996 7995 ] final  163.25 input   59.86 | X-H torsion
[ 10167 10162 10161 10158 ] final -162.83 input  -65.29 | X-H torsion
[ 10718 10713 10712 10709 ] final  102.11 input   66.30 | X-H torsion
[ 10763 10752 10751 10750 ] final  -48.66 input  -60.55 | X-H torsion
[ 11005 11000 10999 10996 ] final   70.45 input  -57.11 | X-H torsion

> <Gold.Protein.ActiveResidues>
 VAL166  LYS551  ARG553  GLY616  TRP617  ASP618  TYR619  PRO620  LYS621  CYS622 
 ASP623  PHE694  ASN695  SER759  ASP760  ASP761  ALA762  ILE779  LEU786  VAL792 
 PHE793  MET794  SER795  GLU796  ALA797  LYS798  CYS799  TRP800  GLU811  SER814 

> <Gold.Protein.RotatedAtoms>
  150.7960  133.8691  159.3253 H   0  0  0  0  0  0  0  0  0  0  0  0  # atno 6907 bound_to 6896
  151.6516  135.0999  160.0171 H   0  0  0  0  0  0  0  0  0  0  0  0  # atno 6908 bound_to 6896
  152.4042  133.6824  159.6377 H   0  0  0  0  0  0  0  0  0  0  0  0  # atno 6909 bound_to 6896
  145.2012  139.2951  143.4317 H   0  0  0  0  0  0  0  0  0  0  0  0  # atno 7974 bound_to 7965
  156.1971  140.1728  156.7976 H   0  0  0  0  0  0  0  0  0  0  0  0  # atno 8008 bound_to 7997
  154.5543  140.0711  156.8750 H   0  0  0  0  0  0  0  0  0  0  0  0  # atno 8009 bound_to 7997
  155.2968  140.3359  155.4252 H   0  0  0  0  0  0  0  0  0  0  0  0  # atno 8010 bound_to 7997
  139.6364  144.0342  152.2057 H   0  0  0  0  0  0  0  0  0  0  0  0  # atno 10167 bound_to 10162
  157.6811  131.0744  150.5354 H   0  0  0  0  0  0  0  0  0  0  0  0  # atno 10718 bound_to 10713
  154.0814  135.6590  153.4838 H   0  0  0  0  0  0  0  0  0  0  0  0  # atno 10763 bound_to 10752
  153.0354  135.5181  154.7470 H   0  0  0  0  0  0  0  0  0  0  0  0  # atno 10764 bound_to 10752
  154.6566  135.3009  154.9888 H   0  0  0  0  0  0  0  0  0  0  0  0  # atno 10765 bound_to 10752
  139.9597  134.7082  156.0673 H   0  0  0  0  0  0  0  0  0  0  0  0  # atno 11005 bound_to 11000
  146.3417  140.2258  142.8592 LP  0  0  0  0  0  0  0  0  0  0  0  0  # atno 17320 bound_to 7965
  144.9945  140.8577  143.5319 LP  0  0  0  0  0  0  0  0  0  0  0  0  # atno 17321 bound_to 7965
  140.0021  144.6286  150.7721 LP  0  0  0  0  0  0  0  0  0  0  0  0  # atno 17342 bound_to 10162
  140.7467  143.2895  151.3369 LP  0  0  0  0  0  0  0  0  0  0  0  0  # atno 17343 bound_to 10162
  156.5662  130.4268  149.6040 LP  0  0  0  0  0  0  0  0  0  0  0  0  # atno 17370 bound_to 10713
  156.2779  130.7054  151.1870 LP  0  0  0  0  0  0  0  0  0  0  0  0  # atno 17371 bound_to 10713
  141.1273  133.6596  156.3370 LP  0  0  0  0  0  0  0  0  0  0  0  0  # atno 17394 bound_to 11000
  140.5528  134.6011  157.5412 LP  0  0  0  0  0  0  0  0  0  0  0  0  # atno 17395 bound_to 11000

$$$$
