AV-unprocessed.smi:2514|AV-procd|sdf|9896|dock4
  -GOLD-   2272013533D 1   1.00000     0.00000
 Structure written by MMmdl.
 24 25  0  0  0  0  0  0  0  0  1 V2000
  152.2101  143.1552  158.6531 C   0  0  0  0  0  0  0  0  0  0  0  0
  150.8629  142.5193  158.2878 C   0  0  1  0  0  0  0  0  0  0  0  0
  149.9789  143.5162  157.8163 O   0  0  0  0  0  0  0  0  0  0  0  0
  150.9856  141.4875  157.2018 C   0  0  0  0  0  0  0  0  0  0  0  0
  151.6284  140.2825  157.2398 C   0  0  0  0  0  0  0  0  0  0  0  0
  151.4215  139.7675  155.9777 N   0  0  0  0  0  0  0  0  0  0  0  0
  151.8898  138.5122  155.4645 C   0  0  0  0  0  0  0  0  0  0  0  0
  152.7808  138.4203  154.2211 C   0  0  0  0  0  0  0  0  0  0  0  0
  152.0731  137.1909  153.9061 N   0  0  0  0  0  0  0  0  0  0  0  0
  150.9318  137.5867  154.7140 C   0  0  0  0  0  0  0  0  0  0  0  0
  150.6985  140.6135  155.2061 N   0  0  0  0  0  0  0  0  0  0  0  0
  150.4272  141.6524  155.9315 N   0  0  0  0  0  0  0  0  0  0  0  0
  152.9117  142.4021  159.0131 H   0  0  0  0  0  0  0  0  0  0  0  0
  152.0922  143.8999  159.4404 H   0  0  0  0  0  0  0  0  0  0  0  0
  152.6639  143.6491  157.7931 H   0  0  0  0  0  0  0  0  0  0  0  0
  150.4222  142.0740  159.1805 H   0  0  0  0  0  0  0  0  0  0  0  0
  150.0560  143.5633  156.8756 H   0  0  0  0  0  0  0  0  0  0  0  0
  152.1855  139.7734  158.0125 H   0  0  0  0  0  0  0  0  0  0  0  0
  152.3515  137.9935  156.3078 H   0  0  0  0  0  0  0  0  0  0  0  0
  152.6048  139.1916  153.4698 H   0  0  0  0  0  0  0  0  0  0  0  0
  153.8401  138.2798  154.4371 H   0  0  0  0  0  0  0  0  0  0  0  0
  151.8434  137.1199  152.9248 H   0  0  0  0  0  0  0  0  0  0  0  0
  150.5171  136.7823  155.3221 H   0  0  0  0  0  0  0  0  0  0  0  0
  150.1719  138.1043  154.1264 H   0  0  0  0  0  0  0  0  0  0  0  0
  1  2  1  0  0  0  0
  1 13  1  0  0  0  0
  1 14  1  0  0  0  0
  1 15  1  0  0  0  0
  2  3  1  0  0  0  0
  2  4  1  0  0  0  0
  2 16  1  0  0  0  0
  3 17  1  0  0  0  0
  4 12  1  0  0  0  0
  4  5  2  0  0  0  0
  5  6  1  0  0  0  0
  5 18  1  0  0  0  0
  6  7  1  0  0  0  0
  6 11  1  0  0  0  0
  7 10  1  0  0  0  0
  7  8  1  0  0  0  0
  7 19  1  0  0  0  0
  8  9  1  0  0  0  0
  8 20  1  0  0  0  0
  8 21  1  0  0  0  0
  9 10  1  0  0  0  0
  9 22  1  0  0  0  0
 10 23  1  0  0  0  0
 10 24  1  0  0  0  0
 11 12  2  0  0  0  0
M  END
> <s_m_source_file>
AV-unprocessed.smi

> <i_m_source_file_index>
2514

> <i_lp_mmshare_version>
43012

> <i_f3d_flags>
0

> <s_epik_input>
W0NIM11bQ0BIXShbT0hdKWMxW2NIXW4obm4xKVtDSF0yW0NIMl1bTkhdW0NIMl0y

> <s_epik_cmdline>
J2VwaWtfcHl0aG9uJywgJy1waCcsICc3LjAnLCAnLXRuJywgJzgnLCAnLW1hJywgJzIwMCcsICctbWV0YWxfYmluZGluZycsICctaW1hZScsICc8aW5maWxlLm1hZT4nLCAnLW9tYWUnLCAnPG91dGZpbGUubWFlPic=

> <r_lp_tautomer_probability>
1

> <r_epik_Ionization_Penalty>
0.704859

> <r_epik_Ionization_Penalty_Charging>
0

> <r_epik_Ionization_Penalty_Neutral>
0.704859

> <r_epik_State_Penalty>
0.727806

> <r_epik_Charging_Adjusted_Penalty>
0.727806

> <i_epik_Tot_Q>
0

> <i_epik_Tot_abs_Q>
0

> <r_epik_Metal_State_Penalty>
0.727738

> <b_epik_Metal_Only>
0

> <s_lp_Force_Field>
OPLS_2005

> <r_lp_Energy>
11.7069

> <b_lp_Chiralities_Consistent>
1

> <s_lp_Variant>
AV-unprocessed.smi:2514-4

> <Gold.Version>
5.8.1

> <Gold.Id.Protein>
6NUR|6NUR_protein|mol2

> <Gold.PLP.Fitness>
34.0474

> <Gold.PLP.PLP>
-24.1507

> <Gold.PLP.part.hbond>
-4.3347

> <Gold.PLP.part.metal>
0.0000

> <Gold.PLP.part.buried>
-5.1132

> <Gold.PLP.part.nonpolar>
-15.6980

> <Gold.PLP.part.repulsive>
0.1455

> <Gold.PLP.ligand.clash>
0.0000

> <Gold.PLP.ligand.torsion>
0.2241

> <Gold.PLP.Chemscore.Hbond>
3.3797

> <Gold.PLP.Chemscore.CHOScore>
0.0000

> <Gold.PLP.Chemscore.Metal>
0.0000

> <Gold.Chemscore.Hbonds>
donor molecule, donor type, donor heavy atom, donor atom, acceptor molecule, acceptor atom, score
      L1  H     3    17       P1  8028  0.49
      L1  H     9    22       P1  7949  0.94
      P1  H  7989  7998       L1    11  0.94
      P1  H 10752 10763       L1     9  1.00

> <Gold.PLP.Chemscore.Internal.Correction>
0.2060

> <Gold.Rescore>
     Score         DG    S(hbond)    S(metal)    S(lipo)     H(rot)  DE(clash)    DE(int)     intcor
     14.29     -14.70       2.29        0.00      52.43       1.78       0.03       0.38       ----

> <Gold.Chemscore.Fitness>
14.2898

> <Gold.Chemscore.DG>
-14.6965

> <Gold.Chemscore.ZeroCoef>
-5.4800

> <Gold.Chemscore.Hbond>
2.2888

> <Gold.Chemscore.Metal>
0.0000

> <Gold.Chemscore.Lipo>
52.4325

> <Gold.Chemscore.Internal_Hbond>
0.0000

> <Gold.Chemscore.DEClash>
0.0310

> <Gold.Chemscore.DEInternal>
0.3757

> <Gold.Chemscore.Rot>
1.7823

> <Gold.Chemscore.Internal.Correction>
   9.000000E+99

> <Gold.Chemscore.Hbonds>
donor molecule, donor type, donor heavy atom, donor atom, acceptor molecule, acceptor atom, score
      L1  H     3    17       P1  8028  0.44
      L1  H     9    22       P1  7949  0.90
      P1  H  7989  7998       L1    11  0.60
      P1  H 10752 10763       L1     9  0.23

> <Gold.Chemscore.Hbond.Weighted>
-7.6446

> <Gold.Chemscore.Metal.Weighted>
-0.0000

> <Gold.Chemscore.Lipo.Weighted>
-6.1346

> <Gold.Chemscore.Internal_Hbond.Weighted>
0.0000

> <Gold.Chemscore.DEClash.Weighted>
0.0310

> <Gold.Chemscore.DEInternal.Weighted>
0.3757

> <Gold.Chemscore.Rot.Weighted>
4.5627

> <Gold.Chemscore.Internal.Correction.Weighted>
   9.000000E+99

> <Gold.Protein.RotatedTorsions>
[ 6907 6896 6895 6894 ] final  -28.25 input  -60.11 | X-H torsion
[ 7974 7965 7964 7962 ] final  179.59 input  175.53 | X-H torsion
[ 8008 7997 7996 7995 ] final  -71.57 input   59.86 | X-H torsion
[ 10167 10162 10161 10158 ] final  -91.84 input  -65.29 | X-H torsion
[ 10718 10713 10712 10709 ] final  -97.60 input   66.30 | X-H torsion
[ 10763 10752 10751 10750 ] final   30.41 input  -60.55 | X-H torsion
[ 11005 11000 10999 10996 ] final   -8.04 input  -57.11 | X-H torsion

> <Gold.Protein.ActiveResidues>
 VAL166  LYS551  ARG553  GLY616  TRP617  ASP618  TYR619  PRO620  LYS621  CYS622 
 ASP623  PHE694  ASN695  SER759  ASP760  ASP761  ALA762  ILE779  LEU786  VAL792 
 PHE793  MET794  SER795  GLU796  ALA797  LYS798  CYS799  TRP800  GLU811  SER814 

> <Gold.Protein.RotatedAtoms>
  151.1356  135.0153  159.8602 H   0  0  0  0  0  0  0  0  0  0  0  0  # atno 6907 bound_to 6896
  152.5452  134.1559  159.8548 H   0  0  0  0  0  0  0  0  0  0  0  0  # atno 6908 bound_to 6896
  151.1629  133.4788  159.2627 H   0  0  0  0  0  0  0  0  0  0  0  0  # atno 6909 bound_to 6896
  144.7144  140.0571  143.6433 H   0  0  0  0  0  0  0  0  0  0  0  0  # atno 7974 bound_to 7965
  154.5098  140.0813  156.7967 H   0  0  0  0  0  0  0  0  0  0  0  0  # atno 8008 bound_to 7997
  155.3811  140.3428  155.4228 H   0  0  0  0  0  0  0  0  0  0  0  0  # atno 8009 bound_to 7997
  156.1559  140.1573  156.8680 H   0  0  0  0  0  0  0  0  0  0  0  0  # atno 8010 bound_to 7997
  140.3408  143.2943  151.9837 H   0  0  0  0  0  0  0  0  0  0  0  0  # atno 10167 bound_to 10162
  156.0087  130.5201  150.6398 H   0  0  0  0  0  0  0  0  0  0  0  0  # atno 10718 bound_to 10713
  153.0373  135.6465  154.1040 H   0  0  0  0  0  0  0  0  0  0  0  0  # atno 10763 bound_to 10752
  154.0752  135.2877  155.3302 H   0  0  0  0  0  0  0  0  0  0  0  0  # atno 10764 bound_to 10752
  154.6567  135.5406  153.8032 H   0  0  0  0  0  0  0  0  0  0  0  0  # atno 10765 bound_to 10752
  140.7192  133.8843  155.8808 H   0  0  0  0  0  0  0  0  0  0  0  0  # atno 11005 bound_to 11000
  145.9895  139.3004  143.0993 LP  0  0  0  0  0  0  0  0  0  0  0  0  # atno 17320 bound_to 7965
  145.8919  140.9298  143.0548 LP  0  0  0  0  0  0  0  0  0  0  0  0  # atno 17321 bound_to 7965
  139.4841  144.6158  151.7349 LP  0  0  0  0  0  0  0  0  0  0  0  0  # atno 17342 bound_to 10162
  140.5310  144.0730  150.6054 LP  0  0  0  0  0  0  0  0  0  0  0  0  # atno 17343 bound_to 10162
  157.4181  131.0833  151.1158 LP  0  0  0  0  0  0  0  0  0  0  0  0  # atno 17370 bound_to 10713
  157.1768  130.6292  149.5658 LP  0  0  0  0  0  0  0  0  0  0  0  0  # atno 17371 bound_to 10713
  141.0018  134.1140  157.4310 LP  0  0  0  0  0  0  0  0  0  0  0  0  # atno 17394 bound_to 11000
  139.8852  135.0070  156.6420 LP  0  0  0  0  0  0  0  0  0  0  0  0  # atno 17395 bound_to 11000

$$$$
