AV-unprocessed.smi:2014|AV-procd|sdf|8161|dock8
  -GOLD-   2272010403D 1   1.00000     0.00000
 Structure written by MMmdl.
 46 48  0  0  0  0  0  0  0  0  1 V2000
  148.0432  132.8192  161.1613 C   0  0  0  0  0  0  0  0  0  0  0  0
  148.8353  133.9336  160.4628 C   0  0  2  0  0  0  0  0  0  0  0  0
  148.6538  135.2863  161.1775 C   0  0  0  0  0  0  0  0  0  0  0  0
  149.4416  136.4069  160.4804 C   0  0  0  0  0  0  0  0  0  0  0  0
  149.0595  136.5244  158.9910 C   0  0  1  0  0  0  0  0  0  0  0  0
  149.8753  137.5393  158.3318 N   0  0  0  0  0  0  0  0  0  0  0  0
  151.1887  137.7286  158.5302 C   0  0  0  0  0  0  0  0  0  0  0  0
  151.8547  137.0593  159.3218 O   0  0  0  0  0  0  0  0  0  0  0  0
  151.8340  138.8498  157.7015 C   0  0  0  0  0  0  0  0  0  0  0  0
  152.3170  139.9843  158.5193 N   0  0  0  0  0  0  0  0  0  0  0  0
  153.3478  139.7460  159.4642 C   0  0  0  0  0  0  0  0  0  0  0  0
  153.8523  138.6280  159.5846 O   0  0  0  0  0  0  0  0  0  0  0  0
  153.7408  140.8990  160.2708 C   0  0  0  0  0  0  0  0  0  0  0  0
  154.7483  140.6902  161.2571 C   0  0  0  0  0  0  0  0  0  0  0  0
  155.5507  140.5284  162.0755 N   0  0  0  0  0  0  0  0  0  0  0  0
  153.1639  142.1044  160.0871 C   0  0  0  0  0  0  0  0  0  0  0  0
  152.1928  142.3241  159.1348 N   0  0  0  0  0  0  0  0  0  0  0  0
  151.4872  143.5723  159.0604 C   0  0  0  0  0  0  0  0  0  0  0  0
  152.1846  144.8176  158.5477 C   0  0  0  0  0  0  0  0  0  0  0  0
  151.8621  144.6841  160.0159 C   0  0  0  0  0  0  0  0  0  0  0  0
  151.7026  141.2499  158.3602 C   0  0  0  0  0  0  0  0  0  0  0  0
  150.7622  141.4050  157.5771 O   0  0  0  0  0  0  0  0  0  0  0  0
  149.2386  135.1724  158.2763 C   0  0  0  0  0  0  0  0  0  0  0  0
  148.4468  134.0563  158.9768 C   0  0  0  0  0  0  0  0  0  0  0  0
  146.9725  133.0268  161.1511 H   0  0  0  0  0  0  0  0  0  0  0  0
  148.3515  132.7120  162.2017 H   0  0  0  0  0  0  0  0  0  0  0  0
  148.2015  131.8582  160.6705 H   0  0  0  0  0  0  0  0  0  0  0  0
  149.8919  133.6656  160.5127 H   0  0  0  0  0  0  0  0  0  0  0  0
  147.5957  135.5509  161.2033 H   0  0  0  0  0  0  0  0  0  0  0  0
  148.9766  135.2063  162.2162 H   0  0  0  0  0  0  0  0  0  0  0  0
  149.2580  137.3522  160.9927 H   0  0  0  0  0  0  0  0  0  0  0  0
  150.5106  136.2088  160.5741 H   0  0  0  0  0  0  0  0  0  0  0  0
  148.0081  136.8092  158.9171 H   0  0  0  0  0  0  0  0  0  0  0  0
  149.4069  138.1366  157.6659 H   0  0  0  0  0  0  0  0  0  0  0  0
  152.6509  138.4273  157.1141 H   0  0  0  0  0  0  0  0  0  0  0  0
  151.1133  139.1789  156.9516 H   0  0  0  0  0  0  0  0  0  0  0  0
  153.4767  142.9329  160.7064 H   0  0  0  0  0  0  0  0  0  0  0  0
  150.4281  143.4918  158.8217 H   0  0  0  0  0  0  0  0  0  0  0  0
  153.2320  144.7420  158.2613 H   0  0  0  0  0  0  0  0  0  0  0  0
  151.5921  145.5184  157.9634 H   0  0  0  0  0  0  0  0  0  0  0  0
  151.0561  145.2990  160.4112 H   0  0  0  0  0  0  0  0  0  0  0  0
  152.6965  144.5177  160.6948 H   0  0  0  0  0  0  0  0  0  0  0  0
  148.9168  135.2531  157.2371 H   0  0  0  0  0  0  0  0  0  0  0  0
  150.2958  134.9032  158.2522 H   0  0  0  0  0  0  0  0  0  0  0  0
  148.6225  133.1094  158.4652 H   0  0  0  0  0  0  0  0  0  0  0  0
  147.3786  134.2601  158.8896 H   0  0  0  0  0  0  0  0  0  0  0  0
  1  2  1  0  0  0  0
  1 25  1  0  0  0  0
  1 26  1  0  0  0  0
  1 27  1  0  0  0  0
  2 24  1  0  0  0  0
  2  3  1  0  0  0  0
  2 28  1  0  0  0  0
  3  4  1  0  0  0  0
  3 29  1  0  0  0  0
  3 30  1  0  0  0  0
  4  5  1  0  0  0  0
  4 31  1  0  0  0  0
  4 32  1  0  0  0  0
  5  6  1  0  0  0  0
  5 23  1  0  0  0  0
  5 33  1  0  0  0  0
  6  7  1  0  0  0  0
  6 34  1  0  0  0  0
  7  8  2  0  0  0  0
  7  9  1  0  0  0  0
  9 10  1  0  0  0  0
  9 35  1  0  0  0  0
  9 36  1  0  0  0  0
 10 21  1  0  0  0  0
 10 11  1  0  0  0  0
 11 12  2  0  0  0  0
 11 13  1  0  0  0  0
 13 14  1  0  0  0  0
 13 16  2  0  0  0  0
 14 15  3  0  0  0  0
 16 17  1  0  0  0  0
 16 37  1  0  0  0  0
 17 18  1  0  0  0  0
 17 21  1  0  0  0  0
 18 20  1  0  0  0  0
 18 19  1  0  0  0  0
 18 38  1  0  0  0  0
 19 20  1  0  0  0  0
 19 39  1  0  0  0  0
 19 40  1  0  0  0  0
 20 41  1  0  0  0  0
 20 42  1  0  0  0  0
 21 22  2  0  0  0  0
 23 24  1  0  0  0  0
 23 43  1  0  0  0  0
 23 44  1  0  0  0  0
 24 45  1  0  0  0  0
 24 46  1  0  0  0  0
M  END
> <s_m_source_file>
AV-unprocessed.smi

> <i_m_source_file_index>
2014

> <i_lp_mmshare_version>
43012

> <i_f3d_flags>
0

> <s_epik_input>
W0NIM11bQ0BASF0xW0NIMl1bQ0gyXVtDQEhdKFtDSDJdW0NIMl0xKVtOSF1DKD1PKVtDSDJdbjJjKD1PKWMoQyNOKVtjSF1uKGMyPU8pW0NIXTNbQ0gyXVtDSDJdMw==

> <s_epik_cmdline>
J2VwaWtfcHl0aG9uJywgJy1waCcsICc3LjAnLCAnLXRuJywgJzgnLCAnLW1hJywgJzIwMCcsICctbWV0YWxfYmluZGluZycsICctaW1hZScsICc8aW5maWxlLm1hZT4nLCAnLW9tYWUnLCAnPG91dGZpbGUubWFlPic=

> <r_lp_tautomer_probability>
1

> <r_epik_Ionization_Penalty>
1.91358e-08

> <r_epik_Ionization_Penalty_Charging>
8.89021e-11

> <r_epik_Ionization_Penalty_Neutral>
1.90469e-08

> <r_epik_State_Penalty>
-0

> <r_epik_Charging_Adjusted_Penalty>
8.89021e-11

> <i_epik_Tot_Q>
0

> <i_epik_Tot_abs_Q>
0

> <r_epik_Metal_State_Penalty>
-0

> <b_epik_Metal_Only>
0

> <s_lp_Force_Field>
OPLS_2005

> <r_lp_Energy>
34.0792

> <b_lp_Chiralities_Consistent>
1

> <s_lp_Variant>
AV-unprocessed.smi:2014-1

> <Gold.Version>
5.8.1

> <Gold.Id.Protein>
6NUR|6NUR_protein|mol2

> <Gold.PLP.Fitness>
49.1453

> <Gold.PLP.PLP>
-46.8202

> <Gold.PLP.part.hbond>
-2.0000

> <Gold.PLP.part.metal>
0.0000

> <Gold.PLP.part.buried>
-3.2090

> <Gold.PLP.part.nonpolar>
-42.5427

> <Gold.PLP.part.repulsive>
0.1978

> <Gold.PLP.ligand.clash>
0.0000

> <Gold.PLP.ligand.torsion>
0.4421

> <Gold.PLP.Chemscore.Hbond>
1.0000

> <Gold.PLP.Chemscore.CHOScore>
0.0000

> <Gold.PLP.Chemscore.Metal>
0.0000

> <Gold.Chemscore.Hbonds>
donor molecule, donor type, donor heavy atom, donor atom, acceptor molecule, acceptor atom, score
      P1  H  6896  6907       L1     8  0.83

> <Gold.PLP.Chemscore.Internal.Correction>
0.2093

> <Gold.Rescore>
     Score         DG    S(hbond)    S(metal)    S(lipo)     H(rot)  DE(clash)    DE(int)     intcor
     11.97     -16.64       1.00        0.00     104.15       1.70       1.52       3.16       ----

> <Gold.Chemscore.Fitness>
11.9655

> <Gold.Chemscore.DG>
-16.6437

> <Gold.Chemscore.ZeroCoef>
-5.4800

> <Gold.Chemscore.Hbond>
1.0000

> <Gold.Chemscore.Metal>
0.0000

> <Gold.Chemscore.Lipo>
104.1496

> <Gold.Chemscore.Internal_Hbond>
0.0000

> <Gold.Chemscore.DEClash>
1.5209

> <Gold.Chemscore.DEInternal>
3.1574

> <Gold.Chemscore.Rot>
1.7038

> <Gold.Chemscore.Internal.Correction>
   9.000000E+99

> <Gold.Chemscore.Hbonds>
donor molecule, donor type, donor heavy atom, donor atom, acceptor molecule, acceptor atom, score
      P1  H  6896  6907       L1     8  0.77

> <Gold.Chemscore.Hbond.Weighted>
-3.3400

> <Gold.Chemscore.Metal.Weighted>
-0.0000

> <Gold.Chemscore.Lipo.Weighted>
-12.1855

> <Gold.Chemscore.Internal_Hbond.Weighted>
0.0000

> <Gold.Chemscore.DEClash.Weighted>
1.5209

> <Gold.Chemscore.DEInternal.Weighted>
3.1574

> <Gold.Chemscore.Rot.Weighted>
4.3618

> <Gold.Chemscore.Internal.Correction.Weighted>
   9.000000E+99

> <Gold.Protein.RotatedTorsions>
[ 6907 6896 6895 6894 ] final  -17.52 input  -60.11 | X-H torsion
[ 7974 7965 7964 7962 ] final   19.01 input  175.53 | X-H torsion
[ 8008 7997 7996 7995 ] final -109.27 input   59.86 | X-H torsion
[ 10167 10162 10161 10158 ] final  106.60 input  -65.29 | X-H torsion
[ 10718 10713 10712 10709 ] final -111.41 input   66.30 | X-H torsion
[ 10763 10752 10751 10750 ] final    2.15 input  -60.55 | X-H torsion
[ 11005 11000 10999 10996 ] final  -91.99 input  -57.11 | X-H torsion

> <Gold.Protein.ActiveResidues>
 VAL166  LYS551  ARG553  GLY616  TRP617  ASP618  TYR619  PRO620  LYS621  CYS622 
 ASP623  PHE694  ASN695  SER759  ASP760  ASP761  ALA762  ILE779  LEU786  VAL792 
 PHE793  MET794  SER795  GLU796  ALA797  LYS798  CYS799  TRP800  GLU811  SER814 

> <Gold.Protein.RotatedAtoms>
  151.2921  135.0745  159.9207 H   0  0  0  0  0  0  0  0  0  0  0  0  # atno 6907 bound_to 6896
  152.5314  133.9921  159.7866 H   0  0  0  0  0  0  0  0  0  0  0  0  # atno 6908 bound_to 6896
  151.0193  133.5841  159.2704 H   0  0  0  0  0  0  0  0  0  0  0  0  # atno 6909 bound_to 6896
  146.2165  139.8375  142.8648 H   0  0  0  0  0  0  0  0  0  0  0  0  # atno 7974 bound_to 7965
  154.9568  140.0400  157.2171 H   0  0  0  0  0  0  0  0  0  0  0  0  # atno 8008 bound_to 7997
  154.7926  140.2838  155.5958 H   0  0  0  0  0  0  0  0  0  0  0  0  # atno 8009 bound_to 7997
  156.2951  140.2570  156.2777 H   0  0  0  0  0  0  0  0  0  0  0  0  # atno 8010 bound_to 7997
  139.6995  144.7096  151.1209 H   0  0  0  0  0  0  0  0  0  0  0  0  # atno 10167 bound_to 10162
  156.0646  130.5866  150.8370 H   0  0  0  0  0  0  0  0  0  0  0  0  # atno 10718 bound_to 10713
  153.2991  135.6954  153.7220 H   0  0  0  0  0  0  0  0  0  0  0  0  # atno 10763 bound_to 10752
  153.6141  135.3439  155.2989 H   0  0  0  0  0  0  0  0  0  0  0  0  # atno 10764 bound_to 10752
  154.8545  135.4370  154.2097 H   0  0  0  0  0  0  0  0  0  0  0  0  # atno 10765 bound_to 10752
  141.1532  133.7792  156.9958 H   0  0  0  0  0  0  0  0  0  0  0  0  # atno 11005 bound_to 11000
  145.2934  141.0173  143.3650 LP  0  0  0  0  0  0  0  0  0  0  0  0  # atno 17320 bound_to 7965
  144.9060  139.4588  143.6609 LP  0  0  0  0  0  0  0  0  0  0  0  0  # atno 17321 bound_to 7965
  140.7706  143.5443  150.9276 LP  0  0  0  0  0  0  0  0  0  0  0  0  # atno 17342 bound_to 10162
  139.9124  143.6704  152.3112 LP  0  0  0  0  0  0  0  0  0  0  0  0  # atno 17343 bound_to 10162
  157.5678  131.0946  150.9463 LP  0  0  0  0  0  0  0  0  0  0  0  0  # atno 17370 bound_to 10713
  156.9686  130.5482  149.5289 LP  0  0  0  0  0  0  0  0  0  0  0  0  # atno 17371 bound_to 10713
  140.0973  134.9557  157.1869 LP  0  0  0  0  0  0  0  0  0  0  0  0  # atno 17394 bound_to 11000
  140.3366  134.2751  155.7219 LP  0  0  0  0  0  0  0  0  0  0  0  0  # atno 17395 bound_to 11000

$$$$
