#       Name:                AV-unprocessed.smi:606
#       Creating user name   scv26
#       Creation time:       Thu Mar 26 23:56:07 2020


#       File generated by GOLD software.
#

@<TRIPOS>MOLECULE
AV-unprocessed.smi:606
    41    42     1
SMALL
NO_CHARGES


@<TRIPOS>ATOM
      1 ****        -6.7442  -2.3610  -0.7980 C.3            1 S1                 0.0000
      2 ****        -5.4453  -1.6569  -0.6029 C.2            1 S1                 0.0000
      3 ****        -4.1764  -2.0971  -0.3503 C.2            1 S1                 0.0000
      4 ****        -3.4274  -0.8920  -0.2828 C.2            1 S1                 0.0000
      5 ****        -2.0319  -0.9146  -0.0297 N.am           1 S1                 0.0000
      6 ****        -1.1957   0.1354   0.0397 C.2            1 S1                 0.0000
      7 ****        -1.5211   1.3120  -0.1232 O.2            1 S1                 0.0000
      8 ****         0.0592  -0.2567   0.3077 N.am           1 S1                 0.0000
      9 ****         1.2109   0.6313   0.4547 C.3            1 S1                 0.0000
     10 ****         1.8416   0.9020  -0.9298 C.3            1 S1                 0.0000
     11 ****         2.8323   2.0784  -0.9230 C.3            1 S1                 0.0000
     12 ****         4.2834   1.7254  -0.5517 C.3            1 S1                 0.0000
     13 ****         4.4764   0.7115   0.5898 C.3            1 S1                 0.0000
     14 ****         3.4624   0.8106   1.7407 C.3            1 S1                 0.0000
     15 ****         2.1793   0.0040   1.4752 C.3            1 S1                 0.0000
     16 ****        -4.1724   0.1859  -0.4745 N.2            1 S1                 0.0000
     17 ****        -5.4693  -0.2987  -0.6805 O.3            1 S1                 0.0000
     18 ****        -6.5948  -3.4371  -0.8880 H              1 S1                 0.0000
     19 ****        -7.2416  -2.0124  -1.7033 H              1 S1                 0.0000
     20 ****        -7.4109  -2.1815   0.0455 H              1 S1                 0.0000
     21 ****        -3.8418  -3.1172  -0.2342 H              1 S1                 0.0000
     22 ****        -1.6279  -1.8277   0.1165 H              1 S1                 0.0000
     23 ****         0.2336  -1.2446   0.4204 H              1 S1                 0.0000
     24 ****         0.8618   1.5782   0.8712 H              1 S1                 0.0000
     25 ****         2.3082   0.0025  -1.3334 H              1 S1                 0.0000
     26 ****         1.0427   1.1586  -1.6271 H              1 S1                 0.0000
     27 ****         2.8450   2.5329  -1.9143 H              1 S1                 0.0000
     28 ****         2.4630   2.8599  -0.2578 H              1 S1                 0.0000
     29 ****         4.7954   1.3424  -1.4351 H              1 S1                 0.0000
     30 ****         4.7995   2.6514  -0.2958 H              1 S1                 0.0000
     31 ****         4.4647  -0.3006   0.1838 H              1 S1                 0.0000
     32 ****         5.4818   0.8464   0.9901 H              1 S1                 0.0000
     33 ****         3.9310   0.3974   2.6345 H              1 S1                 0.0000
     34 ****         3.2350   1.8503   1.9787 H              1 S1                 0.0000
     35 ****         1.6501  -0.1096   2.4223 H              1 S1                 0.0000
     36 ****         2.4443  -1.0079   1.1650 H              1 S1                 0.0000
     37 ****        -2.4727   1.5443  -0.3245 LP             1 S1                 0.0000
     38 ****        -0.8338   2.0350  -0.0542 LP             1 S1                 0.0000
     39 ****        -3.8731   1.1400  -0.4725 LP             1 S1                 0.0000
     40 ****        -6.0807   0.0676   0.0209 LP             1 S1                 0.0000
     41 ****        -5.7934  -0.0190  -1.5843 LP             1 S1                 0.0000
@<TRIPOS>BOND
    1    1    2 1     
    2    1   18 1     
    3    1   19 1     
    4    1   20 1     
    5    2   17 1     
    6    2    3 2     
    7    3    4 1     
    8    3   21 1     
    9    4    5 1     
   10    4   16 2     
   11    5    6 am    
   12    5   22 1     
   13    6    7 2     
   14    6    8 am    
   15    8    9 1     
   16    8   23 1     
   17    9   15 1     
   18    9   10 1     
   19    9   24 1     
   20   10   11 1     
   21   10   25 1     
   22   10   26 1     
   23   11   12 1     
   24   11   27 1     
   25   11   28 1     
   26   12   13 1     
   27   12   29 1     
   28   12   30 1     
   29   13   14 1     
   30   13   31 1     
   31   13   32 1     
   32   14   15 1     
   33   14   33 1     
   34   14   34 1     
   35   15   35 1     
   36   15   36 1     
   37   16   17 1     
   38    7   37 1     
   39    7   38 1     
   40   16   39 1     
   41   17   40 1     
   42   17   41 1     
@<TRIPOS>SUBSTRUCTURE
      1 S1             1
@<TRIPOS>SET
LONE_PAIRS      STATIC     ATOMS    <user>   **** ""
5 37 38 39 40 41
DONOR_HYDROGENS      STATIC     ATOMS    <user>   **** ""
2 22 23
ATOM$BLUE        STATIC     ATOMS    COLORGROUP SYSTEM
5 37 38 39 40 41
ATOM$RED        STATIC     ATOMS    COLORGROUP SYSTEM
2 22 23
