AV-unprocessed.smi:567|AV-procd|sdf|2956|dock1
  -GOLD-   2262023453D 1   1.00000     0.00000
 Structure written by MMmdl.
 53 54  0  0  0  0  0  0  0  0  2 V2000
  149.6376  144.9698  160.2508 C   0  0  0  0  0  0  0  0  0  0  0  0
  148.6966  144.0051  160.6864 O   0  0  0  0  0  0  0  0  0  0  0  0
  147.3679  144.5046  160.6949 C   0  0  0  0  0  0  0  0  0  0  0  0
  146.3798  143.3339  160.5708 C   0  0  0  0  0  0  0  0  0  0  0  0
  146.1502  142.9644  159.1696 N   0  0  0  0  0  0  0  0  0  0  0  0
  146.6703  141.7290  158.8299 N   0  0  0  0  0  0  0  0  0  0  0  0
  146.5410  141.2746  157.6260 C   0  0  0  0  0  0  0  0  0  0  0  0
  147.1088  139.9579  157.2310 C   0  0  0  0  0  0  0  0  0  0  0  0
  148.0299  139.4269  157.8526 O   0  0  0  0  0  0  0  0  0  0  0  0
  146.5451  139.4107  156.1402 N   0  0  0  0  0  0  0  0  0  0  0  0
  146.9525  138.1796  155.4750 C   0  0  0  0  0  0  0  0  0  0  0  0
  148.4806  138.0038  155.4448 C   0  0  0  0  0  0  0  0  0  0  0  0
  149.2258  138.9100  154.4304 C   0  0  0  0  0  0  0  0  0  0  0  0
  149.4147  140.3531  154.9509 C   0  0  0  0  0  0  0  0  0  0  0  0
  150.6396  138.3303  154.2291 C   0  0  0  0  0  0  0  0  0  0  0  0
  148.5597  138.8911  153.0968 N   0  3  0  0  0  0  0  0  0  0  0  0
  147.0751  138.9918  153.0011 C   0  0  0  0  0  0  0  0  0  0  0  0
  146.5973  140.4607  153.0721 C   0  0  0  0  0  0  0  0  0  0  0  0
  146.6865  138.4739  151.6027 C   0  0  0  0  0  0  0  0  0  0  0  0
  146.3794  138.0875  154.0521 C   0  0  0  0  0  0  0  0  0  0  0  0
  145.8328  142.0379  156.6140 C   0  0  0  0  0  0  0  0  0  0  0  0
  145.3486  143.2532  156.9538 C   0  0  0  0  0  0  0  0  0  0  0  0
  145.5100  143.8045  158.3013 C   0  0  0  0  0  0  0  0  0  0  0  0
  145.1086  144.9224  158.6230 O   0  0  0  0  0  0  0  0  0  0  0  0
  150.6385  144.5385  160.2690 H   0  0  0  0  0  0  0  0  0  0  0  0
  149.6359  145.8453  160.9014 H   0  0  0  0  0  0  0  0  0  0  0  0
  149.4274  145.2909  159.2299 H   0  0  0  0  0  0  0  0  0  0  0  0
  147.1889  145.0330  161.6323 H   0  0  0  0  0  0  0  0  0  0  0  0
  147.2174  145.2197  159.8846 H   0  0  0  0  0  0  0  0  0  0  0  0
  146.7554  142.4726  161.1261 H   0  0  0  0  0  0  0  0  0  0  0  0
  145.4402  143.5982  161.0586 H   0  0  0  0  0  0  0  0  0  0  0  0
  145.7828  139.9194  155.7156 H   0  0  0  0  0  0  0  0  0  0  0  0
  146.5289  137.3509  156.0454 H   0  0  0  0  0  0  0  0  0  0  0  0
  148.8969  138.1323  156.4453 H   0  0  0  0  0  0  0  0  0  0  0  0
  148.6736  136.9613  155.1864 H   0  0  0  0  0  0  0  0  0  0  0  0
  150.0283  140.3619  155.8525 H   0  0  0  0  0  0  0  0  0  0  0  0
  148.4891  140.8533  155.2142 H   0  0  0  0  0  0  0  0  0  0  0  0
  149.9191  140.9765  154.2119 H   0  0  0  0  0  0  0  0  0  0  0  0
  151.1910  138.2895  155.1695 H   0  0  0  0  0  0  0  0  0  0  0  0
  151.2246  138.9332  153.5332 H   0  0  0  0  0  0  0  0  0  0  0  0
  150.6047  137.3162  153.8287 H   0  0  0  0  0  0  0  0  0  0  0  0
  148.9763  139.5997  152.5099 H   0  0  0  0  0  0  0  0  0  0  0  0
  145.5323  140.5332  152.8481 H   0  0  0  0  0  0  0  0  0  0  0  0
  147.1209  141.0812  152.3441 H   0  0  0  0  0  0  0  0  0  0  0  0
  146.7304  140.9247  154.0435 H   0  0  0  0  0  0  0  0  0  0  0  0
  145.6054  138.4908  151.4572 H   0  0  0  0  0  0  0  0  0  0  0  0
  147.0195  137.4467  151.4478 H   0  0  0  0  0  0  0  0  0  0  0  0
  147.1319  139.0807  150.8131 H   0  0  0  0  0  0  0  0  0  0  0  0
  146.4810  137.0473  153.7375 H   0  0  0  0  0  0  0  0  0  0  0  0
  145.3052  138.2788  154.0664 H   0  0  0  0  0  0  0  0  0  0  0  0
  145.7003  141.6538  155.6130 H   0  0  0  0  0  0  0  0  0  0  0  0
  144.8230  143.8362  156.2116 H   0  0  0  0  0  0  0  0  0  0  0  0
  148.7905  137.9920  152.6985 H   0  0  0  0  0  0  0  0  0  0  0  0
  1  2  1  0  0  0  0
  1 25  1  0  0  0  0
  1 26  1  0  0  0  0
  1 27  1  0  0  0  0
  2  3  1  0  0  0  0
  3  4  1  0  0  0  0
  3 28  1  0  0  0  0
  3 29  1  0  0  0  0
  4  5  1  0  0  0  0
  4 30  1  0  0  0  0
  4 31  1  0  0  0  0
  5 23  1  0  0  0  0
  5  6  1  0  0  0  0
  6  7  2  0  0  0  0
  7  8  1  0  0  0  0
  7 21  1  0  0  0  0
  8  9  2  0  0  0  0
  8 10  1  0  0  0  0
 10 11  1  0  0  0  0
 10 32  1  0  0  0  0
 11 20  1  0  0  0  0
 11 12  1  0  0  0  0
 11 33  1  0  0  0  0
 12 13  1  0  0  0  0
 12 34  1  0  0  0  0
 12 35  1  0  0  0  0
 13 14  1  0  0  0  0
 13 15  1  0  0  0  0
 13 16  1  0  0  0  0
 14 36  1  0  0  0  0
 14 37  1  0  0  0  0
 14 38  1  0  0  0  0
 15 39  1  0  0  0  0
 15 40  1  0  0  0  0
 15 41  1  0  0  0  0
 16 17  1  0  0  0  0
 16 42  1  0  0  0  0
 16 53  1  0  0  0  0
 17 18  1  0  0  0  0
 17 19  1  0  0  0  0
 17 20  1  0  0  0  0
 18 43  1  0  0  0  0
 18 44  1  0  0  0  0
 18 45  1  0  0  0  0
 19 46  1  0  0  0  0
 19 47  1  0  0  0  0
 19 48  1  0  0  0  0
 20 49  1  0  0  0  0
 20 50  1  0  0  0  0
 21 22  2  0  0  0  0
 21 51  1  0  0  0  0
 22 23  1  0  0  0  0
 22 52  1  0  0  0  0
 23 24  2  0  0  0  0
M  CHG  1  16   1
M  END
> <s_m_source_file>
AV-unprocessed.smi

> <i_m_source_file_index>
567

> <i_lp_mmshare_version>
43012

> <i_f3d_flags>
0

> <s_epik_input>
W0NIM11PW0NIMl1bQ0gyXW4xbmMoW2NIXVtjSF1jMT1PKUMoPU8pW05IXVtDSF0oW0NIMl1DMihbQ0gzXSlbQ0gzXSlbQ0gyXUMoW05IXTIpKFtDSDNdKVtDSDNd

> <s_epik_cmdline>
J2VwaWtfcHl0aG9uJywgJy1waCcsICc3LjAnLCAnLXRuJywgJzgnLCAnLW1hJywgJzIwMCcsICctbWV0YWxfYmluZGluZycsICctaW1hZScsICc8aW5maWxlLm1hZT4nLCAnLW9tYWUnLCAnPG91dGZpbGUubWFlPic=

> <r_lp_tautomer_probability>
1

> <r_epik_Ionization_Penalty>
0.000138804

> <r_epik_Ionization_Penalty_Charging>
0.000136152

> <r_epik_Ionization_Penalty_Neutral>
2.65225e-06

> <r_epik_State_Penalty>
-0

> <r_epik_Charging_Adjusted_Penalty>
0.000136152

> <i_epik_Tot_Q>
1

> <i_epik_Tot_abs_Q>
1

> <r_epik_Metal_State_Penalty>
-0

> <b_epik_Metal_Only>
0

> <s_lp_Force_Field>
OPLS_2005

> <r_lp_Energy>
46.3617

> <b_lp_Chiralities_Consistent>
1

> <s_lp_Variant>
AV-unprocessed.smi:567-1

> <Gold.Version>
5.8.1

> <Gold.Id.Protein>
6NUR|6NUR_protein|mol2

> <Gold.PLP.Fitness>
44.0097

> <Gold.PLP.PLP>
-31.8631

> <Gold.PLP.part.hbond>
-4.5551

> <Gold.PLP.part.metal>
0.0000

> <Gold.PLP.part.buried>
-3.7603

> <Gold.PLP.part.nonpolar>
-24.8603

> <Gold.PLP.part.repulsive>
0.3540

> <Gold.PLP.ligand.clash>
0.0000

> <Gold.PLP.ligand.torsion>
0.8048

> <Gold.PLP.Chemscore.Hbond>
4.5576

> <Gold.PLP.Chemscore.CHOScore>
0.0000

> <Gold.PLP.Chemscore.Metal>
0.0000

> <Gold.Chemscore.Hbonds>
donor molecule, donor type, donor heavy atom, donor atom, acceptor molecule, acceptor atom, score
      L1  H    16    42       P1  7957  0.99
      L1  H    16    53       P1  7948  2.00
      P1  H  6933  6944       L1     2  0.82
      P1  H  6934  6946       L1     6  0.60

> <Gold.PLP.Chemscore.Internal.Correction>
0.0833

> <Gold.Rescore>
     Score         DG    S(hbond)    S(metal)    S(lipo)     H(rot)  DE(clash)    DE(int)     intcor
     17.33     -20.12       3.29        0.00      66.47       1.61       0.70       2.09       ----

> <Gold.Chemscore.Fitness>
17.3325

> <Gold.Chemscore.DG>
-20.1219

> <Gold.Chemscore.ZeroCoef>
-5.4800

> <Gold.Chemscore.Hbond>
3.2902

> <Gold.Chemscore.Metal>
0.0000

> <Gold.Chemscore.Lipo>
66.4725

> <Gold.Chemscore.Internal_Hbond>
0.0000

> <Gold.Chemscore.DEClash>
0.6955

> <Gold.Chemscore.DEInternal>
2.0940

> <Gold.Chemscore.Rot>
1.6112

> <Gold.Chemscore.Internal.Correction>
   9.000000E+99

> <Gold.Chemscore.Hbonds>
donor molecule, donor type, donor heavy atom, donor atom, acceptor molecule, acceptor atom, score
      L1  H    16    42       P1  7957  0.90
      L1  H    16    53       P1  7948  1.00
      P1  H  6933  6944       L1     2  0.36
      P1  H  6934  6946       L1     6  0.20

> <Gold.Chemscore.Hbond.Weighted>
-10.9893

> <Gold.Chemscore.Metal.Weighted>
-0.0000

> <Gold.Chemscore.Lipo.Weighted>
-7.7773

> <Gold.Chemscore.Internal_Hbond.Weighted>
0.0000

> <Gold.Chemscore.DEClash.Weighted>
0.6955

> <Gold.Chemscore.DEInternal.Weighted>
2.0940

> <Gold.Chemscore.Rot.Weighted>
4.1247

> <Gold.Chemscore.Internal.Correction.Weighted>
   9.000000E+99

> <Gold.Protein.RotatedTorsions>
[ 6907 6896 6895 6894 ] final -103.52 input  -60.11 | X-H torsion
[ 7974 7965 7964 7962 ] final  128.55 input  175.53 | X-H torsion
[ 8008 7997 7996 7995 ] final  166.27 input   59.86 | X-H torsion
[ 10167 10162 10161 10158 ] final  105.90 input  -65.29 | X-H torsion
[ 10718 10713 10712 10709 ] final   12.87 input   66.30 | X-H torsion
[ 10763 10752 10751 10750 ] final -174.58 input  -60.55 | X-H torsion
[ 11005 11000 10999 10996 ] final -159.33 input  -57.11 | X-H torsion

> <Gold.Protein.ActiveResidues>
 VAL166  LYS551  ARG553  GLY616  TRP617  ASP618  TYR619  PRO620  LYS621  CYS622 
 ASP623  PHE694  ASN695  SER759  ASP760  ASP761  ALA762  ILE779  LEU786  VAL792 
 PHE793  MET794  SER795  GLU796  ALA797  LYS798  CYS799  TRP800  GLU811  SER814 

> <Gold.Protein.RotatedAtoms>
  150.7244  134.0416  159.3767 H   0  0  0  0  0  0  0  0  0  0  0  0  # atno 6907 bound_to 6896
  151.8389  135.0594  160.0455 H   0  0  0  0  0  0  0  0  0  0  0  0  # atno 6908 bound_to 6896
  152.2877  133.5495  159.5574 H   0  0  0  0  0  0  0  0  0  0  0  0  # atno 6909 bound_to 6896
  145.0384  139.3985  143.5114 H   0  0  0  0  0  0  0  0  0  0  0  0  # atno 7974 bound_to 7965
  156.1732  140.1648  156.8410 H   0  0  0  0  0  0  0  0  0  0  0  0  # atno 8008 bound_to 7997
  154.5279  140.0763  156.8325 H   0  0  0  0  0  0  0  0  0  0  0  0  # atno 8009 bound_to 7997
  155.3469  140.3388  155.4241 H   0  0  0  0  0  0  0  0  0  0  0  0  # atno 8010 bound_to 7997
  139.7054  144.7087  151.1116 H   0  0  0  0  0  0  0  0  0  0  0  0  # atno 10167 bound_to 10162
  157.0163  130.6137  149.5715 H   0  0  0  0  0  0  0  0  0  0  0  0  # atno 10718 bound_to 10713
  154.5946  135.2848  155.0600 H   0  0  0  0  0  0  0  0  0  0  0  0  # atno 10763 bound_to 10752
  154.1888  135.6444  153.5058 H   0  0  0  0  0  0  0  0  0  0  0  0  # atno 10764 bound_to 10752
  153.0134  135.5441  154.6643 H   0  0  0  0  0  0  0  0  0  0  0  0  # atno 10765 bound_to 10752
  140.6438  134.4523  157.5234 H   0  0  0  0  0  0  0  0  0  0  0  0  # atno 11005 bound_to 11000
  146.3506  139.9971  142.8680 LP  0  0  0  0  0  0  0  0  0  0  0  0  # atno 17320 bound_to 7965
  145.1680  140.9706  143.4338 LP  0  0  0  0  0  0  0  0  0  0  0  0  # atno 17321 bound_to 7965
  140.7720  143.5366  150.9361 LP  0  0  0  0  0  0  0  0  0  0  0  0  # atno 17342 bound_to 10162
  139.9049  143.6790  152.3125 LP  0  0  0  0  0  0  0  0  0  0  0  0  # atno 17343 bound_to 10162
  156.0118  130.5210  150.8011 LP  0  0  0  0  0  0  0  0  0  0  0  0  # atno 17370 bound_to 10713
  157.5283  131.0935  150.9989 LP  0  0  0  0  0  0  0  0  0  0  0  0  # atno 17371 bound_to 10713
  139.9070  134.8427  156.1667 LP  0  0  0  0  0  0  0  0  0  0  0  0  # atno 17394 bound_to 11000
  141.0587  133.6852  156.1911 LP  0  0  0  0  0  0  0  0  0  0  0  0  # atno 17395 bound_to 11000

$$$$
