AV-unprocessed.smi:2735|AV-procd|sdf|10544|dock10
  -GOLD-   2272014593D 1   1.00000     0.00000
 Structure written by MMmdl.
 42 42  0  0  0  0  0  0  0  0  2 V2000
  152.8700  144.0731  163.4311 C   0  0  0  0  0  0  0  0  0  0  0  0
  152.7891  143.6513  161.9939 C   0  0  0  0  0  0  0  0  0  0  0  0
  152.1973  144.3443  160.9029 C   0  0  0  0  0  0  0  0  0  0  0  0
  152.3937  143.5190  159.8315 C   0  0  0  0  0  0  0  0  0  0  0  0
  151.9770  143.6940  158.4071 C   0  0  0  0  0  0  0  0  0  0  0  0
  153.0877  142.4105  160.2925 N   0  0  0  0  0  0  0  0  0  0  0  0
  153.5023  141.2159  159.5560 C   0  0  1  0  0  0  0  0  0  0  0  0
  154.3392  140.2424  160.4125 C   0  0  0  0  0  0  0  0  0  0  0  0
  152.2777  140.5286  158.9339 C   0  0  0  0  0  0  0  0  0  0  0  0
  151.1392  140.9131  159.2032 O   0  0  0  0  0  0  0  0  0  0  0  0
  152.5368  139.5112  158.0978 N   0  0  0  0  0  0  0  0  0  0  0  0
  151.5615  138.7276  157.3424 C   0  0  2  0  0  0  0  0  0  0  0  0
  150.9857  137.5724  158.1962 C   0  0  0  0  0  0  0  0  0  0  0  0
  149.6529  137.8616  158.9241 C   0  0  0  0  0  0  0  0  0  0  0  0
  149.1814  136.6200  159.6963 C   0  0  0  0  0  0  0  0  0  0  0  0
  148.5508  138.3406  157.9638 C   0  0  0  0  0  0  0  0  0  0  0  0
  152.2155  138.2296  156.0484 C   0  0  0  0  0  0  0  0  0  0  0  0
  152.8175  139.0736  155.3467 O   0  0  0  0  0  0  0  0  0  0  0  0
  152.1051  137.0132  155.7803 O   0  5  0  0  0  0  0  0  0  0  0  0
  153.3102  142.4939  161.6257 N   0  0  0  0  0  0  0  0  0  0  0  0
  150.7416  139.3776  157.0337 H   0  0  0  0  0  0  0  0  0  0  0  0
  152.4099  145.0500  163.5814 H   0  0  0  0  0  0  0  0  0  0  0  0
  153.9063  144.1397  163.7630 H   0  0  0  0  0  0  0  0  0  0  0  0
  152.3567  143.3615  164.0783 H   0  0  0  0  0  0  0  0  0  0  0  0
  151.6949  145.3002  160.9074 H   0  0  0  0  0  0  0  0  0  0  0  0
  151.5147  144.6695  158.2549 H   0  0  0  0  0  0  0  0  0  0  0  0
  151.2506  142.9355  158.1160 H   0  0  0  0  0  0  0  0  0  0  0  0
  152.8333  143.6241  157.7364 H   0  0  0  0  0  0  0  0  0  0  0  0
  154.1494  141.5445  158.7420 H   0  0  0  0  0  0  0  0  0  0  0  0
  154.6845  139.3972  159.8162 H   0  0  0  0  0  0  0  0  0  0  0  0
  153.7738  139.8396  161.2541 H   0  0  0  0  0  0  0  0  0  0  0  0
  155.2220  140.7400  160.8144 H   0  0  0  0  0  0  0  0  0  0  0  0
  153.5049  139.2761  157.9329 H   0  0  0  0  0  0  0  0  0  0  0  0
  150.8510  136.6925  157.5649 H   0  0  0  0  0  0  0  0  0  0  0  0
  151.7363  137.2872  158.9352 H   0  0  0  0  0  0  0  0  0  0  0  0
  149.8195  138.6446  159.6633 H   0  0  0  0  0  0  0  0  0  0  0  0
  148.9893  135.7836  159.0234 H   0  0  0  0  0  0  0  0  0  0  0  0
  148.2617  136.8234  160.2455 H   0  0  0  0  0  0  0  0  0  0  0  0
  149.9299  136.2988  160.4211 H   0  0  0  0  0  0  0  0  0  0  0  0
  148.3551  137.6028  157.1851 H   0  0  0  0  0  0  0  0  0  0  0  0
  148.8177  139.2771  157.4754 H   0  0  0  0  0  0  0  0  0  0  0  0
  147.6160  138.5148  158.4975 H   0  0  0  0  0  0  0  0  0  0  0  0
  1  2  1  0  0  0  0
  1 22  1  0  0  0  0
  1 23  1  0  0  0  0
  1 24  1  0  0  0  0
  2 20  2  0  0  0  0
  2  3  1  0  0  0  0
  3  4  2  0  0  0  0
  3 25  1  0  0  0  0
  4  5  1  0  0  0  0
  4  6  1  0  0  0  0
  5 26  1  0  0  0  0
  5 27  1  0  0  0  0
  5 28  1  0  0  0  0
  6  7  1  0  0  0  0
  6 20  1  0  0  0  0
  7  8  1  0  0  0  0
  7  9  1  0  0  0  0
  7 29  1  0  0  0  0
  8 30  1  0  0  0  0
  8 31  1  0  0  0  0
  8 32  1  0  0  0  0
  9 10  2  0  0  0  0
  9 11  1  0  0  0  0
 11 12  1  0  0  0  0
 11 33  1  0  0  0  0
 12 21  1  0  0  0  0
 12 13  1  0  0  0  0
 12 17  1  0  0  0  0
 13 14  1  0  0  0  0
 13 34  1  0  0  0  0
 13 35  1  0  0  0  0
 14 15  1  0  0  0  0
 14 16  1  0  0  0  0
 14 36  1  0  0  0  0
 15 37  1  0  0  0  0
 15 38  1  0  0  0  0
 15 39  1  0  0  0  0
 16 40  1  0  0  0  0
 16 41  1  0  0  0  0
 16 42  1  0  0  0  0
 17 18  2  0  0  0  0
 17 19  1  0  0  0  0
M  CHG  1  19  -1
M  END
> <s_m_source_file>
AV-unprocessed.smi

> <i_m_source_file_index>
2735

> <i_lp_mmshare_version>
43012

> <i_f3d_flags>
0

> <s_epik_input>
W0NIM11jMVtjSF1jKFtDSDNdKW4objEpW0NASF0oW0NIM10pQyg9TylbTkhdW0NASF0oQyg9TylbT0hdKVtDSDJdW0NIXShbQ0gzXSlbQ0gzXQ==

> <s_epik_cmdline>
J2VwaWtfcHl0aG9uJywgJy1waCcsICc3LjAnLCAnLXRuJywgJzgnLCAnLW1hJywgJzIwMCcsICctbWV0YWxfYmluZGluZycsICctaW1hZScsICc8aW5maWxlLm1hZT4nLCAnLW9tYWUnLCAnPG91dGZpbGUubWFlPic=

> <r_lp_tautomer_probability>
1

> <r_epik_Ionization_Penalty>
0.0012303

> <r_epik_Ionization_Penalty_Charging>
0.000186407

> <r_epik_Ionization_Penalty_Neutral>
0.0010439

> <r_epik_State_Penalty>
-0

> <r_epik_Charging_Adjusted_Penalty>
0.000186407

> <i_epik_Tot_Q>
-1

> <i_epik_Tot_abs_Q>
1

> <r_epik_Metal_State_Penalty>
-0

> <b_epik_Metal_Only>
0

> <s_lp_Force_Field>
OPLS_2005

> <r_lp_Energy>
6.63837

> <b_lp_Chiralities_Consistent>
1

> <s_lp_Variant>
AV-unprocessed.smi:2735-4

> <Gold.Version>
5.8.1

> <Gold.Id.Protein>
6NUR|6NUR_protein|mol2

> <Gold.PLP.Fitness>
48.4903

> <Gold.PLP.PLP>
-38.7607

> <Gold.PLP.part.hbond>
-2.0897

> <Gold.PLP.part.metal>
0.0000

> <Gold.PLP.part.buried>
-4.9615

> <Gold.PLP.part.nonpolar>
-32.1719

> <Gold.PLP.part.repulsive>
0.1482

> <Gold.PLP.ligand.clash>
0.0000

> <Gold.PLP.ligand.torsion>
1.0927

> <Gold.PLP.Chemscore.Hbond>
3.9200

> <Gold.PLP.Chemscore.CHOScore>
0.0000

> <Gold.PLP.Chemscore.Metal>
0.0000

> <Gold.Chemscore.Hbonds>
donor molecule, donor type, donor heavy atom, donor atom, acceptor molecule, acceptor atom, score
      P1  H  7997  8009       L1    18  1.92
      P1  H 10752 10764       L1    19  1.95

> <Gold.PLP.Chemscore.Internal.Correction>
0.1550

> <Gold.Rescore>
     Score         DG    S(hbond)    S(metal)    S(lipo)     H(rot)  DE(clash)    DE(int)     intcor
     15.18     -17.87       1.92        0.00      99.99       2.24       1.40       1.30       ----

> <Gold.Chemscore.Fitness>
15.1784

> <Gold.Chemscore.DG>
-17.8730

> <Gold.Chemscore.ZeroCoef>
-5.4800

> <Gold.Chemscore.Hbond>
1.9239

> <Gold.Chemscore.Metal>
0.0000

> <Gold.Chemscore.Lipo>
99.9868

> <Gold.Chemscore.Internal_Hbond>
0.0000

> <Gold.Chemscore.DEClash>
1.3961

> <Gold.Chemscore.DEInternal>
1.2985

> <Gold.Chemscore.Rot>
2.2388

> <Gold.Chemscore.Internal.Correction>
   9.000000E+99

> <Gold.Chemscore.Hbonds>
donor molecule, donor type, donor heavy atom, donor atom, acceptor molecule, acceptor atom, score
      P1  H  7997  8009       L1    18  0.90
      P1  H 10752 10764       L1    19  0.92

> <Gold.Chemscore.Hbond.Weighted>
-6.4259

> <Gold.Chemscore.Metal.Weighted>
-0.0000

> <Gold.Chemscore.Lipo.Weighted>
-11.6985

> <Gold.Chemscore.Internal_Hbond.Weighted>
0.0000

> <Gold.Chemscore.DEClash.Weighted>
1.3961

> <Gold.Chemscore.DEInternal.Weighted>
1.2985

> <Gold.Chemscore.Rot.Weighted>
5.7314

> <Gold.Chemscore.Internal.Correction.Weighted>
   9.000000E+99

> <Gold.Protein.RotatedTorsions>
[ 6907 6896 6895 6894 ] final  -92.63 input  -60.11 | X-H torsion
[ 7974 7965 7964 7962 ] final -135.10 input  175.53 | X-H torsion
[ 8008 7997 7996 7995 ] final -135.83 input   59.86 | X-H torsion
[ 10167 10162 10161 10158 ] final  -62.02 input  -65.29 | X-H torsion
[ 10718 10713 10712 10709 ] final   83.79 input   66.30 | X-H torsion
[ 10763 10752 10751 10750 ] final  -41.27 input  -60.55 | X-H torsion
[ 11005 11000 10999 10996 ] final   92.25 input  -57.11 | X-H torsion

> <Gold.Protein.ActiveResidues>
 VAL166  LYS551  ARG553  GLY616  TRP617  ASP618  TYR619  PRO620  LYS621  CYS622 
 ASP623  PHE694  ASN695  SER759  ASP760  ASP761  ALA762  ILE779  LEU786  VAL792 
 PHE793  MET794  SER795  GLU796  ALA797  LYS798  CYS799  TRP800  GLU811  SER814 

> <Gold.Protein.RotatedAtoms>
  150.6909  134.2092  159.4352 H   0  0  0  0  0  0  0  0  0  0  0  0  # atno 6907 bound_to 6896
  152.0055  134.9903  160.0576 H   0  0  0  0  0  0  0  0  0  0  0  0  # atno 6908 bound_to 6896
  152.1538  133.4504  159.4864 H   0  0  0  0  0  0  0  0  0  0  0  0  # atno 6909 bound_to 6896
  144.9043  140.6813  143.5065 H   0  0  0  0  0  0  0  0  0  0  0  0  # atno 7974 bound_to 7965
  155.3851  140.0496  157.3042 H   0  0  0  0  0  0  0  0  0  0  0  0  # atno 8008 bound_to 7997
  154.5063  140.2175  155.9206 H   0  0  0  0  0  0  0  0  0  0  0  0  # atno 8009 bound_to 7997
  156.1529  140.3132  155.8684 H   0  0  0  0  0  0  0  0  0  0  0  0  # atno 8010 bound_to 7997
  140.5967  143.2352  151.6021 H   0  0  0  0  0  0  0  0  0  0  0  0  # atno 10167 bound_to 10162
  157.6886  131.0106  150.2576 H   0  0  0  0  0  0  0  0  0  0  0  0  # atno 10718 bound_to 10713
  153.9597  135.6741  153.4745 H   0  0  0  0  0  0  0  0  0  0  0  0  # atno 10763 bound_to 10752
  153.0844  135.4906  154.8564 H   0  0  0  0  0  0  0  0  0  0  0  0  # atno 10764 bound_to 10752
  154.7279  135.3131  154.8900 H   0  0  0  0  0  0  0  0  0  0  0  0  # atno 10765 bound_to 10752
  139.8826  134.8722  156.3545 H   0  0  0  0  0  0  0  0  0  0  0  0  # atno 11005 bound_to 11000
  145.3562  139.1693  143.4408 LP  0  0  0  0  0  0  0  0  0  0  0  0  # atno 17320 bound_to 7965
  146.3125  140.3619  142.8666 LP  0  0  0  0  0  0  0  0  0  0  0  0  # atno 17321 bound_to 7965
  139.5263  144.3050  152.1041 LP  0  0  0  0  0  0  0  0  0  0  0  0  # atno 17342 bound_to 10162
  140.2224  144.4453  150.6336 LP  0  0  0  0  0  0  0  0  0  0  0  0  # atno 17343 bound_to 10162
  156.3161  130.3779  149.7617 LP  0  0  0  0  0  0  0  0  0  0  0  0  # atno 17370 bound_to 10713
  156.5202  130.8211  151.3201 LP  0  0  0  0  0  0  0  0  0  0  0  0  # atno 17371 bound_to 10713
  140.9571  133.7412  156.0351 LP  0  0  0  0  0  0  0  0  0  0  0  0  # atno 17394 bound_to 11000
  140.8035  134.3482  157.5433 LP  0  0  0  0  0  0  0  0  0  0  0  0  # atno 17395 bound_to 11000

$$$$
