#       Name:                AV-unprocessed.smi:1385
#       Creating user name   scv26
#       Creation time:       Fri Mar 27 05:24:35 2020


#       File generated by GOLD software.
#

@<TRIPOS>MOLECULE
AV-unprocessed.smi:1385
    45    46     1
SMALL
NO_CHARGES


@<TRIPOS>ATOM
      1 ****        -7.8581   2.7859   0.8200 C.3            1 S1                 0.0000
      2 ****        -6.4187   2.4003   0.7913 C.2            1 S1                 0.0000
      3 ****        -5.4287   3.2887   0.9401 N.2            1 S1                 0.0000
      4 ****        -4.1756   2.6949   0.8788 N.2            1 S1                 0.0000
      5 ****        -4.2586   1.3710   0.6880 C.2            1 S1                 0.0000
      6 ****        -3.1293   0.5157   0.5879 N.am           1 S1                 0.0000
      7 ****        -1.8271   0.8451   0.6538 C.2            1 S1                 0.0000
      8 ****        -1.3870   1.9841   0.8128 O.2            1 S1                 0.0000
      9 ****        -1.0440  -0.2360   0.5231 N.am           1 S1                 0.0000
     10 ****         0.4154  -0.2234   0.5662 C.3            1 S1                 0.0000
     11 ****         1.0037   0.1836  -0.7970 C.3            1 S1                 0.0000
     12 ****         2.5390   0.1085  -0.7802 C.3            1 S1                 0.0000
     13 ****         3.0050  -1.2517  -0.3988 N.4            1 S1                 1.0000
     14 ****         4.4789  -1.4121  -0.4982 C.3            1 S1                 0.0000
     15 ****         4.9688  -1.5774  -1.9407 C.2            1 S1                 0.0000
     16 ****         6.2600  -1.3285  -2.1700 N.am           1 S1                 0.0000
     17 ****         4.2020  -1.9376  -2.8322 O.2            1 S1                 0.0000
     18 ****         2.4792  -1.6550   0.9307 C.3            1 S1                 0.0000
     19 ****         0.9415  -1.6137   0.9578 C.3            1 S1                 0.0000
     20 ****        -5.8909   0.7369   0.5667 S.3            1 S1                 0.0000
     21 ****        -7.9858   3.8102   0.4683 H              1 S1                 0.0000
     22 ****        -8.2422   2.7129   1.8376 H              1 S1                 0.0000
     23 ****        -8.4379   2.1232   0.1775 H              1 S1                 0.0000
     24 ****        -3.3395  -0.4619   0.4516 H              1 S1                 0.0000
     25 ****        -1.4900  -1.1324   0.3929 H              1 S1                 0.0000
     26 ****         0.7433   0.4914   1.3238 H              1 S1                 0.0000
     27 ****         0.6171  -0.4701  -1.5805 H              1 S1                 0.0000
     28 ****         0.6911   1.1956  -1.0572 H              1 S1                 0.0000
     29 ****         2.9194   0.3752  -1.7666 H              1 S1                 0.0000
     30 ****         2.9413   0.8420  -0.0795 H              1 S1                 0.0000
     31 ****         4.9807  -0.5711  -0.0163 H              1 S1                 0.0000
     32 ****         4.7874  -2.3103   0.0387 H              1 S1                 0.0000
     33 ****         6.6377  -1.4186  -3.1022 H              1 S1                 0.0000
     34 ****         6.8589  -1.0465  -1.4066 H              1 S1                 0.0000
     35 ****         2.8126  -2.6661   1.1675 H              1 S1                 0.0000
     36 ****         2.8878  -0.9972   1.6997 H              1 S1                 0.0000
     37 ****         0.5843  -1.8822   1.9528 H              1 S1                 0.0000
     38 ****         0.5473  -2.3672   0.2739 H              1 S1                 0.0000
     39 ****         2.6096  -1.8969  -1.0684 H              1 S1                 0.0000
     40 ****        -5.5750   4.2680   1.0795 LP             1 S1                 0.0000
     41 ****        -3.3141   3.1950   0.9665 LP             1 S1                 0.0000
     42 ****        -2.0169   2.7552   0.9048 LP             1 S1                 0.0000
     43 ****        -0.3996   2.1379   0.8501 LP             1 S1                 0.0000
     44 ****         3.2433  -2.1274  -2.6206 LP             1 S1                 0.0000
     45 ****         4.5373  -2.0408  -3.7686 LP             1 S1                 0.0000
@<TRIPOS>BOND
    1    1    2 1     
    2    1   21 1     
    3    1   22 1     
    4    1   23 1     
    5    2   20 1     
    6    2    3 2     
    7    3    4 1     
    8    4    5 2     
    9    5    6 1     
   10    5   20 1     
   11    6    7 am    
   12    6   24 1     
   13    7    8 2     
   14    7    9 am    
   15    9   10 1     
   16    9   25 1     
   17   10   19 1     
   18   10   11 1     
   19   10   26 1     
   20   11   12 1     
   21   11   27 1     
   22   11   28 1     
   23   12   13 1     
   24   12   29 1     
   25   12   30 1     
   26   13   14 1     
   27   13   18 1     
   28   13   39 1     
   29   14   15 1     
   30   14   31 1     
   31   14   32 1     
   32   15   16 am    
   33   15   17 2     
   34   16   33 1     
   35   16   34 1     
   36   18   19 1     
   37   18   35 1     
   38   18   36 1     
   39   19   37 1     
   40   19   38 1     
   41    3   40 1     
   42    4   41 1     
   43    8   42 1     
   44    8   43 1     
   45   17   44 1     
   46   17   45 1     
@<TRIPOS>SUBSTRUCTURE
      1 S1             1
@<TRIPOS>SET
LONE_PAIRS      STATIC     ATOMS    <user>   **** ""
6 40 41 42 43 44 45
DONOR_HYDROGENS      STATIC     ATOMS    <user>   **** ""
5 24 25 39 33 34
ATOM$BLUE        STATIC     ATOMS    COLORGROUP SYSTEM
6 40 41 42 43 44 45
ATOM$RED        STATIC     ATOMS    COLORGROUP SYSTEM
5 24 25 39 33 34
