AV-unprocessed.smi:1809|AV-procd|sdf|7316|dock5
  -GOLD-   22720 8573D 1   1.00000     0.00000
 Structure written by MMmdl.
 40 42  0  0  0  0  0  0  0  0  2 V2000
  152.0389  140.7756  157.0720 C   0  0  0  0  0  0  0  0  0  0  0  0
  151.4921  139.8012  156.0852 C   0  0  0  0  0  0  0  0  0  0  0  0
  151.3312  140.0928  154.7886 N   0  0  0  0  0  0  0  0  0  0  0  0
  150.8100  139.0259  154.0699 N   0  0  0  0  0  0  0  0  0  0  0  0
  150.5932  137.9573  154.8490 C   0  0  0  0  0  0  0  0  0  0  0  0
  150.0653  136.7280  154.3734 N   0  0  0  0  0  0  0  0  0  0  0  0
  150.1584  135.5096  154.9342 C   0  0  0  0  0  0  0  0  0  0  0  0
  150.7395  135.2513  155.9886 O   0  0  0  0  0  0  0  0  0  0  0  0
  149.5350  134.5831  154.1924 N   0  0  0  0  0  0  0  0  0  0  0  0
  149.4529  133.1649  154.5252 C   0  0  0  0  0  0  0  0  0  0  0  0
  148.7254  132.3592  153.4343 C   0  0  1  0  0  0  0  0  0  0  0  0
  148.5818  130.8682  153.8190 C   0  0  0  0  0  0  0  0  0  0  0  0
  147.7799  130.1990  152.7787 N   0  3  1  0  0  0  0  0  0  0  0  0
  147.5195  128.7554  152.9145 C   0  0  0  0  0  0  0  0  0  0  0  0
  146.2337  128.5088  152.0989 C   0  0  0  0  0  0  0  0  0  0  0  0
  145.7380  129.9016  151.6677 C   0  0  0  0  0  0  0  0  0  0  0  0
  146.4701  130.8361  152.6250 C   0  0  2  0  0  0  0  0  0  0  0  0
  146.6699  132.2978  152.2045 C   0  0  0  0  0  0  0  0  0  0  0  0
  147.4311  132.9386  153.2294 O   0  0  0  0  0  0  0  0  0  0  0  0
  151.0114  138.1712  156.5403 S   0  0  0  0  0  0  0  0  0  0  0  0
  152.1072  141.7713  156.6325 H   0  0  0  0  0  0  0  0  0  0  0  0
  153.0340  140.4639  157.3897 H   0  0  0  0  0  0  0  0  0  0  0  0
  151.3904  140.8247  157.9469 H   0  0  0  0  0  0  0  0  0  0  0  0
  149.5558  136.7844  153.5041 H   0  0  0  0  0  0  0  0  0  0  0  0
  149.0852  134.8773  153.3377 H   0  0  0  0  0  0  0  0  0  0  0  0
  150.4577  132.7695  154.6833 H   0  0  0  0  0  0  0  0  0  0  0  0
  148.9286  133.0652  155.4760 H   0  0  0  0  0  0  0  0  0  0  0  0
  149.2875  132.4256  152.5009 H   0  0  0  0  0  0  0  0  0  0  0  0
  149.5612  130.3938  153.8901 H   0  0  0  0  0  0  0  0  0  0  0  0
  148.0951  130.7631  154.7900 H   0  0  0  0  0  0  0  0  0  0  0  0
  148.3652  128.1700  152.5524 H   0  0  0  0  0  0  0  0  0  0  0  0
  147.3534  128.5024  153.9629 H   0  0  0  0  0  0  0  0  0  0  0  0
  146.4206  127.8753  151.2312 H   0  0  0  0  0  0  0  0  0  0  0  0
  145.4885  128.0072  152.7171 H   0  0  0  0  0  0  0  0  0  0  0  0
  146.0409  130.1019  150.6389 H   0  0  0  0  0  0  0  0  0  0  0  0
  144.6537  130.0030  151.7256 H   0  0  0  0  0  0  0  0  0  0  0  0
  145.9550  130.8112  153.5880 H   0  0  0  0  0  0  0  0  0  0  0  0
  147.1835  132.3736  151.2449 H   0  0  0  0  0  0  0  0  0  0  0  0
  145.7085  132.8017  152.1026 H   0  0  0  0  0  0  0  0  0  0  0  0
  148.2634  130.3217  151.9003 H   0  0  0  0  0  0  0  0  0  0  0  0
  1  2  1  0  0  0  0
  1 21  1  0  0  0  0
  1 22  1  0  0  0  0
  1 23  1  0  0  0  0
  2 20  1  0  0  0  0
  2  3  2  0  0  0  0
  3  4  1  0  0  0  0
  4  5  2  0  0  0  0
  5  6  1  0  0  0  0
  5 20  1  0  0  0  0
  6  7  1  0  0  0  0
  6 24  1  0  0  0  0
  7  8  2  0  0  0  0
  7  9  1  0  0  0  0
  9 10  1  0  0  0  0
  9 25  1  0  0  0  0
 10 11  1  0  0  0  0
 10 26  1  0  0  0  0
 10 27  1  0  0  0  0
 11 19  1  0  0  0  0
 11 12  1  0  0  0  0
 11 28  1  0  0  0  0
 12 13  1  0  0  0  0
 12 29  1  0  0  0  0
 12 30  1  0  0  0  0
 13 17  1  0  0  0  0
 13 14  1  0  0  0  0
 13 40  1  0  0  0  0
 14 15  1  0  0  0  0
 14 31  1  0  0  0  0
 14 32  1  0  0  0  0
 15 16  1  0  0  0  0
 15 33  1  0  0  0  0
 15 34  1  0  0  0  0
 16 17  1  0  0  0  0
 16 35  1  0  0  0  0
 16 36  1  0  0  0  0
 17 18  1  0  0  0  0
 17 37  1  0  0  0  0
 18 19  1  0  0  0  0
 18 38  1  0  0  0  0
 18 39  1  0  0  0  0
M  CHG  1  13   1
M  END
> <s_m_source_file>
AV-unprocessed.smi

> <i_m_source_file_index>
1809

> <i_lp_mmshare_version>
43012

> <i_f3d_flags>
0

> <s_epik_input>
W0NIM11jMW5uYyhzMSlbTkhdQyg9TylbTkhdW0NIMl1bQ0BIXShbQ0gyXTIpT1tDSDJdW0NAQEhdKE4yMylbQ0gyXVtDSDJdW0NIMl0z

> <s_epik_cmdline>
J2VwaWtfcHl0aG9uJywgJy1waCcsICc3LjAnLCAnLXRuJywgJzgnLCAnLW1hJywgJzIwMCcsICctbWV0YWxfYmluZGluZycsICctaW1hZScsICc8aW5maWxlLm1hZT4nLCAnLW9tYWUnLCAnPG91dGZpbGUubWFlPic=

> <r_lp_tautomer_probability>
1

> <r_epik_Ionization_Penalty>
0.112474

> <r_epik_Ionization_Penalty_Charging>
0.108916

> <r_epik_Ionization_Penalty_Neutral>
0.00355844

> <r_epik_State_Penalty>
0.0565397

> <r_epik_Charging_Adjusted_Penalty>
0.165456

> <i_epik_Tot_Q>
1

> <i_epik_Tot_abs_Q>
1

> <r_epik_Metal_State_Penalty>
0.422831

> <b_epik_Metal_Only>
0

> <s_lp_Force_Field>
OPLS_2005

> <r_lp_Energy>
33.8042

> <b_lp_Chiralities_Consistent>
1

> <s_lp_Variant>
AV-unprocessed.smi:1809-8

> <Gold.Version>
5.8.1

> <Gold.Id.Protein>
6NUR|6NUR_protein|mol2

> <Gold.PLP.Fitness>
43.7136

> <Gold.PLP.PLP>
-33.4331

> <Gold.PLP.part.hbond>
-5.1996

> <Gold.PLP.part.metal>
0.0000

> <Gold.PLP.part.buried>
-5.3144

> <Gold.PLP.part.nonpolar>
-23.8711

> <Gold.PLP.part.repulsive>
0.5024

> <Gold.PLP.ligand.clash>
0.0000

> <Gold.PLP.ligand.torsion>
0.1054

> <Gold.PLP.Chemscore.Hbond>
3.4968

> <Gold.PLP.Chemscore.CHOScore>
0.0000

> <Gold.PLP.Chemscore.Metal>
0.0000

> <Gold.Chemscore.Hbonds>
donor molecule, donor type, donor heavy atom, donor atom, acceptor molecule, acceptor atom, score
      L1  H     6    24       P1  7948  1.00
      L1  H     9    25       P1  7948  0.82
      L1  H    13    40       P1 10747  1.00
      P1  H  7989  7998       L1     3  0.60

> <Gold.PLP.Chemscore.Internal.Correction>
0.0008

> <Gold.Rescore>
     Score         DG    S(hbond)    S(metal)    S(lipo)     H(rot)  DE(clash)    DE(int)     intcor
     17.85     -18.19       2.28        0.00      72.73       1.34       0.07       0.27       ----

> <Gold.Chemscore.Fitness>
17.8475

> <Gold.Chemscore.DG>
-18.1861

> <Gold.Chemscore.ZeroCoef>
-5.4800

> <Gold.Chemscore.Hbond>
2.2830

> <Gold.Chemscore.Metal>
0.0000

> <Gold.Chemscore.Lipo>
72.7260

> <Gold.Chemscore.Internal_Hbond>
0.0000

> <Gold.Chemscore.DEClash>
0.0727

> <Gold.Chemscore.DEInternal>
0.2659

> <Gold.Chemscore.Rot>
1.3391

> <Gold.Chemscore.Internal.Correction>
   9.000000E+99

> <Gold.Chemscore.Hbonds>
donor molecule, donor type, donor heavy atom, donor atom, acceptor molecule, acceptor atom, score
      L1  H     6    24       P1  7948  0.73
      L1  H     9    25       P1  7948  0.13
      L1  H    13    40       P1 10747  0.94
      P1  H  7989  7998       L1     3  0.04

> <Gold.Chemscore.Hbond.Weighted>
-7.6253

> <Gold.Chemscore.Metal.Weighted>
-0.0000

> <Gold.Chemscore.Lipo.Weighted>
-8.5089

> <Gold.Chemscore.Internal_Hbond.Weighted>
0.0000

> <Gold.Chemscore.DEClash.Weighted>
0.0727

> <Gold.Chemscore.DEInternal.Weighted>
0.2659

> <Gold.Chemscore.Rot.Weighted>
3.4281

> <Gold.Chemscore.Internal.Correction.Weighted>
   9.000000E+99

> <Gold.Protein.RotatedTorsions>
[ 6907 6896 6895 6894 ] final -114.00 input  -60.11 | X-H torsion
[ 7974 7965 7964 7962 ] final -126.01 input  175.53 | X-H torsion
[ 8008 7997 7996 7995 ] final   25.44 input   59.86 | X-H torsion
[ 10167 10162 10161 10158 ] final -101.22 input  -65.29 | X-H torsion
[ 10718 10713 10712 10709 ] final  -42.83 input   66.30 | X-H torsion
[ 10763 10752 10751 10750 ] final  -15.07 input  -60.55 | X-H torsion
[ 11005 11000 10999 10996 ] final -104.72 input  -57.11 | X-H torsion

> <Gold.Protein.ActiveResidues>
 VAL166  LYS551  ARG553  GLY616  TRP617  ASP618  TYR619  PRO620  LYS621  CYS622 
 ASP623  PHE694  ASN695  SER759  ASP760  ASP761  ALA762  ILE779  LEU786  VAL792 
 PHE793  MET794  SER795  GLU796  ALA797  LYS798  CYS799  TRP800  GLU811  SER814 

> <Gold.Protein.RotatedAtoms>
  150.7870  133.8864  159.3300 H   0  0  0  0  0  0  0  0  0  0  0  0  # atno 6907 bound_to 6896
  151.6712  135.0974  160.0208 H   0  0  0  0  0  0  0  0  0  0  0  0  # atno 6908 bound_to 6896
  152.3936  133.6675  159.6293 H   0  0  0  0  0  0  0  0  0  0  0  0  # atno 6909 bound_to 6896
  144.9916  140.7737  143.4550 H   0  0  0  0  0  0  0  0  0  0  0  0  # atno 7974 bound_to 7965
  155.0117  140.3137  155.4827 H   0  0  0  0  0  0  0  0  0  0  0  0  # atno 8008 bound_to 7997
  156.2908  140.2213  156.5173 H   0  0  0  0  0  0  0  0  0  0  0  0  # atno 8009 bound_to 7997
  154.7529  140.0465  157.0896 H   0  0  0  0  0  0  0  0  0  0  0  0  # atno 8010 bound_to 7997
  140.2436  143.3521  152.0779 H   0  0  0  0  0  0  0  0  0  0  0  0  # atno 10167 bound_to 10162
  156.2555  130.4192  149.8601 H   0  0  0  0  0  0  0  0  0  0  0  0  # atno 10718 bound_to 10713
  153.5377  135.7013  153.5652 H   0  0  0  0  0  0  0  0  0  0  0  0  # atno 10763 bound_to 10752
  153.3631  135.3964  155.1733 H   0  0  0  0  0  0  0  0  0  0  0  0  # atno 10764 bound_to 10752
  154.8677  135.3793  154.4879 H   0  0  0  0  0  0  0  0  0  0  0  0  # atno 10765 bound_to 10752
  141.1087  133.8747  157.1646 H   0  0  0  0  0  0  0  0  0  0  0  0  # atno 11005 bound_to 11000
  145.2277  139.2129  143.5059 LP  0  0  0  0  0  0  0  0  0  0  0  0  # atno 17320 bound_to 7965
  146.3432  140.2148  142.8590 LP  0  0  0  0  0  0  0  0  0  0  0  0  # atno 17321 bound_to 7965
  139.5069  144.6822  151.5979 LP  0  0  0  0  0  0  0  0  0  0  0  0  # atno 17342 bound_to 10162
  140.6094  143.9463  150.6442 LP  0  0  0  0  0  0  0  0  0  0  0  0  # atno 17343 bound_to 10162
  156.6135  130.8596  151.3459 LP  0  0  0  0  0  0  0  0  0  0  0  0  # atno 17370 bound_to 10713
  157.7231  130.9585  150.1519 LP  0  0  0  0  0  0  0  0  0  0  0  0  # atno 17371 bound_to 10713
  139.9970  135.0043  157.0104 LP  0  0  0  0  0  0  0  0  0  0  0  0  # atno 17394 bound_to 11000
  140.4833  134.1267  155.7220 LP  0  0  0  0  0  0  0  0  0  0  0  0  # atno 17395 bound_to 11000

$$$$
