AV-unprocessed.smi:2706|AV-procd|sdf|10452|dock9
  -GOLD-   2272014493D 1   1.00000     0.00000
 Structure written by MMmdl.
 43 46  0  0  0  0  0  0  0  0  1 V2000
  145.7474  136.9155  152.0212 C   0  0  0  0  0  0  0  0  0  0  0  0
  145.5537  135.5537  151.5332 N   0  0  0  0  0  0  0  0  0  0  0  0
  144.5327  135.4199  150.5005 C   0  0  0  0  0  0  0  0  0  0  0  0
  146.2432  134.4457  152.0289 C   0  0  0  0  0  0  0  0  0  0  0  0
  146.0207  133.2077  151.5331 C   0  0  0  0  0  0  0  0  0  0  0  0
  146.7520  132.0722  152.0562 C   0  0  0  0  0  0  0  0  0  0  0  0
  147.6550  132.2189  153.0454 C   0  0  0  0  0  0  0  0  0  0  0  0
  147.9174  133.5233  153.6241 C   0  0  0  0  0  0  0  0  0  0  0  0
  148.8013  133.6533  154.5734 N   0  0  0  0  0  0  0  0  0  0  0  0
  149.0257  134.8512  155.2518 C   0  0  0  0  0  0  0  0  0  0  0  0
  149.2260  134.8971  156.4651 O   0  0  0  0  0  0  0  0  0  0  0  0
  148.8993  135.9789  154.5218 N   0  0  0  0  0  0  0  0  0  0  0  0
  149.0556  137.3123  155.0053 C   0  0  2  0  0  0  0  0  0  0  0  0
  150.1812  138.1359  154.4154 C   0  0  1  0  0  0  0  0  0  0  0  0
  150.4150  139.6340  154.5956 C   0  0  1  0  0  0  0  0  0  0  0  0
  149.2205  140.3063  155.3046 C   0  0  0  0  0  0  0  0  0  0  0  0
  149.3365  139.7588  156.7448 C   0  0  0  0  0  0  0  0  0  0  0  0
  150.5796  138.8498  156.6560 C   0  0  2  0  0  0  0  0  0  0  0  0
  151.4593  139.6584  155.7073 C   0  0  0  0  0  0  0  0  0  0  0  0
  150.2931  137.5970  155.8315 C   0  0  1  0  0  0  0  0  0  0  0  0
  147.1865  134.5820  153.0515 N   0  0  0  0  0  0  0  0  0  0  0  0
  146.7291  137.2865  151.7256 H   0  0  0  0  0  0  0  0  0  0  0  0
  145.6810  136.9441  153.1091 H   0  0  0  0  0  0  0  0  0  0  0  0
  144.9962  137.6032  151.6320 H   0  0  0  0  0  0  0  0  0  0  0  0
  143.5927  135.0875  150.9417 H   0  0  0  0  0  0  0  0  0  0  0  0
  144.8342  134.6915  149.7481 H   0  0  0  0  0  0  0  0  0  0  0  0
  144.3530  136.3619  149.9817 H   0  0  0  0  0  0  0  0  0  0  0  0
  145.3023  133.0331  150.7463 H   0  0  0  0  0  0  0  0  0  0  0  0
  146.5727  131.0910  151.6423 H   0  0  0  0  0  0  0  0  0  0  0  0
  148.1706  131.3349  153.3924 H   0  0  0  0  0  0  0  0  0  0  0  0
  148.6768  135.8781  153.5420 H   0  0  0  0  0  0  0  0  0  0  0  0
  148.1406  137.8294  155.2835 H   0  0  0  0  0  0  0  0  0  0  0  0
  150.8253  137.6592  153.6783 H   0  0  0  0  0  0  0  0  0  0  0  0
  150.7186  140.1200  153.6681 H   0  0  0  0  0  0  0  0  0  0  0  0
  149.3303  141.3915  155.3003 H   0  0  0  0  0  0  0  0  0  0  0  0
  148.2659  140.0721  154.8327 H   0  0  0  0  0  0  0  0  0  0  0  0
  149.5050  140.5745  157.4490 H   0  0  0  0  0  0  0  0  0  0  0  0
  148.4462  139.2216  157.0730 H   0  0  0  0  0  0  0  0  0  0  0  0
  151.0341  138.6156  157.6191 H   0  0  0  0  0  0  0  0  0  0  0  0
  152.3861  139.1478  155.4398 H   0  0  0  0  0  0  0  0  0  0  0  0
  151.6933  140.6611  156.0701 H   0  0  0  0  0  0  0  0  0  0  0  0
  151.0111  136.7902  155.9670 H   0  0  0  0  0  0  0  0  0  0  0  0
  147.3301  135.5263  153.3790 H   0  0  0  0  0  0  0  0  0  0  0  0
  1  2  1  0  0  0  0
  1 22  1  0  0  0  0
  1 23  1  0  0  0  0
  1 24  1  0  0  0  0
  2  3  1  0  0  0  0
  2  4  1  0  0  0  0
  3 25  1  0  0  0  0
  3 26  1  0  0  0  0
  3 27  1  0  0  0  0
  4 21  1  0  0  0  0
  4  5  2  0  0  0  0
  5  6  1  0  0  0  0
  5 28  1  0  0  0  0
  6  7  2  0  0  0  0
  6 29  1  0  0  0  0
  7  8  1  0  0  0  0
  7 30  1  0  0  0  0
  8  9  2  0  0  0  0
  8 21  1  0  0  0  0
  9 10  1  0  0  0  0
 10 11  2  0  0  0  0
 10 12  1  0  0  0  0
 12 13  1  0  0  0  0
 12 31  1  0  0  0  0
 13 20  1  0  0  0  0
 13 14  1  0  0  0  0
 13 32  1  0  0  0  0
 14 20  1  0  0  0  0
 14 15  1  0  0  0  0
 14 33  1  0  0  0  0
 15 19  1  0  0  0  0
 15 16  1  0  0  0  0
 15 34  1  0  0  0  0
 16 17  1  0  0  0  0
 16 35  1  0  0  0  0
 16 36  1  0  0  0  0
 17 18  1  0  0  0  0
 17 37  1  0  0  0  0
 17 38  1  0  0  0  0
 18 19  1  0  0  0  0
 18 20  1  0  0  0  0
 18 39  1  0  0  0  0
 19 40  1  0  0  0  0
 19 41  1  0  0  0  0
 20 42  1  0  0  0  0
 21 43  1  0  0  0  0
M  END
> <s_m_source_file>
AV-unprocessed.smi

> <i_m_source_file_index>
2706

> <i_lp_mmshare_version>
43012

> <i_f3d_flags>
0

> <s_epik_input>
W0NIM11OKFtDSDNdKWMxW2NIXVtjSF1bY0hdYyhuMSlbTkhdQyg9TylbTkhdW0NASF0yW0NAQEhdM1tDQEBIXShbQ0gyXTQpW0NIMl1bQ0gyXVtDQEBIXTRbQ0BIXTIz

> <s_epik_cmdline>
J2VwaWtfcHl0aG9uJywgJy1waCcsICc3LjAnLCAnLXRuJywgJzgnLCAnLW1hJywgJzIwMCcsICctbWV0YWxfYmluZGluZycsICctaW1hZScsICc8aW5maWxlLm1hZT4nLCAnLW9tYWUnLCAnPG91dGZpbGUubWFlPic=

> <r_lp_tautomer_probability>
0.999994

> <r_epik_Ionization_Penalty>
2.07242

> <r_epik_Ionization_Penalty_Charging>
2.07242

> <r_epik_Ionization_Penalty_Neutral>
9.73808e-07

> <r_epik_State_Penalty>
3.96009

> <r_epik_Charging_Adjusted_Penalty>
6.03251

> <i_epik_Tot_Q>
0

> <i_epik_Tot_abs_Q>
0

> <r_epik_Metal_State_Penalty>
3.98849

> <b_epik_Metal_Only>
1

> <s_lp_Force_Field>
OPLS_2005

> <r_lp_Energy>
91.2091

> <b_lp_Chiralities_Consistent>
1

> <s_lp_Variant>
AV-unprocessed.smi:2706-9

> <Gold.Version>
5.8.1

> <Gold.Id.Protein>
6NUR|6NUR_protein|mol2

> <Gold.PLP.Fitness>
33.1493

> <Gold.PLP.PLP>
-30.7999

> <Gold.PLP.part.hbond>
-2.0000

> <Gold.PLP.part.metal>
0.0000

> <Gold.PLP.part.buried>
-1.8982

> <Gold.PLP.part.nonpolar>
-28.3376

> <Gold.PLP.part.repulsive>
0.1046

> <Gold.PLP.ligand.clash>
0.0000

> <Gold.PLP.ligand.torsion>
0.3465

> <Gold.PLP.Chemscore.Hbond>
1.0000

> <Gold.PLP.Chemscore.CHOScore>
0.0000

> <Gold.PLP.Chemscore.Metal>
0.0000

> <Gold.Chemscore.Hbonds>
donor molecule, donor type, donor heavy atom, donor atom, acceptor molecule, acceptor atom, score
      L1  H    12    31       P1  7948  1.00

> <Gold.PLP.Chemscore.Internal.Correction>
0.0423

> <Gold.Rescore>
     Score         DG    S(hbond)    S(metal)    S(lipo)     H(rot)  DE(clash)    DE(int)     intcor
     12.71     -14.66       0.97        0.00      72.68       1.00       0.07       1.88       ----

> <Gold.Chemscore.Fitness>
12.7061

> <Gold.Chemscore.DG>
-14.6634

> <Gold.Chemscore.ZeroCoef>
-5.4800

> <Gold.Chemscore.Hbond>
0.9701

> <Gold.Chemscore.Metal>
0.0000

> <Gold.Chemscore.Lipo>
72.6758

> <Gold.Chemscore.Internal_Hbond>
0.0000

> <Gold.Chemscore.DEClash>
0.0743

> <Gold.Chemscore.DEInternal>
1.8830

> <Gold.Chemscore.Rot>
1.0000

> <Gold.Chemscore.Internal.Correction>
   9.000000E+99

> <Gold.Chemscore.Hbonds>
donor molecule, donor type, donor heavy atom, donor atom, acceptor molecule, acceptor atom, score
      L1  H    12    31       P1  7948  0.96
      L1  H    21    43       P1  7948  0.01

> <Gold.Chemscore.Hbond.Weighted>
-3.2403

> <Gold.Chemscore.Metal.Weighted>
-0.0000

> <Gold.Chemscore.Lipo.Weighted>
-8.5031

> <Gold.Chemscore.Internal_Hbond.Weighted>
0.0000

> <Gold.Chemscore.DEClash.Weighted>
0.0743

> <Gold.Chemscore.DEInternal.Weighted>
1.8830

> <Gold.Chemscore.Rot.Weighted>
2.5600

> <Gold.Chemscore.Internal.Correction.Weighted>
   9.000000E+99

> <Gold.Protein.RotatedTorsions>
[ 6907 6896 6895 6894 ] final   80.34 input  -60.11 | X-H torsion
[ 7974 7965 7964 7962 ] final  -45.22 input  175.53 | X-H torsion
[ 8008 7997 7996 7995 ] final   83.12 input   59.86 | X-H torsion
[ 10167 10162 10161 10158 ] final  168.99 input  -65.29 | X-H torsion
[ 10718 10713 10712 10709 ] final -172.56 input   66.30 | X-H torsion
[ 10763 10752 10751 10750 ] final -139.17 input  -60.55 | X-H torsion
[ 11005 11000 10999 10996 ] final  -70.10 input  -57.11 | X-H torsion

> <Gold.Protein.ActiveResidues>
 VAL166  LYS551  ARG553  GLY616  TRP617  ASP618  TYR619  PRO620  LYS621  CYS622 
 ASP623  PHE694  ASN695  SER759  ASP760  ASP761  ALA762  ILE779  LEU786  VAL792 
 PHE793  MET794  SER795  GLU796  ALA797  LYS798  CYS799  TRP800  GLU811  SER814 

> <Gold.Protein.RotatedAtoms>
  152.5231  134.3373  159.9204 H   0  0  0  0  0  0  0  0  0  0  0  0  # atno 6907 bound_to 6896
  151.3322  133.3989  159.2671 H   0  0  0  0  0  0  0  0  0  0  0  0  # atno 6908 bound_to 6896
  150.9871  134.9232  159.7936 H   0  0  0  0  0  0  0  0  0  0  0  0  # atno 6909 bound_to 6896
  145.9842  140.7251  142.9348 H   0  0  0  0  0  0  0  0  0  0  0  0  # atno 7974 bound_to 7965
  155.9197  140.3422  155.6163 H   0  0  0  0  0  0  0  0  0  0  0  0  # atno 8008 bound_to 7997
  155.7288  140.0793  157.2317 H   0  0  0  0  0  0  0  0  0  0  0  0  # atno 8009 bound_to 7997
  154.4068  140.1592  156.2473 H   0  0  0  0  0  0  0  0  0  0  0  0  # atno 8010 bound_to 7997
  139.4981  144.3754  151.9679 H   0  0  0  0  0  0  0  0  0  0  0  0  # atno 10167 bound_to 10162
  156.7574  130.9401  151.3117 H   0  0  0  0  0  0  0  0  0  0  0  0  # atno 10718 bound_to 10713
  154.8617  135.3590  154.5502 H   0  0  0  0  0  0  0  0  0  0  0  0  # atno 10763 bound_to 10752
  153.6121  135.7009  153.5348 H   0  0  0  0  0  0  0  0  0  0  0  0  # atno 10764 bound_to 10752
  153.3200  135.4154  155.1370 H   0  0  0  0  0  0  0  0  0  0  0  0  # atno 10765 bound_to 10752
  141.1567  133.6781  156.6700 H   0  0  0  0  0  0  0  0  0  0  0  0  # atno 11005 bound_to 11000
  144.6870  140.2960  143.7270 LP  0  0  0  0  0  0  0  0  0  0  0  0  # atno 17320 bound_to 7965
  145.7725  139.1862  143.2204 LP  0  0  0  0  0  0  0  0  0  0  0  0  # atno 17321 bound_to 7965
  140.3191  144.3449  150.6014 LP  0  0  0  0  0  0  0  0  0  0  0  0  # atno 17342 bound_to 10162
  140.5737  143.2178  151.7553 LP  0  0  0  0  0  0  0  0  0  0  0  0  # atno 17343 bound_to 10162
  157.6750  130.9086  150.0128 LP  0  0  0  0  0  0  0  0  0  0  0  0  # atno 17370 bound_to 10713
  156.1361  130.3642  149.9655 LP  0  0  0  0  0  0  0  0  0  0  0  0  # atno 17371 bound_to 10713
  140.3182  134.8030  157.4231 LP  0  0  0  0  0  0  0  0  0  0  0  0  # atno 17394 bound_to 11000
  140.1120  134.5333  155.8258 LP  0  0  0  0  0  0  0  0  0  0  0  0  # atno 17395 bound_to 11000

$$$$
