AV-unprocessed.smi:2945|AV-procd|sdf|11278|dock2
  -GOLD-   2272016173D 1   1.00000     0.00000
 Structure written by MMmdl.
 36 37  0  0  0  0  0  0  0  0  1 V2000
  152.7152  132.4111  156.6736 C   0  0  0  0  0  0  0  0  0  0  0  0
  151.7612  133.3136  155.9688 C   0  0  0  0  0  0  0  0  0  0  0  0
  150.6802  133.0804  155.1660 C   0  0  0  0  0  0  0  0  0  0  0  0
  150.2336  134.3892  154.8428 C   0  0  0  0  0  0  0  0  0  0  0  0
  149.1027  134.5858  154.0103 N   0  0  0  0  0  0  0  0  0  0  0  0
  147.9084  133.9755  154.0904 C   0  0  0  0  0  0  0  0  0  0  0  0
  147.5962  133.1365  154.9358 O   0  0  0  0  0  0  0  0  0  0  0  0
  147.0839  134.4030  153.1225 N   0  0  0  0  0  0  0  0  0  0  0  0
  145.7094  133.9523  152.8934 C   0  0  2  0  0  0  0  0  0  0  0  0
  145.6180  132.4284  153.1114 C   0  0  0  0  0  0  0  0  0  0  0  0
  146.3428  131.6387  152.0077 C   0  0  0  0  0  0  0  0  0  0  0  0
  145.8270  132.0291  150.6146 C   0  0  0  0  0  0  0  0  0  0  0  0
  145.9355  133.5447  150.3813 C   0  0  0  0  0  0  0  0  0  0  0  0
  145.2037  134.3424  151.4808 C   0  0  2  0  0  0  0  0  0  0  0  0
  145.2632  135.8565  151.2162 C   0  0  0  0  0  0  0  0  0  0  0  0
  150.9757  135.3359  155.3962 N   0  0  0  0  0  0  0  0  0  0  0  0
  151.9590  134.6513  156.1203 O   0  0  0  0  0  0  0  0  0  0  0  0
  152.4168  131.3681  156.5667 H   0  0  0  0  0  0  0  0  0  0  0  0
  152.7533  132.6433  157.7380 H   0  0  0  0  0  0  0  0  0  0  0  0
  153.7208  132.5188  156.2667 H   0  0  0  0  0  0  0  0  0  0  0  0
  150.2755  132.1262  154.8628 H   0  0  0  0  0  0  0  0  0  0  0  0
  149.2186  135.2581  153.2669 H   0  0  0  0  0  0  0  0  0  0  0  0
  147.4361  135.0982  152.4811 H   0  0  0  0  0  0  0  0  0  0  0  0
  145.0508  134.4207  153.6269 H   0  0  0  0  0  0  0  0  0  0  0  0
  146.0220  132.1619  154.0888 H   0  0  0  0  0  0  0  0  0  0  0  0
  144.5683  132.1325  153.1281 H   0  0  0  0  0  0  0  0  0  0  0  0
  147.4164  131.8216  152.0650 H   0  0  0  0  0  0  0  0  0  0  0  0
  146.2058  130.5689  152.1672 H   0  0  0  0  0  0  0  0  0  0  0  0
  146.3877  131.4938  149.8479 H   0  0  0  0  0  0  0  0  0  0  0  0
  144.7870  131.7173  150.5105 H   0  0  0  0  0  0  0  0  0  0  0  0
  146.9863  133.8345  150.3460 H   0  0  0  0  0  0  0  0  0  0  0  0
  145.5185  133.7905  149.4041 H   0  0  0  0  0  0  0  0  0  0  0  0
  144.1505  134.0611  151.4329 H   0  0  0  0  0  0  0  0  0  0  0  0
  146.2899  136.2218  151.1830 H   0  0  0  0  0  0  0  0  0  0  0  0
  144.7372  136.4104  151.9941 H   0  0  0  0  0  0  0  0  0  0  0  0
  144.7962  136.1046  150.2629 H   0  0  0  0  0  0  0  0  0  0  0  0
  1  2  1  0  0  0  0
  1 18  1  0  0  0  0
  1 19  1  0  0  0  0
  1 20  1  0  0  0  0
  2 17  1  0  0  0  0
  2  3  2  0  0  0  0
  3  4  1  0  0  0  0
  3 21  1  0  0  0  0
  4  5  1  0  0  0  0
  4 16  2  0  0  0  0
  5  6  1  0  0  0  0
  5 22  1  0  0  0  0
  6  7  2  0  0  0  0
  6  8  1  0  0  0  0
  8  9  1  0  0  0  0
  8 23  1  0  0  0  0
  9 14  1  0  0  0  0
  9 10  1  0  0  0  0
  9 24  1  0  0  0  0
 10 11  1  0  0  0  0
 10 25  1  0  0  0  0
 10 26  1  0  0  0  0
 11 12  1  0  0  0  0
 11 27  1  0  0  0  0
 11 28  1  0  0  0  0
 12 13  1  0  0  0  0
 12 29  1  0  0  0  0
 12 30  1  0  0  0  0
 13 14  1  0  0  0  0
 13 31  1  0  0  0  0
 13 32  1  0  0  0  0
 14 15  1  0  0  0  0
 14 33  1  0  0  0  0
 15 34  1  0  0  0  0
 15 35  1  0  0  0  0
 15 36  1  0  0  0  0
 16 17  1  0  0  0  0
M  END
> <s_m_source_file>
AV-unprocessed.smi

> <i_m_source_file_index>
2945

> <i_lp_mmshare_version>
43012

> <i_f3d_flags>
0

> <s_epik_input>
W0NIM11jMVtjSF1jKG5vMSlbTkhdQyg9TylbTkhdW0NAQEhdMltDSDJdW0NIMl1bQ0gyXVtDSDJdW0NASF0yW0NIM10=

> <s_epik_cmdline>
J2VwaWtfcHl0aG9uJywgJy1waCcsICc3LjAnLCAnLXRuJywgJzgnLCAnLW1hJywgJzIwMCcsICctbWV0YWxfYmluZGluZycsICctaW1hZScsICc8aW5maWxlLm1hZT4nLCAnLW9tYWUnLCAnPG91dGZpbGUubWFlPic=

> <r_lp_tautomer_probability>
1

> <r_epik_Ionization_Penalty>
2.357e-05

> <r_epik_Ionization_Penalty_Charging>
0

> <r_epik_Ionization_Penalty_Neutral>
2.357e-05

> <r_epik_State_Penalty>
-0

> <r_epik_Charging_Adjusted_Penalty>
0

> <i_epik_Tot_Q>
0

> <i_epik_Tot_abs_Q>
0

> <r_epik_Metal_State_Penalty>
-0

> <b_epik_Metal_Only>
0

> <s_lp_Force_Field>
OPLS_2005

> <r_lp_Energy>
7.46694

> <b_lp_Chiralities_Consistent>
1

> <s_lp_Variant>
AV-unprocessed.smi:2945-3

> <Gold.Version>
5.8.1

> <Gold.Id.Protein>
6NUR|6NUR_protein|mol2

> <Gold.PLP.Fitness>
29.6311

> <Gold.PLP.PLP>
-22.6099

> <Gold.PLP.part.hbond>
-3.2837

> <Gold.PLP.part.metal>
0.0000

> <Gold.PLP.part.buried>
-1.3462

> <Gold.PLP.part.nonpolar>
-17.3791

> <Gold.PLP.part.repulsive>
0.1181

> <Gold.PLP.ligand.clash>
0.0000

> <Gold.PLP.ligand.torsion>
0.6436

> <Gold.PLP.Chemscore.Hbond>
2.7672

> <Gold.PLP.Chemscore.CHOScore>
0.0000

> <Gold.PLP.Chemscore.Metal>
0.0000

> <Gold.Chemscore.Hbonds>
donor molecule, donor type, donor heavy atom, donor atom, acceptor molecule, acceptor atom, score
      L1  H     5    22       P1  7948  0.90
      L1  H     8    23       P1  7948  0.98
      P1  H 10752 10763       L1    17  0.58

> <Gold.PLP.Chemscore.Internal.Correction>
0.0067

> <Gold.Rescore>
     Score         DG    S(hbond)    S(metal)    S(lipo)     H(rot)  DE(clash)    DE(int)     intcor
     11.72     -14.61       1.59        0.00      54.65       1.00       0.14       2.75       ----

> <Gold.Chemscore.Fitness>
11.7185

> <Gold.Chemscore.DG>
-14.6083

> <Gold.Chemscore.ZeroCoef>
-5.4800

> <Gold.Chemscore.Hbond>
1.5853

> <Gold.Chemscore.Metal>
0.0000

> <Gold.Chemscore.Lipo>
54.6455

> <Gold.Chemscore.Internal_Hbond>
0.0000

> <Gold.Chemscore.DEClash>
0.1426

> <Gold.Chemscore.DEInternal>
2.7472

> <Gold.Chemscore.Rot>
1.0000

> <Gold.Chemscore.Internal.Correction>
   9.000000E+99

> <Gold.Chemscore.Hbonds>
donor molecule, donor type, donor heavy atom, donor atom, acceptor molecule, acceptor atom, score
      L1  H     5    22       P1  7948  0.18
      L1  H     8    23       P1  7948  0.91
      P1  H 10752 10763       L1    17  0.11

> <Gold.Chemscore.Hbond.Weighted>
-5.2948

> <Gold.Chemscore.Metal.Weighted>
-0.0000

> <Gold.Chemscore.Lipo.Weighted>
-6.3935

> <Gold.Chemscore.Internal_Hbond.Weighted>
0.0000

> <Gold.Chemscore.DEClash.Weighted>
0.1426

> <Gold.Chemscore.DEInternal.Weighted>
2.7472

> <Gold.Chemscore.Rot.Weighted>
2.5600

> <Gold.Chemscore.Internal.Correction.Weighted>
   9.000000E+99

> <Gold.Protein.RotatedTorsions>
[ 6907 6896 6895 6894 ] final -165.25 input  -60.11 | X-H torsion
[ 7974 7965 7964 7962 ] final  174.08 input  175.53 | X-H torsion
[ 8008 7997 7996 7995 ] final   90.28 input   59.86 | X-H torsion
[ 10167 10162 10161 10158 ] final  107.07 input  -65.29 | X-H torsion
[ 10718 10713 10712 10709 ] final -141.09 input   66.30 | X-H torsion
[ 10763 10752 10751 10750 ] final  111.77 input  -60.55 | X-H torsion
[ 11005 11000 10999 10996 ] final -142.02 input  -57.11 | X-H torsion

> <Gold.Protein.ActiveResidues>
 VAL166  LYS551  ARG553  GLY616  TRP617  ASP618  TYR619  PRO620  LYS621  CYS622 
 ASP623  PHE694  ASN695  SER759  ASP760  ASP761  ALA762  ILE779  LEU786  VAL792 
 PHE793  MET794  SER795  GLU796  ALA797  LYS798  CYS799  TRP800  GLU811  SER814 

> <Gold.Protein.RotatedAtoms>
  151.4247  133.3688  159.2760 H   0  0  0  0  0  0  0  0  0  0  0  0  # atno 6907 bound_to 6896
  150.9268  134.8686  159.7536 H   0  0  0  0  0  0  0  0  0  0  0  0  # atno 6908 bound_to 6896
  152.5009  134.4189  159.9526 H   0  0  0  0  0  0  0  0  0  0  0  0  # atno 6909 bound_to 6896
  144.7229  139.9743  143.6437 H   0  0  0  0  0  0  0  0  0  0  0  0  # atno 7974 bound_to 7965
  156.0101  140.3351  155.6932 H   0  0  0  0  0  0  0  0  0  0  0  0  # atno 8008 bound_to 7997
  155.6170  140.0671  157.2707 H   0  0  0  0  0  0  0  0  0  0  0  0  # atno 8009 bound_to 7997
  154.4278  140.1783  156.1319 H   0  0  0  0  0  0  0  0  0  0  0  0  # atno 8010 bound_to 7997
  139.6957  144.7101  151.1271 H   0  0  0  0  0  0  0  0  0  0  0  0  # atno 10167 bound_to 10162
  156.3299  130.7580  151.1696 H   0  0  0  0  0  0  0  0  0  0  0  0  # atno 10718 bound_to 10713
  153.4682  135.3706  155.2376 H   0  0  0  0  0  0  0  0  0  0  0  0  # atno 10763 bound_to 10752
  154.8757  135.3925  154.3844 H   0  0  0  0  0  0  0  0  0  0  0  0  # atno 10764 bound_to 10752
  153.4428  135.7084  153.6223 H   0  0  0  0  0  0  0  0  0  0  0  0  # atno 10765 bound_to 10752
  140.8267  134.2567  157.4876 H   0  0  0  0  0  0  0  0  0  0  0  0  # atno 11005 bound_to 11000
  146.0538  139.3537  143.0623 LP  0  0  0  0  0  0  0  0  0  0  0  0  # atno 17320 bound_to 7965
  145.8181  140.9693  143.0913 LP  0  0  0  0  0  0  0  0  0  0  0  0  # atno 17321 bound_to 7965
  140.7696  143.5495  150.9221 LP  0  0  0  0  0  0  0  0  0  0  0  0  # atno 17342 bound_to 10162
  139.9174  143.6647  152.3103 LP  0  0  0  0  0  0  0  0  0  0  0  0  # atno 17343 bound_to 10162
  157.7428  131.0484  150.4994 LP  0  0  0  0  0  0  0  0  0  0  0  0  # atno 17370 bound_to 10713
  156.5158  130.4150  149.6276 LP  0  0  0  0  0  0  0  0  0  0  0  0  # atno 17371 bound_to 10713
  139.8706  134.9564  156.4236 LP  0  0  0  0  0  0  0  0  0  0  0  0  # atno 17394 bound_to 11000
  140.9042  133.7758  155.9715 LP  0  0  0  0  0  0  0  0  0  0  0  0  # atno 17395 bound_to 11000

$$$$
