#       Name:                AV-unprocessed.smi:266
#       Creating user name   scv26
#       Creation time:       Thu Mar 26 21:23:53 2020


#       File generated by GOLD software.
#

@<TRIPOS>MOLECULE
AV-unprocessed.smi:266
    59    62     1
SMALL
NO_CHARGES


@<TRIPOS>ATOM
      1 ****        -5.6949  -0.8808   1.3367 C.3            1 S1                 0.0000
      2 ****        -4.9367   0.3861   0.9109 C.3            1 S1                 0.0000
      3 ****        -5.2382   0.6316  -0.4602 O.3            1 S1                 0.0000
      4 ****        -4.1318   1.2796  -1.0626 C.3            1 S1                 0.0000
      5 ****        -2.9504   0.5430  -0.4509 C.3            1 S1                 0.0000
      6 ****        -3.3844   0.3397   0.9990 C.3            1 S1                 0.0000
      7 ****        -2.9629   1.4743   1.7383 O.3            1 S1                 0.0000
      8 ****        -2.7645  -0.9183   1.6634 C.3            1 S1                 0.0000
      9 ****        -1.3114  -0.9473   1.5903 N.pl3          1 S1                 0.0000
     10 ****        -0.4293  -0.3135   2.4344 C.2            1 S1                 0.0000
     11 ****         0.8315  -0.4798   2.1451 N.2            1 S1                 0.0000
     12 ****         0.8241  -1.2911   1.0155 C.ar           1 S1                 0.0000
     13 ****         1.8351  -1.8419   0.1728 C.ar           1 S1                 0.0000
     14 ****         3.1656  -1.5906   0.3148 N.pl3          1 S1                 0.0000
     15 ****         4.1087  -2.5010  -0.3300 C.3            1 S1                 0.0000
     16 ****         3.5936  -0.2022   0.4971 C.3            1 S1                 0.0000
     17 ****         3.5574   0.6346  -0.8005 C.3            1 S1                 0.0000
     18 ****         4.2997   1.9748  -0.6318 C.3            1 S1                 0.0000
     19 ****         3.9982   2.8615  -1.8433 C.3            1 S1                 0.0000
     20 ****         2.2678   2.4846  -2.3032 S.o2           1 S1                 0.0000
     21 ****         1.3758   3.5073  -1.7363 O.2            1 S1                 0.0000
     22 ****         2.2146   2.1400  -3.7320 O.2            1 S1                 0.0000
     23 ****         2.1355   0.9593  -1.2968 C.3            1 S1                 0.0000
     24 ****         1.4211  -2.6438  -0.8456 N.ar           1 S1                 0.0000
     25 ****         0.1211  -2.8722  -1.0482 C.ar           1 S1                 0.0000
     26 ****        -0.9228  -2.4052  -0.3633 N.ar           1 S1                 0.0000
     27 ****        -0.5203  -1.6134   0.6707 C.ar           1 S1                 0.0000
     28 ****        -5.5103  -1.1229   2.3834 H              1 S1                 0.0000
     29 ****        -5.4105  -1.7411   0.7305 H              1 S1                 0.0000
     30 ****        -6.7699  -0.7423   1.2191 H              1 S1                 0.0000
     31 ****        -5.3254   1.2278   1.4873 H              1 S1                 0.0000
     32 ****        -4.1618   1.2030  -2.1496 H              1 S1                 0.0000
     33 ****        -4.1245   2.3355  -0.7877 H              1 S1                 0.0000
     34 ****        -2.8467  -0.4209  -0.9504 H              1 S1                 0.0000
     35 ****        -2.0051   1.0773  -0.5602 H              1 S1                 0.0000
     36 ****        -3.3214   1.4139   2.6105 H              1 S1                 0.0000
     37 ****        -3.0560  -0.9820   2.7127 H              1 S1                 0.0000
     38 ****        -3.1349  -1.8248   1.1848 H              1 S1                 0.0000
     39 ****        -0.7525   0.2887   3.2711 H              1 S1                 0.0000
     40 ****         3.8753  -3.5386  -0.0883 H              1 S1                 0.0000
     41 ****         5.1260  -2.3041   0.0089 H              1 S1                 0.0000
     42 ****         4.0848  -2.3831  -1.4139 H              1 S1                 0.0000
     43 ****         3.0296   0.2960   1.2820 H              1 S1                 0.0000
     44 ****         4.6194  -0.2291   0.8660 H              1 S1                 0.0000
     45 ****         4.0716   0.0875  -1.5919 H              1 S1                 0.0000
     46 ****         3.9374   2.4740   0.2681 H              1 S1                 0.0000
     47 ****         5.3728   1.8289  -0.5050 H              1 S1                 0.0000
     48 ****         4.1126   3.9258  -1.6367 H              1 S1                 0.0000
     49 ****         4.6373   2.5963  -2.6856 H              1 S1                 0.0000
     50 ****         1.6998   0.1587  -1.8945 H              1 S1                 0.0000
     51 ****         1.4660   1.1729  -0.4633 H              1 S1                 0.0000
     52 ****        -0.1165  -3.5150  -1.8829 H              1 S1                 0.0000
     53 ****        -6.0470   1.2159  -0.5269 LP             1 S1                 0.0000
     54 ****        -5.4141  -0.2356  -0.9260 LP             1 S1                 0.0000
     55 ****        -3.2930   2.3076   1.2949 LP             1 S1                 0.0000
     56 ****        -1.9642   1.4947   1.7848 LP             1 S1                 0.0000
     57 ****         1.6249  -0.1077   2.6270 LP             1 S1                 0.0000
     58 ****         2.0975  -3.0665  -1.4487 LP             1 S1                 0.0000
     59 ****        -1.8775  -2.6092  -0.5799 LP             1 S1                 0.0000
@<TRIPOS>BOND
    1    1    2 1     
    2    1   28 1     
    3    1   29 1     
    4    1   30 1     
    5    2    6 1     
    6    2    3 1     
    7    2   31 1     
    8    3    4 1     
    9    4    5 1     
   10    4   32 1     
   11    4   33 1     
   12    5    6 1     
   13    5   34 1     
   14    5   35 1     
   15    6    7 1     
   16    6    8 1     
   17    7   36 1     
   18    8    9 1     
   19    8   37 1     
   20    8   38 1     
   21    9   27 1     
   22    9   10 1     
   23   10   11 2     
   24   10   39 1     
   25   11   12 1     
   26   12   27 ar    
   27   12   13 ar    
   28   13   14 1     
   29   13   24 ar    
   30   14   15 1     
   31   14   16 1     
   32   15   40 1     
   33   15   41 1     
   34   15   42 1     
   35   16   17 1     
   36   16   43 1     
   37   16   44 1     
   38   17   23 1     
   39   17   18 1     
   40   17   45 1     
   41   18   19 1     
   42   18   46 1     
   43   18   47 1     
   44   19   20 1     
   45   19   48 1     
   46   19   49 1     
   47   20   21 2     
   48   20   22 2     
   49   20   23 1     
   50   23   50 1     
   51   23   51 1     
   52   24   25 ar    
   53   25   26 ar    
   54   25   52 1     
   55   26   27 ar    
   56    3   53 1     
   57    3   54 1     
   58    7   55 1     
   59    7   56 1     
   60   11   57 1     
   61   24   58 1     
   62   26   59 1     
@<TRIPOS>SUBSTRUCTURE
      1 S1             1
@<TRIPOS>SET
LONE_PAIRS      STATIC     ATOMS    <user>   **** ""
9 53 54 55 56 57 21 22 58 59
DONOR_HYDROGENS      STATIC     ATOMS    <user>   **** ""
1 36
ATOM$BLUE        STATIC     ATOMS    COLORGROUP SYSTEM
9 53 54 55 56 57 21 22 58 59
ATOM$RED        STATIC     ATOMS    COLORGROUP SYSTEM
1 36
