AV-unprocessed.smi:3285|AV-procd|sdf|12586|dock1
  -GOLD-   2272018503D 1   1.00000     0.00000
 Structure written by MMmdl.
 45 46  0  0  0  0  0  0  0  0  2 V2000
  148.1936  138.6408  155.1634 C   0  0  0  0  0  0  0  0  0  0  0  0
  149.5950  138.7255  154.6307 C   0  0  0  0  0  0  0  0  0  0  0  0
  150.0702  137.7272  153.9062 N   0  0  0  0  0  0  0  0  0  0  0  0
  151.3756  138.0891  153.5628 O   0  0  0  0  0  0  0  0  0  0  0  0
  151.6396  139.3063  154.1003 C   0  0  0  0  0  0  0  0  0  0  0  0
  152.9963  139.8654  153.8331 C   0  0  0  0  0  0  0  0  0  0  0  0
  150.5515  139.7703  154.7890 C   0  0  0  0  0  0  0  0  0  0  0  0
  150.3900  141.0707  155.5355 C   0  0  0  0  0  0  0  0  0  0  0  0
  149.8060  140.8639  156.9415 C   0  0  0  0  0  0  0  0  0  0  0  0
  150.8254  140.3425  157.8773 N   0  3  0  0  0  0  0  0  0  0  0  0
  151.8751  141.3047  158.2768 C   0  0  2  0  0  0  0  0  0  0  0  0
  152.8194  140.6437  159.2963 C   0  0  0  0  0  0  0  0  0  0  0  0
  153.9077  141.6192  159.7749 C   0  0  0  0  0  0  0  0  0  0  0  0
  153.3128  142.9124  160.3684 C   0  0  2  0  0  0  0  0  0  0  0  0
  152.6773  142.6628  161.7513 C   0  0  0  0  0  0  0  0  0  0  0  0
  152.3602  143.5763  159.3413 C   0  0  2  0  0  0  0  0  0  0  0  0
  151.7612  144.9031  159.8369 C   0  0  0  0  0  0  0  0  0  0  0  0
  151.2683  142.5995  158.8584 C   0  0  0  0  0  0  0  0  0  0  0  0
  147.8241  139.6176  155.4742 H   0  0  0  0  0  0  0  0  0  0  0  0
  148.1454  137.9775  156.0269 H   0  0  0  0  0  0  0  0  0  0  0  0
  147.5066  138.2557  154.4093 H   0  0  0  0  0  0  0  0  0  0  0  0
  153.1287  140.8323  154.3180 H   0  0  0  0  0  0  0  0  0  0  0  0
  153.1527  140.0019  152.7631 H   0  0  0  0  0  0  0  0  0  0  0  0
  153.7697  139.1935  154.2055 H   0  0  0  0  0  0  0  0  0  0  0  0
  151.3515  141.5769  155.6270 H   0  0  0  0  0  0  0  0  0  0  0  0
  149.7554  141.7621  154.9800 H   0  0  0  0  0  0  0  0  0  0  0  0
  149.4115  141.8081  157.3195 H   0  0  0  0  0  0  0  0  0  0  0  0
  148.9702  140.1666  156.8864 H   0  0  0  0  0  0  0  0  0  0  0  0
  150.3695  139.9893  158.7065 H   0  0  0  0  0  0  0  0  0  0  0  0
  152.4627  141.5541  157.3916 H   0  0  0  0  0  0  0  0  0  0  0  0
  152.2492  140.2793  160.1515 H   0  0  0  0  0  0  0  0  0  0  0  0
  153.2909  139.7667  158.8511 H   0  0  0  0  0  0  0  0  0  0  0  0
  154.5528  141.1292  160.5051 H   0  0  0  0  0  0  0  0  0  0  0  0
  154.5505  141.8742  158.9312 H   0  0  0  0  0  0  0  0  0  0  0  0
  154.1454  143.5980  160.5333 H   0  0  0  0  0  0  0  0  0  0  0  0
  151.7944  142.0271  161.6915 H   0  0  0  0  0  0  0  0  0  0  0  0
  152.3810  143.5961  162.2294 H   0  0  0  0  0  0  0  0  0  0  0  0
  153.3863  142.1766  162.4219 H   0  0  0  0  0  0  0  0  0  0  0  0
  152.9673  143.8263  158.4696 H   0  0  0  0  0  0  0  0  0  0  0  0
  151.0621  144.7499  160.6591 H   0  0  0  0  0  0  0  0  0  0  0  0
  151.2176  145.4076  159.0377 H   0  0  0  0  0  0  0  0  0  0  0  0
  152.5411  145.5825  160.1815 H   0  0  0  0  0  0  0  0  0  0  0  0
  150.6604  143.0974  158.1029 H   0  0  0  0  0  0  0  0  0  0  0  0
  150.5930  142.3585  159.6801 H   0  0  0  0  0  0  0  0  0  0  0  0
  151.2841  139.5718  157.4124 H   0  0  0  0  0  0  0  0  0  0  0  0
  1  2  1  0  0  0  0
  1 19  1  0  0  0  0
  1 20  1  0  0  0  0
  1 21  1  0  0  0  0
  2  7  1  0  0  0  0
  2  3  2  0  0  0  0
  3  4  1  0  0  0  0
  4  5  1  0  0  0  0
  5  6  1  0  0  0  0
  5  7  2  0  0  0  0
  6 22  1  0  0  0  0
  6 23  1  0  0  0  0
  6 24  1  0  0  0  0
  7  8  1  0  0  0  0
  8  9  1  0  0  0  0
  8 25  1  0  0  0  0
  8 26  1  0  0  0  0
  9 10  1  0  0  0  0
  9 27  1  0  0  0  0
  9 28  1  0  0  0  0
 10 11  1  0  0  0  0
 10 29  1  0  0  0  0
 10 45  1  0  0  0  0
 11 18  1  0  0  0  0
 11 12  1  0  0  0  0
 11 30  1  0  0  0  0
 12 13  1  0  0  0  0
 12 31  1  0  0  0  0
 12 32  1  0  0  0  0
 13 14  1  0  0  0  0
 13 33  1  0  0  0  0
 13 34  1  0  0  0  0
 14 15  1  0  0  0  0
 14 16  1  0  0  0  0
 14 35  1  0  0  0  0
 15 36  1  0  0  0  0
 15 37  1  0  0  0  0
 15 38  1  0  0  0  0
 16 17  1  0  0  0  0
 16 18  1  0  0  0  0
 16 39  1  0  0  0  0
 17 40  1  0  0  0  0
 17 41  1  0  0  0  0
 17 42  1  0  0  0  0
 18 43  1  0  0  0  0
 18 44  1  0  0  0  0
M  CHG  1  10   1
M  END
> <s_m_source_file>
AV-unprocessed.smi

> <i_m_source_file_index>
3285

> <i_lp_mmshare_version>
43012

> <i_f3d_flags>
0

> <s_epik_input>
W0NIM11jMW5vYyhbQ0gzXSljMVtDSDJdW0NIMl1bTkhdW0NAQEhdMltDSDJdW0NIMl1bQ0BASF0oW0NIM10pW0NAQEhdKFtDSDNdKVtDSDJdMg==

> <s_epik_cmdline>
J2VwaWtfcHl0aG9uJywgJy1waCcsICc3LjAnLCAnLXRuJywgJzgnLCAnLW1hJywgJzIwMCcsICctbWV0YWxfYmluZGluZycsICctaW1hZScsICc8aW5maWxlLm1hZT4nLCAnLW9tYWUnLCAnPG91dGZpbGUubWFlPic=

> <r_lp_tautomer_probability>
1

> <r_epik_Ionization_Penalty>
0.000204615

> <r_epik_Ionization_Penalty_Charging>
0.000204615

> <r_epik_Ionization_Penalty_Neutral>
9.28663e-11

> <r_epik_State_Penalty>
-0

> <r_epik_Charging_Adjusted_Penalty>
0.000204615

> <i_epik_Tot_Q>
1

> <i_epik_Tot_abs_Q>
1

> <r_epik_Metal_State_Penalty>
-0

> <b_epik_Metal_Only>
0

> <s_lp_Force_Field>
OPLS_2005

> <r_lp_Energy>
13.9003

> <b_lp_Chiralities_Consistent>
1

> <s_lp_Variant>
AV-unprocessed.smi:3285-7

> <Gold.Version>
5.8.1

> <Gold.Id.Protein>
6NUR|6NUR_protein|mol2

> <Gold.PLP.Fitness>
44.5526

> <Gold.PLP.PLP>
-41.9861

> <Gold.PLP.part.hbond>
-1.0000

> <Gold.PLP.part.metal>
0.0000

> <Gold.PLP.part.buried>
-4.5331

> <Gold.PLP.part.nonpolar>
-37.3814

> <Gold.PLP.part.repulsive>
0.4629

> <Gold.PLP.ligand.clash>
0.0000

> <Gold.PLP.ligand.torsion>
0.2304

> <Gold.PLP.Chemscore.Hbond>
1.0000

> <Gold.PLP.Chemscore.CHOScore>
0.0000

> <Gold.PLP.Chemscore.Metal>
0.0000

> <Gold.PLP.Chemscore.Internal.Correction>
0.0272

> <Gold.Rescore>
     Score         DG    S(hbond)    S(metal)    S(lipo)     H(rot)  DE(clash)    DE(int)     intcor
     19.50     -19.73       0.99        0.00     123.06       1.35       0.01       0.23       ----

> <Gold.Chemscore.Fitness>
19.4972

> <Gold.Chemscore.DG>
-19.7332

> <Gold.Chemscore.ZeroCoef>
-5.4800

> <Gold.Chemscore.Hbond>
0.9888

> <Gold.Chemscore.Metal>
0.0000

> <Gold.Chemscore.Lipo>
123.0579

> <Gold.Chemscore.Internal_Hbond>
0.0000

> <Gold.Chemscore.DEClash>
0.0057

> <Gold.Chemscore.DEInternal>
0.2303

> <Gold.Chemscore.Rot>
1.3465

> <Gold.Chemscore.Internal.Correction>
   9.000000E+99

> <Gold.Chemscore.Hbond.Weighted>
-3.3024

> <Gold.Chemscore.Metal.Weighted>
-0.0000

> <Gold.Chemscore.Lipo.Weighted>
-14.3978

> <Gold.Chemscore.Internal_Hbond.Weighted>
0.0000

> <Gold.Chemscore.DEClash.Weighted>
0.0057

> <Gold.Chemscore.DEInternal.Weighted>
0.2303

> <Gold.Chemscore.Rot.Weighted>
3.4470

> <Gold.Chemscore.Internal.Correction.Weighted>
   9.000000E+99

> <Gold.Protein.RotatedTorsions>
[ 6907 6896 6895 6894 ] final  -97.82 input  -60.11 | X-H torsion
[ 7974 7965 7964 7962 ] final  123.59 input  175.53 | X-H torsion
[ 8008 7997 7996 7995 ] final   94.22 input   59.86 | X-H torsion
[ 10167 10162 10161 10158 ] final    8.61 input  -65.29 | X-H torsion
[ 10718 10713 10712 10709 ] final   27.80 input   66.30 | X-H torsion
[ 10763 10752 10751 10750 ] final  168.09 input  -60.55 | X-H torsion
[ 11005 11000 10999 10996 ] final   24.08 input  -57.11 | X-H torsion

> <Gold.Protein.ActiveResidues>
 VAL166  LYS551  ARG553  GLY616  TRP617  ASP618  TYR619  PRO620  LYS621  CYS622 
 ASP623  PHE694  ASN695  SER759  ASP760  ASP761  ALA762  ILE779  LEU786  VAL792 
 PHE793  MET794  SER795  GLU796  ALA797  LYS798  CYS799  TRP800  GLU811  SER814 

> <Gold.Protein.RotatedAtoms>
  150.7028  134.1289  159.4062 H   0  0  0  0  0  0  0  0  0  0  0  0  # atno 6907 bound_to 6896
  151.9275  135.0269  160.0536 H   0  0  0  0  0  0  0  0  0  0  0  0  # atno 6908 bound_to 6896
  152.2204  133.4944  159.5196 H   0  0  0  0  0  0  0  0  0  0  0  0  # atno 6909 bound_to 6896
  145.0941  139.3565  143.4845 H   0  0  0  0  0  0  0  0  0  0  0  0  # atno 7974 bound_to 7965
  156.0555  140.3302  155.7401 H   0  0  0  0  0  0  0  0  0  0  0  0  # atno 8008 bound_to 7997
  155.5535  140.0612  157.2862 H   0  0  0  0  0  0  0  0  0  0  0  0  # atno 8009 bound_to 7997
  154.4456  140.1890  156.0699 H   0  0  0  0  0  0  0  0  0  0  0  0  # atno 8010 bound_to 7997
  140.6304  143.8007  150.7288 H   0  0  0  0  0  0  0  0  0  0  0  0  # atno 10167 bound_to 10162
  157.2250  130.6996  149.6287 H   0  0  0  0  0  0  0  0  0  0  0  0  # atno 10718 bound_to 10713
  154.3635  135.2753  155.2306 H   0  0  0  0  0  0  0  0  0  0  0  0  # atno 10763 bound_to 10752
  154.4485  135.5937  153.6179 H   0  0  0  0  0  0  0  0  0  0  0  0  # atno 10764 bound_to 10752
  152.9842  135.6036  154.3858 H   0  0  0  0  0  0  0  0  0  0  0  0  # atno 10765 bound_to 10752
  140.3626  134.2108  155.7671 H   0  0  0  0  0  0  0  0  0  0  0  0  # atno 11005 bound_to 11000
  146.3531  140.0789  142.8619 LP  0  0  0  0  0  0  0  0  0  0  0  0  # atno 17320 bound_to 7965
  145.1031  140.9358  143.4701 LP  0  0  0  0  0  0  0  0  0  0  0  0  # atno 17321 bound_to 7965
  140.1617  143.4270  152.2062 LP  0  0  0  0  0  0  0  0  0  0  0  0  # atno 17342 bound_to 10162
  139.5519  144.7344  151.4410 LP  0  0  0  0  0  0  0  0  0  0  0  0  # atno 17343 bound_to 10162
  155.9679  130.4507  150.5709 LP  0  0  0  0  0  0  0  0  0  0  0  0  # atno 17370 bound_to 10713
  157.3537  131.0738  151.1693 LP  0  0  0  0  0  0  0  0  0  0  0  0  # atno 17371 bound_to 10713
  141.1979  133.8047  157.0606 LP  0  0  0  0  0  0  0  0  0  0  0  0  # atno 17394 bound_to 11000
  140.0614  134.9752  157.1312 LP  0  0  0  0  0  0  0  0  0  0  0  0  # atno 17395 bound_to 11000

$$$$
