AV-unprocessed.smi:1680|AV-procd|sdf|6738|dock9
  -GOLD-   22720 7483D 1   1.00000     0.00000
 Structure written by MMmdl.
 39 40  0  0  0  0  0  0  0  0  2 V2000
  151.8241  140.6639  159.5187 C   0  0  0  0  0  0  0  0  0  0  0  0
  151.9094  140.8233  157.9992 C   0  0  0  0  0  0  0  0  0  0  0  0
  152.7514  140.1600  157.3942 O   0  0  0  0  0  0  0  0  0  0  0  0
  151.0653  141.6782  157.3730 N   0  0  0  0  0  0  0  0  0  0  0  0
  149.9825  142.4301  158.0144 C   0  0  0  0  0  0  0  0  0  0  0  0
  148.6319  141.8900  157.5100 C   0  0  0  0  0  0  0  0  0  0  0  0
  148.5449  141.9342  156.0249 N   0  3  0  0  0  0  0  0  0  0  0  0
  147.2421  141.4259  155.5270 C   0  0  0  0  0  0  0  0  0  0  0  0
  147.2363  141.2099  154.0009 C   0  0  0  0  0  0  0  0  0  0  0  0
  146.1940  140.2736  153.5952 N   0  0  0  0  0  0  0  0  0  0  0  0
  146.1845  138.9655  153.8905 C   0  0  0  0  0  0  0  0  0  0  0  0
  147.0737  138.4152  154.5408 O   0  0  0  0  0  0  0  0  0  0  0  0
  145.0977  138.3567  153.3843 N   0  0  0  0  0  0  0  0  0  0  0  0
  144.7421  136.9840  153.4632 C   0  0  0  0  0  0  0  0  0  0  0  0
  145.6101  136.0068  153.7686 N   0  0  0  0  0  0  0  0  0  0  0  0
  145.0044  134.7570  153.7730 N   0  0  0  0  0  0  0  0  0  0  0  0
  143.7055  134.8407  153.4717 C   0  0  0  0  0  0  0  0  0  0  0  0
  143.0946  136.4550  153.1542 S   0  0  0  0  0  0  0  0  0  0  0  0
  149.7200  141.3035  155.3611 C   0  0  0  0  0  0  0  0  0  0  0  0
  151.0460  141.8531  155.9183 C   0  0  0  0  0  0  0  0  0  0  0  0
  150.8401  140.2997  159.8161 H   0  0  0  0  0  0  0  0  0  0  0  0
  152.0181  141.6134  160.0187 H   0  0  0  0  0  0  0  0  0  0  0  0
  152.5651  139.9456  159.8717 H   0  0  0  0  0  0  0  0  0  0  0  0
  150.0080  142.3951  159.1026 H   0  0  0  0  0  0  0  0  0  0  0  0
  150.0816  143.4851  157.7549 H   0  0  0  0  0  0  0  0  0  0  0  0
  148.4950  140.8618  157.8493 H   0  0  0  0  0  0  0  0  0  0  0  0
  147.8216  142.4783  157.9423 H   0  0  0  0  0  0  0  0  0  0  0  0
  146.9793  140.5047  156.0495 H   0  0  0  0  0  0  0  0  0  0  0  0
  146.4668  142.1519  155.7762 H   0  0  0  0  0  0  0  0  0  0  0  0
  147.1052  142.1599  153.4800 H   0  0  0  0  0  0  0  0  0  0  0  0
  148.1867  140.7986  153.6635 H   0  0  0  0  0  0  0  0  0  0  0  0
  145.4246  140.6486  153.0594 H   0  0  0  0  0  0  0  0  0  0  0  0
  144.4527  138.9408  152.8728 H   0  0  0  0  0  0  0  0  0  0  0  0
  143.1027  133.9455  153.4355 H   0  0  0  0  0  0  0  0  0  0  0  0
  149.6808  140.2227  155.5066 H   0  0  0  0  0  0  0  0  0  0  0  0
  149.6879  141.4803  154.2866 H   0  0  0  0  0  0  0  0  0  0  0  0
  151.1397  142.9146  155.6844 H   0  0  0  0  0  0  0  0  0  0  0  0
  151.8849  141.3651  155.4203 H   0  0  0  0  0  0  0  0  0  0  0  0
  148.5752  142.9147  155.7841 H   0  0  0  0  0  0  0  0  0  0  0  0
  1  2  1  0  0  0  0
  1 21  1  0  0  0  0
  1 22  1  0  0  0  0
  1 23  1  0  0  0  0
  2  3  2  0  0  0  0
  2  4  1  0  0  0  0
  4 20  1  0  0  0  0
  4  5  1  0  0  0  0
  5  6  1  0  0  0  0
  5 24  1  0  0  0  0
  5 25  1  0  0  0  0
  6  7  1  0  0  0  0
  6 26  1  0  0  0  0
  6 27  1  0  0  0  0
  7  8  1  0  0  0  0
  7 19  1  0  0  0  0
  7 39  1  0  0  0  0
  8  9  1  0  0  0  0
  8 28  1  0  0  0  0
  8 29  1  0  0  0  0
  9 10  1  0  0  0  0
  9 30  1  0  0  0  0
  9 31  1  0  0  0  0
 10 11  1  0  0  0  0
 10 32  1  0  0  0  0
 11 12  2  0  0  0  0
 11 13  1  0  0  0  0
 13 14  1  0  0  0  0
 13 33  1  0  0  0  0
 14 18  1  0  0  0  0
 14 15  2  0  0  0  0
 15 16  1  0  0  0  0
 16 17  2  0  0  0  0
 17 18  1  0  0  0  0
 17 34  1  0  0  0  0
 19 20  1  0  0  0  0
 19 35  1  0  0  0  0
 19 36  1  0  0  0  0
 20 37  1  0  0  0  0
 20 38  1  0  0  0  0
M  CHG  1   7   1
M  END
> <s_m_source_file>
AV-unprocessed.smi

> <i_m_source_file_index>
1680

> <i_lp_mmshare_version>
43012

> <i_f3d_flags>
0

> <s_epik_input>
W0NIM11DKD1PKU4xW0NIMl1bQ0gyXU4oW0NIMl1bQ0gyXTEpW0NIMl1bQ0gyXVtOSF1DKD1PKVtOSF1jMm5uW2NIXXMy

> <s_epik_cmdline>
J2VwaWtfcHl0aG9uJywgJy1waCcsICc3LjAnLCAnLXRuJywgJzgnLCAnLW1hJywgJzIwMCcsICctbWV0YWxfYmluZGluZycsICctaW1hZScsICc8aW5maWxlLm1hZT4nLCAnLW9tYWUnLCAnPG91dGZpbGUubWFlPic=

> <r_lp_tautomer_probability>
1

> <r_epik_Ionization_Penalty>
0.679071

> <r_epik_Ionization_Penalty_Charging>
0.67523

> <r_epik_Ionization_Penalty_Neutral>
0.00384089

> <r_epik_State_Penalty>
0.695776

> <r_epik_Charging_Adjusted_Penalty>
1.37101

> <i_epik_Tot_Q>
1

> <i_epik_Tot_abs_Q>
1

> <r_epik_Metal_State_Penalty>
1.03363

> <b_epik_Metal_Only>
0

> <s_lp_Force_Field>
OPLS_2005

> <r_lp_Energy>
38.3378

> <b_lp_Chiralities_Consistent>
1

> <s_lp_Variant>
AV-unprocessed.smi:1680-2

> <Gold.Version>
5.8.1

> <Gold.Id.Protein>
6NUR|6NUR_protein|mol2

> <Gold.PLP.Fitness>
41.1025

> <Gold.PLP.PLP>
-23.7661

> <Gold.PLP.part.hbond>
-4.0000

> <Gold.PLP.part.metal>
0.0000

> <Gold.PLP.part.buried>
-2.8891

> <Gold.PLP.part.nonpolar>
-16.1007

> <Gold.PLP.part.repulsive>
0.2861

> <Gold.PLP.ligand.clash>
0.0000

> <Gold.PLP.ligand.torsion>
0.3355

> <Gold.PLP.Chemscore.Hbond>
5.0000

> <Gold.PLP.Chemscore.CHOScore>
0.9908

> <Gold.PLP.Chemscore.Metal>
0.0000

> <Gold.Chemscore.Hbonds>
donor molecule, donor type, donor heavy atom, donor atom, acceptor molecule, acceptor atom, score
      L1  H     7    39       P1  8028  2.00
      L1  H    10    32       P1 10175  0.99
      L1  H    13    33       P1 10175  1.00
      P1  H  7997  8008       L1     3  1.00
      L1  C    17    34       P1 10957  0.83

> <Gold.PLP.Chemscore.Internal.Correction>
0.0349

> <Gold.Rescore>
     Score         DG    S(hbond)    S(metal)    S(lipo)     H(rot)  DE(clash)    DE(int)     intcor
     17.27     -18.89       3.85        0.00      44.53       1.83       0.00       1.61       ----

> <Gold.Chemscore.Fitness>
17.2715

> <Gold.Chemscore.DG>
-18.8853

> <Gold.Chemscore.ZeroCoef>
-5.4800

> <Gold.Chemscore.Hbond>
3.8543

> <Gold.Chemscore.Metal>
0.0000

> <Gold.Chemscore.Lipo>
44.5257

> <Gold.Chemscore.Internal_Hbond>
0.0000

> <Gold.Chemscore.DEClash>
0.0004

> <Gold.Chemscore.DEInternal>
1.6134

> <Gold.Chemscore.Rot>
1.8272

> <Gold.Chemscore.Internal.Correction>
   9.000000E+99

> <Gold.Chemscore.Hbonds>
donor molecule, donor type, donor heavy atom, donor atom, acceptor molecule, acceptor atom, score
      L1  H     7    39       P1  8028  1.00
      L1  H    10    32       P1 10175  0.73
      L1  H    13    33       P1 10175  0.98
      P1  H  7997  8008       L1     3  0.96

> <Gold.Chemscore.Hbond.Weighted>
-12.8735

> <Gold.Chemscore.Metal.Weighted>
-0.0000

> <Gold.Chemscore.Lipo.Weighted>
-5.2095

> <Gold.Chemscore.Internal_Hbond.Weighted>
0.0000

> <Gold.Chemscore.DEClash.Weighted>
0.0004

> <Gold.Chemscore.DEInternal.Weighted>
1.6134

> <Gold.Chemscore.Rot.Weighted>
4.6776

> <Gold.Chemscore.Internal.Correction.Weighted>
   9.000000E+99

> <Gold.Protein.RotatedTorsions>
[ 6907 6896 6895 6894 ] final    2.74 input  -60.11 | X-H torsion
[ 7974 7965 7964 7962 ] final  -94.59 input  175.53 | X-H torsion
[ 8008 7997 7996 7995 ] final  -66.73 input   59.86 | X-H torsion
[ 10167 10162 10161 10158 ] final  -26.33 input  -65.29 | X-H torsion
[ 10718 10713 10712 10709 ] final  -76.79 input   66.30 | X-H torsion
[ 10763 10752 10751 10750 ] final -177.33 input  -60.55 | X-H torsion
[ 11005 11000 10999 10996 ] final   34.10 input  -57.11 | X-H torsion

> <Gold.Protein.ActiveResidues>
 VAL166  LYS551  ARG553  GLY616  TRP617  ASP618  TYR619  PRO620  LYS621  CYS622 
 ASP623  PHE694  ASN695  SER759  ASP760  ASP761  ALA762  ILE779  LEU786  VAL792 
 PHE793  MET794  SER795  GLU796  ALA797  LYS798  CYS799  TRP800  GLU811  SER814 

> <Gold.Protein.RotatedAtoms>
  151.6137  135.1038  160.0086 H   0  0  0  0  0  0  0  0  0  0  0  0  # atno 6907 bound_to 6896
  152.4195  133.7088  159.6477 H   0  0  0  0  0  0  0  0  0  0  0  0  # atno 6908 bound_to 6896
  150.8082  133.8397  159.3216 H   0  0  0  0  0  0  0  0  0  0  0  0  # atno 6909 bound_to 6896
  145.3712  140.9505  143.2446 H   0  0  0  0  0  0  0  0  0  0  0  0  # atno 7974 bound_to 7965
  154.4754  140.0907  156.7248 H   0  0  0  0  0  0  0  0  0  0  0  0  # atno 8008 bound_to 7997
  155.4612  140.3461  155.4294 H   0  0  0  0  0  0  0  0  0  0  0  0  # atno 8009 bound_to 7997
  156.1107  140.1447  156.9331 H   0  0  0  0  0  0  0  0  0  0  0  0  # atno 8010 bound_to 7997
  140.7283  143.4187  151.0986 H   0  0  0  0  0  0  0  0  0  0  0  0  # atno 10167 bound_to 10162
  156.0164  130.4474  150.3247 H   0  0  0  0  0  0  0  0  0  0  0  0  # atno 10718 bound_to 10713
  154.5615  135.2820  155.0915 H   0  0  0  0  0  0  0  0  0  0  0  0  # atno 10763 bound_to 10752
  154.2322  135.6372  153.5183 H   0  0  0  0  0  0  0  0  0  0  0  0  # atno 10764 bound_to 10752
  153.0030  135.5540  154.6210 H   0  0  0  0  0  0  0  0  0  0  0  0  # atno 10765 bound_to 10752
  140.2563  134.3244  155.7873 H   0  0  0  0  0  0  0  0  0  0  0  0  # atno 11005 bound_to 11000
  144.8575  139.5228  143.6828 LP  0  0  0  0  0  0  0  0  0  0  0  0  # atno 17320 bound_to 7965
  146.2884  139.7070  142.9178 LP  0  0  0  0  0  0  0  0  0  0  0  0  # atno 17321 bound_to 7965
  139.7830  143.8328  152.3140 LP  0  0  0  0  0  0  0  0  0  0  0  0  # atno 17342 bound_to 10162
  139.8285  144.7264  150.9480 LP  0  0  0  0  0  0  0  0  0  0  0  0  # atno 17343 bound_to 10162
  157.1346  131.0281  151.2954 LP  0  0  0  0  0  0  0  0  0  0  0  0  # atno 17370 bound_to 10713
  157.4522  130.7605  149.7161 LP  0  0  0  0  0  0  0  0  0  0  0  0  # atno 17371 bound_to 10713
  141.2195  133.7383  156.9117 LP  0  0  0  0  0  0  0  0  0  0  0  0  # atno 17394 bound_to 11000
  140.1508  134.9231  157.2590 LP  0  0  0  0  0  0  0  0  0  0  0  0  # atno 17395 bound_to 11000

$$$$
