AV-unprocessed.smi:2322|AV-procd|sdf|9286|dock8
  -GOLD-   2272012513D 1   1.00000     0.00000
 Structure written by MMmdl.
 38 40  0  0  0  0  0  0  0  0  1 V2000
  147.4755  133.0155  152.2399 C   0  0  0  0  0  0  0  0  0  0  0  0
  148.2841  132.4074  153.2790 N   0  0  0  0  0  0  0  0  0  0  0  0
  148.1691  131.0895  153.5653 N   0  0  0  0  0  0  0  0  0  0  0  0
  149.0560  130.9237  154.5456 C   0  0  0  0  0  0  0  0  0  0  0  0
  149.7470  132.0400  154.9218 N   0  0  0  0  0  0  0  0  0  0  0  0
  149.2134  132.9283  154.0870 C   0  0  0  0  0  0  0  0  0  0  0  0
  149.5330  134.3153  153.9904 N   0  0  0  0  0  0  0  0  0  0  0  0
  150.3413  135.0958  154.7383 C   0  0  0  0  0  0  0  0  0  0  0  0
  150.9586  134.6345  155.6968 O   0  0  0  0  0  0  0  0  0  0  0  0
  150.4229  136.3857  154.3734 N   0  0  0  0  0  0  0  0  0  0  0  0
  151.2196  137.4095  155.0411 C   0  0  1  0  0  0  0  0  0  0  0  0
  152.3475  137.9127  154.1252 C   0  0  0  0  0  0  0  0  0  0  0  0
  153.0759  139.1031  154.7693 C   0  0  0  0  0  0  0  0  0  0  0  0
  152.1467  140.1372  155.0770 O   0  0  0  0  0  0  0  0  0  0  0  0
  151.1587  139.7405  156.0237 C   0  0  1  0  0  0  0  0  0  0  0  0
  150.3045  140.9497  156.3486 C   0  0  0  0  0  0  0  0  0  0  0  0
  150.9387  142.2850  156.6615 C   0  0  0  0  0  0  0  0  0  0  0  0
  150.2537  141.5012  157.7547 C   0  0  0  0  0  0  0  0  0  0  0  0
  150.3211  138.5905  155.4347 C   0  0  0  0  0  0  0  0  0  0  0  0
  148.1048  133.2618  151.3846 H   0  0  0  0  0  0  0  0  0  0  0  0
  147.0134  133.9277  152.6180 H   0  0  0  0  0  0  0  0  0  0  0  0
  146.6893  132.3318  151.9175 H   0  0  0  0  0  0  0  0  0  0  0  0
  149.2112  129.9601  155.0080 H   0  0  0  0  0  0  0  0  0  0  0  0
  149.0726  134.7968  153.2318 H   0  0  0  0  0  0  0  0  0  0  0  0
  149.8840  136.6798  153.5709 H   0  0  0  0  0  0  0  0  0  0  0  0
  151.6564  136.9931  155.9510 H   0  0  0  0  0  0  0  0  0  0  0  0
  153.0565  137.1109  153.9169 H   0  0  0  0  0  0  0  0  0  0  0  0
  151.9345  138.2226  153.1642 H   0  0  0  0  0  0  0  0  0  0  0  0
  153.6031  138.7934  155.6730 H   0  0  0  0  0  0  0  0  0  0  0  0
  153.8264  139.4972  154.0838 H   0  0  0  0  0  0  0  0  0  0  0  0
  151.6511  139.4069  156.9391 H   0  0  0  0  0  0  0  0  0  0  0  0
  149.3678  140.9854  155.7952 H   0  0  0  0  0  0  0  0  0  0  0  0
  152.0252  142.3378  156.6869 H   0  0  0  0  0  0  0  0  0  0  0  0
  150.4373  143.1768  156.2911 H   0  0  0  0  0  0  0  0  0  0  0  0
  149.2952  141.8695  158.1141 H   0  0  0  0  0  0  0  0  0  0  0  0
  150.8846  141.0312  158.5066 H   0  0  0  0  0  0  0  0  0  0  0  0
  149.7773  138.9490  154.5592 H   0  0  0  0  0  0  0  0  0  0  0  0
  149.5708  138.2653  156.1565 H   0  0  0  0  0  0  0  0  0  0  0  0
  1  2  1  0  0  0  0
  1 20  1  0  0  0  0
  1 21  1  0  0  0  0
  1 22  1  0  0  0  0
  2  6  1  0  0  0  0
  2  3  1  0  0  0  0
  3  4  2  0  0  0  0
  4  5  1  0  0  0  0
  4 23  1  0  0  0  0
  5  6  2  0  0  0  0
  6  7  1  0  0  0  0
  7  8  1  0  0  0  0
  7 24  1  0  0  0  0
  8  9  2  0  0  0  0
  8 10  1  0  0  0  0
 10 11  1  0  0  0  0
 10 25  1  0  0  0  0
 11 19  1  0  0  0  0
 11 12  1  0  0  0  0
 11 26  1  0  0  0  0
 12 13  1  0  0  0  0
 12 27  1  0  0  0  0
 12 28  1  0  0  0  0
 13 14  1  0  0  0  0
 13 29  1  0  0  0  0
 13 30  1  0  0  0  0
 14 15  1  0  0  0  0
 15 16  1  0  0  0  0
 15 19  1  0  0  0  0
 15 31  1  0  0  0  0
 16 18  1  0  0  0  0
 16 17  1  0  0  0  0
 16 32  1  0  0  0  0
 17 18  1  0  0  0  0
 17 33  1  0  0  0  0
 17 34  1  0  0  0  0
 18 35  1  0  0  0  0
 18 36  1  0  0  0  0
 19 37  1  0  0  0  0
 19 38  1  0  0  0  0
M  END
> <s_m_source_file>
AV-unprocessed.smi

> <i_m_source_file_index>
2322

> <i_lp_mmshare_version>
43012

> <i_f3d_flags>
0

> <s_epik_input>
W0NIM11uMW5bY0hdbmMxW05IXUMoPU8pW05IXVtDQEBIXTJbQ0gyXVtDSDJdT1tDQEhdKFtDSDJdMilbQ0hdM1tDSDJdW0NIMl0z

> <s_epik_cmdline>
J2VwaWtfcHl0aG9uJywgJy1waCcsICc3LjAnLCAnLXRuJywgJzgnLCAnLW1hJywgJzIwMCcsICctbWV0YWxfYmluZGluZycsICctaW1hZScsICc8aW5maWxlLm1hZT4nLCAnLW9tYWUnLCAnPG91dGZpbGUubWFlPic=

> <r_lp_tautomer_probability>
1

> <r_epik_Ionization_Penalty>
2.16399e-05

> <r_epik_Ionization_Penalty_Charging>
0

> <r_epik_Ionization_Penalty_Neutral>
2.16399e-05

> <r_epik_State_Penalty>
-0

> <r_epik_Charging_Adjusted_Penalty>
0

> <i_epik_Tot_Q>
0

> <i_epik_Tot_abs_Q>
0

> <r_epik_Metal_State_Penalty>
-0

> <b_epik_Metal_Only>
0

> <s_lp_Force_Field>
OPLS_2005

> <r_lp_Energy>
20.3548

> <b_lp_Chiralities_Consistent>
1

> <s_lp_Variant>
AV-unprocessed.smi:2322-2

> <Gold.Version>
5.8.1

> <Gold.Id.Protein>
6NUR|6NUR_protein|mol2

> <Gold.PLP.Fitness>
39.8961

> <Gold.PLP.PLP>
-32.7398

> <Gold.PLP.part.hbond>
-4.2865

> <Gold.PLP.part.metal>
0.0000

> <Gold.PLP.part.buried>
-1.6340

> <Gold.PLP.part.nonpolar>
-27.1619

> <Gold.PLP.part.repulsive>
0.2664

> <Gold.PLP.ligand.clash>
0.0000

> <Gold.PLP.ligand.torsion>
0.8660

> <Gold.PLP.Chemscore.Hbond>
2.6048

> <Gold.PLP.Chemscore.CHOScore>
0.0000

> <Gold.PLP.Chemscore.Metal>
0.0000

> <Gold.Chemscore.Hbonds>
donor molecule, donor type, donor heavy atom, donor atom, acceptor molecule, acceptor atom, score
      L1  H     7    24       P1  7948  0.75
      L1  H    10    25       P1  7948  0.98
      P1  H  7989  7998       L1    14  0.72

> <Gold.PLP.Chemscore.Internal.Correction>
1.0738

> <Gold.Rescore>
     Score         DG    S(hbond)    S(metal)    S(lipo)     H(rot)  DE(clash)    DE(int)     intcor
     11.08     -13.90       1.32        0.00      62.91       1.31       0.78       2.04       ----

> <Gold.Chemscore.Fitness>
11.0751

> <Gold.Chemscore.DG>
-13.8982

> <Gold.Chemscore.ZeroCoef>
-5.4800

> <Gold.Chemscore.Hbond>
1.3186

> <Gold.Chemscore.Metal>
0.0000

> <Gold.Chemscore.Lipo>
62.9096

> <Gold.Chemscore.Internal_Hbond>
0.0000

> <Gold.Chemscore.DEClash>
0.7808

> <Gold.Chemscore.DEInternal>
2.0423

> <Gold.Chemscore.Rot>
1.3072

> <Gold.Chemscore.Internal.Correction>
   9.000000E+99

> <Gold.Chemscore.Hbonds>
donor molecule, donor type, donor heavy atom, donor atom, acceptor molecule, acceptor atom, score
      L1  H     7    24       P1  7948  0.09
      L1  H    10    25       P1  7948  0.28
      P1  H  7989  7998       L1    14  0.39
      P1  H 10752 10764       L1     9  0.01

> <Gold.Chemscore.Hbond.Weighted>
-4.4042

> <Gold.Chemscore.Metal.Weighted>
-0.0000

> <Gold.Chemscore.Lipo.Weighted>
-7.3604

> <Gold.Chemscore.Internal_Hbond.Weighted>
0.0000

> <Gold.Chemscore.DEClash.Weighted>
0.7808

> <Gold.Chemscore.DEInternal.Weighted>
2.0423

> <Gold.Chemscore.Rot.Weighted>
3.3464

> <Gold.Chemscore.Internal.Correction.Weighted>
   9.000000E+99

> <Gold.Protein.RotatedTorsions>
[ 6907 6896 6895 6894 ] final -130.49 input  -60.11 | X-H torsion
[ 7974 7965 7964 7962 ] final  -74.59 input  175.53 | X-H torsion
[ 8008 7997 7996 7995 ] final   88.25 input   59.86 | X-H torsion
[ 10167 10162 10161 10158 ] final   -2.95 input  -65.29 | X-H torsion
[ 10718 10713 10712 10709 ] final   29.62 input   66.30 | X-H torsion
[ 10763 10752 10751 10750 ] final  -24.70 input  -60.55 | X-H torsion
[ 11005 11000 10999 10996 ] final -178.12 input  -57.11 | X-H torsion

> <Gold.Protein.ActiveResidues>
 VAL166  LYS551  ARG553  GLY616  TRP617  ASP618  TYR619  PRO620  LYS621  CYS622 
 ASP623  PHE694  ASN695  SER759  ASP760  ASP761  ALA762  ILE779  LEU786  VAL792 
 PHE793  MET794  SER795  GLU796  ALA797  LYS798  CYS799  TRP800  GLU811  SER814 

> <Gold.Protein.RotatedAtoms>
  150.9403  133.6664  159.2791 H   0  0  0  0  0  0  0  0  0  0  0  0  # atno 6907 bound_to 6896
  151.4055  135.0976  159.9579 H   0  0  0  0  0  0  0  0  0  0  0  0  # atno 6908 bound_to 6896
  152.5066  133.8888  159.7438 H   0  0  0  0  0  0  0  0  0  0  0  0  # atno 6909 bound_to 6896
  145.6371  140.9321  143.1056 H   0  0  0  0  0  0  0  0  0  0  0  0  # atno 7974 bound_to 7965
  155.9854  140.3373  155.6703 H   0  0  0  0  0  0  0  0  0  0  0  0  # atno 8008 bound_to 7997
  155.6492  140.0703  157.2610 H   0  0  0  0  0  0  0  0  0  0  0  0  # atno 8009 bound_to 7997
  154.4204  140.1728  156.1644 H   0  0  0  0  0  0  0  0  0  0  0  0  # atno 8010 bound_to 7997
  140.6871  143.6597  150.8277 H   0  0  0  0  0  0  0  0  0  0  0  0  # atno 10167 bound_to 10162
  157.2490  130.7106  149.6396 H   0  0  0  0  0  0  0  0  0  0  0  0  # atno 10718 bound_to 10713
  153.6880  135.6963  153.5098 H   0  0  0  0  0  0  0  0  0  0  0  0  # atno 10763 bound_to 10752
  153.2434  135.4298  155.0721 H   0  0  0  0  0  0  0  0  0  0  0  0  # atno 10764 bound_to 10752
  154.8381  135.3513  154.6423 H   0  0  0  0  0  0  0  0  0  0  0  0  # atno 10765 bound_to 10752
  140.4334  134.6498  157.4723 H   0  0  0  0  0  0  0  0  0  0  0  0  # atno 11005 bound_to 11000
  144.7171  139.8158  143.7395 LP  0  0  0  0  0  0  0  0  0  0  0  0  # atno 17320 bound_to 7965
  146.1310  139.4346  143.0168 LP  0  0  0  0  0  0  0  0  0  0  0  0  # atno 17321 bound_to 7965
  140.0305  143.5448  152.2762 LP  0  0  0  0  0  0  0  0  0  0  0  0  # atno 17342 bound_to 10162
  139.6239  144.7634  151.2680 LP  0  0  0  0  0  0  0  0  0  0  0  0  # atno 17343 bound_to 10162
  155.9667  130.4433  150.5418 LP  0  0  0  0  0  0  0  0  0  0  0  0  # atno 17370 bound_to 10713
  157.3298  131.0697  151.1869 LP  0  0  0  0  0  0  0  0  0  0  0  0  # atno 17371 bound_to 10713
  140.0119  134.6678  155.9368 LP  0  0  0  0  0  0  0  0  0  0  0  0  # atno 17394 bound_to 11000
  141.1736  133.6539  156.4744 LP  0  0  0  0  0  0  0  0  0  0  0  0  # atno 17395 bound_to 11000

$$$$
