AV-unprocessed.smi:1033|AV-procd|sdf|4497|dock10
  -GOLD-   22720 2493D 1   1.00000     0.00000
 Structure written by MMmdl.
 56 58  0  0  0  0  0  0  0  0  2 V2000
  153.3849  142.3325  160.4319 C   0  0  0  0  0  0  0  0  0  0  0  0
  152.4825  142.0779  159.2373 C   0  0  0  0  0  0  0  0  0  0  0  0
  152.2015  140.7452  158.8595 C   0  0  0  0  0  0  0  0  0  0  0  0
  151.3658  140.4661  157.7557 C   0  0  0  0  0  0  0  0  0  0  0  0
  150.9609  139.2571  157.2158 N   0  0  0  0  0  0  0  0  0  0  0  0
  150.1930  139.6577  156.2061 C   0  0  0  0  0  0  0  0  0  0  0  0
  150.0530  140.9856  156.0282 N   0  0  0  0  0  0  0  0  0  0  0  0
  149.2760  141.6631  155.0068 C   0  0  0  0  0  0  0  0  0  0  0  0
  147.7690  141.3591  155.1252 C   0  0  1  0  0  0  0  0  0  0  0  0
  147.0576  142.5758  155.2291 O   0  0  0  0  0  0  0  0  0  0  0  0
  147.2141  140.5854  153.9128 C   0  0  0  0  0  0  0  0  0  0  0  0
  148.0128  139.4311  153.4826 N   0  0  0  0  0  0  0  0  0  0  0  0
  147.7865  138.2044  154.2523 C   0  0  0  0  0  0  0  0  0  0  0  0
  146.4127  137.5587  153.9831 C   0  0  0  0  0  0  0  0  0  0  0  0
  146.2603  137.2686  152.5322 N   0  3  0  0  0  0  0  0  0  0  0  0
  144.9911  136.5785  152.1883 C   0  0  0  0  0  0  0  0  0  0  0  0
  145.1309  135.6601  150.9579 C   0  0  1  0  0  0  0  0  0  0  0  0
  143.9795  134.6515  150.8553 C   0  0  0  0  0  0  0  0  0  0  0  0
  145.1290  136.4487  149.7848 O   0  0  0  0  0  0  0  0  0  0  0  0
  146.4764  138.4995  151.7288 C   0  0  0  0  0  0  0  0  0  0  0  0
  147.8470  139.1250  152.0621 C   0  0  0  0  0  0  0  0  0  0  0  0
  150.8141  141.5658  157.0362 C   0  0  0  0  0  0  0  0  0  0  0  0
  151.0857  142.8958  157.4019 C   0  0  0  0  0  0  0  0  0  0  0  0
  151.9240  143.1569  158.5058 C   0  0  0  0  0  0  0  0  0  0  0  0
  152.2121  144.5968  158.8924 C   0  0  0  0  0  0  0  0  0  0  0  0
  153.7079  141.3989  160.8933 H   0  0  0  0  0  0  0  0  0  0  0  0
  152.8608  142.9151  161.1899 H   0  0  0  0  0  0  0  0  0  0  0  0
  154.2764  142.8810  160.1274 H   0  0  0  0  0  0  0  0  0  0  0  0
  152.6267  139.9231  159.4160 H   0  0  0  0  0  0  0  0  0  0  0  0
  149.7054  138.9452  155.5566 H   0  0  0  0  0  0  0  0  0  0  0  0
  149.4615  142.7362  155.0724 H   0  0  0  0  0  0  0  0  0  0  0  0
  149.6545  141.3419  154.0358 H   0  0  0  0  0  0  0  0  0  0  0  0
  147.5744  140.8058  156.0433 H   0  0  0  0  0  0  0  0  0  0  0  0
  147.6391  143.2373  155.5719 H   0  0  0  0  0  0  0  0  0  0  0  0
  146.1934  140.2722  154.1314 H   0  0  0  0  0  0  0  0  0  0  0  0
  147.1328  141.2847  153.0795 H   0  0  0  0  0  0  0  0  0  0  0  0
  148.5636  137.4828  153.9964 H   0  0  0  0  0  0  0  0  0  0  0  0
  147.9111  138.3884  155.3184 H   0  0  0  0  0  0  0  0  0  0  0  0
  146.3391  136.6390  154.5620 H   0  0  0  0  0  0  0  0  0  0  0  0
  145.6041  138.2064  154.3239 H   0  0  0  0  0  0  0  0  0  0  0  0
  144.6448  136.0112  153.0538 H   0  0  0  0  0  0  0  0  0  0  0  0
  144.2166  137.3190  151.9808 H   0  0  0  0  0  0  0  0  0  0  0  0
  146.0679  135.1055  150.9964 H   0  0  0  0  0  0  0  0  0  0  0  0
  143.9480  134.0032  151.7314 H   0  0  0  0  0  0  0  0  0  0  0  0
  144.0936  134.0128  149.9786 H   0  0  0  0  0  0  0  0  0  0  0  0
  143.0141  135.1532  150.7780 H   0  0  0  0  0  0  0  0  0  0  0  0
  145.5501  135.9635  149.0912 H   0  0  0  0  0  0  0  0  0  0  0  0
  146.4458  138.2523  150.6671 H   0  0  0  0  0  0  0  0  0  0  0  0
  145.6673  139.2088  151.9089 H   0  0  0  0  0  0  0  0  0  0  0  0
  147.9984  140.0267  151.4674 H   0  0  0  0  0  0  0  0  0  0  0  0
  148.6328  138.4334  151.7550 H   0  0  0  0  0  0  0  0  0  0  0  0
  150.6510  143.7072  156.8372 H   0  0  0  0  0  0  0  0  0  0  0  0
  151.7323  145.2969  158.2081 H   0  0  0  0  0  0  0  0  0  0  0  0
  153.2845  144.7918  158.8710 H   0  0  0  0  0  0  0  0  0  0  0  0
  151.8418  144.8032  159.8969 H   0  0  0  0  0  0  0  0  0  0  0  0
  147.0051  136.6346  152.2789 H   0  0  0  0  0  0  0  0  0  0  0  0
  1  2  1  0  0  0  0
  1 26  1  0  0  0  0
  1 27  1  0  0  0  0
  1 28  1  0  0  0  0
  2 24  1  0  0  0  0
  2  3  2  0  0  0  0
  3  4  1  0  0  0  0
  3 29  1  0  0  0  0
  4 22  2  0  0  0  0
  4  5  1  0  0  0  0
  5  6  2  0  0  0  0
  6  7  1  0  0  0  0
  6 30  1  0  0  0  0
  7  8  1  0  0  0  0
  7 22  1  0  0  0  0
  8  9  1  0  0  0  0
  8 31  1  0  0  0  0
  8 32  1  0  0  0  0
  9 10  1  0  0  0  0
  9 11  1  0  0  0  0
  9 33  1  0  0  0  0
 10 34  1  0  0  0  0
 11 12  1  0  0  0  0
 11 35  1  0  0  0  0
 11 36  1  0  0  0  0
 12 21  1  0  0  0  0
 12 13  1  0  0  0  0
 13 14  1  0  0  0  0
 13 37  1  0  0  0  0
 13 38  1  0  0  0  0
 14 15  1  0  0  0  0
 14 39  1  0  0  0  0
 14 40  1  0  0  0  0
 15 16  1  0  0  0  0
 15 20  1  0  0  0  0
 15 56  1  0  0  0  0
 16 17  1  0  0  0  0
 16 41  1  0  0  0  0
 16 42  1  0  0  0  0
 17 18  1  0  0  0  0
 17 19  1  0  0  0  0
 17 43  1  0  0  0  0
 18 44  1  0  0  0  0
 18 45  1  0  0  0  0
 18 46  1  0  0  0  0
 19 47  1  0  0  0  0
 20 21  1  0  0  0  0
 20 48  1  0  0  0  0
 20 49  1  0  0  0  0
 21 50  1  0  0  0  0
 21 51  1  0  0  0  0
 22 23  1  0  0  0  0
 23 24  2  0  0  0  0
 23 52  1  0  0  0  0
 24 25  1  0  0  0  0
 25 53  1  0  0  0  0
 25 54  1  0  0  0  0
 25 55  1  0  0  0  0
M  CHG  1  15   1
M  END
> <s_m_source_file>
AV-unprocessed.smi

> <i_m_source_file_index>
1033

> <i_lp_mmshare_version>
43012

> <i_f3d_flags>
0

> <s_epik_input>
W0NIM11jKFtjSF0xKWMoW0NIM10pW2NIXWMoYzEyKW4oW2NIXW4yKVtDSDJdW0NASF0oW09IXSlbQ0gyXU4zW0NIMl1bQ0gyXU4oW0NIMl1bQ0gyXTMpW0NIMl1bQ0BIXShbQ0gzXSlbT0hd

> <s_epik_cmdline>
J2VwaWtfcHl0aG9uJywgJy1waCcsICc3LjAnLCAnLXRuJywgJzgnLCAnLW1hJywgJzIwMCcsICctbWV0YWxfYmluZGluZycsICctaW1hZScsICc8aW5maWxlLm1hZT4nLCAnLW9tYWUnLCAnPG91dGZpbGUubWFlPic=

> <r_epik_Ionization_Penalty>
0.129152

> <r_epik_Ionization_Penalty_Charging>
0.00083231

> <r_epik_Ionization_Penalty_Neutral>
0.128319

> <r_epik_State_Penalty>
0.556973

> <r_epik_Charging_Adjusted_Penalty>
0.557805

> <i_epik_Tot_Q>
1

> <i_epik_Tot_abs_Q>
1

> <r_epik_Metal_State_Penalty>
0.490047

> <b_epik_Metal_Only>
0

> <s_lp_Force_Field>
OPLS_2005

> <r_lp_Energy>
33.0878

> <b_lp_Chiralities_Consistent>
1

> <s_lp_Variant>
AV-unprocessed.smi:1033-8

> <Gold.Version>
5.8.1

> <Gold.Id.Protein>
6NUR|6NUR_protein|mol2

> <Gold.PLP.Fitness>
53.5082

> <Gold.PLP.PLP>
-44.6022

> <Gold.PLP.part.hbond>
-4.0000

> <Gold.PLP.part.metal>
0.0000

> <Gold.PLP.part.buried>
2.0198

> <Gold.PLP.part.nonpolar>
-45.4905

> <Gold.PLP.part.repulsive>
1.7548

> <Gold.PLP.ligand.clash>
0.0000

> <Gold.PLP.ligand.torsion>
1.5426

> <Gold.PLP.Chemscore.Hbond>
3.9500

> <Gold.PLP.Chemscore.CHOScore>
0.0000

> <Gold.PLP.Chemscore.Metal>
0.0000

> <Gold.Chemscore.Hbonds>
donor molecule, donor type, donor heavy atom, donor atom, acceptor molecule, acceptor atom, score
      L1  H    10    34       P1  8028  0.95
      L1  H    15    56       P1  7948  2.00
      L1  H    19    47       P1  7921  1.00

> <Gold.PLP.Chemscore.Internal.Correction>
0.1411

> <Gold.Rescore>
     Score         DG    S(hbond)    S(metal)    S(lipo)     H(rot)  DE(clash)    DE(int)     intcor
     16.92     -21.70       2.26        0.00     141.25       3.07       3.10       1.68       ----

> <Gold.Chemscore.Fitness>
16.9221

> <Gold.Chemscore.DG>
-21.7012

> <Gold.Chemscore.ZeroCoef>
-5.4800

> <Gold.Chemscore.Hbond>
2.2578

> <Gold.Chemscore.Metal>
0.0000

> <Gold.Chemscore.Lipo>
141.2535

> <Gold.Chemscore.Internal_Hbond>
0.0000

> <Gold.Chemscore.DEClash>
3.1000

> <Gold.Chemscore.DEInternal>
1.6791

> <Gold.Chemscore.Rot>
3.0650

> <Gold.Chemscore.Internal.Correction>
   9.000000E+99

> <Gold.Chemscore.Hbonds>
donor molecule, donor type, donor heavy atom, donor atom, acceptor molecule, acceptor atom, score
      L1  H    10    34       P1  8028  0.21
      L1  H    15    56       P1  7948  0.91
      L1  H    19    47       P1  7921  1.00

> <Gold.Chemscore.Hbond.Weighted>
-7.5410

> <Gold.Chemscore.Metal.Weighted>
-0.0000

> <Gold.Chemscore.Lipo.Weighted>
-16.5267

> <Gold.Chemscore.Internal_Hbond.Weighted>
0.0000

> <Gold.Chemscore.DEClash.Weighted>
3.1000

> <Gold.Chemscore.DEInternal.Weighted>
1.6791

> <Gold.Chemscore.Rot.Weighted>
7.8465

> <Gold.Chemscore.Internal.Correction.Weighted>
   9.000000E+99

> <Gold.Protein.RotatedTorsions>
[ 6907 6896 6895 6894 ] final -107.21 input  -60.11 | X-H torsion
[ 7974 7965 7964 7962 ] final  -68.44 input  175.53 | X-H torsion
[ 8008 7997 7996 7995 ] final  107.07 input   59.86 | X-H torsion
[ 10167 10162 10161 10158 ] final -175.95 input  -65.29 | X-H torsion
[ 10718 10713 10712 10709 ] final   96.03 input   66.30 | X-H torsion
[ 10763 10752 10751 10750 ] final -160.60 input  -60.55 | X-H torsion
[ 11005 11000 10999 10996 ] final  178.22 input  -57.11 | X-H torsion

> <Gold.Protein.ActiveResidues>
 VAL166  LYS551  ARG553  GLY616  TRP617  ASP618  TYR619  PRO620  LYS621  CYS622 
 ASP623  PHE694  ASN695  SER759  ASP760  ASP761  ALA762  ILE779  LEU786  VAL792 
 PHE793  MET794  SER795  GLU796  ALA797  LYS798  CYS799  TRP800  GLU811  SER814 

> <Gold.Protein.RotatedAtoms>
  150.7431  133.9860  159.3591 H   0  0  0  0  0  0  0  0  0  0  0  0  # atno 6907 bound_to 6896
  151.7805  135.0761  160.0382 H   0  0  0  0  0  0  0  0  0  0  0  0  # atno 6908 bound_to 6896
  152.3277  133.5887  159.5824 H   0  0  0  0  0  0  0  0  0  0  0  0  # atno 6909 bound_to 6896
  145.7165  140.9057  143.0653 H   0  0  0  0  0  0  0  0  0  0  0  0  # atno 7974 bound_to 7965
  156.1795  140.3101  155.9121 H   0  0  0  0  0  0  0  0  0  0  0  0  # atno 8008 bound_to 7997
  155.3415  140.0466  157.3062 H   0  0  0  0  0  0  0  0  0  0  0  0  # atno 8009 bound_to 7997
  154.5326  140.2235  155.8787 H   0  0  0  0  0  0  0  0  0  0  0  0  # atno 8010 bound_to 7997
  139.5554  144.2002  152.1150 H   0  0  0  0  0  0  0  0  0  0  0  0  # atno 10167 bound_to 10162
  157.6932  131.0565  150.4429 H   0  0  0  0  0  0  0  0  0  0  0  0  # atno 10718 bound_to 10713
  154.7376  135.3061  154.8784 H   0  0  0  0  0  0  0  0  0  0  0  0  # atno 10763 bound_to 10752
  153.9608  135.6753  153.4749 H   0  0  0  0  0  0  0  0  0  0  0  0  # atno 10764 bound_to 10752
  153.0978  135.4927  154.8734 H   0  0  0  0  0  0  0  0  0  0  0  0  # atno 10765 bound_to 10752
  140.3927  134.6847  157.4517 H   0  0  0  0  0  0  0  0  0  0  0  0  # atno 11005 bound_to 11000
  144.6928  139.9144  143.7465 LP  0  0  0  0  0  0  0  0  0  0  0  0  # atno 17320 bound_to 7965
  146.0665  139.3656  143.0549 LP  0  0  0  0  0  0  0  0  0  0  0  0  # atno 17321 bound_to 7965
  140.1505  144.5119  150.6690 LP  0  0  0  0  0  0  0  0  0  0  0  0  # atno 17342 bound_to 10162
  140.6826  143.2334  151.5344 LP  0  0  0  0  0  0  0  0  0  0  0  0  # atno 17343 bound_to 10162
  156.4786  130.4069  149.6475 LP  0  0  0  0  0  0  0  0  0  0  0  0  # atno 17370 bound_to 10713
  156.3529  130.7441  151.2403 LP  0  0  0  0  0  0  0  0  0  0  0  0  # atno 17371 bound_to 10713
  140.0394  134.6289  155.9000 LP  0  0  0  0  0  0  0  0  0  0  0  0  # atno 17394 bound_to 11000
  141.1885  133.6562  156.5326 LP  0  0  0  0  0  0  0  0  0  0  0  0  # atno 17395 bound_to 11000

$$$$
