AV-unprocessed.smi:2822|AV-procd|sdf|10871|dock5
  -GOLD-   2272015313D 1   1.00000     0.00000
 Structure written by MMmdl.
 40 42  0  0  0  0  0  0  0  0  2 V2000
  148.8564  125.4853  154.7275 Cl  0  0  0  0  0  0  0  0  0  0  0  0
  148.9233  125.8717  153.0430 C   0  0  0  0  0  0  0  0  0  0  0  0
  149.7525  125.1210  152.1845 C   0  0  0  0  0  0  0  0  0  0  0  0
  149.8599  125.3577  150.8602 N   0  0  0  0  0  0  0  0  0  0  0  0
  149.1311  126.3677  150.3410 C   0  0  0  0  0  0  0  0  0  0  0  0
  148.2711  127.1784  151.1085 C   0  0  0  0  0  0  0  0  0  0  0  0
  148.1604  126.9291  152.4965 C   0  0  0  0  0  0  0  0  0  0  0  0
  147.3302  127.6853  153.3369 N   0  0  0  0  0  0  0  0  0  0  0  0
  146.2077  128.4511  152.8138 C   0  0  0  0  0  0  0  0  0  0  0  0
  146.6461  129.8145  152.2532 C   0  0  1  0  0  0  0  0  0  0  0  0
  145.8600  130.2444  150.9976 C   0  0  0  0  0  0  0  0  0  0  0  0
  146.2911  131.5912  150.5481 N   0  3  1  0  0  0  0  0  0  0  0  0
  145.6016  132.0628  149.3188 C   0  0  0  0  0  0  0  0  0  0  0  0
  144.1530  132.5096  149.5972 C   0  0  0  0  0  0  0  0  0  0  0  0
  144.1025  133.5584  150.7168 C   0  0  0  0  0  0  0  0  0  0  0  0
  144.8157  133.0380  151.9730 C   0  0  0  0  0  0  0  0  0  0  0  0
  146.2591  132.5964  151.6464 C   0  0  1  0  0  0  0  0  0  0  0  0
  147.0137  132.0642  152.8805 C   0  0  0  0  0  0  0  0  0  0  0  0
  146.4994  130.7975  153.2724 O   0  0  0  0  0  0  0  0  0  0  0  0
  150.3465  124.3064  152.5719 H   0  0  0  0  0  0  0  0  0  0  0  0
  149.2363  126.5363  149.2796 H   0  0  0  0  0  0  0  0  0  0  0  0
  147.7201  127.9703  150.6239 H   0  0  0  0  0  0  0  0  0  0  0  0
  147.5168  127.7078  154.3295 H   0  0  0  0  0  0  0  0  0  0  0  0
  145.7158  127.8735  152.0304 H   0  0  0  0  0  0  0  0  0  0  0  0
  145.4768  128.6034  153.6087 H   0  0  0  0  0  0  0  0  0  0  0  0
  147.7045  129.7383  151.9974 H   0  0  0  0  0  0  0  0  0  0  0  0
  146.0231  129.5244  150.1948 H   0  0  0  0  0  0  0  0  0  0  0  0
  144.7899  130.2474  151.2041 H   0  0  0  0  0  0  0  0  0  0  0  0
  146.1663  132.9027  148.9118 H   0  0  0  0  0  0  0  0  0  0  0  0
  145.6216  131.2822  148.5573 H   0  0  0  0  0  0  0  0  0  0  0  0
  143.7120  132.9188  148.6877 H   0  0  0  0  0  0  0  0  0  0  0  0
  143.5389  131.6508  149.8695 H   0  0  0  0  0  0  0  0  0  0  0  0
  144.5803  134.4786  150.3782 H   0  0  0  0  0  0  0  0  0  0  0  0
  143.0677  133.8116  150.9493 H   0  0  0  0  0  0  0  0  0  0  0  0
  144.8295  133.8194  152.7335 H   0  0  0  0  0  0  0  0  0  0  0  0
  144.2503  132.2092  152.4008 H   0  0  0  0  0  0  0  0  0  0  0  0
  146.7970  133.4766  151.2905 H   0  0  0  0  0  0  0  0  0  0  0  0
  148.0806  131.9775  152.6692 H   0  0  0  0  0  0  0  0  0  0  0  0
  146.9181  132.7602  153.7143 H   0  0  0  0  0  0  0  0  0  0  0  0
  147.2640  131.4869  150.2970 H   0  0  0  0  0  0  0  0  0  0  0  0
  1  2  1  0  0  0  0
  2  7  1  0  0  0  0
  2  3  2  0  0  0  0
  3  4  1  0  0  0  0
  3 20  1  0  0  0  0
  4  5  2  0  0  0  0
  5  6  1  0  0  0  0
  5 21  1  0  0  0  0
  6  7  2  0  0  0  0
  6 22  1  0  0  0  0
  7  8  1  0  0  0  0
  8  9  1  0  0  0  0
  8 23  1  0  0  0  0
  9 10  1  0  0  0  0
  9 24  1  0  0  0  0
  9 25  1  0  0  0  0
 10 19  1  0  0  0  0
 10 11  1  0  0  0  0
 10 26  1  0  0  0  0
 11 12  1  0  0  0  0
 11 27  1  0  0  0  0
 11 28  1  0  0  0  0
 12 17  1  0  0  0  0
 12 13  1  0  0  0  0
 12 40  1  0  0  0  0
 13 14  1  0  0  0  0
 13 29  1  0  0  0  0
 13 30  1  0  0  0  0
 14 15  1  0  0  0  0
 14 31  1  0  0  0  0
 14 32  1  0  0  0  0
 15 16  1  0  0  0  0
 15 33  1  0  0  0  0
 15 34  1  0  0  0  0
 16 17  1  0  0  0  0
 16 35  1  0  0  0  0
 16 36  1  0  0  0  0
 17 18  1  0  0  0  0
 17 37  1  0  0  0  0
 18 19  1  0  0  0  0
 18 38  1  0  0  0  0
 18 39  1  0  0  0  0
M  CHG  1  12   1
M  END
> <s_m_source_file>
AV-unprocessed.smi

> <i_m_source_file_index>
2822

> <i_lp_mmshare_version>
43012

> <i_f3d_flags>
0

> <s_epik_input>
Q2xjMVtjSF1uW2NIXVtjSF1jMVtOSF1bQ0gyXVtDQEhdKFtDSDJdMilPW0NIMl1bQ0BASF0oTjIzKVtDSDJdW0NIMl1bQ0gyXVtDSDJdMw==

> <s_epik_cmdline>
J2VwaWtfcHl0aG9uJywgJy1waCcsICc3LjAnLCAnLXRuJywgJzgnLCAnLW1hJywgJzIwMCcsICctbWV0YWxfYmluZGluZycsICctaW1hZScsICc8aW5maWxlLm1hZT4nLCAnLW9tYWUnLCAnPG91dGZpbGUubWFlPic=

> <r_lp_tautomer_probability>
0.999999

> <r_epik_Ionization_Penalty>
0.88937

> <r_epik_Ionization_Penalty_Charging>
0.0803403

> <r_epik_Ionization_Penalty_Neutral>
0.80903

> <r_epik_State_Penalty>
0.931884

> <r_epik_Charging_Adjusted_Penalty>
1.01222

> <i_epik_Tot_Q>
1

> <i_epik_Tot_abs_Q>
1

> <r_epik_Metal_State_Penalty>
0.0782275

> <b_epik_Metal_Only>
0

> <s_lp_Force_Field>
OPLS_2005

> <r_lp_Energy>
33.0779

> <b_lp_Chiralities_Consistent>
1

> <s_lp_Variant>
AV-unprocessed.smi:2822-12

> <Gold.Version>
5.8.1

> <Gold.Id.Protein>
6NUR|6NUR_protein|mol2

> <Gold.PLP.Fitness>
39.2374

> <Gold.PLP.PLP>
-36.4822

> <Gold.PLP.part.hbond>
-1.0000

> <Gold.PLP.part.metal>
0.0000

> <Gold.PLP.part.buried>
-4.7101

> <Gold.PLP.part.nonpolar>
-29.1980

> <Gold.PLP.part.repulsive>
0.4533

> <Gold.PLP.ligand.clash>
0.0000

> <Gold.PLP.ligand.torsion>
0.7363

> <Gold.PLP.Chemscore.Hbond>
1.0000

> <Gold.PLP.Chemscore.CHOScore>
0.4087

> <Gold.PLP.Chemscore.Metal>
0.0000

> <Gold.Chemscore.Hbonds>
donor molecule, donor type, donor heavy atom, donor atom, acceptor molecule, acceptor atom, score
      L1  H    12    40       P1 10747  1.00
      L1  C     5    21       P1 10769  0.45

> <Gold.PLP.Chemscore.Internal.Correction>
0.0018

> <Gold.Rescore>
     Score         DG    S(hbond)    S(metal)    S(lipo)     H(rot)  DE(clash)    DE(int)     intcor
     17.55     -19.74       0.99        0.00     119.17       1.17       1.54       0.65       ----

> <Gold.Chemscore.Fitness>
17.5487

> <Gold.Chemscore.DG>
-19.7408

> <Gold.Chemscore.ZeroCoef>
-5.4800

> <Gold.Chemscore.Hbond>
0.9915

> <Gold.Chemscore.Metal>
0.0000

> <Gold.Chemscore.Lipo>
119.1680

> <Gold.Chemscore.Internal_Hbond>
0.0000

> <Gold.Chemscore.DEClash>
1.5401

> <Gold.Chemscore.DEInternal>
0.6520

> <Gold.Chemscore.Rot>
1.1693

> <Gold.Chemscore.Internal.Correction>
   9.000000E+99

> <Gold.Chemscore.Hbonds>
donor molecule, donor type, donor heavy atom, donor atom, acceptor molecule, acceptor atom, score
      L1  H    12    40       P1 10747  1.00

> <Gold.Chemscore.Hbond.Weighted>
-3.3115

> <Gold.Chemscore.Metal.Weighted>
-0.0000

> <Gold.Chemscore.Lipo.Weighted>
-13.9427

> <Gold.Chemscore.Internal_Hbond.Weighted>
0.0000

> <Gold.Chemscore.DEClash.Weighted>
1.5401

> <Gold.Chemscore.DEInternal.Weighted>
0.6520

> <Gold.Chemscore.Rot.Weighted>
2.9934

> <Gold.Chemscore.Internal.Correction.Weighted>
   9.000000E+99

> <Gold.Protein.RotatedTorsions>
[ 6907 6896 6895 6894 ] final   77.47 input  -60.11 | X-H torsion
[ 7974 7965 7964 7962 ] final   10.62 input  175.53 | X-H torsion
[ 8008 7997 7996 7995 ] final  113.96 input   59.86 | X-H torsion
[ 10167 10162 10161 10158 ] final  158.74 input  -65.29 | X-H torsion
[ 10718 10713 10712 10709 ] final  106.88 input   66.30 | X-H torsion
[ 10763 10752 10751 10750 ] final  112.73 input  -60.55 | X-H torsion
[ 11005 11000 10999 10996 ] final   63.16 input  -57.11 | X-H torsion

> <Gold.Protein.ActiveResidues>
 VAL166  LYS551  ARG553  GLY616  TRP617  ASP618  TYR619  PRO620  LYS621  CYS622 
 ASP623  PHE694  ASN695  SER759  ASP760  ASP761  ALA762  ILE779  LEU786  VAL792 
 PHE793  MET794  SER795  GLU796  ALA797  LYS798  CYS799  TRP800  GLU811  SER814 

> <Gold.Protein.RotatedAtoms>
  152.5119  134.3812  159.9351 H   0  0  0  0  0  0  0  0  0  0  0  0  # atno 6907 bound_to 6896
  151.3769  133.3829  159.2713 H   0  0  0  0  0  0  0  0  0  0  0  0  # atno 6908 bound_to 6896
  150.9535  134.8952  159.7745 H   0  0  0  0  0  0  0  0  0  0  0  0  # atno 6909 bound_to 6896
  146.2385  139.9607  142.8459 H   0  0  0  0  0  0  0  0  0  0  0  0  # atno 7974 bound_to 7965
  156.2291  140.2969  156.0143 H   0  0  0  0  0  0  0  0  0  0  0  0  # atno 8008 bound_to 7997
  155.2274  140.0417  157.2974 H   0  0  0  0  0  0  0  0  0  0  0  0  # atno 8009 bound_to 7997
  154.5966  140.2415  155.7856 H   0  0  0  0  0  0  0  0  0  0  0  0  # atno 8010 bound_to 7997
  139.4828  144.4796  151.8463 H   0  0  0  0  0  0  0  0  0  0  0  0  # atno 10167 bound_to 10162
  157.6651  131.0860  150.6073 H   0  0  0  0  0  0  0  0  0  0  0  0  # atno 10718 bound_to 10713
  153.4822  135.3677  155.2448 H   0  0  0  0  0  0  0  0  0  0  0  0  # atno 10763 bound_to 10752
  154.8755  135.3957  154.3687 H   0  0  0  0  0  0  0  0  0  0  0  0  # atno 10764 bound_to 10752
  153.4292  135.7082  153.6307 H   0  0  0  0  0  0  0  0  0  0  0  0  # atno 10765 bound_to 10752
  140.0043  134.6394  155.9880 H   0  0  0  0  0  0  0  0  0  0  0  0  # atno 11005 bound_to 11000
  145.1774  140.9750  143.4286 LP  0  0  0  0  0  0  0  0  0  0  0  0  # atno 17320 bound_to 7965
  144.9973  139.3632  143.6185 LP  0  0  0  0  0  0  0  0  0  0  0  0  # atno 17321 bound_to 7965
  140.4271  144.2166  150.5887 LP  0  0  0  0  0  0  0  0  0  0  0  0  # atno 17342 bound_to 10162
  140.4816  143.2377  151.8946 LP  0  0  0  0  0  0  0  0  0  0  0  0  # atno 17343 bound_to 10162
  156.6374  130.4449  149.5764 LP  0  0  0  0  0  0  0  0  0  0  0  0  # atno 17370 bound_to 10713
  156.2235  130.6751  151.1392 LP  0  0  0  0  0  0  0  0  0  0  0  0  # atno 17371 bound_to 10713
  141.1665  133.6537  156.4499 LP  0  0  0  0  0  0  0  0  0  0  0  0  # atno 17394 bound_to 11000
  140.4670  134.6789  157.5112 LP  0  0  0  0  0  0  0  0  0  0  0  0  # atno 17395 bound_to 11000

$$$$
