AV-unprocessed.smi:1428|AV-procd|sdf|5816|dock4
  -GOLD-   22720 5473D 1   1.00000     0.00000
 Structure written by MMmdl.
 43 44  0  0  0  0  0  0  0  0  3 V2000
  151.1659  145.2316  160.5014 C   0  0  0  0  0  0  0  0  0  0  0  0
  151.0233  144.1754  159.5574 O   0  0  0  0  0  0  0  0  0  0  0  0
  151.8862  143.0986  159.6367 C   0  0  0  0  0  0  0  0  0  0  0  0
  152.8406  143.1083  160.6009 N   0  0  0  0  0  0  0  0  0  0  0  0
  153.6820  142.0578  160.6833 C   0  0  0  0  0  0  0  0  0  0  0  0
  153.6138  140.9478  159.8223 C   0  0  0  0  0  0  0  0  0  0  0  0
  152.6242  140.9342  158.8223 C   0  0  0  0  0  0  0  0  0  0  0  0
  151.7414  142.0370  158.7122 C   0  0  0  0  0  0  0  0  0  0  0  0
  150.6967  142.1288  157.7495 N   0  0  0  0  0  0  0  0  0  0  0  0
  150.4993  141.3995  156.6379 C   0  0  0  0  0  0  0  0  0  0  0  0
  151.2279  140.4920  156.2379 O   0  0  0  0  0  0  0  0  0  0  0  0
  149.3942  141.7959  155.9903 N   0  0  0  0  0  0  0  0  0  0  0  0
  148.8877  141.2071  154.7538 C   0  0  2  0  0  0  0  0  0  0  0  0
  147.4152  141.5914  154.5186 C   0  0  0  0  0  0  0  0  0  0  0  0
  146.8552  140.8960  153.2670 C   0  0  0  0  0  0  0  0  0  0  0  0
  147.0010  139.4190  153.3642 N   0  3  1  0  0  0  0  0  0  0  0  0
  146.3544  138.6898  152.2432 C   0  0  0  0  0  0  0  0  0  0  0  0
  146.2270  137.1971  152.5662 C   0  0  0  0  0  0  0  0  0  0  0  0
  146.8022  136.4177  151.6281 N   0  5  0  0  0  0  0  0  0  0  0  0
  145.6472  136.8436  153.5902 O   0  0  0  0  0  0  0  0  0  0  0  0
  148.4169  139.0174  153.5595 C   0  0  0  0  0  0  0  0  0  0  0  0
  149.0132  139.6762  154.8149 C   0  0  0  0  0  0  0  0  0  0  0  0
  150.4188  145.9988  160.2995 H   0  0  0  0  0  0  0  0  0  0  0  0
  152.1481  145.7011  160.4317 H   0  0  0  0  0  0  0  0  0  0  0  0
  151.0092  144.8779  161.5216 H   0  0  0  0  0  0  0  0  0  0  0  0
  154.4284  142.1005  161.4628 H   0  0  0  0  0  0  0  0  0  0  0  0
  154.3026  140.1231  159.9291 H   0  0  0  0  0  0  0  0  0  0  0  0
  152.5594  140.0746  158.1747 H   0  0  0  0  0  0  0  0  0  0  0  0
  150.0416  142.8814  157.9044 H   0  0  0  0  0  0  0  0  0  0  0  0
  148.8583  142.5541  156.3870 H   0  0  0  0  0  0  0  0  0  0  0  0
  149.4894  141.5670  153.9167 H   0  0  0  0  0  0  0  0  0  0  0  0
  146.8143  141.3137  155.3861 H   0  0  0  0  0  0  0  0  0  0  0  0
  147.3177  142.6720  154.4086 H   0  0  0  0  0  0  0  0  0  0  0  0
  145.8048  141.1645  153.1509 H   0  0  0  0  0  0  0  0  0  0  0  0
  147.3721  141.2558  152.3760 H   0  0  0  0  0  0  0  0  0  0  0  0
  145.3777  139.1222  152.0206 H   0  0  0  0  0  0  0  0  0  0  0  0
  146.9504  138.7841  151.3337 H   0  0  0  0  0  0  0  0  0  0  0  0
  147.8156  136.4934  151.4794 H   0  0  0  0  0  0  0  0  0  0  0  0
  148.4804  137.9335  153.6628 H   0  0  0  0  0  0  0  0  0  0  0  0
  148.9983  139.2874  152.6766 H   0  0  0  0  0  0  0  0  0  0  0  0
  150.0605  139.3892  154.9178 H   0  0  0  0  0  0  0  0  0  0  0  0
  148.4995  139.2961  155.6995 H   0  0  0  0  0  0  0  0  0  0  0  0
  146.5024  139.1259  154.1932 H   0  0  0  0  0  0  0  0  0  0  0  0
  1  2  1  0  0  0  0
  1 23  1  0  0  0  0
  1 24  1  0  0  0  0
  1 25  1  0  0  0  0
  2  3  1  0  0  0  0
  3  8  1  0  0  0  0
  3  4  2  0  0  0  0
  4  5  1  0  0  0  0
  5  6  2  0  0  0  0
  5 26  1  0  0  0  0
  6  7  1  0  0  0  0
  6 27  1  0  0  0  0
  7  8  2  0  0  0  0
  7 28  1  0  0  0  0
  8  9  1  0  0  0  0
  9 10  1  0  0  0  0
  9 29  1  0  0  0  0
 10 11  2  0  0  0  0
 10 12  1  0  0  0  0
 12 13  1  0  0  0  0
 12 30  1  0  0  0  0
 13 22  1  0  0  0  0
 13 14  1  0  0  0  0
 13 31  1  0  0  0  0
 14 15  1  0  0  0  0
 14 32  1  0  0  0  0
 14 33  1  0  0  0  0
 15 16  1  0  0  0  0
 15 34  1  0  0  0  0
 15 35  1  0  0  0  0
 16 17  1  0  0  0  0
 16 21  1  0  0  0  0
 16 43  1  0  0  0  0
 17 18  1  0  0  0  0
 17 36  1  0  0  0  0
 17 37  1  0  0  0  0
 18 19  1  0  0  0  0
 18 20  2  0  0  0  0
 19 38  1  0  0  0  0
 21 22  1  0  0  0  0
 21 39  1  0  0  0  0
 21 40  1  0  0  0  0
 22 41  1  0  0  0  0
 22 42  1  0  0  0  0
M  CHG  1  16   1
M  CHG  1  19  -1
M  END
> <s_m_source_file>
AV-unprocessed.smi

> <i_m_source_file_index>
1428

> <i_lp_mmshare_version>
43012

> <i_f3d_flags>
0

> <s_epik_input>
W0NIM11PYzFuW2NIXVtjSF1bY0hdYzFbTkhdQyg9TylbTkhdW0NIXTJbQ0gyXVtDSDJdTihbQ0gyXVtDSDJdMilbQ0gyXUMoPU8pW05IMl0=

> <s_epik_cmdline>
J2VwaWtfcHl0aG9uJywgJy1waCcsICc3LjAnLCAnLXRuJywgJzgnLCAnLW1hJywgJzIwMCcsICctbWV0YWxfYmluZGluZycsICctaW1hZScsICc8aW5maWxlLm1hZT4nLCAnLW9tYWUnLCAnPG91dGZpbGUubWFlPic=

> <r_lp_tautomer_probability>
1

> <r_epik_Ionization_Penalty>
5.72888

> <r_epik_Ionization_Penalty_Charging>
5.7288

> <r_epik_Ionization_Penalty_Neutral>
7.84403e-05

> <r_epik_State_Penalty>
6.54882

> <r_epik_Charging_Adjusted_Penalty>
12.2776

> <i_epik_Tot_Q>
0

> <i_epik_Tot_abs_Q>
2

> <r_epik_Metal_State_Penalty>
2.51301

> <b_epik_Metal_Only>
1

> <s_lp_Force_Field>
OPLS_2005

> <r_lp_Energy>
10.0981

> <b_lp_Chiralities_Consistent>
1

> <s_lp_Variant>
AV-unprocessed.smi:1428-4

> <Gold.Version>
5.8.1

> <Gold.Id.Protein>
6NUR|6NUR_protein|mol2

> <Gold.PLP.Fitness>
46.0921

> <Gold.PLP.PLP>
-40.7930

> <Gold.PLP.part.hbond>
-2.1050

> <Gold.PLP.part.metal>
0.0000

> <Gold.PLP.part.buried>
-4.5836

> <Gold.PLP.part.nonpolar>
-35.0372

> <Gold.PLP.part.repulsive>
0.3900

> <Gold.PLP.ligand.clash>
0.0000

> <Gold.PLP.ligand.torsion>
0.3667

> <Gold.PLP.Chemscore.Hbond>
2.0000

> <Gold.PLP.Chemscore.CHOScore>
0.0000

> <Gold.PLP.Chemscore.Metal>
0.0000

> <Gold.Chemscore.Hbonds>
donor molecule, donor type, donor heavy atom, donor atom, acceptor molecule, acceptor atom, score
      L1  H    12    30       P1  8028  0.19
      L1  H    19    38       P1  7948  0.15

> <Gold.PLP.Chemscore.Internal.Correction>
0.0326

> <Gold.Rescore>
     Score         DG    S(hbond)    S(metal)    S(lipo)     H(rot)  DE(clash)    DE(int)     intcor
     14.04     -17.12       1.98        0.00      92.99       2.29       0.14       2.94       ----

> <Gold.Chemscore.Fitness>
14.0427

> <Gold.Chemscore.DG>
-17.1238

> <Gold.Chemscore.ZeroCoef>
-5.4800

> <Gold.Chemscore.Hbond>
1.9833

> <Gold.Chemscore.Metal>
0.0000

> <Gold.Chemscore.Lipo>
92.9941

> <Gold.Chemscore.Internal_Hbond>
0.0000

> <Gold.Chemscore.DEClash>
0.1398

> <Gold.Chemscore.DEInternal>
2.9413

> <Gold.Chemscore.Rot>
2.2894

> <Gold.Chemscore.Internal.Correction>
   9.000000E+99

> <Gold.Chemscore.Hbonds>
donor molecule, donor type, donor heavy atom, donor atom, acceptor molecule, acceptor atom, score
      L1  H    12    30       P1  8028  0.19
      L1  H    19    38       P1  7948  0.15

> <Gold.Chemscore.Hbond.Weighted>
-6.6242

> <Gold.Chemscore.Metal.Weighted>
-0.0000

> <Gold.Chemscore.Lipo.Weighted>
-10.8803

> <Gold.Chemscore.Internal_Hbond.Weighted>
0.0000

> <Gold.Chemscore.DEClash.Weighted>
0.1398

> <Gold.Chemscore.DEInternal.Weighted>
2.9413

> <Gold.Chemscore.Rot.Weighted>
5.8608

> <Gold.Chemscore.Internal.Correction.Weighted>
   9.000000E+99

> <Gold.Protein.RotatedTorsions>
[ 6907 6896 6895 6894 ] final  102.28 input  -60.11 | X-H torsion
[ 7974 7965 7964 7962 ] final  105.55 input  175.53 | X-H torsion
[ 8008 7997 7996 7995 ] final    2.96 input   59.86 | X-H torsion
[ 10167 10162 10161 10158 ] final  -22.83 input  -65.29 | X-H torsion
[ 10718 10713 10712 10709 ] final -171.29 input   66.30 | X-H torsion
[ 10763 10752 10751 10750 ] final  119.32 input  -60.55 | X-H torsion
[ 11005 11000 10999 10996 ] final   53.33 input  -57.11 | X-H torsion

> <Gold.Protein.ActiveResidues>
 VAL166  LYS551  ARG553  GLY616  TRP617  ASP618  TYR619  PRO620  LYS621  CYS622 
 ASP623  PHE694  ASN695  SER759  ASP760  ASP761  ALA762  ILE779  LEU786  VAL792 
 PHE793  MET794  SER795  GLU796  ALA797  LYS798  CYS799  TRP800  GLU811  SER814 

> <Gold.Protein.RotatedAtoms>
  152.5328  133.9998  159.7889 H   0  0  0  0  0  0  0  0  0  0  0  0  # atno 6907 bound_to 6896
  151.0219  133.5861  159.2677 H   0  0  0  0  0  0  0  0  0  0  0  0  # atno 6908 bound_to 6896
  151.2897  135.0745  159.9253 H   0  0  0  0  0  0  0  0  0  0  0  0  # atno 6909 bound_to 6896
  145.3182  139.2520  143.3726 H   0  0  0  0  0  0  0  0  0  0  0  0  # atno 7974 bound_to 7965
  154.6978  140.2667  155.6749 H   0  0  0  0  0  0  0  0  0  0  0  0  # atno 8008 bound_to 7997
  156.2754  140.2778  156.1502 H   0  0  0  0  0  0  0  0  0  0  0  0  # atno 8009 bound_to 7997
  155.0806  140.0372  157.2628 H   0  0  0  0  0  0  0  0  0  0  0  0  # atno 8010 bound_to 7997
  140.7287  143.4499  151.0532 H   0  0  0  0  0  0  0  0  0  0  0  0  # atno 10167 bound_to 10162
  156.7387  130.9334  151.3109 H   0  0  0  0  0  0  0  0  0  0  0  0  # atno 10718 bound_to 10713
  153.5812  135.3483  155.2876 H   0  0  0  0  0  0  0  0  0  0  0  0  # atno 10763 bound_to 10752
  154.8667  135.4182  154.2618 H   0  0  0  0  0  0  0  0  0  0  0  0  # atno 10764 bound_to 10752
  153.3405  135.7049  153.6942 H   0  0  0  0  0  0  0  0  0  0  0  0  # atno 10765 bound_to 10752
  140.0776  134.5383  155.8980 H   0  0  0  0  0  0  0  0  0  0  0  0  # atno 11005 bound_to 11000
  146.3092  140.3734  142.8676 LP  0  0  0  0  0  0  0  0  0  0  0  0  # atno 17320 bound_to 7965
  144.8960  140.7584  143.5897 LP  0  0  0  0  0  0  0  0  0  0  0  0  # atno 17321 bound_to 7965
  139.8174  143.7867  152.3175 LP  0  0  0  0  0  0  0  0  0  0  0  0  # atno 17342 bound_to 10162
  139.7937  144.7400  150.9919 LP  0  0  0  0  0  0  0  0  0  0  0  0  # atno 17343 bound_to 10162
  157.6828  130.9156  150.0310 LP  0  0  0  0  0  0  0  0  0  0  0  0  # atno 17370 bound_to 10713
  156.1479  130.3642  149.9482 LP  0  0  0  0  0  0  0  0  0  0  0  0  # atno 17371 bound_to 10713
  141.2035  133.6632  156.6066 LP  0  0  0  0  0  0  0  0  0  0  0  0  # atno 17394 bound_to 11000
  140.3535  134.7748  157.4484 LP  0  0  0  0  0  0  0  0  0  0  0  0  # atno 17395 bound_to 11000

$$$$
