#       Name:                AV-unprocessed.smi:1057
#       Creating user name   scv26
#       Creation time:       Fri Mar 27 03:15:47 2020


#       File generated by GOLD software.
#

@<TRIPOS>MOLECULE
AV-unprocessed.smi:1057
    50    51     1
SMALL
NO_CHARGES


@<TRIPOS>ATOM
      1 ****        -4.1233  -1.7561  -3.9578 C.1            1 S1                 0.0000
      2 ****        -3.8774  -0.6951  -3.4056 C.1            1 S1                 0.0000
      3 ****        -3.5697   0.5909  -2.7571 C.3            1 S1                 0.0000
      4 ****        -2.1465   0.9077  -2.7844 N.am           1 S1                 0.0000
      5 ****        -1.5048   1.5484  -3.7780 C.2            1 S1                 0.0000
      6 ****        -2.0761   1.9417  -4.7942 O.2            1 S1                 0.0000
      7 ****         0.0073   1.7864  -3.6347 C.3            1 S1                 0.0000
      8 ****         0.5836   1.3044  -2.3794 N.am           1 S1                 0.0000
      9 ****         0.6269   1.9957  -1.2311 C.2            1 S1                 0.0000
     10 ****         0.2094   3.1475  -1.1122 O.2            1 S1                 0.0000
     11 ****         1.1501   1.2556  -0.2408 N.am           1 S1                 0.0000
     12 ****         1.2908   1.6070   1.1304 C.ar           1 S1                 0.0000
     13 ****         1.5491   2.9315   1.5575 C.ar           1 S1                 0.0000
     14 ****         1.6998   3.1891   2.9325 C.ar           1 S1                 0.0000
     15 ****         1.5953   2.1117   3.8312 C.ar           1 S1                 0.0000
     16 ****         1.3630   0.8420   3.4390 N.ar           1 S1                 0.0000
     17 ****         1.2174   0.5905   2.1159 C.ar           1 S1                 0.0000
     18 ****         0.9746  -0.7394   1.7350 N.3            1 S1                 0.0000
     19 ****         2.1149  -1.6259   1.9470 C.3            1 S1                 0.0000
     20 ****         1.8706  -2.9909   1.2807 C.3            1 S1                 0.0000
     21 ****         0.5459  -3.6072   1.7603 C.3            1 S1                 0.0000
     22 ****        -0.6117  -2.6177   1.5464 C.3            1 S1                 0.0000
     23 ****        -0.3045  -1.2628   2.2070 C.3            1 S1                 0.0000
     24 ****        -4.3361  -2.6805  -4.4462 H              1 S1                 0.0000
     25 ****        -4.1592   1.3744  -3.2350 H              1 S1                 0.0000
     26 ****        -3.8968   0.5306  -1.7190 H              1 S1                 0.0000
     27 ****        -1.6030   0.6214  -1.9832 H              1 S1                 0.0000
     28 ****         0.5118   1.2735  -4.4537 H              1 S1                 0.0000
     29 ****         0.2152   2.8499  -3.7645 H              1 S1                 0.0000
     30 ****         0.9501   0.3639  -2.3820 H              1 S1                 0.0000
     31 ****         1.3594   0.2935  -0.4639 H              1 S1                 0.0000
     32 ****         1.6479   3.7451   0.8551 H              1 S1                 0.0000
     33 ****         1.8963   4.1891   3.2896 H              1 S1                 0.0000
     34 ****         1.7062   2.2726   4.8932 H              1 S1                 0.0000
     35 ****         3.0181  -1.1688   1.5401 H              1 S1                 0.0000
     36 ****         2.2773  -1.7587   3.0175 H              1 S1                 0.0000
     37 ****         1.8439  -2.8673   0.1972 H              1 S1                 0.0000
     38 ****         2.6992  -3.6659   1.4959 H              1 S1                 0.0000
     39 ****         0.3489  -4.5394   1.2301 H              1 S1                 0.0000
     40 ****         0.6215  -3.8590   2.8188 H              1 S1                 0.0000
     41 ****        -0.7758  -2.4728   0.4778 H              1 S1                 0.0000
     42 ****        -1.5373  -3.0290   1.9496 H              1 S1                 0.0000
     43 ****        -0.2730  -1.3778   3.2914 H              1 S1                 0.0000
     44 ****        -1.0999  -0.5505   1.9831 H              1 S1                 0.0000
     45 ****        -3.0580   1.7892  -4.9066 LP             1 S1                 0.0000
     46 ****        -1.5585   2.4139  -5.5077 LP             1 S1                 0.0000
     47 ****        -0.1893   3.6185  -1.8990 LP             1 S1                 0.0000
     48 ****         0.2690   3.6122  -0.2287 LP             1 S1                 0.0000
     49 ****         1.2997   0.1031   4.1099 LP             1 S1                 0.0000
     50 ****         0.8696  -0.7141   0.7409 LP             1 S1                 0.0000
@<TRIPOS>BOND
    1    1    2 3     
    2    1   24 1     
    3    2    3 1     
    4    3    4 1     
    5    3   25 1     
    6    3   26 1     
    7    4    5 am    
    8    4   27 1     
    9    5    6 2     
   10    5    7 1     
   11    7    8 1     
   12    7   28 1     
   13    7   29 1     
   14    8    9 am    
   15    8   30 1     
   16    9   10 2     
   17    9   11 am    
   18   11   12 1     
   19   11   31 1     
   20   12   17 ar    
   21   12   13 ar    
   22   13   14 ar    
   23   13   32 1     
   24   14   15 ar    
   25   14   33 1     
   26   15   16 ar    
   27   15   34 1     
   28   16   17 ar    
   29   17   18 1     
   30   18   23 1     
   31   18   19 1     
   32   19   20 1     
   33   19   35 1     
   34   19   36 1     
   35   20   21 1     
   36   20   37 1     
   37   20   38 1     
   38   21   22 1     
   39   21   39 1     
   40   21   40 1     
   41   22   23 1     
   42   22   41 1     
   43   22   42 1     
   44   23   43 1     
   45   23   44 1     
   46    6   45 1     
   47    6   46 1     
   48   10   47 1     
   49   10   48 1     
   50   16   49 1     
   51   18   50 1     
@<TRIPOS>SUBSTRUCTURE
      1 S1             1
@<TRIPOS>SET
LONE_PAIRS      STATIC     ATOMS    <user>   **** ""
6 45 46 47 48 49 50
DONOR_HYDROGENS      STATIC     ATOMS    <user>   **** ""
3 27 30 31
ATOM$BLUE        STATIC     ATOMS    COLORGROUP SYSTEM
6 45 46 47 48 49 50
ATOM$RED        STATIC     ATOMS    COLORGROUP SYSTEM
3 27 30 31
