AV-unprocessed.smi:2077|AV-procd|sdf|8462|dock1
  -GOLD-   2272011163D 1   1.00000     0.00000
 Structure written by MMmdl.
 38 40  0  0  0  0  0  0  0  0  1 V2000
  154.0753  139.7379  161.7004 C   0  0  0  0  0  0  0  0  0  0  0  0
  153.2561  140.7306  160.9797 N   0  0  0  0  0  0  0  0  0  0  0  0
  152.6501  140.3452  159.8127 C   0  0  0  0  0  0  0  0  0  0  0  0
  152.7263  139.2211  159.3145 O   0  0  0  0  0  0  0  0  0  0  0  0
  151.8723  141.4080  159.1708 C   0  0  0  0  0  0  0  0  0  0  0  0
  151.7508  142.6524  159.6914 C   0  0  0  0  0  0  0  0  0  0  0  0
  150.9597  143.4635  158.8852 N   0  0  0  0  0  0  0  0  0  0  0  0
  150.6370  142.6357  157.8898 C   0  0  0  0  0  0  0  0  0  0  0  0
  151.1413  141.3884  157.9849 N   0  0  0  0  0  0  0  0  0  0  0  0
  150.9466  140.2983  157.0421 C   0  0  0  0  0  0  0  0  0  0  0  0
  150.7253  140.7968  155.6009 C   0  0  1  0  0  0  0  0  0  0  0  0
  151.1425  139.8034  154.6837 O   0  0  0  0  0  0  0  0  0  0  0  0
  149.2820  141.2206  155.3803 C   0  0  0  0  0  0  0  0  0  0  0  0
  148.8189  141.5697  154.0922 C   0  0  0  0  0  0  0  0  0  0  0  0
  147.4760  141.9491  153.8999 C   0  0  0  0  0  0  0  0  0  0  0  0
  146.5885  141.9789  154.9927 C   0  0  0  0  0  0  0  0  0  0  0  0
  147.0438  141.6274  156.2779 C   0  0  0  0  0  0  0  0  0  0  0  0
  146.1902  141.6514  157.3286 F   0  0  0  0  0  0  0  0  0  0  0  0
  148.3864  141.2487  156.4709 C   0  0  0  0  0  0  0  0  0  0  0  0
  152.4074  142.9439  160.9129 N   0  0  0  0  0  0  0  0  0  0  0  0
  152.2507  144.2987  161.4500 C   0  0  0  0  0  0  0  0  0  0  0  0
  153.1634  141.9893  161.5505 C   0  0  0  0  0  0  0  0  0  0  0  0
  153.7458  142.2493  162.6068 O   0  0  0  0  0  0  0  0  0  0  0  0
  154.1481  138.7634  161.2162 H   0  0  0  0  0  0  0  0  0  0  0  0
  153.6669  139.5600  162.6965 H   0  0  0  0  0  0  0  0  0  0  0  0
  155.0981  140.1002  161.8166 H   0  0  0  0  0  0  0  0  0  0  0  0
  150.0120  142.9458  157.0650 H   0  0  0  0  0  0  0  0  0  0  0  0
  151.8136  139.6372  157.0869 H   0  0  0  0  0  0  0  0  0  0  0  0
  150.0963  139.7039  157.3770 H   0  0  0  0  0  0  0  0  0  0  0  0
  151.3612  141.6649  155.4230 H   0  0  0  0  0  0  0  0  0  0  0  0
  150.3970  139.2646  154.4665 H   0  0  0  0  0  0  0  0  0  0  0  0
  149.4908  141.5445  153.2465 H   0  0  0  0  0  0  0  0  0  0  0  0
  147.1264  142.2152  152.9133 H   0  0  0  0  0  0  0  0  0  0  0  0
  145.5585  142.2687  154.8449 H   0  0  0  0  0  0  0  0  0  0  0  0
  148.7255  140.9765  157.4600 H   0  0  0  0  0  0  0  0  0  0  0  0
  152.7160  144.4542  162.4238 H   0  0  0  0  0  0  0  0  0  0  0  0
  151.1918  144.5351  161.5599 H   0  0  0  0  0  0  0  0  0  0  0  0
  152.6852  145.0232  160.7605 H   0  0  0  0  0  0  0  0  0  0  0  0
  1  2  1  0  0  0  0
  1 24  1  0  0  0  0
  1 25  1  0  0  0  0
  1 26  1  0  0  0  0
  2 22  1  0  0  0  0
  2  3  1  0  0  0  0
  3  4  2  0  0  0  0
  3  5  1  0  0  0  0
  5  9  1  0  0  0  0
  5  6  2  0  0  0  0
  6  7  1  0  0  0  0
  6 20  1  0  0  0  0
  7  8  2  0  0  0  0
  8  9  1  0  0  0  0
  8 27  1  0  0  0  0
  9 10  1  0  0  0  0
 10 11  1  0  0  0  0
 10 28  1  0  0  0  0
 10 29  1  0  0  0  0
 11 12  1  0  0  0  0
 11 13  1  0  0  0  0
 11 30  1  0  0  0  0
 12 31  1  0  0  0  0
 13 19  1  0  0  0  0
 13 14  2  0  0  0  0
 14 15  1  0  0  0  0
 14 32  1  0  0  0  0
 15 16  2  0  0  0  0
 15 33  1  0  0  0  0
 16 17  1  0  0  0  0
 16 34  1  0  0  0  0
 17 18  1  0  0  0  0
 17 19  2  0  0  0  0
 19 35  1  0  0  0  0
 20 21  1  0  0  0  0
 20 22  1  0  0  0  0
 21 36  1  0  0  0  0
 21 37  1  0  0  0  0
 21 38  1  0  0  0  0
 22 23  2  0  0  0  0
M  END
> <s_m_source_file>
AV-unprocessed.smi

> <i_m_source_file_index>
2077

> <i_lp_mmshare_version>
43012

> <i_f3d_flags>
0

> <s_epik_input>
Tz1jMW4oW0NIM10pYyg9TyluKFtDSDNdKWMoYzEyKW5bY0hdbjJbQ0gyXVtDQEhdKFtPSF0pYzNbY0hdW2NIXVtjSF1jKEYpW2NIXTM=

> <s_epik_cmdline>
J2VwaWtfcHl0aG9uJywgJy1waCcsICc3LjAnLCAnLXRuJywgJzgnLCAnLW1hJywgJzIwMCcsICctbWV0YWxfYmluZGluZycsICctaW1hZScsICc8aW5maWxlLm1hZT4nLCAnLW9tYWUnLCAnPG91dGZpbGUubWFlPic=

> <r_lp_tautomer_probability>
1

> <r_epik_Ionization_Penalty>
1.5338e-06

> <r_epik_Ionization_Penalty_Charging>
3.74189e-09

> <r_epik_Ionization_Penalty_Neutral>
1.53006e-06

> <r_epik_State_Penalty>
-0

> <r_epik_Charging_Adjusted_Penalty>
3.74189e-09

> <i_epik_Tot_Q>
0

> <i_epik_Tot_abs_Q>
0

> <r_epik_Metal_State_Penalty>
-0

> <b_epik_Metal_Only>
0

> <s_lp_Force_Field>
OPLS_2005

> <r_lp_Energy>
35.2463

> <b_lp_Chiralities_Consistent>
1

> <s_lp_Variant>
AV-unprocessed.smi:2077-2

> <Gold.Version>
5.8.1

> <Gold.Id.Protein>
6NUR|6NUR_protein|mol2

> <Gold.PLP.Fitness>
50.0609

> <Gold.PLP.PLP>
-45.5886

> <Gold.PLP.part.hbond>
-2.0000

> <Gold.PLP.part.metal>
0.0000

> <Gold.PLP.part.buried>
-4.4164

> <Gold.PLP.part.nonpolar>
-38.4584

> <Gold.PLP.part.repulsive>
0.1075

> <Gold.PLP.ligand.clash>
0.0000

> <Gold.PLP.ligand.torsion>
0.7756

> <Gold.PLP.Chemscore.Hbond>
1.0000

> <Gold.PLP.Chemscore.CHOScore>
1.0000

> <Gold.PLP.Chemscore.Metal>
0.0000

> <Gold.Chemscore.Hbonds>
donor molecule, donor type, donor heavy atom, donor atom, acceptor molecule, acceptor atom, score
      P1  H  7989  7998       L1    12  0.80
      L1  C     8    27       P1  8028  1.00

> <Gold.PLP.Chemscore.Internal.Correction>
0.0236

> <Gold.Rescore>
     Score         DG    S(hbond)    S(metal)    S(lipo)     H(rot)  DE(clash)    DE(int)     intcor
      9.90     -10.71       0.92        0.00      67.45       2.24       0.01       0.81       ----

> <Gold.Chemscore.Fitness>
9.8980

> <Gold.Chemscore.DG>
-10.7139

> <Gold.Chemscore.ZeroCoef>
-5.4800

> <Gold.Chemscore.Hbond>
0.9194

> <Gold.Chemscore.Metal>
0.0000

> <Gold.Chemscore.Lipo>
67.4517

> <Gold.Chemscore.Internal_Hbond>
0.0000

> <Gold.Chemscore.DEClash>
0.0106

> <Gold.Chemscore.DEInternal>
0.8052

> <Gold.Chemscore.Rot>
2.2377

> <Gold.Chemscore.Internal.Correction>
   9.000000E+99

> <Gold.Chemscore.Hbonds>
donor molecule, donor type, donor heavy atom, donor atom, acceptor molecule, acceptor atom, score
      P1  H  7989  7998       L1    12  0.11

> <Gold.Chemscore.Hbond.Weighted>
-3.0707

> <Gold.Chemscore.Metal.Weighted>
-0.0000

> <Gold.Chemscore.Lipo.Weighted>
-7.8918

> <Gold.Chemscore.Internal_Hbond.Weighted>
0.0000

> <Gold.Chemscore.DEClash.Weighted>
0.0106

> <Gold.Chemscore.DEInternal.Weighted>
0.8052

> <Gold.Chemscore.Rot.Weighted>
5.7286

> <Gold.Chemscore.Internal.Correction.Weighted>
   9.000000E+99

> <Gold.Protein.RotatedTorsions>
[ 6907 6896 6895 6894 ] final   23.96 input  -60.11 | X-H torsion
[ 7974 7965 7964 7962 ] final   35.56 input  175.53 | X-H torsion
[ 8008 7997 7996 7995 ] final -169.25 input   59.86 | X-H torsion
[ 10167 10162 10161 10158 ] final -154.82 input  -65.29 | X-H torsion
[ 10718 10713 10712 10709 ] final -125.65 input   66.30 | X-H torsion
[ 10763 10752 10751 10750 ] final  -21.69 input  -60.55 | X-H torsion
[ 11005 11000 10999 10996 ] final   87.52 input  -57.11 | X-H torsion

> <Gold.Protein.ActiveResidues>
 VAL166  LYS551  ARG553  GLY616  TRP617  ASP618  TYR619  PRO620  LYS621  CYS622 
 ASP623  PHE694  ASN695  SER759  ASP760  ASP761  ALA762  ILE779  LEU786  VAL792 
 PHE793  MET794  SER795  GLU796  ALA797  LYS798  CYS799  TRP800  GLU811  SER814 

> <Gold.Protein.RotatedAtoms>
  151.9503  135.0172  160.0541 H   0  0  0  0  0  0  0  0  0  0  0  0  # atno 6907 bound_to 6896
  152.1959  133.4802  159.5041 H   0  0  0  0  0  0  0  0  0  0  0  0  # atno 6908 bound_to 6896
  150.6944  134.1570  159.4204 H   0  0  0  0  0  0  0  0  0  0  0  0  # atno 6909 bound_to 6896
  146.1274  139.6127  142.9249 H   0  0  0  0  0  0  0  0  0  0  0  0  # atno 7974 bound_to 7965
  155.9025  140.1043  157.1339 H   0  0  0  0  0  0  0  0  0  0  0  0  # atno 8008 bound_to 7997
  154.4028  140.1290  156.4518 H   0  0  0  0  0  0  0  0  0  0  0  0  # atno 8009 bound_to 7997
  155.7406  140.3467  155.5105 H   0  0  0  0  0  0  0  0  0  0  0  0  # atno 8010 bound_to 7997
  139.6982  143.9307  152.2417 H   0  0  0  0  0  0  0  0  0  0  0  0  # atno 10167 bound_to 10162
  156.1694  130.6657  151.0159 H   0  0  0  0  0  0  0  0  0  0  0  0  # atno 10718 bound_to 10713
  153.6402  135.6985  153.5244 H   0  0  0  0  0  0  0  0  0  0  0  0  # atno 10763 bound_to 10752
  153.2789  135.4192  155.1059 H   0  0  0  0  0  0  0  0  0  0  0  0  # atno 10764 bound_to 10752
  154.8501  135.3597  154.5946 H   0  0  0  0  0  0  0  0  0  0  0  0  # atno 10765 bound_to 10752
  139.8917  134.8428  156.2872 H   0  0  0  0  0  0  0  0  0  0  0  0  # atno 11005 bound_to 11000
  145.5335  141.0425  143.2370 LP  0  0  0  0  0  0  0  0  0  0  0  0  # atno 17320 bound_to 7965
  144.7656  139.6853  143.7216 LP  0  0  0  0  0  0  0  0  0  0  0  0  # atno 17321 bound_to 7965
  139.9142  144.6838  150.8530 LP  0  0  0  0  0  0  0  0  0  0  0  0  # atno 17342 bound_to 10162
  140.7702  143.3421  151.2186 LP  0  0  0  0  0  0  0  0  0  0  0  0  # atno 17343 bound_to 10162
  157.6792  131.0842  150.7415 LP  0  0  0  0  0  0  0  0  0  0  0  0  # atno 17370 bound_to 10713
  156.7475  130.4758  149.5464 LP  0  0  0  0  0  0  0  0  0  0  0  0  # atno 17371 bound_to 10713
  141.0000  133.7157  156.0945 LP  0  0  0  0  0  0  0  0  0  0  0  0  # atno 17394 bound_to 11000
  140.7511  134.4044  157.5541 LP  0  0  0  0  0  0  0  0  0  0  0  0  # atno 17395 bound_to 11000

$$$$
