AV-unprocessed.smi:2003|AV-procd|sdf|8119|dock9
  -GOLD-   2272010353D 1   1.00000     0.00000
 Structure written by MMmdl.
 44 45  0  0  0  0  0  0  0  0  2 V2000
  153.6902  141.4783  160.6759 C   0  0  0  0  0  0  0  0  0  0  0  0
  152.7943  142.1609  159.6849 C   0  0  0  0  0  0  0  0  0  0  0  0
  152.0543  141.5718  158.6186 C   0  0  0  0  0  0  0  0  0  0  0  0
  151.4283  142.6499  158.0549 C   0  0  0  0  0  0  0  0  0  0  0  0
  150.5890  142.6896  156.9862 N   0  0  0  0  0  0  0  0  0  0  0  0
  150.2681  141.7013  156.1333 C   0  0  0  0  0  0  0  0  0  0  0  0
  150.6748  140.5415  156.1975 O   0  0  0  0  0  0  0  0  0  0  0  0
  149.4344  142.1392  155.1791 N   0  0  0  0  0  0  0  0  0  0  0  0
  148.8860  141.3282  154.0927 C   0  0  0  0  0  0  0  0  0  0  0  0
  147.5461  140.6322  154.4553 C   0  0  2  0  0  0  0  0  0  0  0  0
  147.2175  139.5445  153.4091 C   0  0  0  0  0  0  0  0  0  0  0  0
  146.4247  141.6087  154.6471 N   0  3  0  0  0  0  0  0  0  0  0  0
  146.2503  142.0783  156.0490 C   0  0  0  0  0  0  0  0  0  0  0  0
  145.0674  143.0551  156.1645 C   0  0  0  0  0  0  0  0  0  0  0  0
  145.2582  144.1507  155.2822 O   0  0  0  0  0  0  0  0  0  0  0  0
  145.3126  143.7249  153.9292 C   0  0  0  0  0  0  0  0  0  0  0  0
  146.5106  142.7814  153.7345 C   0  0  0  0  0  0  0  0  0  0  0  0
  151.7847  143.7845  158.7489 N   0  0  0  0  0  0  0  0  0  0  0  0
  151.3868  145.1615  158.5307 C   0  0  0  0  0  0  0  0  0  0  0  0
  152.6310  143.4773  159.7553 N   0  0  0  0  0  0  0  0  0  0  0  0
  153.6841  140.3973  160.5337 H   0  0  0  0  0  0  0  0  0  0  0  0
  153.3708  141.6793  161.6989 H   0  0  0  0  0  0  0  0  0  0  0  0
  154.7203  141.8203  160.5736 H   0  0  0  0  0  0  0  0  0  0  0  0
  152.0071  140.5316  158.3338 H   0  0  0  0  0  0  0  0  0  0  0  0
  150.1575  143.5855  156.8143 H   0  0  0  0  0  0  0  0  0  0  0  0
  149.1411  143.1045  155.2162 H   0  0  0  0  0  0  0  0  0  0  0  0
  148.7780  141.9251  153.1854 H   0  0  0  0  0  0  0  0  0  0  0  0
  149.6354  140.5785  153.8398 H   0  0  0  0  0  0  0  0  0  0  0  0
  147.6968  140.1136  155.4036 H   0  0  0  0  0  0  0  0  0  0  0  0
  148.0931  138.9330  153.1888 H   0  0  0  0  0  0  0  0  0  0  0  0
  146.8744  139.9784  152.4697 H   0  0  0  0  0  0  0  0  0  0  0  0
  146.4497  138.8572  153.7636 H   0  0  0  0  0  0  0  0  0  0  0  0
  146.0511  141.2433  156.7192 H   0  0  0  0  0  0  0  0  0  0  0  0
  147.1685  142.5586  156.3910 H   0  0  0  0  0  0  0  0  0  0  0  0
  144.1242  142.5527  155.9429 H   0  0  0  0  0  0  0  0  0  0  0  0
  144.9926  143.4333  157.1842 H   0  0  0  0  0  0  0  0  0  0  0  0
  144.3789  143.2346  153.6479 H   0  0  0  0  0  0  0  0  0  0  0  0
  145.4172  144.6009  153.2890 H   0  0  0  0  0  0  0  0  0  0  0  0
  147.4413  143.3204  153.9190 H   0  0  0  0  0  0  0  0  0  0  0  0
  146.5265  142.4656  152.6925 H   0  0  0  0  0  0  0  0  0  0  0  0
  150.3008  145.2232  158.4547 H   0  0  0  0  0  0  0  0  0  0  0  0
  151.8309  145.5273  157.6048 H   0  0  0  0  0  0  0  0  0  0  0  0
  151.7172  145.7926  159.3570 H   0  0  0  0  0  0  0  0  0  0  0  0
  145.5762  141.1156  154.4082 H   0  0  0  0  0  0  0  0  0  0  0  0
  1  2  1  0  0  0  0
  1 21  1  0  0  0  0
  1 22  1  0  0  0  0
  1 23  1  0  0  0  0
  2 20  2  0  0  0  0
  2  3  1  0  0  0  0
  3  4  2  0  0  0  0
  3 24  1  0  0  0  0
  4  5  1  0  0  0  0
  4 18  1  0  0  0  0
  5  6  1  0  0  0  0
  5 25  1  0  0  0  0
  6  7  2  0  0  0  0
  6  8  1  0  0  0  0
  8  9  1  0  0  0  0
  8 26  1  0  0  0  0
  9 10  1  0  0  0  0
  9 27  1  0  0  0  0
  9 28  1  0  0  0  0
 10 11  1  0  0  0  0
 10 12  1  0  0  0  0
 10 29  1  0  0  0  0
 11 30  1  0  0  0  0
 11 31  1  0  0  0  0
 11 32  1  0  0  0  0
 12 17  1  0  0  0  0
 12 13  1  0  0  0  0
 12 44  1  0  0  0  0
 13 14  1  0  0  0  0
 13 33  1  0  0  0  0
 13 34  1  0  0  0  0
 14 15  1  0  0  0  0
 14 35  1  0  0  0  0
 14 36  1  0  0  0  0
 15 16  1  0  0  0  0
 16 17  1  0  0  0  0
 16 37  1  0  0  0  0
 16 38  1  0  0  0  0
 17 39  1  0  0  0  0
 17 40  1  0  0  0  0
 18 19  1  0  0  0  0
 18 20  1  0  0  0  0
 19 41  1  0  0  0  0
 19 42  1  0  0  0  0
 19 43  1  0  0  0  0
M  CHG  1  12   1
M  END
> <s_m_source_file>
AV-unprocessed.smi

> <i_m_source_file_index>
2003

> <i_lp_mmshare_version>
43012

> <i_f3d_flags>
0

> <s_epik_input>
W0NIM11jMVtjSF1jKG4objEpW0NIM10pW05IXUMoPU8pW05IXVtDSDJdW0NASF0oW0NIM10pTjJbQ0gyXVtDSDJdT1tDSDJdW0NIMl0y

> <s_epik_cmdline>
J2VwaWtfcHl0aG9uJywgJy1waCcsICc3LjAnLCAnLXRuJywgJzgnLCAnLW1hJywgJzIwMCcsICctbWV0YWxfYmluZGluZycsICctaW1hZScsICc8aW5maWxlLm1hZT4nLCAnLW9tYWUnLCAnPG91dGZpbGUubWFlPic=

> <r_lp_tautomer_probability>
1

> <r_epik_Ionization_Penalty>
0.663903

> <r_epik_Ionization_Penalty_Charging>
0.663826

> <r_epik_Ionization_Penalty_Neutral>
7.78239e-05

> <r_epik_State_Penalty>
0.683414

> <r_epik_Charging_Adjusted_Penalty>
1.34724

> <i_epik_Tot_Q>
1

> <i_epik_Tot_abs_Q>
1

> <r_epik_Metal_State_Penalty>
0.683419

> <b_epik_Metal_Only>
0

> <s_lp_Force_Field>
OPLS_2005

> <r_lp_Energy>
28.7948

> <b_lp_Chiralities_Consistent>
1

> <s_lp_Variant>
AV-unprocessed.smi:2003-3

> <Gold.Version>
5.8.1

> <Gold.Id.Protein>
6NUR|6NUR_protein|mol2

> <Gold.PLP.Fitness>
44.4446

> <Gold.PLP.PLP>
-40.6420

> <Gold.PLP.part.hbond>
-2.0000

> <Gold.PLP.part.metal>
0.0000

> <Gold.PLP.part.buried>
-6.1202

> <Gold.PLP.part.nonpolar>
-33.6154

> <Gold.PLP.part.repulsive>
0.4223

> <Gold.PLP.ligand.clash>
0.0000

> <Gold.PLP.ligand.torsion>
1.0384

> <Gold.PLP.Chemscore.Hbond>
1.9440

> <Gold.PLP.Chemscore.CHOScore>
0.0000

> <Gold.PLP.Chemscore.Metal>
0.0000

> <Gold.Chemscore.Hbonds>
donor molecule, donor type, donor heavy atom, donor atom, acceptor molecule, acceptor atom, score
      L1  H     5    25       P1  8028  0.94
      L1  H     8    26       P1  8028  1.00

> <Gold.PLP.Chemscore.Internal.Correction>
0.0475

> <Gold.Rescore>
     Score         DG    S(hbond)    S(metal)    S(lipo)     H(rot)  DE(clash)    DE(int)     intcor
     15.34     -17.38       1.96        0.00      79.46       1.54       0.07       1.97       ----

> <Gold.Chemscore.Fitness>
15.3409

> <Gold.Chemscore.DG>
-17.3830

> <Gold.Chemscore.ZeroCoef>
-5.4800

> <Gold.Chemscore.Hbond>
1.9604

> <Gold.Chemscore.Metal>
0.0000

> <Gold.Chemscore.Lipo>
79.4649

> <Gold.Chemscore.Internal_Hbond>
0.0000

> <Gold.Chemscore.DEClash>
0.0672

> <Gold.Chemscore.DEInternal>
1.9749

> <Gold.Chemscore.Rot>
1.5398

> <Gold.Chemscore.Internal.Correction>
   9.000000E+99

> <Gold.Chemscore.Hbonds>
donor molecule, donor type, donor heavy atom, donor atom, acceptor molecule, acceptor atom, score
      L1  H     5    25       P1  8028  0.85
      L1  H     8    26       P1  8028  1.00

> <Gold.Chemscore.Hbond.Weighted>
-6.5476

> <Gold.Chemscore.Metal.Weighted>
-0.0000

> <Gold.Chemscore.Lipo.Weighted>
-9.2974

> <Gold.Chemscore.Internal_Hbond.Weighted>
0.0000

> <Gold.Chemscore.DEClash.Weighted>
0.0672

> <Gold.Chemscore.DEInternal.Weighted>
1.9749

> <Gold.Chemscore.Rot.Weighted>
3.9420

> <Gold.Chemscore.Internal.Correction.Weighted>
   9.000000E+99

> <Gold.Protein.RotatedTorsions>
[ 6907 6896 6895 6894 ] final -167.60 input  -60.11 | X-H torsion
[ 7974 7965 7964 7962 ] final   56.15 input  175.53 | X-H torsion
[ 8008 7997 7996 7995 ] final  155.55 input   59.86 | X-H torsion
[ 10167 10162 10161 10158 ] final -166.17 input  -65.29 | X-H torsion
[ 10718 10713 10712 10709 ] final   25.77 input   66.30 | X-H torsion
[ 10763 10752 10751 10750 ] final  155.06 input  -60.55 | X-H torsion
[ 11005 11000 10999 10996 ] final  108.91 input  -57.11 | X-H torsion

> <Gold.Protein.ActiveResidues>
 VAL166  LYS551  ARG553  GLY616  TRP617  ASP618  TYR619  PRO620  LYS621  CYS622 
 ASP623  PHE694  ASN695  SER759  ASP760  ASP761  ALA762  ILE779  LEU786  VAL792 
 PHE793  MET794  SER795  GLU796  ALA797  LYS798  CYS799  TRP800  GLU811  SER814 

> <Gold.Protein.RotatedAtoms>
  151.4621  133.3590  159.2810 H   0  0  0  0  0  0  0  0  0  0  0  0  # atno 6907 bound_to 6896
  150.9018  134.8433  159.7376 H   0  0  0  0  0  0  0  0  0  0  0  0  # atno 6908 bound_to 6896
  152.4884  134.4542  159.9636 H   0  0  0  0  0  0  0  0  0  0  0  0  # atno 6909 bound_to 6896
  145.9429  139.3904  143.0353 H   0  0  0  0  0  0  0  0  0  0  0  0  # atno 7974 bound_to 7965
  156.2472  140.1936  156.6818 H   0  0  0  0  0  0  0  0  0  0  0  0  # atno 8008 bound_to 7997
  154.6316  140.0595  156.9765 H   0  0  0  0  0  0  0  0  0  0  0  0  # atno 8009 bound_to 7997
  155.1702  140.3267  155.4397 H   0  0  0  0  0  0  0  0  0  0  0  0  # atno 8010 bound_to 7997
  139.6133  144.0771  152.1863 H   0  0  0  0  0  0  0  0  0  0  0  0  # atno 10167 bound_to 10162
  157.1979  130.6876  149.6176 H   0  0  0  0  0  0  0  0  0  0  0  0  # atno 10718 bound_to 10713
  154.1624  135.2809  155.3105 H   0  0  0  0  0  0  0  0  0  0  0  0  # atno 10763 bound_to 10752
  154.6137  135.5490  153.7504 H   0  0  0  0  0  0  0  0  0  0  0  0  # atno 10764 bound_to 10752
  153.0188  135.6421  154.1765 H   0  0  0  0  0  0  0  0  0  0  0  0  # atno 10765 bound_to 10752
  139.8852  134.9444  156.6045 H   0  0  0  0  0  0  0  0  0  0  0  0  # atno 11005 bound_to 11000
  145.8276  140.9647  143.0866 LP  0  0  0  0  0  0  0  0  0  0  0  0  # atno 17320 bound_to 7965
  144.6782  140.0121  143.7484 LP  0  0  0  0  0  0  0  0  0  0  0  0  # atno 17321 bound_to 7965
  140.0395  144.6018  150.7422 LP  0  0  0  0  0  0  0  0  0  0  0  0  # atno 17342 bound_to 10162
  140.7334  143.2716  151.3870 LP  0  0  0  0  0  0  0  0  0  0  0  0  # atno 17343 bound_to 10162
  155.9704  130.4593  150.6030 LP  0  0  0  0  0  0  0  0  0  0  0  0  # atno 17370 bound_to 10713
  157.3796  131.0779  151.1488 LP  0  0  0  0  0  0  0  0  0  0  0  0  # atno 17371 bound_to 10713
  140.7859  133.8622  155.8605 LP  0  0  0  0  0  0  0  0  0  0  0  0  # atno 17394 bound_to 11000
  140.9720  134.1519  157.4568 LP  0  0  0  0  0  0  0  0  0  0  0  0  # atno 17395 bound_to 11000

$$$$
