AV-unprocessed.smi:906|AV-procd|sdf|4101|dock8
  -GOLD-   22720 1593D 1   1.00000     0.00000
 Structure written by MMmdl.
 47 48  0  0  0  0  0  0  0  0  1 V2000
  151.3010  144.1690  158.0142 C   0  0  0  0  0  0  0  0  0  0  0  0
  152.0898  143.1805  158.8474 C   0  0  0  0  0  0  0  0  0  0  0  0
  152.9277  143.6246  159.8920 C   0  0  0  0  0  0  0  0  0  0  0  0
  153.6339  142.6628  160.6400 C   0  0  0  0  0  0  0  0  0  0  0  0
  153.4752  141.2997  160.3171 C   0  0  0  0  0  0  0  0  0  0  0  0
  154.2070  140.2245  161.0957 C   0  0  0  0  0  0  0  0  0  0  0  0
  153.7751  138.8109  160.6736 C   0  0  0  0  0  0  0  0  0  0  0  0
  154.5176  137.7865  161.3981 N   0  0  0  0  0  0  0  0  0  0  0  0
  154.4571  136.4660  161.1553 C   0  0  0  0  0  0  0  0  0  0  0  0
  153.7498  135.9966  160.2625 O   0  0  0  0  0  0  0  0  0  0  0  0
  155.2636  135.7081  161.9393 N   0  0  0  0  0  0  0  0  0  0  0  0
  155.6753  135.9975  163.3207 C   0  0  0  0  0  0  0  0  0  0  0  0
  154.9696  135.0061  164.2659 C   0  0  0  0  0  0  0  0  0  0  0  0
  155.3148  133.6256  163.9042 N   0  0  0  0  0  0  0  0  0  0  0  0
  154.7947  132.6574  164.8852 C   0  0  1  0  0  0  0  0  0  0  0  0
  153.4639  131.9951  164.4649 C   0  0  0  0  0  0  0  0  0  0  0  0
  155.8649  131.6173  165.2949 C   0  0  0  0  0  0  0  0  0  0  0  0
  156.8675  132.2146  165.9400 F   0  0  0  0  0  0  0  0  0  0  0  0
  155.3137  130.7296  166.1226 F   0  0  0  0  0  0  0  0  0  0  0  0
  156.3555  130.9572  164.2459 F   0  0  0  0  0  0  0  0  0  0  0  0
  154.9619  133.3459  162.5053 C   0  0  0  0  0  0  0  0  0  0  0  0
  155.6688  134.3482  161.5726 C   0  0  0  0  0  0  0  0  0  0  0  0
  152.6115  140.9610  159.2541 C   0  0  0  0  0  0  0  0  0  0  0  0
  151.9305  141.8762  158.5315 N   0  0  0  0  0  0  0  0  0  0  0  0
  151.7444  145.1640  158.0643 H   0  0  0  0  0  0  0  0  0  0  0  0
  150.2750  144.2319  158.3776 H   0  0  0  0  0  0  0  0  0  0  0  0
  151.2775  143.8625  156.9679 H   0  0  0  0  0  0  0  0  0  0  0  0
  153.0270  144.6763  160.1175 H   0  0  0  0  0  0  0  0  0  0  0  0
  154.2825  142.9677  161.4482 H   0  0  0  0  0  0  0  0  0  0  0  0
  155.2802  140.3529  160.9485 H   0  0  0  0  0  0  0  0  0  0  0  0
  154.0235  140.3701  162.1612 H   0  0  0  0  0  0  0  0  0  0  0  0
  152.7142  138.6685  160.8813 H   0  0  0  0  0  0  0  0  0  0  0  0
  153.9017  138.6760  159.5980 H   0  0  0  0  0  0  0  0  0  0  0  0
  155.1297  138.1029  162.1360 H   0  0  0  0  0  0  0  0  0  0  0  0
  156.7580  135.8897  163.4035 H   0  0  0  0  0  0  0  0  0  0  0  0
  155.4599  137.0164  163.6417 H   0  0  0  0  0  0  0  0  0  0  0  0
  155.2794  135.2066  165.2920 H   0  0  0  0  0  0  0  0  0  0  0  0
  153.8908  135.1566  164.2191 H   0  0  0  0  0  0  0  0  0  0  0  0
  154.5923  133.2318  165.7904 H   0  0  0  0  0  0  0  0  0  0  0  0
  153.0735  131.3770  165.2732 H   0  0  0  0  0  0  0  0  0  0  0  0
  153.5865  131.3459  163.5981 H   0  0  0  0  0  0  0  0  0  0  0  0
  152.6949  132.7294  164.2287 H   0  0  0  0  0  0  0  0  0  0  0  0
  155.2665  132.3389  162.2277 H   0  0  0  0  0  0  0  0  0  0  0  0
  153.8828  133.4104  162.3617 H   0  0  0  0  0  0  0  0  0  0  0  0
  155.4393  134.1079  160.5336 H   0  0  0  0  0  0  0  0  0  0  0  0
  156.7518  134.2533  161.6656 H   0  0  0  0  0  0  0  0  0  0  0  0
  152.4595  139.9280  158.9775 H   0  0  0  0  0  0  0  0  0  0  0  0
  1  2  1  0  0  0  0
  1 25  1  0  0  0  0
  1 26  1  0  0  0  0
  1 27  1  0  0  0  0
  2 24  1  0  0  0  0
  2  3  2  0  0  0  0
  3  4  1  0  0  0  0
  3 28  1  0  0  0  0
  4  5  2  0  0  0  0
  4 29  1  0  0  0  0
  5  6  1  0  0  0  0
  5 23  1  0  0  0  0
  6  7  1  0  0  0  0
  6 30  1  0  0  0  0
  6 31  1  0  0  0  0
  7  8  1  0  0  0  0
  7 32  1  0  0  0  0
  7 33  1  0  0  0  0
  8  9  1  0  0  0  0
  8 34  1  0  0  0  0
  9 10  2  0  0  0  0
  9 11  1  0  0  0  0
 11 22  1  0  0  0  0
 11 12  1  0  0  0  0
 12 13  1  0  0  0  0
 12 35  1  0  0  0  0
 12 36  1  0  0  0  0
 13 14  1  0  0  0  0
 13 37  1  0  0  0  0
 13 38  1  0  0  0  0
 14 15  1  0  0  0  0
 14 21  1  0  0  0  0
 15 16  1  0  0  0  0
 15 17  1  0  0  0  0
 15 39  1  0  0  0  0
 16 40  1  0  0  0  0
 16 41  1  0  0  0  0
 16 42  1  0  0  0  0
 17 18  1  0  0  0  0
 17 19  1  0  0  0  0
 17 20  1  0  0  0  0
 21 22  1  0  0  0  0
 21 43  1  0  0  0  0
 21 44  1  0  0  0  0
 22 45  1  0  0  0  0
 22 46  1  0  0  0  0
 23 24  2  0  0  0  0
 23 47  1  0  0  0  0
M  END
> <s_m_source_file>
AV-unprocessed.smi

> <i_m_source_file_index>
906

> <i_lp_mmshare_version>
43012

> <i_f3d_flags>
0

> <s_epik_input>
W0NIM11jMVtjSF1bY0hdYyhbY0hdbjEpW0NIMl1bQ0gyXVtOSF1DKD1PKU4yW0NIMl1bQ0gyXU4oW0NASF0oW0NIM10pQyhGKShGKUYpW0NIMl1bQ0gyXTI=

> <s_epik_cmdline>
J2VwaWtfcHl0aG9uJywgJy1waCcsICc3LjAnLCAnLXRuJywgJzgnLCAnLW1hJywgJzIwMCcsICctbWV0YWxfYmluZGluZycsICctaW1hZScsICc8aW5maWxlLm1hZT4nLCAnLW9tYWUnLCAnPG91dGZpbGUubWFlPic=

> <r_epik_Ionization_Penalty>
0.0782886

> <r_epik_Ionization_Penalty_Charging>
0

> <r_epik_Ionization_Penalty_Neutral>
0.0782886

> <r_epik_State_Penalty>
0.0661423

> <r_epik_Charging_Adjusted_Penalty>
0.0661423

> <i_epik_Tot_Q>
0

> <i_epik_Tot_abs_Q>
0

> <r_epik_Metal_State_Penalty>
0.060629

> <b_epik_Metal_Only>
0

> <s_lp_Force_Field>
OPLS_2005

> <r_lp_Energy>
47.1211

> <b_lp_Chiralities_Consistent>
1

> <s_lp_Variant>
AV-unprocessed.smi:906-2

> <Gold.Version>
5.8.1

> <Gold.Id.Protein>
6NUR|6NUR_protein|mol2

> <Gold.PLP.Fitness>
44.8788

> <Gold.PLP.PLP>
-44.2760

> <Gold.PLP.part.hbond>
-1.0000

> <Gold.PLP.part.metal>
0.0000

> <Gold.PLP.part.buried>
-4.5287

> <Gold.PLP.part.nonpolar>
-38.8401

> <Gold.PLP.part.repulsive>
0.0378

> <Gold.PLP.ligand.clash>
0.0000

> <Gold.PLP.ligand.torsion>
1.5179

> <Gold.PLP.Chemscore.Hbond>
1.0000

> <Gold.PLP.Chemscore.CHOScore>
0.0000

> <Gold.PLP.Chemscore.Metal>
0.0000

> <Gold.Chemscore.Hbonds>
donor molecule, donor type, donor heavy atom, donor atom, acceptor molecule, acceptor atom, score
      P1  H  6896  6909       L1    10  1.00

> <Gold.PLP.Chemscore.Internal.Correction>
0.6387

> <Gold.Rescore>
     Score         DG    S(hbond)    S(metal)    S(lipo)     H(rot)  DE(clash)    DE(int)     intcor
     17.55     -19.45       1.00        0.00     125.54       1.58       0.28       1.62       ----

> <Gold.Chemscore.Fitness>
17.5490

> <Gold.Chemscore.DG>
-19.4526

> <Gold.Chemscore.ZeroCoef>
-5.4800

> <Gold.Chemscore.Hbond>
1.0000

> <Gold.Chemscore.Metal>
0.0000

> <Gold.Chemscore.Lipo>
125.5385

> <Gold.Chemscore.Internal_Hbond>
0.0000

> <Gold.Chemscore.DEClash>
0.2792

> <Gold.Chemscore.DEInternal>
1.6244

> <Gold.Chemscore.Rot>
1.5841

> <Gold.Chemscore.Internal.Correction>
   9.000000E+99

> <Gold.Chemscore.Hbonds>
donor molecule, donor type, donor heavy atom, donor atom, acceptor molecule, acceptor atom, score
      P1  H  6896  6909       L1    10  1.00

> <Gold.Chemscore.Hbond.Weighted>
-3.3400

> <Gold.Chemscore.Metal.Weighted>
-0.0000

> <Gold.Chemscore.Lipo.Weighted>
-14.6880

> <Gold.Chemscore.Internal_Hbond.Weighted>
0.0000

> <Gold.Chemscore.DEClash.Weighted>
0.2792

> <Gold.Chemscore.DEInternal.Weighted>
1.6244

> <Gold.Chemscore.Rot.Weighted>
4.0554

> <Gold.Chemscore.Internal.Correction.Weighted>
   9.000000E+99

> <Gold.Protein.RotatedTorsions>
[ 6907 6896 6895 6894 ] final  169.09 input  -60.11 | X-H torsion
[ 7974 7965 7964 7962 ] final  150.41 input  175.53 | X-H torsion
[ 8008 7997 7996 7995 ] final  -28.09 input   59.86 | X-H torsion
[ 10167 10162 10161 10158 ] final   69.07 input  -65.29 | X-H torsion
[ 10718 10713 10712 10709 ] final  159.54 input   66.30 | X-H torsion
[ 10763 10752 10751 10750 ] final -141.40 input  -60.55 | X-H torsion
[ 11005 11000 10999 10996 ] final  -74.74 input  -57.11 | X-H torsion

> <Gold.Protein.ActiveResidues>
 VAL166  LYS551  ARG553  GLY616  TRP617  ASP618  TYR619  PRO620  LYS621  CYS622 
 ASP623  PHE694  ASN695  SER759  ASP760  ASP761  ALA762  ILE779  LEU786  VAL792 
 PHE793  MET794  SER795  GLU796  ALA797  LYS798  CYS799  TRP800  GLU811  SER814 

> <Gold.Protein.RotatedAtoms>
  151.8374  133.3418  159.3632 H   0  0  0  0  0  0  0  0  0  0  0  0  # atno 6907 bound_to 6896
  150.7245  134.5424  159.5763 H   0  0  0  0  0  0  0  0  0  0  0  0  # atno 6908 bound_to 6896
  152.2890  134.7744  160.0433 H   0  0  0  0  0  0  0  0  0  0  0  0  # atno 6909 bound_to 6896
  144.8366  139.6405  143.6035 H   0  0  0  0  0  0  0  0  0  0  0  0  # atno 7974 bound_to 7965
  154.4348  140.1854  156.1035 H   0  0  0  0  0  0  0  0  0  0  0  0  # atno 8008 bound_to 7997
  156.0274  140.3334  155.7077 H   0  0  0  0  0  0  0  0  0  0  0  0  # atno 8009 bound_to 7997
  155.5889  140.0629  157.2754 H   0  0  0  0  0  0  0  0  0  0  0  0  # atno 8010 bound_to 7997
  140.0718  144.5146  150.7222 H   0  0  0  0  0  0  0  0  0  0  0  0  # atno 10167 bound_to 10162
  157.1627  131.0591  151.2224 H   0  0  0  0  0  0  0  0  0  0  0  0  # atno 10718 bound_to 10713
  154.8546  135.3525  154.5862 H   0  0  0  0  0  0  0  0  0  0  0  0  # atno 10763 bound_to 10752
  153.6473  135.6995  153.5226 H   0  0  0  0  0  0  0  0  0  0  0  0  # atno 10764 bound_to 10752
  153.2923  135.4231  155.1136 H   0  0  0  0  0  0  0  0  0  0  0  0  # atno 10765 bound_to 10752
  141.1638  133.6922  156.7410 H   0  0  0  0  0  0  0  0  0  0  0  0  # atno 11005 bound_to 11000
  146.2664  139.6530  142.9326 LP  0  0  0  0  0  0  0  0  0  0  0  0  # atno 17320 bound_to 7965
  145.4781  141.0437  143.2661 LP  0  0  0  0  0  0  0  0  0  0  0  0  # atno 17321 bound_to 7965
  140.7121  143.2514  151.4547 LP  0  0  0  0  0  0  0  0  0  0  0  0  # atno 17342 bound_to 10162
  139.5831  144.1665  152.1994 LP  0  0  0  0  0  0  0  0  0  0  0  0  # atno 17343 bound_to 10162
  157.4117  130.7389  149.6844 LP  0  0  0  0  0  0  0  0  0  0  0  0  # atno 17370 bound_to 10713
  155.9751  130.4093  150.3874 LP  0  0  0  0  0  0  0  0  0  0  0  0  # atno 17371 bound_to 10713
  140.2674  134.8419  157.3816 LP  0  0  0  0  0  0  0  0  0  0  0  0  # atno 17394 bound_to 11000
  140.1553  134.4797  155.7932 LP  0  0  0  0  0  0  0  0  0  0  0  0  # atno 17395 bound_to 11000

$$$$
