AV-unprocessed.smi:2340|AV-procd|sdf|9345|dock5
  -GOLD-   2272012563D 1   1.00000     0.00000
 Structure written by MMmdl.
 40 41  0  0  0  0  0  0  0  0  1 V2000
  154.4604  140.5090  160.4310 C   0  0  0  0  0  0  0  0  0  0  0  0
  153.5568  141.6710  160.6993 C   0  0  0  0  0  0  0  0  0  0  0  0
  153.3856  142.3260  161.8931 C   0  0  0  0  0  0  0  0  0  0  0  0
  152.2391  143.6309  161.7593 S   0  0  0  0  0  0  0  0  0  0  0  0
  152.0306  143.2346  160.0568 C   0  0  0  0  0  0  0  0  0  0  0  0
  151.1065  143.9839  159.1493 C   0  0  1  0  0  0  0  0  0  0  0  0
  151.8749  144.6992  158.0241 C   0  0  0  0  0  0  0  0  0  0  0  0
  149.9473  143.0900  158.6570 C   0  0  0  0  0  0  0  0  0  0  0  0
  148.6871  143.8153  158.5311 N   0  0  0  0  0  0  0  0  0  0  0  0
  147.5208  143.4274  159.0647 C   0  0  0  0  0  0  0  0  0  0  0  0
  147.3709  142.3950  159.7182 O   0  0  0  0  0  0  0  0  0  0  0  0
  146.5423  144.3062  158.8097 N   0  0  0  0  0  0  0  0  0  0  0  0
  145.1671  144.1891  159.2841 C   0  0  2  0  0  0  0  0  0  0  0  0
  144.3385  145.3979  158.9005 C   0  0  0  0  0  0  0  0  0  0  0  0
  143.2273  145.3717  159.9456 C   0  0  0  0  0  0  0  0  0  0  0  0
  143.7828  144.7537  161.1026 O   0  0  0  0  0  0  0  0  0  0  0  0
  145.0770  144.2336  160.8143 C   0  0  1  0  0  0  0  0  0  0  0  0
  145.2677  142.8766  161.5033 C   0  0  0  0  0  0  0  0  0  0  0  0
  152.7770  142.1966  159.6653 N   0  0  0  0  0  0  0  0  0  0  0  0
  154.9550  140.1698  161.3416 H   0  0  0  0  0  0  0  0  0  0  0  0
  155.2375  140.7733  159.7136 H   0  0  0  0  0  0  0  0  0  0  0  0
  153.9059  139.6636  160.0233 H   0  0  0  0  0  0  0  0  0  0  0  0
  153.8631  142.1215  162.8399 H   0  0  0  0  0  0  0  0  0  0  0  0
  150.6628  144.7706  159.7609 H   0  0  0  0  0  0  0  0  0  0  0  0
  152.6499  145.3481  158.4332 H   0  0  0  0  0  0  0  0  0  0  0  0
  151.2162  145.3230  157.4199 H   0  0  0  0  0  0  0  0  0  0  0  0
  152.3578  143.9832  157.3586 H   0  0  0  0  0  0  0  0  0  0  0  0
  150.1898  142.6702  157.6802 H   0  0  0  0  0  0  0  0  0  0  0  0
  149.8125  142.2418  159.3305 H   0  0  0  0  0  0  0  0  0  0  0  0
  148.7095  144.6798  158.0102 H   0  0  0  0  0  0  0  0  0  0  0  0
  146.7676  145.1248  158.2637 H   0  0  0  0  0  0  0  0  0  0  0  0
  144.6825  143.2900  158.8974 H   0  0  0  0  0  0  0  0  0  0  0  0
  144.9219  146.3137  159.0098 H   0  0  0  0  0  0  0  0  0  0  0  0
  143.9622  145.3542  157.8780 H   0  0  0  0  0  0  0  0  0  0  0  0
  142.8460  146.3680  160.1702 H   0  0  0  0  0  0  0  0  0  0  0  0
  142.3931  144.7617  159.5969 H   0  0  0  0  0  0  0  0  0  0  0  0
  145.8027  144.9488  161.2057 H   0  0  0  0  0  0  0  0  0  0  0  0
  146.2628  142.4749  161.3127 H   0  0  0  0  0  0  0  0  0  0  0  0
  144.5379  142.1478  161.1499 H   0  0  0  0  0  0  0  0  0  0  0  0
  145.1499  142.9699  162.5830 H   0  0  0  0  0  0  0  0  0  0  0  0
  1  2  1  0  0  0  0
  1 20  1  0  0  0  0
  1 21  1  0  0  0  0
  1 22  1  0  0  0  0
  2 19  1  0  0  0  0
  2  3  2  0  0  0  0
  3  4  1  0  0  0  0
  3 23  1  0  0  0  0
  4  5  1  0  0  0  0
  5  6  1  0  0  0  0
  5 19  2  0  0  0  0
  6  7  1  0  0  0  0
  6  8  1  0  0  0  0
  6 24  1  0  0  0  0
  7 25  1  0  0  0  0
  7 26  1  0  0  0  0
  7 27  1  0  0  0  0
  8  9  1  0  0  0  0
  8 28  1  0  0  0  0
  8 29  1  0  0  0  0
  9 10  1  0  0  0  0
  9 30  1  0  0  0  0
 10 11  2  0  0  0  0
 10 12  1  0  0  0  0
 12 13  1  0  0  0  0
 12 31  1  0  0  0  0
 13 17  1  0  0  0  0
 13 14  1  0  0  0  0
 13 32  1  0  0  0  0
 14 15  1  0  0  0  0
 14 33  1  0  0  0  0
 14 34  1  0  0  0  0
 15 16  1  0  0  0  0
 15 35  1  0  0  0  0
 15 36  1  0  0  0  0
 16 17  1  0  0  0  0
 17 18  1  0  0  0  0
 17 37  1  0  0  0  0
 18 38  1  0  0  0  0
 18 39  1  0  0  0  0
 18 40  1  0  0  0  0
M  END
> <s_m_source_file>
AV-unprocessed.smi

> <i_m_source_file_index>
2340

> <i_lp_mmshare_version>
43012

> <i_f3d_flags>
0

> <s_epik_input>
W0NIM11jMVtjSF1zYyhuMSlbQ0BIXShbQ0gzXSlbQ0gyXVtOSF1DKD1PKVtOSF1bQ0BASF0yW0NIMl1bQ0gyXU9bQ0BIXTJbQ0gzXQ==

> <s_epik_cmdline>
J2VwaWtfcHl0aG9uJywgJy1waCcsICc3LjAnLCAnLXRuJywgJzgnLCAnLW1hJywgJzIwMCcsICctbWV0YWxfYmluZGluZycsICctaW1hZScsICc8aW5maWxlLm1hZT4nLCAnLW9tYWUnLCAnPG91dGZpbGUubWFlPic=

> <r_epik_Ionization_Penalty>
0.00156622

> <r_epik_Ionization_Penalty_Charging>
0

> <r_epik_Ionization_Penalty_Neutral>
0.00156622

> <r_epik_State_Penalty>
0.00101902

> <r_epik_Charging_Adjusted_Penalty>
0.00101902

> <i_epik_Tot_Q>
0

> <i_epik_Tot_abs_Q>
0

> <r_epik_Metal_State_Penalty>
-0

> <b_epik_Metal_Only>
0

> <s_lp_Force_Field>
OPLS_2005

> <r_lp_Energy>
4.85076

> <b_lp_Chiralities_Consistent>
1

> <s_lp_Variant>
AV-unprocessed.smi:2340-2

> <Gold.Version>
5.8.1

> <Gold.Id.Protein>
6NUR|6NUR_protein|mol2

> <Gold.PLP.Fitness>
45.3217

> <Gold.PLP.PLP>
-36.6932

> <Gold.PLP.part.hbond>
-5.0000

> <Gold.PLP.part.metal>
0.0000

> <Gold.PLP.part.buried>
-2.4824

> <Gold.PLP.part.nonpolar>
-30.9684

> <Gold.PLP.part.repulsive>
1.7312

> <Gold.PLP.ligand.clash>
0.0000

> <Gold.PLP.ligand.torsion>
0.5087

> <Gold.PLP.Chemscore.Hbond>
3.1712

> <Gold.PLP.Chemscore.CHOScore>
0.0000

> <Gold.PLP.Chemscore.Metal>
0.0000

> <Gold.Chemscore.Hbonds>
donor molecule, donor type, donor heavy atom, donor atom, acceptor molecule, acceptor atom, score
      L1  H     9    30       P1  8029  0.95
      L1  H    12    31       P1  8029  0.99
      P1  H  6933  6944       L1    11  0.53
      P1  H  6934  6946       L1    11  0.64

> <Gold.PLP.Chemscore.Internal.Correction>
0.1321

> <Gold.Rescore>
     Score         DG    S(hbond)    S(metal)    S(lipo)     H(rot)  DE(clash)    DE(int)     intcor
     19.92     -22.23       2.47        0.00     106.02       1.53       1.56       0.74       ----

> <Gold.Chemscore.Fitness>
19.9216

> <Gold.Chemscore.DG>
-22.2262

> <Gold.Chemscore.ZeroCoef>
-5.4800

> <Gold.Chemscore.Hbond>
2.4747

> <Gold.Chemscore.Metal>
0.0000

> <Gold.Chemscore.Lipo>
106.0183

> <Gold.Chemscore.Internal_Hbond>
0.0000

> <Gold.Chemscore.DEClash>
1.5607

> <Gold.Chemscore.DEInternal>
0.7439

> <Gold.Chemscore.Rot>
1.5325

> <Gold.Chemscore.Internal.Correction>
   9.000000E+99

> <Gold.Chemscore.Hbonds>
donor molecule, donor type, donor heavy atom, donor atom, acceptor molecule, acceptor atom, score
      L1  H     9    30       P1  8029  0.20
      L1  H    12    31       P1  8029  0.93
      P1  H  6933  6944       L1    11  0.43
      P1  H  6934  6946       L1    11  0.64

> <Gold.Chemscore.Hbond.Weighted>
-8.2654

> <Gold.Chemscore.Metal.Weighted>
-0.0000

> <Gold.Chemscore.Lipo.Weighted>
-12.4041

> <Gold.Chemscore.Internal_Hbond.Weighted>
0.0000

> <Gold.Chemscore.DEClash.Weighted>
1.5607

> <Gold.Chemscore.DEInternal.Weighted>
0.7439

> <Gold.Chemscore.Rot.Weighted>
3.9233

> <Gold.Chemscore.Internal.Correction.Weighted>
   9.000000E+99

> <Gold.Protein.RotatedTorsions>
[ 6907 6896 6895 6894 ] final   12.48 input  -60.11 | X-H torsion
[ 7974 7965 7964 7962 ] final -111.45 input  175.53 | X-H torsion
[ 8008 7997 7996 7995 ] final  119.99 input   59.86 | X-H torsion
[ 10167 10162 10161 10158 ] final   33.91 input  -65.29 | X-H torsion
[ 10718 10713 10712 10709 ] final  174.26 input   66.30 | X-H torsion
[ 10763 10752 10751 10750 ] final -174.33 input  -60.55 | X-H torsion
[ 11005 11000 10999 10996 ] final  -90.91 input  -57.11 | X-H torsion

> <Gold.Protein.ActiveResidues>
 VAL166  LYS551  ARG553  GLY616  TRP617  ASP618  TYR619  PRO620  LYS621  CYS622 
 ASP623  PHE694  ASN695  SER759  ASP760  ASP761  ALA762  ILE779  LEU786  VAL792 
 PHE793  MET794  SER795  GLU796  ALA797  LYS798  CYS799  TRP800  GLU811  SER814 

> <Gold.Protein.RotatedAtoms>
  151.7710  135.0786  160.0359 H   0  0  0  0  0  0  0  0  0  0  0  0  # atno 6907 bound_to 6896
  152.3288  133.5931  159.5804 H   0  0  0  0  0  0  0  0  0  0  0  0  # atno 6908 bound_to 6896
  150.7411  133.9815  159.3619 H   0  0  0  0  0  0  0  0  0  0  0  0  # atno 6909 bound_to 6896
  145.1560  140.8854  143.3619 H   0  0  0  0  0  0  0  0  0  0  0  0  # atno 7974 bound_to 7965
  156.2622  140.2841  156.1078 H   0  0  0  0  0  0  0  0  0  0  0  0  # atno 8008 bound_to 7997
  155.1290  140.0393  157.2787 H   0  0  0  0  0  0  0  0  0  0  0  0  # atno 8009 bound_to 7997
  154.6614  140.2567  155.7111 H   0  0  0  0  0  0  0  0  0  0  0  0  # atno 8010 bound_to 7997
  140.4364  144.1251  150.6167 H   0  0  0  0  0  0  0  0  0  0  0  0  # atno 10167 bound_to 10162
  156.9521  131.0034  151.2946 H   0  0  0  0  0  0  0  0  0  0  0  0  # atno 10718 bound_to 10713
  154.5975  135.2851  155.0571 H   0  0  0  0  0  0  0  0  0  0  0  0  # atno 10763 bound_to 10752
  154.1848  135.6450  153.5048 H   0  0  0  0  0  0  0  0  0  0  0  0  # atno 10764 bound_to 10752
  153.0144  135.5432  154.6682 H   0  0  0  0  0  0  0  0  0  0  0  0  # atno 10765 bound_to 10752
  141.1556  133.7722  156.9805 H   0  0  0  0  0  0  0  0  0  0  0  0  # atno 11005 bound_to 11000
  145.0381  139.3283  143.5990 LP  0  0  0  0  0  0  0  0  0  0  0  0  # atno 17320 bound_to 7965
  146.3488  139.9744  142.8702 LP  0  0  0  0  0  0  0  0  0  0  0  0  # atno 17321 bound_to 7965
  140.4369  143.2543  151.9523 LP  0  0  0  0  0  0  0  0  0  0  0  0  # atno 17342 bound_to 10162
  139.4787  144.5691  151.8117 LP  0  0  0  0  0  0  0  0  0  0  0  0  # atno 17343 bound_to 10162
  157.5714  130.8313  149.8397 LP  0  0  0  0  0  0  0  0  0  0  0  0  # atno 17370 bound_to 10713
  156.0358  130.3752  150.1564 LP  0  0  0  0  0  0  0  0  0  0  0  0  # atno 17371 bound_to 10713
  140.1069  134.9501  157.2008 LP  0  0  0  0  0  0  0  0  0  0  0  0  # atno 17394 bound_to 11000
  140.3244  134.2880  155.7240 LP  0  0  0  0  0  0  0  0  0  0  0  0  # atno 17395 bound_to 11000

$$$$
