#       Name:                AV-unprocessed.smi:2865
#       Creating user name   scv26
#       Creation time:       Fri Mar 27 15:47:58 2020


#       File generated by GOLD software.
#

@<TRIPOS>MOLECULE
AV-unprocessed.smi:2865
    44    47     1
SMALL
NO_CHARGES


@<TRIPOS>ATOM
      1 ****        -0.6169   2.4333  -0.7800 O.2            1 S1                 0.0000
      2 ****        -0.9364   1.2486  -0.7170 C.2            1 S1                 0.0000
      3 ****        -0.0705   0.2242  -0.5931 N.am           1 S1                 0.0000
      4 ****         1.3496   0.2548  -0.5847 C.ar           1 S1                 0.0000
      5 ****         2.0512  -0.8922  -0.1576 C.ar           1 S1                 0.0000
      6 ****         3.4003  -0.9434  -0.1441 N.ar           1 S1                 0.0000
      7 ****         4.0490   0.1507  -0.5521 C.ar           1 S1                 0.0000
      8 ****         5.5442   0.0753  -0.5769 C.3            1 S1                 0.0000
      9 ****         6.3228  -0.2832   0.6725 C.3            1 S1                 0.0000
     10 ****         6.3869   1.1173   0.1298 C.3            1 S1                 0.0000
     11 ****         3.4976   1.2831  -0.9968 N.ar           1 S1                 0.0000
     12 ****         2.1483   1.3438  -1.0132 C.ar           1 S1                 0.0000
     13 ****        -2.2278   0.8754  -0.7446 N.am           1 S1                 0.0000
     14 ****        -3.4101   1.7314  -0.8689 C.3            1 S1                 0.0000
     15 ****        -4.7019   0.9657  -0.5681 C.3            1 S1                 0.0000
     16 ****        -5.4972   1.1559  -1.8667 C.3            1 S1                 0.0000
     17 ****        -4.9209   0.3221  -3.0195 C.3            1 S1                 0.0000
     18 ****        -3.6487   1.0966  -3.3595 C.3            1 S1                 0.0000
     19 ****        -3.6764   2.2195  -2.3093 C.3            1 S1                 0.0000
     20 ****        -5.0723   2.4548  -2.2423 O.3            1 S1                 0.0000
     21 ****        -0.4831  -0.6892  -0.4723 H              1 S1                 0.0000
     22 ****         1.5282  -1.7776   0.1733 H              1 S1                 0.0000
     23 ****         5.9052  -0.3085  -1.5292 H              1 S1                 0.0000
     24 ****         5.7635  -0.4374   1.5932 H              1 S1                 0.0000
     25 ****         7.2034  -0.9108   0.5515 H              1 S1                 0.0000
     26 ****         7.3105   1.4265  -0.3550 H              1 S1                 0.0000
     27 ****         5.8708   1.8952   0.6894 H              1 S1                 0.0000
     28 ****         1.7315   2.2629  -1.3935 H              1 S1                 0.0000
     29 ****        -2.4111  -0.1143  -0.6645 H              1 S1                 0.0000
     30 ****        -3.3384   2.5826  -0.1892 H              1 S1                 0.0000
     31 ****        -4.5459  -0.0885  -0.3342 H              1 S1                 0.0000
     32 ****        -5.2244   1.4222   0.2734 H              1 S1                 0.0000
     33 ****        -6.5755   1.0536  -1.7425 H              1 S1                 0.0000
     34 ****        -4.7229  -0.7094  -2.7257 H              1 S1                 0.0000
     35 ****        -5.6011   0.3114  -3.8717 H              1 S1                 0.0000
     36 ****        -2.7489   0.4827  -3.3170 H              1 S1                 0.0000
     37 ****        -3.7197   1.5149  -4.3643 H              1 S1                 0.0000
     38 ****        -3.0942   3.0971  -2.5915 H              1 S1                 0.0000
     39 ****         0.3477   2.6938  -0.7395 LP             1 S1                 0.0000
     40 ****        -1.3214   3.1370  -0.8718 LP             1 S1                 0.0000
     41 ****         3.8905  -1.7614   0.1570 LP             1 S1                 0.0000
     42 ****         4.0588   2.0517  -1.3039 LP             1 S1                 0.0000
     43 ****        -5.3046   3.1398  -1.5517 LP             1 S1                 0.0000
     44 ****        -5.4489   2.7317  -3.1263 LP             1 S1                 0.0000
@<TRIPOS>BOND
    1    1    2 2     
    2    2    3 am    
    3    2   13 am    
    4    3    4 1     
    5    3   21 1     
    6    4   12 ar    
    7    4    5 ar    
    8    5    6 ar    
    9    5   22 1     
   10    6    7 ar    
   11    7    8 1     
   12    7   11 ar    
   13    8   10 1     
   14    8    9 1     
   15    8   23 1     
   16    9   10 1     
   17    9   24 1     
   18    9   25 1     
   19   10   26 1     
   20   10   27 1     
   21   11   12 ar    
   22   12   28 1     
   23   13   14 1     
   24   13   29 1     
   25   14   19 1     
   26   14   15 1     
   27   14   30 1     
   28   15   16 1     
   29   15   31 1     
   30   15   32 1     
   31   16   20 1     
   32   16   17 1     
   33   16   33 1     
   34   17   18 1     
   35   17   34 1     
   36   17   35 1     
   37   18   19 1     
   38   18   36 1     
   39   18   37 1     
   40   19   20 1     
   41   19   38 1     
   42    1   39 1     
   43    1   40 1     
   44    6   41 1     
   45   11   42 1     
   46   20   43 1     
   47   20   44 1     
@<TRIPOS>SUBSTRUCTURE
      1 S1             1
@<TRIPOS>SET
LONE_PAIRS      STATIC     ATOMS    <user>   **** ""
6 39 40 41 42 43 44
DONOR_HYDROGENS      STATIC     ATOMS    <user>   **** ""
2 21 29
ATOM$BLUE        STATIC     ATOMS    COLORGROUP SYSTEM
6 39 40 41 42 43 44
ATOM$RED        STATIC     ATOMS    COLORGROUP SYSTEM
2 21 29
