AV-unprocessed.smi:2977|AV-procd|sdf|11367|dock8
  -GOLD-   2272016283D 1   1.00000     0.00000
 Structure written by MMmdl.
 38 39  0  0  0  0  0  0  0  0  1 V2000
  150.0333  140.3894  154.2701 O   0  0  0  0  0  0  0  0  0  0  0  0
  149.3950  141.3577  154.6831 C   0  0  0  0  0  0  0  0  0  0  0  0
  148.0139  141.6760  154.0977 C   0  0  0  0  0  0  0  0  0  0  0  0
  147.1332  140.5002  154.1021 N   0  0  0  0  0  0  0  0  0  0  0  0
  147.4347  139.5589  153.1333 N   0  0  0  0  0  0  0  0  0  0  0  0
  146.7455  138.4722  153.0699 C   0  0  0  0  0  0  0  0  0  0  0  0
  145.6529  138.1981  153.9778 C   0  0  0  0  0  0  0  0  0  0  0  0
  144.7655  136.7211  153.8455 Cl  0  0  0  0  0  0  0  0  0  0  0  0
  145.3579  139.1336  154.9150 C   0  0  0  0  0  0  0  0  0  0  0  0
  144.0613  138.8808  156.0326 Cl  0  0  0  0  0  0  0  0  0  0  0  0
  146.1204  140.3854  155.0151 C   0  0  0  0  0  0  0  0  0  0  0  0
  145.8785  141.2632  155.8442 O   0  0  0  0  0  0  0  0  0  0  0  0
  149.8482  142.1909  155.6316 N   0  0  0  0  0  0  0  0  0  0  0  0
  151.1298  142.0716  156.3212 C   0  0  0  0  0  0  0  0  0  0  0  0
  150.9976  141.6582  157.8028 C   0  0  0  0  0  0  0  0  0  0  0  0
  151.2600  142.7835  158.7934 C   0  0  0  0  0  0  0  0  0  0  0  0
  150.6023  143.9579  158.7287 C   0  0  0  0  0  0  0  0  0  0  0  0
  150.8312  145.1175  159.6816 C   0  0  0  0  0  0  0  0  0  0  0  0
  152.1230  144.9563  160.5000 C   0  0  0  0  0  0  0  0  0  0  0  0
  152.2738  143.5208  161.0185 C   0  0  0  0  0  0  0  0  0  0  0  0
  152.3109  142.5056  159.8617 C   0  0  0  0  0  0  0  0  0  0  0  0
  147.5505  142.5039  154.6382 H   0  0  0  0  0  0  0  0  0  0  0  0
  148.1544  142.0387  153.0780 H   0  0  0  0  0  0  0  0  0  0  0  0
  146.9491  137.7001  152.3279 H   0  0  0  0  0  0  0  0  0  0  0  0
  149.2547  142.9602  155.9068 H   0  0  0  0  0  0  0  0  0  0  0  0
  151.7691  141.3654  155.7898 H   0  0  0  0  0  0  0  0  0  0  0  0
  151.6266  143.0398  156.2568 H   0  0  0  0  0  0  0  0  0  0  0  0
  149.9978  141.2584  157.9762 H   0  0  0  0  0  0  0  0  0  0  0  0
  151.6846  140.8389  158.0160 H   0  0  0  0  0  0  0  0  0  0  0  0
  149.8529  144.1130  157.9664 H   0  0  0  0  0  0  0  0  0  0  0  0
  150.8642  146.0475  159.1145 H   0  0  0  0  0  0  0  0  0  0  0  0
  149.9693  145.1823  160.3461 H   0  0  0  0  0  0  0  0  0  0  0  0
  152.9840  145.2029  159.8776 H   0  0  0  0  0  0  0  0  0  0  0  0
  152.1295  145.6641  161.3291 H   0  0  0  0  0  0  0  0  0  0  0  0
  153.1763  143.4285  161.6231 H   0  0  0  0  0  0  0  0  0  0  0  0
  151.4361  143.2898  161.6780 H   0  0  0  0  0  0  0  0  0  0  0  0
  152.1724  141.4987  160.2566 H   0  0  0  0  0  0  0  0  0  0  0  0
  153.2914  142.5262  159.3850 H   0  0  0  0  0  0  0  0  0  0  0  0
  1  2  2  0  0  0  0
  2  3  1  0  0  0  0
  2 13  1  0  0  0  0
  3  4  1  0  0  0  0
  3 22  1  0  0  0  0
  3 23  1  0  0  0  0
  4 11  1  0  0  0  0
  4  5  1  0  0  0  0
  5  6  2  0  0  0  0
  6  7  1  0  0  0  0
  6 24  1  0  0  0  0
  7  8  1  0  0  0  0
  7  9  2  0  0  0  0
  9 10  1  0  0  0  0
  9 11  1  0  0  0  0
 11 12  2  0  0  0  0
 13 14  1  0  0  0  0
 13 25  1  0  0  0  0
 14 15  1  0  0  0  0
 14 26  1  0  0  0  0
 14 27  1  0  0  0  0
 15 16  1  0  0  0  0
 15 28  1  0  0  0  0
 15 29  1  0  0  0  0
 16 21  1  0  0  0  0
 16 17  2  0  0  0  0
 17 18  1  0  0  0  0
 17 30  1  0  0  0  0
 18 19  1  0  0  0  0
 18 31  1  0  0  0  0
 18 32  1  0  0  0  0
 19 20  1  0  0  0  0
 19 33  1  0  0  0  0
 19 34  1  0  0  0  0
 20 21  1  0  0  0  0
 20 35  1  0  0  0  0
 20 36  1  0  0  0  0
 21 37  1  0  0  0  0
 21 38  1  0  0  0  0
M  END
> <s_m_source_file>
AV-unprocessed.smi

> <i_m_source_file_index>
2977

> <i_lp_mmshare_version>
43012

> <i_f3d_flags>
0

> <s_epik_input>
Tz1jMWMoQ2wpYyhDbClbY0hdbm4xW0NIMl1DKD1PKVtOSF1bQ0gyXVtDSDJdQzI9W0NIXVtDSDJdW0NIMl1bQ0gyXVtDSDJdMg==

> <s_epik_cmdline>
J2VwaWtfcHl0aG9uJywgJy1waCcsICc3LjAnLCAnLXRuJywgJzgnLCAnLW1hJywgJzIwMCcsICctbWV0YWxfYmluZGluZycsICctaW1hZScsICc8aW5maWxlLm1hZT4nLCAnLW9tYWUnLCAnPG91dGZpbGUubWFlPic=

> <r_lp_tautomer_probability>
1

> <r_epik_Ionization_Penalty>
1.81325e-08

> <r_epik_Ionization_Penalty_Charging>
2.89782e-11

> <r_epik_Ionization_Penalty_Neutral>
1.81035e-08

> <r_epik_State_Penalty>
-0

> <r_epik_Charging_Adjusted_Penalty>
2.89782e-11

> <i_epik_Tot_Q>
0

> <i_epik_Tot_abs_Q>
0

> <r_epik_Metal_State_Penalty>
-0

> <b_epik_Metal_Only>
0

> <s_lp_Force_Field>
OPLS_2005

> <r_lp_Energy>
20.3958

> <b_lp_Chiralities_Consistent>
1

> <s_lp_Variant>
AV-unprocessed.smi:2977-1

> <Gold.Version>
5.8.1

> <Gold.Id.Protein>
6NUR|6NUR_protein|mol2

> <Gold.PLP.Fitness>
44.8641

> <Gold.PLP.PLP>
-37.8211

> <Gold.PLP.part.hbond>
-2.0000

> <Gold.PLP.part.metal>
0.0000

> <Gold.PLP.part.buried>
-7.8373

> <Gold.PLP.part.nonpolar>
-28.8536

> <Gold.PLP.part.repulsive>
1.1053

> <Gold.PLP.ligand.clash>
0.0000

> <Gold.PLP.ligand.torsion>
0.6870

> <Gold.PLP.Chemscore.Hbond>
1.7920

> <Gold.PLP.Chemscore.CHOScore>
1.0000

> <Gold.PLP.Chemscore.Metal>
0.0000

> <Gold.Chemscore.Hbonds>
donor molecule, donor type, donor heavy atom, donor atom, acceptor molecule, acceptor atom, score
      L1  H    13    25       P1  8028  0.91
      P1  H  7989  7998       L1     1  0.86
      L1  C     6    24       P1  7948  1.00

> <Gold.PLP.Chemscore.Internal.Correction>
0.0409

> <Gold.Rescore>
     Score         DG    S(hbond)    S(metal)    S(lipo)     H(rot)  DE(clash)    DE(int)     intcor
     14.90     -16.92       1.58        0.00      94.05       1.89       0.04       1.98       ----

> <Gold.Chemscore.Fitness>
14.9042

> <Gold.Chemscore.DG>
-16.9247

> <Gold.Chemscore.ZeroCoef>
-5.4800

> <Gold.Chemscore.Hbond>
1.5818

> <Gold.Chemscore.Metal>
0.0000

> <Gold.Chemscore.Lipo>
94.0503

> <Gold.Chemscore.Internal_Hbond>
0.0000

> <Gold.Chemscore.DEClash>
0.0432

> <Gold.Chemscore.DEInternal>
1.9772

> <Gold.Chemscore.Rot>
1.8916

> <Gold.Chemscore.Internal.Correction>
   9.000000E+99

> <Gold.Chemscore.Hbonds>
donor molecule, donor type, donor heavy atom, donor atom, acceptor molecule, acceptor atom, score
      L1  H    13    25       P1  8028  0.88
      P1  H  7989  7998       L1     1  0.70

> <Gold.Chemscore.Hbond.Weighted>
-5.2832

> <Gold.Chemscore.Metal.Weighted>
-0.0000

> <Gold.Chemscore.Lipo.Weighted>
-11.0039

> <Gold.Chemscore.Internal_Hbond.Weighted>
0.0000

> <Gold.Chemscore.DEClash.Weighted>
0.0432

> <Gold.Chemscore.DEInternal.Weighted>
1.9772

> <Gold.Chemscore.Rot.Weighted>
4.8425

> <Gold.Chemscore.Internal.Correction.Weighted>
   9.000000E+99

> <Gold.Protein.RotatedTorsions>
[ 6907 6896 6895 6894 ] final  106.17 input  -60.11 | X-H torsion
[ 7974 7965 7964 7962 ] final  -19.68 input  175.53 | X-H torsion
[ 8008 7997 7996 7995 ] final   53.06 input   59.86 | X-H torsion
[ 10167 10162 10161 10158 ] final  -80.07 input  -65.29 | X-H torsion
[ 10718 10713 10712 10709 ] final   54.94 input   66.30 | X-H torsion
[ 10763 10752 10751 10750 ] final   67.81 input  -60.55 | X-H torsion
[ 11005 11000 10999 10996 ] final   66.54 input  -57.11 | X-H torsion

> <Gold.Protein.ActiveResidues>
 VAL166  LYS551  ARG553  GLY616  TRP617  ASP618  TYR619  PRO620  LYS621  CYS622 
 ASP623  PHE694  ASN695  SER759  ASP760  ASP761  ALA762  ILE779  LEU786  VAL792 
 PHE793  MET794  SER795  GLU796  ALA797  LYS798  CYS799  TRP800  GLU811  SER814 

> <Gold.Protein.RotatedAtoms>
  152.5204  133.9420  159.7630 H   0  0  0  0  0  0  0  0  0  0  0  0  # atno 6907 bound_to 6896
  150.9748  133.6298  159.2739 H   0  0  0  0  0  0  0  0  0  0  0  0  # atno 6908 bound_to 6896
  151.3496  135.0887  159.9451 H   0  0  0  0  0  0  0  0  0  0  0  0  # atno 6909 bound_to 6896
  146.1828  140.4096  142.8488 H   0  0  0  0  0  0  0  0  0  0  0  0  # atno 7974 bound_to 7965
  155.4621  140.3462  155.4314 H   0  0  0  0  0  0  0  0  0  0  0  0  # atno 8008 bound_to 7997
  156.1154  140.1472  156.9309 H   0  0  0  0  0  0  0  0  0  0  0  0  # atno 8009 bound_to 7997
  154.4785  140.0877  156.7300 H   0  0  0  0  0  0  0  0  0  0  0  0  # atno 8010 bound_to 7997
  140.4536  143.2475  151.8452 H   0  0  0  0  0  0  0  0  0  0  0  0  # atno 10167 bound_to 10162
  157.5302  130.8625  149.8676 H   0  0  0  0  0  0  0  0  0  0  0  0  # atno 10718 bound_to 10713
  153.0204  135.5270  154.7036 H   0  0  0  0  0  0  0  0  0  0  0  0  # atno 10763 bound_to 10752
  154.6138  135.2881  155.0405 H   0  0  0  0  0  0  0  0  0  0  0  0  # atno 10764 bound_to 10752
  154.1416  135.6577  153.4996 H   0  0  0  0  0  0  0  0  0  0  0  0  # atno 10765 bound_to 10752
  139.9825  134.6720  156.0236 H   0  0  0  0  0  0  0  0  0  0  0  0  # atno 11005 bound_to 11000
  144.8345  140.6760  143.6269 LP  0  0  0  0  0  0  0  0  0  0  0  0  # atno 17320 bound_to 7965
  145.4025  139.1595  143.4170 LP  0  0  0  0  0  0  0  0  0  0  0  0  # atno 17321 bound_to 7965
  139.4799  144.5091  151.8957 LP  0  0  0  0  0  0  0  0  0  0  0  0  # atno 17342 bound_to 10162
  140.4177  144.2284  150.5887 LP  0  0  0  0  0  0  0  0  0  0  0  0  # atno 17343 bound_to 10162
  156.0416  130.3737  150.1420 LP  0  0  0  0  0  0  0  0  0  0  0  0  # atno 17370 bound_to 10713
  156.9605  130.9803  151.3480 LP  0  0  0  0  0  0  0  0  0  0  0  0  # atno 17371 bound_to 10713
  141.1495  133.6550  156.3970 LP  0  0  0  0  0  0  0  0  0  0  0  0  # atno 17394 bound_to 11000
  140.5067  134.6434  157.5269 LP  0  0  0  0  0  0  0  0  0  0  0  0  # atno 17395 bound_to 11000

$$$$
