AV-unprocessed.smi:699|AV-procd|sdf|3402|dock3
  -GOLD-   22720 0383D 1   1.00000     0.00000
 Structure written by MMmdl.
 34 35  0  0  0  0  0  0  0  0  1 V2000
  148.5827  138.8047  153.1277 N   0  0  0  0  0  0  0  0  0  0  0  0
  149.1518  139.7808  153.8393 C   0  0  0  0  0  0  0  0  0  0  0  0
  150.2601  139.6507  154.3559 O   0  0  0  0  0  0  0  0  0  0  0  0
  148.3591  141.0880  153.9898 C   0  0  1  0  0  0  0  0  0  0  0  0
  147.0911  141.1281  153.1250 C   0  0  0  0  0  0  0  0  0  0  0  0
  146.1911  142.1399  153.8279 C   0  0  0  0  0  0  0  0  0  0  0  0
  146.4342  141.8986  155.3176 C   0  0  0  0  0  0  0  0  0  0  0  0
  147.8668  141.3392  155.4363 C   0  0  2  0  0  0  0  0  0  0  0  0
  148.7606  142.2598  156.1370 N   0  0  0  0  0  0  0  0  0  0  0  0
  149.4807  141.9575  157.2269 C   0  0  0  0  0  0  0  0  0  0  0  0
  149.4521  140.8542  157.7713 O   0  0  0  0  0  0  0  0  0  0  0  0
  150.2047  143.0142  157.6361 N   0  0  0  0  0  0  0  0  0  0  0  0
  151.0963  143.1195  158.7393 C   0  0  0  0  0  0  0  0  0  0  0  0
  151.2763  144.3961  159.3115 C   0  0  0  0  0  0  0  0  0  0  0  0
  152.1626  144.5366  160.3979 C   0  0  0  0  0  0  0  0  0  0  0  0
  152.8618  143.5084  160.9219 N   0  0  0  0  0  0  0  0  0  0  0  0
  152.6985  142.2893  160.3662 C   0  0  0  0  0  0  0  0  0  0  0  0
  151.8379  142.0401  159.2782 C   0  0  0  0  0  0  0  0  0  0  0  0
  149.0668  137.9267  153.0083 H   0  0  0  0  0  0  0  0  0  0  0  0
  147.6712  138.9432  152.7166 H   0  0  0  0  0  0  0  0  0  0  0  0
  148.9874  141.9246  153.6760 H   0  0  0  0  0  0  0  0  0  0  0  0
  147.3014  141.4176  152.0951 H   0  0  0  0  0  0  0  0  0  0  0  0
  146.5970  140.1554  153.1018 H   0  0  0  0  0  0  0  0  0  0  0  0
  146.5032  143.1517  153.5651 H   0  0  0  0  0  0  0  0  0  0  0  0
  145.1418  142.0332  153.5512 H   0  0  0  0  0  0  0  0  0  0  0  0
  146.2713  142.8044  155.9031 H   0  0  0  0  0  0  0  0  0  0  0  0
  145.7275  141.1523  155.6834 H   0  0  0  0  0  0  0  0  0  0  0  0
  147.8263  140.4020  155.9959 H   0  0  0  0  0  0  0  0  0  0  0  0
  148.8377  143.1930  155.7597 H   0  0  0  0  0  0  0  0  0  0  0  0
  150.0676  143.8678  157.1153 H   0  0  0  0  0  0  0  0  0  0  0  0
  150.7433  145.2555  158.9312 H   0  0  0  0  0  0  0  0  0  0  0  0
  152.3147  145.5023  160.8567 H   0  0  0  0  0  0  0  0  0  0  0  0
  153.2767  141.4862  160.7987 H   0  0  0  0  0  0  0  0  0  0  0  0
  151.7770  141.0390  158.8815 H   0  0  0  0  0  0  0  0  0  0  0  0
  1  2  1  0  0  0  0
  1 19  1  0  0  0  0
  1 20  1  0  0  0  0
  2  3  2  0  0  0  0
  2  4  1  0  0  0  0
  4  8  1  0  0  0  0
  4  5  1  0  0  0  0
  4 21  1  0  0  0  0
  5  6  1  0  0  0  0
  5 22  1  0  0  0  0
  5 23  1  0  0  0  0
  6  7  1  0  0  0  0
  6 24  1  0  0  0  0
  6 25  1  0  0  0  0
  7  8  1  0  0  0  0
  7 26  1  0  0  0  0
  7 27  1  0  0  0  0
  8  9  1  0  0  0  0
  8 28  1  0  0  0  0
  9 10  1  0  0  0  0
  9 29  1  0  0  0  0
 10 11  2  0  0  0  0
 10 12  1  0  0  0  0
 12 13  1  0  0  0  0
 12 30  1  0  0  0  0
 13 18  1  0  0  0  0
 13 14  2  0  0  0  0
 14 15  1  0  0  0  0
 14 31  1  0  0  0  0
 15 16  2  0  0  0  0
 15 32  1  0  0  0  0
 16 17  1  0  0  0  0
 17 18  2  0  0  0  0
 17 33  1  0  0  0  0
 18 34  1  0  0  0  0
M  END
> <s_m_source_file>
AV-unprocessed.smi

> <i_m_source_file_index>
699

> <i_lp_mmshare_version>
43012

> <i_f3d_flags>
0

> <s_epik_input>
W05IMl1DKD1PKVtDQEBIXTFbQ0gyXVtDSDJdW0NIMl1bQ0BIXTFbTkhdQyg9TylbTkhdYzJbY0hdW2NIXW5bY0hdW2NIXTI=

> <s_epik_cmdline>
J2VwaWtfcHl0aG9uJywgJy1waCcsICc3LjAnLCAnLXRuJywgJzgnLCAnLW1hJywgJzIwMCcsICctbWV0YWxfYmluZGluZycsICctaW1hZScsICc8aW5maWxlLm1hZT4nLCAnLW9tYWUnLCAnPG91dGZpbGUubWFlPic=

> <r_epik_Ionization_Penalty>
0.113907

> <r_epik_Ionization_Penalty_Charging>
0

> <r_epik_Ionization_Penalty_Neutral>
0.113907

> <r_epik_State_Penalty>
0.103543

> <r_epik_Charging_Adjusted_Penalty>
0.103543

> <i_epik_Tot_Q>
0

> <i_epik_Tot_abs_Q>
0

> <r_epik_Metal_State_Penalty>
0.0867106

> <b_epik_Metal_Only>
0

> <s_lp_Force_Field>
OPLS_2005

> <r_lp_Energy>
21.0397

> <b_lp_Chiralities_Consistent>
1

> <s_lp_Variant>
AV-unprocessed.smi:699-4

> <Gold.Version>
5.8.1

> <Gold.Id.Protein>
6NUR|6NUR_protein|mol2

> <Gold.PLP.Fitness>
44.1474

> <Gold.PLP.PLP>
-33.8049

> <Gold.PLP.part.hbond>
-4.8395

> <Gold.PLP.part.metal>
0.0000

> <Gold.PLP.part.buried>
-2.1989

> <Gold.PLP.part.nonpolar>
-27.6597

> <Gold.PLP.part.repulsive>
0.3911

> <Gold.PLP.ligand.clash>
0.0000

> <Gold.PLP.ligand.torsion>
0.3015

> <Gold.PLP.Chemscore.Hbond>
3.6476

> <Gold.PLP.Chemscore.CHOScore>
0.0000

> <Gold.PLP.Chemscore.Metal>
0.0000

> <Gold.Chemscore.Hbonds>
donor molecule, donor type, donor heavy atom, donor atom, acceptor molecule, acceptor atom, score
      L1  H     1    19       P1  7948  0.80
      L1  H     9    29       P1  8028  0.99
      L1  H    12    30       P1  8028  0.84
      P1  H  7989  7998       L1     3  1.00

> <Gold.PLP.Chemscore.Internal.Correction>
0.0028

> <Gold.Rescore>
     Score         DG    S(hbond)    S(metal)    S(lipo)     H(rot)  DE(clash)    DE(int)     intcor
     20.91     -22.93       3.51        0.00      81.49       1.49       1.50       0.52       ----

> <Gold.Chemscore.Fitness>
20.9055

> <Gold.Chemscore.DG>
-22.9281

> <Gold.Chemscore.ZeroCoef>
-5.4800

> <Gold.Chemscore.Hbond>
3.5108

> <Gold.Chemscore.Metal>
0.0000

> <Gold.Chemscore.Lipo>
81.4889

> <Gold.Chemscore.Internal_Hbond>
0.0000

> <Gold.Chemscore.DEClash>
1.5032

> <Gold.Chemscore.DEInternal>
0.5194

> <Gold.Chemscore.Rot>
1.4892

> <Gold.Chemscore.Internal.Correction>
   9.000000E+99

> <Gold.Chemscore.Hbonds>
donor molecule, donor type, donor heavy atom, donor atom, acceptor molecule, acceptor atom, score
      L1  H     1    19       P1  7948  0.75
      L1  H     9    29       P1  8028  0.92
      L1  H    12    30       P1  8028  0.74
      P1  H  7989  7998       L1     3  0.74

> <Gold.Chemscore.Hbond.Weighted>
-11.7261

> <Gold.Chemscore.Metal.Weighted>
-0.0000

> <Gold.Chemscore.Lipo.Weighted>
-9.5342

> <Gold.Chemscore.Internal_Hbond.Weighted>
0.0000

> <Gold.Chemscore.DEClash.Weighted>
1.5032

> <Gold.Chemscore.DEInternal.Weighted>
0.5194

> <Gold.Chemscore.Rot.Weighted>
3.8123

> <Gold.Chemscore.Internal.Correction.Weighted>
   9.000000E+99

> <Gold.Protein.RotatedTorsions>
[ 6907 6896 6895 6894 ] final    1.94 input  -60.11 | X-H torsion
[ 7974 7965 7964 7962 ] final -142.59 input  175.53 | X-H torsion
[ 8008 7997 7996 7995 ] final -161.42 input   59.86 | X-H torsion
[ 10167 10162 10161 10158 ] final   84.54 input  -65.29 | X-H torsion
[ 10718 10713 10712 10709 ] final  -39.10 input   66.30 | X-H torsion
[ 10763 10752 10751 10750 ] final   11.75 input  -60.55 | X-H torsion
[ 11005 11000 10999 10996 ] final -121.15 input  -57.11 | X-H torsion

> <Gold.Protein.ActiveResidues>
 VAL166  LYS551  ARG553  GLY616  TRP617  ASP618  TYR619  PRO620  LYS621  CYS622 
 ASP623  PHE694  ASN695  SER759  ASP760  ASP761  ALA762  ILE779  LEU786  VAL792 
 PHE793  MET794  SER795  GLU796  ALA797  LYS798  CYS799  TRP800  GLU811  SER814 

> <Gold.Protein.RotatedAtoms>
  151.6008  135.1047  160.0059 H   0  0  0  0  0  0  0  0  0  0  0  0  # atno 6907 bound_to 6896
  152.4259  133.7189  159.6533 H   0  0  0  0  0  0  0  0  0  0  0  0  # atno 6908 bound_to 6896
  150.8148  133.8285  159.3188 H   0  0  0  0  0  0  0  0  0  0  0  0  # atno 6909 bound_to 6896
  144.8432  140.5939  143.5439 H   0  0  0  0  0  0  0  0  0  0  0  0  # atno 7974 bound_to 7965
  155.7920  140.0879  157.2004 H   0  0  0  0  0  0  0  0  0  0  0  0  # atno 8008 bound_to 7997
  154.3985  140.1488  156.3232 H   0  0  0  0  0  0  0  0  0  0  0  0  # atno 8009 bound_to 7997
  155.8549  140.3433  155.5720 H   0  0  0  0  0  0  0  0  0  0  0  0  # atno 8010 bound_to 7997
  139.9070  144.6295  150.8577 H   0  0  0  0  0  0  0  0  0  0  0  0  # atno 10167 bound_to 10162
  156.2962  130.4234  149.8188 H   0  0  0  0  0  0  0  0  0  0  0  0  # atno 10718 bound_to 10713
  153.1894  135.6840  153.8372 H   0  0  0  0  0  0  0  0  0  0  0  0  # atno 10763 bound_to 10752
  153.7677  135.3200  155.3348 H   0  0  0  0  0  0  0  0  0  0  0  0  # atno 10764 bound_to 10752
  154.8108  135.4718  154.0609 H   0  0  0  0  0  0  0  0  0  0  0  0  # atno 10765 bound_to 10752
  141.0091  134.0291  157.3437 H   0  0  0  0  0  0  0  0  0  0  0  0  # atno 11005 bound_to 11000
  145.4651  139.1509  143.3845 LP  0  0  0  0  0  0  0  0  0  0  0  0  # atno 17320 bound_to 7965
  146.2721  140.4783  142.8810 LP  0  0  0  0  0  0  0  0  0  0  0  0  # atno 17321 bound_to 7965
  140.7694  143.3394  151.2240 LP  0  0  0  0  0  0  0  0  0  0  0  0  # atno 17342 bound_to 10162
  139.6976  143.9587  152.2890 LP  0  0  0  0  0  0  0  0  0  0  0  0  # atno 17343 bound_to 10162
  156.5583  130.8372  151.3321 LP  0  0  0  0  0  0  0  0  0  0  0  0  # atno 17370 bound_to 10713
  157.7356  130.9765  150.2090 LP  0  0  0  0  0  0  0  0  0  0  0  0  # atno 17371 bound_to 10713
  139.9080  135.0184  156.7569 LP  0  0  0  0  0  0  0  0  0  0  0  0  # atno 17394 bound_to 11000
  140.6763  133.9514  155.7885 LP  0  0  0  0  0  0  0  0  0  0  0  0  # atno 17395 bound_to 11000

$$$$
