AV-unprocessed.smi:1389|AV-procd|sdf|5653|dock1
  -GOLD-   22720 5273D 1   1.00000     0.00000
 Structure written by MMmdl.
 53 55  0  0  0  0  0  0  0  0  3 V2000
  151.4969  138.8414  155.4352 C   0  0  0  0  0  0  0  0  0  0  0  0
  150.1405  138.2985  154.9344 C   0  0  1  0  0  0  0  0  0  0  0  0
  149.8165  136.9565  155.6440 C   0  0  0  0  0  0  0  0  0  0  0  0
  149.0942  136.0033  154.8011 N   0  0  0  0  0  0  0  0  0  0  0  0
  148.8509  134.7228  155.1161 C   0  0  0  0  0  0  0  0  0  0  0  0
  149.1615  134.2163  156.1936 O   0  0  0  0  0  0  0  0  0  0  0  0
  148.2530  134.0720  154.1037 N   0  0  0  0  0  0  0  0  0  0  0  0
  147.9140  132.6900  154.0396 C   0  0  0  0  0  0  0  0  0  0  0  0
  148.5265  131.7452  154.9028 C   0  0  0  0  0  0  0  0  0  0  0  0
  148.1927  130.3814  154.8036 C   0  0  0  0  0  0  0  0  0  0  0  0
  147.2466  129.9813  153.8449 C   0  0  0  0  0  0  0  0  0  0  0  0
  146.6661  130.9059  153.0525 N   0  3  0  0  0  0  0  0  0  0  0  0
  146.9341  132.2346  153.1094 C   0  0  0  0  0  0  0  0  0  0  0  0
  146.2374  133.0862  152.2220 N   0  0  0  0  0  0  0  0  0  0  0  0
  146.3815  132.9259  150.7796 C   0  0  0  0  0  0  0  0  0  0  0  0
  145.2457  133.7467  150.1750 C   0  0  0  0  0  0  0  0  0  0  0  0
  144.1248  133.5522  151.1914 C   0  0  0  0  0  0  0  0  0  0  0  0
  144.8613  133.4607  152.5323 C   0  0  0  0  0  0  0  0  0  0  0  0
  149.0395  139.3096  155.0548 N   0  3  0  0  0  0  0  0  0  0  0  0
  148.8377  139.8148  156.4414 C   0  0  0  0  0  0  0  0  0  0  0  0
  147.6961  140.8434  156.5049 C   0  0  0  0  0  0  0  0  0  0  0  0
  147.9624  141.9131  155.6112 O   0  0  0  0  0  0  0  0  0  0  0  0
  148.0339  141.4596  154.2685 C   0  0  0  0  0  0  0  0  0  0  0  0
  149.1931  140.4599  154.1214 C   0  0  0  0  0  0  0  0  0  0  0  0
  152.2484  138.0519  155.4656 H   0  0  0  0  0  0  0  0  0  0  0  0
  151.4176  139.2585  156.4394 H   0  0  0  0  0  0  0  0  0  0  0  0
  151.8974  139.6133  154.7785 H   0  0  0  0  0  0  0  0  0  0  0  0
  150.2638  138.0758  153.8733 H   0  0  0  0  0  0  0  0  0  0  0  0
  150.7370  136.4734  155.9709 H   0  0  0  0  0  0  0  0  0  0  0  0
  149.2669  137.1415  156.5687 H   0  0  0  0  0  0  0  0  0  0  0  0
  148.8104  136.3298  153.8890 H   0  0  0  0  0  0  0  0  0  0  0  0
  148.1498  134.5872  153.2419 H   0  0  0  0  0  0  0  0  0  0  0  0
  149.2489  132.0483  155.6458 H   0  0  0  0  0  0  0  0  0  0  0  0
  148.6581  129.6536  155.4523 H   0  0  0  0  0  0  0  0  0  0  0  0
  146.9314  128.9588  153.6935 H   0  0  0  0  0  0  0  0  0  0  0  0
  147.3573  133.2695  150.4350 H   0  0  0  0  0  0  0  0  0  0  0  0
  146.2654  131.8785  150.4980 H   0  0  0  0  0  0  0  0  0  0  0  0
  145.5279  134.7994  150.1285 H   0  0  0  0  0  0  0  0  0  0  0  0
  144.9742  133.4221  149.1702 H   0  0  0  0  0  0  0  0  0  0  0  0
  143.3843  134.3522  151.1677 H   0  0  0  0  0  0  0  0  0  0  0  0
  143.6091  132.6121  150.9899 H   0  0  0  0  0  0  0  0  0  0  0  0
  144.3802  132.7458  153.2011 H   0  0  0  0  0  0  0  0  0  0  0  0
  144.8661  134.4355  153.0209 H   0  0  0  0  0  0  0  0  0  0  0  0
  148.5839  139.0018  157.1200 H   0  0  0  0  0  0  0  0  0  0  0  0
  149.7635  140.2635  156.8047 H   0  0  0  0  0  0  0  0  0  0  0  0
  146.7384  140.3792  156.2640 H   0  0  0  0  0  0  0  0  0  0  0  0
  147.6091  141.2435  157.5152 H   0  0  0  0  0  0  0  0  0  0  0  0
  147.0867  141.0067  153.9705 H   0  0  0  0  0  0  0  0  0  0  0  0
  148.1945  142.3179  153.6157 H   0  0  0  0  0  0  0  0  0  0  0  0
  150.1425  140.9619  154.3141 H   0  0  0  0  0  0  0  0  0  0  0  0
  149.2129  140.1230  153.0863 H   0  0  0  0  0  0  0  0  0  0  0  0
  148.1849  138.8376  154.7962 H   0  0  0  0  0  0  0  0  0  0  0  0
  145.9762  130.5849  152.3730 H   0  0  0  0  0  0  0  0  0  0  0  0
  1  2  1  0  0  0  0
  1 25  1  0  0  0  0
  1 26  1  0  0  0  0
  1 27  1  0  0  0  0
  2  3  1  0  0  0  0
  2 19  1  0  0  0  0
  2 28  1  0  0  0  0
  3  4  1  0  0  0  0
  3 29  1  0  0  0  0
  3 30  1  0  0  0  0
  4  5  1  0  0  0  0
  4 31  1  0  0  0  0
  5  6  2  0  0  0  0
  5  7  1  0  0  0  0
  7  8  1  0  0  0  0
  7 32  1  0  0  0  0
  8 13  1  0  0  0  0
  8  9  2  0  0  0  0
  9 10  1  0  0  0  0
  9 33  1  0  0  0  0
 10 11  2  0  0  0  0
 10 34  1  0  0  0  0
 11 12  1  0  0  0  0
 11 35  1  0  0  0  0
 12 13  2  0  0  0  0
 12 53  1  0  0  0  0
 13 14  1  0  0  0  0
 14 18  1  0  0  0  0
 14 15  1  0  0  0  0
 15 16  1  0  0  0  0
 15 36  1  0  0  0  0
 15 37  1  0  0  0  0
 16 17  1  0  0  0  0
 16 38  1  0  0  0  0
 16 39  1  0  0  0  0
 17 18  1  0  0  0  0
 17 40  1  0  0  0  0
 17 41  1  0  0  0  0
 18 42  1  0  0  0  0
 18 43  1  0  0  0  0
 19 24  1  0  0  0  0
 19 20  1  0  0  0  0
 19 52  1  0  0  0  0
 20 21  1  0  0  0  0
 20 44  1  0  0  0  0
 20 45  1  0  0  0  0
 21 22  1  0  0  0  0
 21 46  1  0  0  0  0
 21 47  1  0  0  0  0
 22 23  1  0  0  0  0
 23 24  1  0  0  0  0
 23 48  1  0  0  0  0
 23 49  1  0  0  0  0
 24 50  1  0  0  0  0
 24 51  1  0  0  0  0
M  CHG  1  12   1
M  CHG  1  19   1
M  END
> <s_m_source_file>
AV-unprocessed.smi

> <i_m_source_file_index>
1389

> <i_lp_mmshare_version>
43012

> <i_f3d_flags>
0

> <s_epik_input>
W0NIMl0xW0NIMl1PW0NIMl1bQ0gyXU4xW0NASF0oW0NIM10pW0NIMl1bTkhdQyg9TylbTkhdYzJbY0hdW2NIXVtjSF1uYzJOM1tDSDJdW0NIMl1bQ0gyXVtDSDJdMw==

> <s_epik_cmdline>
J2VwaWtfcHl0aG9uJywgJy1waCcsICc3LjAnLCAnLXRuJywgJzgnLCAnLW1hJywgJzIwMCcsICctbWV0YWxfYmluZGluZycsICctaW1hZScsICc8aW5maWxlLm1hZT4nLCAnLW9tYWUnLCAnPG91dGZpbGUubWFlPic=

> <r_lp_tautomer_probability>
0.999994

> <r_epik_Ionization_Penalty>
1.80872

> <r_epik_Ionization_Penalty_Charging>
1.8087

> <r_epik_Ionization_Penalty_Neutral>
2.02981e-05

> <r_epik_State_Penalty>
1.84892

> <r_epik_Charging_Adjusted_Penalty>
3.65762

> <i_epik_Tot_Q>
2

> <i_epik_Tot_abs_Q>
2

> <r_epik_Metal_State_Penalty>
1.9311

> <b_epik_Metal_Only>
0

> <s_lp_Force_Field>
OPLS_2005

> <r_lp_Energy>
68.1678

> <b_lp_Chiralities_Consistent>
1

> <s_lp_Variant>
AV-unprocessed.smi:1389-8

> <Gold.Version>
5.8.1

> <Gold.Id.Protein>
6NUR|6NUR_protein|mol2

> <Gold.PLP.Fitness>
43.6290

> <Gold.PLP.PLP>
-39.2963

> <Gold.PLP.part.hbond>
-3.0000

> <Gold.PLP.part.metal>
0.0000

> <Gold.PLP.part.buried>
-3.3790

> <Gold.PLP.part.nonpolar>
-32.6230

> <Gold.PLP.part.repulsive>
0.5736

> <Gold.PLP.ligand.clash>
0.0000

> <Gold.PLP.ligand.torsion>
0.8444

> <Gold.PLP.Chemscore.Hbond>
1.8560

> <Gold.PLP.Chemscore.CHOScore>
0.0000

> <Gold.PLP.Chemscore.Metal>
0.0000

> <Gold.Chemscore.Hbonds>
donor molecule, donor type, donor heavy atom, donor atom, acceptor molecule, acceptor atom, score
      L1  H     4    31       P1  7948  0.98
      L1  H     7    32       P1  7948  0.41

> <Gold.PLP.Chemscore.Internal.Correction>
0.4536

> <Gold.Rescore>
     Score         DG    S(hbond)    S(metal)    S(lipo)     H(rot)  DE(clash)    DE(int)     intcor
     12.50     -14.74       1.32        0.00      77.89       1.66       0.03       2.22       ----

> <Gold.Chemscore.Fitness>
12.4965

> <Gold.Chemscore.DG>
-14.7448

> <Gold.Chemscore.ZeroCoef>
-5.4800

> <Gold.Chemscore.Hbond>
1.3193

> <Gold.Chemscore.Metal>
0.0000

> <Gold.Chemscore.Lipo>
77.8887

> <Gold.Chemscore.Internal_Hbond>
0.0000

> <Gold.Chemscore.DEClash>
0.0294

> <Gold.Chemscore.DEInternal>
2.2189

> <Gold.Chemscore.Rot>
1.6620

> <Gold.Chemscore.Internal.Correction>
   9.000000E+99

> <Gold.Chemscore.Hbonds>
donor molecule, donor type, donor heavy atom, donor atom, acceptor molecule, acceptor atom, score
      L1  H     4    31       P1  7948  0.88
      L1  H     7    32       P1  7948  0.30

> <Gold.Chemscore.Hbond.Weighted>
-4.4065

> <Gold.Chemscore.Metal.Weighted>
-0.0000

> <Gold.Chemscore.Lipo.Weighted>
-9.1130

> <Gold.Chemscore.Internal_Hbond.Weighted>
0.0000

> <Gold.Chemscore.DEClash.Weighted>
0.0294

> <Gold.Chemscore.DEInternal.Weighted>
2.2189

> <Gold.Chemscore.Rot.Weighted>
4.2547

> <Gold.Chemscore.Internal.Correction.Weighted>
   9.000000E+99

> <Gold.Protein.RotatedTorsions>
[ 6907 6896 6895 6894 ] final  -55.92 input  -60.11 | X-H torsion
[ 7974 7965 7964 7962 ] final    2.33 input  175.53 | X-H torsion
[ 8008 7997 7996 7995 ] final -171.27 input   59.86 | X-H torsion
[ 10167 10162 10161 10158 ] final -163.08 input  -65.29 | X-H torsion
[ 10718 10713 10712 10709 ] final -110.60 input   66.30 | X-H torsion
[ 10763 10752 10751 10750 ] final  -12.48 input  -60.55 | X-H torsion
[ 11005 11000 10999 10996 ] final   62.10 input  -57.11 | X-H torsion

> <Gold.Protein.ActiveResidues>
 VAL166  LYS551  ARG553  GLY616  TRP617  ASP618  TYR619  PRO620  LYS621  CYS622 
 ASP623  PHE694  ASN695  SER759  ASP760  ASP761  ALA762  ILE779  LEU786  VAL792 
 PHE793  MET794  SER795  GLU796  ALA797  LYS798  CYS799  TRP800  GLU811  SER814 

> <Gold.Protein.RotatedAtoms>
  150.8211  134.7419  159.6772 H   0  0  0  0  0  0  0  0  0  0  0  0  # atno 6907 bound_to 6896
  152.4326  134.5744  159.9940 H   0  0  0  0  0  0  0  0  0  0  0  0  # atno 6908 bound_to 6896
  151.5928  133.3327  159.3067 H   0  0  0  0  0  0  0  0  0  0  0  0  # atno 6909 bound_to 6896
  146.2443  140.0852  142.8355 H   0  0  0  0  0  0  0  0  0  0  0  0  # atno 7974 bound_to 7965
  155.9294  140.1088  157.1144 H   0  0  0  0  0  0  0  0  0  0  0  0  # atno 8008 bound_to 7997
  154.4068  140.1240  156.4848 H   0  0  0  0  0  0  0  0  0  0  0  0  # atno 8009 bound_to 7997
  155.7099  140.3471  155.4971 H   0  0  0  0  0  0  0  0  0  0  0  0  # atno 8010 bound_to 7997
  139.6346  144.0375  152.2044 H   0  0  0  0  0  0  0  0  0  0  0  0  # atno 10167 bound_to 10162
  156.0600  130.5824  150.8259 H   0  0  0  0  0  0  0  0  0  0  0  0  # atno 10718 bound_to 10713
  153.4991  135.7017  153.5841 H   0  0  0  0  0  0  0  0  0  0  0  0  # atno 10763 bound_to 10752
  153.3980  135.3879  155.1969 H   0  0  0  0  0  0  0  0  0  0  0  0  # atno 10764 bound_to 10752
  154.8712  135.3874  154.4460 H   0  0  0  0  0  0  0  0  0  0  0  0  # atno 10765 bound_to 10752
  140.0115  134.6289  155.9773 H   0  0  0  0  0  0  0  0  0  0  0  0  # atno 11005 bound_to 11000
  145.0698  140.9147  143.4889 LP  0  0  0  0  0  0  0  0  0  0  0  0  # atno 17320 bound_to 7965
  145.0984  139.2840  143.5699 LP  0  0  0  0  0  0  0  0  0  0  0  0  # atno 17321 bound_to 7965
  140.0049  144.6266  150.7698 LP  0  0  0  0  0  0  0  0  0  0  0  0  # atno 17342 bound_to 10162
  140.7458  143.2881  151.3407 LP  0  0  0  0  0  0  0  0  0  0  0  0  # atno 17343 bound_to 10162
  157.5601  131.0945  150.9572 LP  0  0  0  0  0  0  0  0  0  0  0  0  # atno 17370 bound_to 10713
  156.9812  130.5527  149.5296 LP  0  0  0  0  0  0  0  0  0  0  0  0  # atno 17371 bound_to 10713
  141.1714  133.6537  156.4666 LP  0  0  0  0  0  0  0  0  0  0  0  0  # atno 17394 bound_to 11000
  140.4546  134.6897  157.5056 LP  0  0  0  0  0  0  0  0  0  0  0  0  # atno 17395 bound_to 11000

$$$$
