AV-unprocessed.smi:2115|AV-procd|sdf|8623|dock2
  -GOLD-   2272011363D 1   1.00000     0.00000
 Structure written by MMmdl.
 37 38  0  0  0  0  0  0  0  0  1 V2000
  152.9726  143.4296  159.2383 C   0  0  0  0  0  0  0  0  0  0  0  0
  151.5650  143.3596  159.0948 O   0  0  0  0  0  0  0  0  0  0  0  0
  151.1663  143.1235  157.7544 C   0  0  0  0  0  0  0  0  0  0  0  0
  151.1891  141.6165  157.4827 C   0  0  0  0  0  0  0  0  0  0  0  0
  150.9483  141.3955  156.0961 O   0  0  0  0  0  0  0  0  0  0  0  0
  150.7886  140.0985  155.6535 C   0  0  0  0  0  0  0  0  0  0  0  0
  151.1592  139.0441  156.5110 C   0  0  0  0  0  0  0  0  0  0  0  0
  150.9961  137.7188  156.0658 C   0  0  0  0  0  0  0  0  0  0  0  0
  150.4594  137.4839  154.7839 C   0  0  0  0  0  0  0  0  0  0  0  0
  150.3209  136.1351  154.3575 N   0  0  0  0  0  0  0  0  0  0  0  0
  150.7164  135.0080  154.9795 C   0  0  0  0  0  0  0  0  0  0  0  0
  151.2839  134.9782  156.0712 O   0  0  0  0  0  0  0  0  0  0  0  0
  150.4189  133.6928  154.2449 C   0  0  2  0  0  0  0  0  0  0  0  0
  148.9366  133.4649  153.9309 C   0  0  0  0  0  0  0  0  0  0  0  0
  148.8646  131.9560  153.8689 C   0  0  0  0  0  0  0  0  0  0  0  0
  149.8247  131.5479  154.9811 C   0  0  0  0  0  0  0  0  0  0  0  0
  150.8069  132.5781  155.0504 O   0  0  0  0  0  0  0  0  0  0  0  0
  150.1296  138.6111  153.9921 C   0  0  0  0  0  0  0  0  0  0  0  0
  150.2866  139.8847  154.4122 N   0  0  0  0  0  0  0  0  0  0  0  0
  153.2258  143.6076  160.2835 H   0  0  0  0  0  0  0  0  0  0  0  0
  153.3889  144.2465  158.6472 H   0  0  0  0  0  0  0  0  0  0  0  0
  153.4474  142.4968  158.9313 H   0  0  0  0  0  0  0  0  0  0  0  0
  150.1539  143.5031  157.6094 H   0  0  0  0  0  0  0  0  0  0  0  0
  151.8163  143.6487  157.0530 H   0  0  0  0  0  0  0  0  0  0  0  0
  152.1456  141.1940  157.7949 H   0  0  0  0  0  0  0  0  0  0  0  0
  150.4026  141.1353  158.0662 H   0  0  0  0  0  0  0  0  0  0  0  0
  151.5613  139.2484  157.4922 H   0  0  0  0  0  0  0  0  0  0  0  0
  151.2763  136.8949  156.7059 H   0  0  0  0  0  0  0  0  0  0  0  0
  149.9331  136.0095  153.4335 H   0  0  0  0  0  0  0  0  0  0  0  0
  150.9998  133.6590  153.3220 H   0  0  0  0  0  0  0  0  0  0  0  0
  148.2972  133.8360  154.7339 H   0  0  0  0  0  0  0  0  0  0  0  0
  148.6242  133.9365  152.9983 H   0  0  0  0  0  0  0  0  0  0  0  0
  147.8561  131.5672  154.0112 H   0  0  0  0  0  0  0  0  0  0  0  0
  149.2351  131.6043  152.9051 H   0  0  0  0  0  0  0  0  0  0  0  0
  149.3018  131.5061  155.9373 H   0  0  0  0  0  0  0  0  0  0  0  0
  150.2799  130.5737  154.8011 H   0  0  0  0  0  0  0  0  0  0  0  0
  149.7485  138.5148  152.9878 H   0  0  0  0  0  0  0  0  0  0  0  0
  1  2  1  0  0  0  0
  1 20  1  0  0  0  0
  1 21  1  0  0  0  0
  1 22  1  0  0  0  0
  2  3  1  0  0  0  0
  3  4  1  0  0  0  0
  3 23  1  0  0  0  0
  3 24  1  0  0  0  0
  4  5  1  0  0  0  0
  4 25  1  0  0  0  0
  4 26  1  0  0  0  0
  5  6  1  0  0  0  0
  6 19  1  0  0  0  0
  6  7  2  0  0  0  0
  7  8  1  0  0  0  0
  7 27  1  0  0  0  0
  8  9  2  0  0  0  0
  8 28  1  0  0  0  0
  9 10  1  0  0  0  0
  9 18  1  0  0  0  0
 10 11  1  0  0  0  0
 10 29  1  0  0  0  0
 11 12  2  0  0  0  0
 11 13  1  0  0  0  0
 13 17  1  0  0  0  0
 13 14  1  0  0  0  0
 13 30  1  0  0  0  0
 14 15  1  0  0  0  0
 14 31  1  0  0  0  0
 14 32  1  0  0  0  0
 15 16  1  0  0  0  0
 15 33  1  0  0  0  0
 15 34  1  0  0  0  0
 16 17  1  0  0  0  0
 16 35  1  0  0  0  0
 16 36  1  0  0  0  0
 18 19  2  0  0  0  0
 18 37  1  0  0  0  0
M  END
> <s_m_source_file>
AV-unprocessed.smi

> <i_m_source_file_index>
2115

> <i_lp_mmshare_version>
43012

> <i_f3d_flags>
0

> <s_epik_input>
W0NIM11PW0NIMl1bQ0gyXU9jMVtjSF1bY0hdYyhbY0hdbjEpW05IXUMoPU8pW0NAQEhdMltDSDJdW0NIMl1bQ0gyXU8y

> <s_epik_cmdline>
J2VwaWtfcHl0aG9uJywgJy1waCcsICc3LjAnLCAnLXRuJywgJzgnLCAnLW1hJywgJzIwMCcsICctbWV0YWxfYmluZGluZycsICctaW1hZScsICc8aW5maWxlLm1hZT4nLCAnLW9tYWUnLCAnPG91dGZpbGUubWFlPic=

> <r_lp_tautomer_probability>
1

> <r_epik_Ionization_Penalty>
1.60185e-05

> <r_epik_Ionization_Penalty_Charging>
0

> <r_epik_Ionization_Penalty_Neutral>
1.60185e-05

> <r_epik_State_Penalty>
-0

> <r_epik_Charging_Adjusted_Penalty>
0

> <i_epik_Tot_Q>
0

> <i_epik_Tot_abs_Q>
0

> <r_epik_Metal_State_Penalty>
-0

> <b_epik_Metal_Only>
0

> <s_lp_Force_Field>
OPLS_2005

> <r_lp_Energy>
24.9122

> <b_lp_Chiralities_Consistent>
1

> <s_lp_Variant>
AV-unprocessed.smi:2115-1

> <Gold.Version>
5.8.1

> <Gold.Id.Protein>
6NUR|6NUR_protein|mol2

> <Gold.PLP.Fitness>
40.4509

> <Gold.PLP.PLP>
-30.4384

> <Gold.PLP.part.hbond>
-2.7786

> <Gold.PLP.part.metal>
0.0000

> <Gold.PLP.part.buried>
-5.1587

> <Gold.PLP.part.nonpolar>
-24.6379

> <Gold.PLP.part.repulsive>
0.2606

> <Gold.PLP.ligand.clash>
0.0011

> <Gold.PLP.ligand.torsion>
0.3542

> <Gold.PLP.Chemscore.Hbond>
1.8000

> <Gold.PLP.Chemscore.CHOScore>
1.7351

> <Gold.PLP.Chemscore.Metal>
0.0000

> <Gold.Chemscore.Hbonds>
donor molecule, donor type, donor heavy atom, donor atom, acceptor molecule, acceptor atom, score
      L1  H    10    29       P1  7948  0.55
      P1  H  7989  7998       L1    19  0.80
      L1  C    18    37       P1  7948  0.71
      L1  C    18    37       P1  7957  1.00

> <Gold.PLP.Chemscore.Internal.Correction>
0.1166

> <Gold.Rescore>
     Score         DG    S(hbond)    S(metal)    S(lipo)     H(rot)  DE(clash)    DE(int)     intcor
     12.21     -14.10       1.71        0.00      65.26       1.84       0.06       1.83       ----

> <Gold.Chemscore.Fitness>
12.2092

> <Gold.Chemscore.DG>
-14.1004

> <Gold.Chemscore.ZeroCoef>
-5.4800

> <Gold.Chemscore.Hbond>
1.7051

> <Gold.Chemscore.Metal>
0.0000

> <Gold.Chemscore.Lipo>
65.2573

> <Gold.Chemscore.Internal_Hbond>
0.0000

> <Gold.Chemscore.DEClash>
0.0604

> <Gold.Chemscore.DEInternal>
1.8309

> <Gold.Chemscore.Rot>
1.8398

> <Gold.Chemscore.Internal.Correction>
   9.000000E+99

> <Gold.Chemscore.Hbonds>
donor molecule, donor type, donor heavy atom, donor atom, acceptor molecule, acceptor atom, score
      L1  H    10    29       P1  7948  0.03
      P1  H  7989  7998       L1    19  0.11

> <Gold.Chemscore.Hbond.Weighted>
-5.6952

> <Gold.Chemscore.Metal.Weighted>
-0.0000

> <Gold.Chemscore.Lipo.Weighted>
-7.6351

> <Gold.Chemscore.Internal_Hbond.Weighted>
0.0000

> <Gold.Chemscore.DEClash.Weighted>
0.0604

> <Gold.Chemscore.DEInternal.Weighted>
1.8309

> <Gold.Chemscore.Rot.Weighted>
4.7099

> <Gold.Chemscore.Internal.Correction.Weighted>
   9.000000E+99

> <Gold.Protein.RotatedTorsions>
[ 6907 6896 6895 6894 ] final -113.12 input  -60.11 | X-H torsion
[ 7974 7965 7964 7962 ] final  -95.64 input  175.53 | X-H torsion
[ 8008 7997 7996 7995 ] final   61.75 input   59.86 | X-H torsion
[ 10167 10162 10161 10158 ] final  178.43 input  -65.29 | X-H torsion
[ 10718 10713 10712 10709 ] final  -27.19 input   66.30 | X-H torsion
[ 10763 10752 10751 10750 ] final  -79.63 input  -60.55 | X-H torsion
[ 11005 11000 10999 10996 ] final -169.02 input  -57.11 | X-H torsion

> <Gold.Protein.ActiveResidues>
 VAL166  LYS551  ARG553  GLY616  TRP617  ASP618  TYR619  PRO620  LYS621  CYS622 
 ASP623  PHE694  ASN695  SER759  ASP760  ASP761  ALA762  ILE779  LEU786  VAL792 
 PHE793  MET794  SER795  GLU796  ALA797  LYS798  CYS799  TRP800  GLU811  SER814 

> <Gold.Protein.RotatedAtoms>
  150.7806  133.8991  159.3335 H   0  0  0  0  0  0  0  0  0  0  0  0  # atno 6907 bound_to 6896
  151.6855  135.0953  160.0233 H   0  0  0  0  0  0  0  0  0  0  0  0  # atno 6908 bound_to 6896
  152.3856  133.6568  159.6231 H   0  0  0  0  0  0  0  0  0  0  0  0  # atno 6909 bound_to 6896
  145.3573  140.9486  143.2520 H   0  0  0  0  0  0  0  0  0  0  0  0  # atno 7974 bound_to 7965
  155.6033  140.3494  155.4600 H   0  0  0  0  0  0  0  0  0  0  0  0  # atno 8008 bound_to 7997
  156.0211  140.1254  157.0381 H   0  0  0  0  0  0  0  0  0  0  0  0  # atno 8009 bound_to 7997
  154.4315  140.1062  156.5951 H   0  0  0  0  0  0  0  0  0  0  0  0  # atno 8010 bound_to 7997
  139.5294  144.2681  152.0651 H   0  0  0  0  0  0  0  0  0  0  0  0  # atno 10167 bound_to 10162
  156.4414  130.4465  149.7050 H   0  0  0  0  0  0  0  0  0  0  0  0  # atno 10718 bound_to 10713
  154.5410  135.5689  153.6839 H   0  0  0  0  0  0  0  0  0  0  0  0  # atno 10763 bound_to 10752
  152.9963  135.6228  154.2502 H   0  0  0  0  0  0  0  0  0  0  0  0  # atno 10764 bound_to 10752
  154.2433  135.2861  155.2825 H   0  0  0  0  0  0  0  0  0  0  0  0  # atno 10765 bound_to 10752
  140.5354  134.5575  157.5086 H   0  0  0  0  0  0  0  0  0  0  0  0  # atno 11005 bound_to 11000
  144.8672  139.5090  143.6784 LP  0  0  0  0  0  0  0  0  0  0  0  0  # atno 17320 bound_to 7965
  146.2942  139.7229  142.9139 LP  0  0  0  0  0  0  0  0  0  0  0  0  # atno 17321 bound_to 7965
  140.2142  144.4532  150.6372 LP  0  0  0  0  0  0  0  0  0  0  0  0  # atno 17342 bound_to 10162
  140.6461  143.2214  151.6183 LP  0  0  0  0  0  0  0  0  0  0  0  0  # atno 17343 bound_to 10162
  156.3913  130.7628  151.2630 LP  0  0  0  0  0  0  0  0  0  0  0  0  # atno 17370 bound_to 10713
  157.7506  131.0267  150.3973 LP  0  0  0  0  0  0  0  0  0  0  0  0  # atno 17371 bound_to 10713
  139.9532  134.7581  156.0401 LP  0  0  0  0  0  0  0  0  0  0  0  0  # atno 17394 bound_to 11000
  141.1257  133.6600  156.3332 LP  0  0  0  0  0  0  0  0  0  0  0  0  # atno 17395 bound_to 11000

$$$$
