AV-unprocessed.smi:3173|AV-procd|sdf|12117|dock9
  -GOLD-   2272017553D 1   1.00000     0.00000
 Structure written by MMmdl.
 35 36  0  0  0  0  0  0  0  0  1 V2000
  150.1066  142.4613  159.1454 O   0  0  0  0  0  0  0  0  0  0  0  0
  150.8603  142.7715  158.2225 C   0  0  0  0  0  0  0  0  0  0  0  0
  151.7485  144.0156  158.3326 C   0  0  0  0  0  0  0  0  0  0  0  0
  152.6963  143.9800  159.5499 C   0  0  2  0  0  0  0  0  0  0  0  0
  153.3366  142.6291  159.7394 C   0  0  0  0  0  0  0  0  0  0  0  0
  153.2136  142.1709  160.9833 C   0  0  0  0  0  0  0  0  0  0  0  0
  152.4646  143.1219  161.8750 C   0  0  0  0  0  0  0  0  0  0  0  0
  152.0018  144.2391  160.9141 C   0  0  0  0  0  0  0  0  0  0  0  0
  150.9629  142.0637  157.0874 N   0  0  0  0  0  0  0  0  0  0  0  0
  150.2395  140.8300  156.8028 C   0  0  0  0  0  0  0  0  0  0  0  0
  149.7464  140.7926  155.3467 C   0  0  0  0  0  0  0  0  0  0  0  0
  148.3726  141.4155  155.1873 C   0  0  0  0  0  0  0  0  0  0  0  0
  147.8294  141.6414  153.9045 C   0  0  0  0  0  0  0  0  0  0  0  0
  146.5490  142.2201  153.8104 C   0  0  0  0  0  0  0  0  0  0  0  0
  145.8640  142.5476  154.9963 C   0  0  0  0  0  0  0  0  0  0  0  0
  146.4921  142.2791  156.2289 C   0  0  0  0  0  0  0  0  0  0  0  0
  147.7193  141.7241  156.3304 N   0  0  0  0  0  0  0  0  0  0  0  0
  152.3303  144.1340  157.4168 H   0  0  0  0  0  0  0  0  0  0  0  0
  151.0972  144.8878  158.3981 H   0  0  0  0  0  0  0  0  0  0  0  0
  153.5079  144.6953  159.4087 H   0  0  0  0  0  0  0  0  0  0  0  0
  153.8502  142.1181  158.9383 H   0  0  0  0  0  0  0  0  0  0  0  0
  153.6108  141.2337  161.3443 H   0  0  0  0  0  0  0  0  0  0  0  0
  151.6224  142.6230  162.3551 H   0  0  0  0  0  0  0  0  0  0  0  0
  153.1318  143.5053  162.6476 H   0  0  0  0  0  0  0  0  0  0  0  0
  152.2409  145.2295  161.3027 H   0  0  0  0  0  0  0  0  0  0  0  0
  150.9169  144.1919  160.8094 H   0  0  0  0  0  0  0  0  0  0  0  0
  151.6031  142.3913  156.3786 H   0  0  0  0  0  0  0  0  0  0  0  0
  150.8715  139.9657  157.0146 H   0  0  0  0  0  0  0  0  0  0  0  0
  149.3920  140.7697  157.4859 H   0  0  0  0  0  0  0  0  0  0  0  0
  150.4504  141.3190  154.7004 H   0  0  0  0  0  0  0  0  0  0  0  0
  149.7124  139.7637  154.9859 H   0  0  0  0  0  0  0  0  0  0  0  0
  148.3792  141.3774  153.0130 H   0  0  0  0  0  0  0  0  0  0  0  0
  146.1009  142.4088  152.8460 H   0  0  0  0  0  0  0  0  0  0  0  0
  144.8808  142.9930  154.9621 H   0  0  0  0  0  0  0  0  0  0  0  0
  145.9955  142.5163  157.1581 H   0  0  0  0  0  0  0  0  0  0  0  0
  1  2  2  0  0  0  0
  2  3  1  0  0  0  0
  2  9  1  0  0  0  0
  3  4  1  0  0  0  0
  3 18  1  0  0  0  0
  3 19  1  0  0  0  0
  4  8  1  0  0  0  0
  4  5  1  0  0  0  0
  4 20  1  0  0  0  0
  5  6  2  0  0  0  0
  5 21  1  0  0  0  0
  6  7  1  0  0  0  0
  6 22  1  0  0  0  0
  7  8  1  0  0  0  0
  7 23  1  0  0  0  0
  7 24  1  0  0  0  0
  8 25  1  0  0  0  0
  8 26  1  0  0  0  0
  9 10  1  0  0  0  0
  9 27  1  0  0  0  0
 10 11  1  0  0  0  0
 10 28  1  0  0  0  0
 10 29  1  0  0  0  0
 11 12  1  0  0  0  0
 11 30  1  0  0  0  0
 11 31  1  0  0  0  0
 12 17  1  0  0  0  0
 12 13  2  0  0  0  0
 13 14  1  0  0  0  0
 13 32  1  0  0  0  0
 14 15  2  0  0  0  0
 14 33  1  0  0  0  0
 15 16  1  0  0  0  0
 15 34  1  0  0  0  0
 16 17  2  0  0  0  0
 16 35  1  0  0  0  0
M  END
> <s_m_source_file>
AV-unprocessed.smi

> <i_m_source_file_index>
3173

> <i_lp_mmshare_version>
43012

> <i_f3d_flags>
0

> <s_epik_input>
W0NIMl0xW0NIMl1bQ0hdPVtDSF1bQ0BIXTFbQ0gyXUMoPU8pW05IXVtDSDJdW0NIMl1jMltjSF1bY0hdW2NIXVtjSF1uMg==

> <s_epik_cmdline>
J2VwaWtfcHl0aG9uJywgJy1waCcsICc3LjAnLCAnLXRuJywgJzgnLCAnLW1hJywgJzIwMCcsICctbWV0YWxfYmluZGluZycsICctaW1hZScsICc8aW5maWxlLm1hZT4nLCAnLW9tYWUnLCAnPG91dGZpbGUubWFlPic=

> <r_epik_Ionization_Penalty>
0.0258754

> <r_epik_Ionization_Penalty_Charging>
0

> <r_epik_Ionization_Penalty_Neutral>
0.0258754

> <r_epik_State_Penalty>
0.0210899

> <r_epik_Charging_Adjusted_Penalty>
0.0210899

> <i_epik_Tot_Q>
0

> <i_epik_Tot_abs_Q>
0

> <r_epik_Metal_State_Penalty>
0.0202045

> <b_epik_Metal_Only>
0

> <s_lp_Force_Field>
OPLS_2005

> <r_lp_Energy>
13.7226

> <b_lp_Chiralities_Consistent>
1

> <s_lp_Variant>
AV-unprocessed.smi:3173-1

> <Gold.Version>
5.8.1

> <Gold.Id.Protein>
6NUR|6NUR_protein|mol2

> <Gold.PLP.Fitness>
42.7240

> <Gold.PLP.PLP>
-43.7305

> <Gold.PLP.part.hbond>
-1.0000

> <Gold.PLP.part.metal>
0.0000

> <Gold.PLP.part.buried>
-6.0701

> <Gold.PLP.part.nonpolar>
-37.7049

> <Gold.PLP.part.repulsive>
0.2467

> <Gold.PLP.ligand.clash>
0.0000

> <Gold.PLP.ligand.torsion>
0.5148

> <Gold.PLP.Chemscore.Hbond>
0.0000

> <Gold.PLP.Chemscore.CHOScore>
0.0000

> <Gold.PLP.Chemscore.Metal>
0.0000

> <Gold.PLP.Chemscore.Internal.Correction>
0.0230

> <Gold.Rescore>
     Score         DG    S(hbond)    S(metal)    S(lipo)     H(rot)  DE(clash)    DE(int)     intcor
     15.09     -15.54       0.00        0.00     118.88       1.50       0.06       0.39       ----

> <Gold.Chemscore.Fitness>
15.0902

> <Gold.Chemscore.DG>
-15.5390

> <Gold.Chemscore.ZeroCoef>
-5.4800

> <Gold.Chemscore.Hbond>
0.0000

> <Gold.Chemscore.Metal>
0.0000

> <Gold.Chemscore.Lipo>
118.8754

> <Gold.Chemscore.Internal_Hbond>
0.0000

> <Gold.Chemscore.DEClash>
0.0574

> <Gold.Chemscore.DEInternal>
0.3914

> <Gold.Chemscore.Rot>
1.5037

> <Gold.Chemscore.Internal.Correction>
   9.000000E+99

> <Gold.Chemscore.Hbond.Weighted>
-0.0000

> <Gold.Chemscore.Metal.Weighted>
-0.0000

> <Gold.Chemscore.Lipo.Weighted>
-13.9084

> <Gold.Chemscore.Internal_Hbond.Weighted>
0.0000

> <Gold.Chemscore.DEClash.Weighted>
0.0574

> <Gold.Chemscore.DEInternal.Weighted>
0.3914

> <Gold.Chemscore.Rot.Weighted>
3.8494

> <Gold.Chemscore.Internal.Correction.Weighted>
   9.000000E+99

> <Gold.Protein.RotatedTorsions>
[ 6907 6896 6895 6894 ] final  -74.44 input  -60.11 | X-H torsion
[ 7974 7965 7964 7962 ] final  -45.70 input  175.53 | X-H torsion
[ 8008 7997 7996 7995 ] final -161.07 input   59.86 | X-H torsion
[ 10167 10162 10161 10158 ] final  115.85 input  -65.29 | X-H torsion
[ 10718 10713 10712 10709 ] final -142.62 input   66.30 | X-H torsion
[ 10763 10752 10751 10750 ] final   55.53 input  -60.55 | X-H torsion
[ 11005 11000 10999 10996 ] final  -67.80 input  -57.11 | X-H torsion

> <Gold.Protein.ActiveResidues>
 VAL166  LYS551  ARG553  GLY616  TRP617  ASP618  TYR619  PRO620  LYS621  CYS622 
 ASP623  PHE694  ASN695  SER759  ASP760  ASP761  ALA762  ILE779  LEU786  VAL792 
 PHE793  MET794  SER795  GLU796  ALA797  LYS798  CYS799  TRP800  GLU811  SER814 

> <Gold.Protein.RotatedAtoms>
  150.7093  134.4869  159.5496 H   0  0  0  0  0  0  0  0  0  0  0  0  # atno 6907 bound_to 6896
  152.2494  134.8145  160.0457 H   0  0  0  0  0  0  0  0  0  0  0  0  # atno 6908 bound_to 6896
  151.8898  133.3478  159.3831 H   0  0  0  0  0  0  0  0  0  0  0  0  # atno 6909 bound_to 6896
  145.9794  140.7300  142.9371 H   0  0  0  0  0  0  0  0  0  0  0  0  # atno 7974 bound_to 7965
  155.7868  140.0872  157.2030 H   0  0  0  0  0  0  0  0  0  0  0  0  # atno 8008 bound_to 7997
  154.3987  140.1497  156.3174 H   0  0  0  0  0  0  0  0  0  0  0  0  # atno 8009 bound_to 7997
  155.8599  140.3430  155.5752 H   0  0  0  0  0  0  0  0  0  0  0  0  # atno 8010 bound_to 7997
  139.6288  144.7112  151.2476 H   0  0  0  0  0  0  0  0  0  0  0  0  # atno 10167 bound_to 10162
  156.3481  130.7673  151.1821 H   0  0  0  0  0  0  0  0  0  0  0  0  # atno 10718 bound_to 10713
  152.9818  135.5707  154.5082 H   0  0  0  0  0  0  0  0  0  0  0  0  # atno 10763 bound_to 10752
  154.4591  135.2781  155.1728 H   0  0  0  0  0  0  0  0  0  0  0  0  # atno 10764 bound_to 10752
  154.3324  135.6246  153.5611 H   0  0  0  0  0  0  0  0  0  0  0  0  # atno 10765 bound_to 10752
  141.1517  133.6727  156.6347 H   0  0  0  0  0  0  0  0  0  0  0  0  # atno 11005 bound_to 11000
  144.6857  140.2883  143.7282 LP  0  0  0  0  0  0  0  0  0  0  0  0  # atno 17320 bound_to 7965
  145.7791  139.1885  143.2168 LP  0  0  0  0  0  0  0  0  0  0  0  0  # atno 17321 bound_to 7965
  140.7427  143.6518  150.8241 LP  0  0  0  0  0  0  0  0  0  0  0  0  # atno 17342 bound_to 10162
  140.0140  143.5612  152.2827 LP  0  0  0  0  0  0  0  0  0  0  0  0  # atno 17343 bound_to 10162
  157.7457  131.0435  150.4749 LP  0  0  0  0  0  0  0  0  0  0  0  0  # atno 17370 bound_to 10713
  156.4940  130.4101  149.6391 LP  0  0  0  0  0  0  0  0  0  0  0  0  # atno 17371 bound_to 10713
  140.3439  134.7826  157.4418 LP  0  0  0  0  0  0  0  0  0  0  0  0  # atno 17394 bound_to 11000
  140.0915  134.5594  155.8439 LP  0  0  0  0  0  0  0  0  0  0  0  0  # atno 17395 bound_to 11000

$$$$
