AV-unprocessed.smi:2059|AV-procd|sdf|8348|dock4
  -GOLD-   2272011 13D 1   1.00000     0.00000
 Structure written by MMmdl.
 30 31  0  0  0  0  0  0  0  0  1 V2000
  146.2007  129.9573  152.4269 C   0  0  0  0  0  0  0  0  0  0  0  0
  147.1431  130.9525  153.0123 C   0  0  0  0  0  0  0  0  0  0  0  0
  147.3850  132.2713  152.7489 C   0  0  0  0  0  0  0  0  0  0  0  0
  148.4086  132.6049  153.6756 C   0  0  0  0  0  0  0  0  0  0  0  0
  148.9437  133.9242  153.7106 N   0  0  0  0  0  0  0  0  0  0  0  0
  149.8073  134.5067  154.5688 C   0  0  0  0  0  0  0  0  0  0  0  0
  150.2760  133.8827  155.5194 O   0  0  0  0  0  0  0  0  0  0  0  0
  150.1171  135.7898  154.3200 N   0  0  0  0  0  0  0  0  0  0  0  0
  151.0265  136.6078  155.1148 C   0  0  2  0  0  0  0  0  0  0  0  0
  150.3598  137.1339  156.4023 C   0  0  0  0  0  0  0  0  0  0  0  0
  151.2206  138.2660  156.9767 C   0  0  0  0  0  0  0  0  0  0  0  0
  152.0444  139.0597  155.5442 S   0  0  0  0  0  0  0  0  0  0  0  0
  151.3938  140.3453  155.2491 O   0  0  0  0  0  0  0  0  0  0  0  0
  153.5013  138.9728  155.7262 O   0  0  0  0  0  0  0  0  0  0  0  0
  151.5105  137.8189  154.3066 C   0  0  0  0  0  0  0  0  0  0  0  0
  148.7606  131.5765  154.4341 N   0  0  0  0  0  0  0  0  0  0  0  0
  147.9524  130.5139  154.0137 O   0  0  0  0  0  0  0  0  0  0  0  0
  145.3941  130.4553  151.8888 H   0  0  0  0  0  0  0  0  0  0  0  0
  145.7540  129.3399  153.2064 H   0  0  0  0  0  0  0  0  0  0  0  0
  146.7187  129.2999  151.7287 H   0  0  0  0  0  0  0  0  0  0  0  0
  146.9033  132.8953  152.0104 H   0  0  0  0  0  0  0  0  0  0  0  0
  148.6296  134.5227  152.9605 H   0  0  0  0  0  0  0  0  0  0  0  0
  149.6886  136.2299  153.5177 H   0  0  0  0  0  0  0  0  0  0  0  0
  151.9016  136.0174  155.3929 H   0  0  0  0  0  0  0  0  0  0  0  0
  149.3756  137.5356  156.1570 H   0  0  0  0  0  0  0  0  0  0  0  0
  150.2051  136.3414  157.1349 H   0  0  0  0  0  0  0  0  0  0  0  0
  150.6390  139.0012  157.5329 H   0  0  0  0  0  0  0  0  0  0  0  0
  151.9958  137.8672  157.6311 H   0  0  0  0  0  0  0  0  0  0  0  0
  152.3327  137.5828  153.6306 H   0  0  0  0  0  0  0  0  0  0  0  0
  150.6977  138.2586  153.7270 H   0  0  0  0  0  0  0  0  0  0  0  0
  1  2  1  0  0  0  0
  1 18  1  0  0  0  0
  1 19  1  0  0  0  0
  1 20  1  0  0  0  0
  2 17  1  0  0  0  0
  2  3  2  0  0  0  0
  3  4  1  0  0  0  0
  3 21  1  0  0  0  0
  4  5  1  0  0  0  0
  4 16  2  0  0  0  0
  5  6  1  0  0  0  0
  5 22  1  0  0  0  0
  6  7  2  0  0  0  0
  6  8  1  0  0  0  0
  8  9  1  0  0  0  0
  8 23  1  0  0  0  0
  9 15  1  0  0  0  0
  9 10  1  0  0  0  0
  9 24  1  0  0  0  0
 10 11  1  0  0  0  0
 10 25  1  0  0  0  0
 10 26  1  0  0  0  0
 11 12  1  0  0  0  0
 11 27  1  0  0  0  0
 11 28  1  0  0  0  0
 12 13  2  0  0  0  0
 12 14  2  0  0  0  0
 12 15  1  0  0  0  0
 15 29  1  0  0  0  0
 15 30  1  0  0  0  0
 16 17  1  0  0  0  0
M  END
> <s_m_source_file>
AV-unprocessed.smi

> <i_m_source_file_index>
2059

> <i_lp_mmshare_version>
43012

> <i_f3d_flags>
0

> <s_epik_input>
W0NIM11jMVtjSF1jKG5vMSlbTkhdQyg9TylbTkhdW0NAQEhdKFtDSDJdMilbQ0gyXVtDSDJdUzIoPU8pPU8=

> <s_epik_cmdline>
J2VwaWtfcHl0aG9uJywgJy1waCcsICc3LjAnLCAnLXRuJywgJzgnLCAnLW1hJywgJzIwMCcsICctbWV0YWxfYmluZGluZycsICctaW1hZScsICc8aW5maWxlLm1hZT4nLCAnLW9tYWUnLCAnPG91dGZpbGUubWFlPic=

> <r_lp_tautomer_probability>
1

> <r_epik_Ionization_Penalty>
3.88767e-05

> <r_epik_Ionization_Penalty_Charging>
0

> <r_epik_Ionization_Penalty_Neutral>
3.88767e-05

> <r_epik_State_Penalty>
-0

> <r_epik_Charging_Adjusted_Penalty>
0

> <i_epik_Tot_Q>
0

> <i_epik_Tot_abs_Q>
0

> <r_epik_Metal_State_Penalty>
0.0251347

> <b_epik_Metal_Only>
0

> <s_lp_Force_Field>
OPLS_2005

> <r_lp_Energy>
4.38419

> <b_lp_Chiralities_Consistent>
1

> <s_lp_Variant>
AV-unprocessed.smi:2059-1

> <Gold.Version>
5.8.1

> <Gold.Id.Protein>
6NUR|6NUR_protein|mol2

> <Gold.PLP.Fitness>
36.6758

> <Gold.PLP.PLP>
-25.6132

> <Gold.PLP.part.hbond>
-4.5835

> <Gold.PLP.part.metal>
0.0000

> <Gold.PLP.part.buried>
-4.4347

> <Gold.PLP.part.nonpolar>
-17.9209

> <Gold.PLP.part.repulsive>
0.2250

> <Gold.PLP.ligand.clash>
0.0000

> <Gold.PLP.ligand.torsion>
0.2780

> <Gold.PLP.Chemscore.Hbond>
3.8728

> <Gold.PLP.Chemscore.CHOScore>
0.0000

> <Gold.PLP.Chemscore.Metal>
0.0000

> <Gold.Chemscore.Hbonds>
donor molecule, donor type, donor heavy atom, donor atom, acceptor molecule, acceptor atom, score
      L1  H     5    22       P1  7948  0.80
      L1  H     8    23       P1  7948  1.00
      P1  H  7989  7998       L1    13  0.96
      P1  H  7997  8009       L1    14  0.91

> <Gold.PLP.Chemscore.Internal.Correction>
0.0002

> <Gold.Rescore>
     Score         DG    S(hbond)    S(metal)    S(lipo)     H(rot)  DE(clash)    DE(int)     intcor
     16.15     -17.65       3.10        0.00      37.51       1.00       0.03       1.47       ----

> <Gold.Chemscore.Fitness>
16.1468

> <Gold.Chemscore.DG>
-17.6507

> <Gold.Chemscore.ZeroCoef>
-5.4800

> <Gold.Chemscore.Hbond>
3.0966

> <Gold.Chemscore.Metal>
0.0000

> <Gold.Chemscore.Lipo>
37.5060

> <Gold.Chemscore.Internal_Hbond>
0.0000

> <Gold.Chemscore.DEClash>
0.0321

> <Gold.Chemscore.DEInternal>
1.4718

> <Gold.Chemscore.Rot>
1.0000

> <Gold.Chemscore.Internal.Correction>
   9.000000E+99

> <Gold.Chemscore.Hbonds>
donor molecule, donor type, donor heavy atom, donor atom, acceptor molecule, acceptor atom, score
      L1  H     5    22       P1  7948  0.13
      L1  H     8    23       P1  7948  0.29
      P1  H  7989  7998       L1    13  0.79
      P1  H  7997  8009       L1    14  0.83

> <Gold.Chemscore.Hbond.Weighted>
-10.3425

> <Gold.Chemscore.Metal.Weighted>
-0.0000

> <Gold.Chemscore.Lipo.Weighted>
-4.3882

> <Gold.Chemscore.Internal_Hbond.Weighted>
0.0000

> <Gold.Chemscore.DEClash.Weighted>
0.0321

> <Gold.Chemscore.DEInternal.Weighted>
1.4718

> <Gold.Chemscore.Rot.Weighted>
2.5600

> <Gold.Chemscore.Internal.Correction.Weighted>
   9.000000E+99

> <Gold.Protein.RotatedTorsions>
[ 6907 6896 6895 6894 ] final -146.32 input  -60.11 | X-H torsion
[ 7974 7965 7964 7962 ] final   25.08 input  175.53 | X-H torsion
[ 8008 7997 7996 7995 ] final -158.81 input   59.86 | X-H torsion
[ 10167 10162 10161 10158 ] final  132.28 input  -65.29 | X-H torsion
[ 10718 10713 10712 10709 ] final    5.92 input   66.30 | X-H torsion
[ 10763 10752 10751 10750 ] final    9.96 input  -60.55 | X-H torsion
[ 11005 11000 10999 10996 ] final  163.30 input  -57.11 | X-H torsion

> <Gold.Protein.ActiveResidues>
 VAL166  LYS551  ARG553  GLY616  TRP617  ASP618  TYR619  PRO620  LYS621  CYS622 
 ASP623  PHE694  ASN695  SER759  ASP760  ASP761  ALA762  ILE779  LEU786  VAL792 
 PHE793  MET794  SER795  GLU796  ALA797  LYS798  CYS799  TRP800  GLU811  SER814 

> <Gold.Protein.RotatedAtoms>
  151.1400  133.4977  159.2596 H   0  0  0  0  0  0  0  0  0  0  0  0  # atno 6907 bound_to 6896
  151.1665  135.0297  159.8743 H   0  0  0  0  0  0  0  0  0  0  0  0  # atno 6908 bound_to 6896
  152.5462  134.1269  159.8475 H   0  0  0  0  0  0  0  0  0  0  0  0  # atno 6909 bound_to 6896
  146.1906  139.7516  142.8834 H   0  0  0  0  0  0  0  0  0  0  0  0  # atno 7974 bound_to 7965
  155.7531  140.0829  157.2191 H   0  0  0  0  0  0  0  0  0  0  0  0  # atno 8008 bound_to 7997
  154.4010  140.1556  156.2803 H   0  0  0  0  0  0  0  0  0  0  0  0  # atno 8009 bound_to 7997
  155.8911  140.3415  155.5960 H   0  0  0  0  0  0  0  0  0  0  0  0  # atno 8010 bound_to 7997
  139.5347  144.6669  151.4829 H   0  0  0  0  0  0  0  0  0  0  0  0  # atno 10167 bound_to 10162
  156.9146  130.5768  149.5647 H   0  0  0  0  0  0  0  0  0  0  0  0  # atno 10718 bound_to 10713
  153.2083  135.6865  153.8145 H   0  0  0  0  0  0  0  0  0  0  0  0  # atno 10763 bound_to 10752
  153.7386  135.3241  155.3301 H   0  0  0  0  0  0  0  0  0  0  0  0  # atno 10764 bound_to 10752
  154.8209  135.4653  154.0880 H   0  0  0  0  0  0  0  0  0  0  0  0  # atno 10765 bound_to 10752
  140.2344  134.8099  157.3349 H   0  0  0  0  0  0  0  0  0  0  0  0  # atno 11005 bound_to 11000
  145.3803  141.0357  143.3181 LP  0  0  0  0  0  0  0  0  0  0  0  0  # atno 17320 bound_to 7965
  144.8480  139.5366  143.6869 LP  0  0  0  0  0  0  0  0  0  0  0  0  # atno 17321 bound_to 7965
  140.6546  143.8626  150.6821 LP  0  0  0  0  0  0  0  0  0  0  0  0  # atno 17342 bound_to 10162
  140.2002  143.3966  152.1798 LP  0  0  0  0  0  0  0  0  0  0  0  0  # atno 17343 bound_to 10162
  156.0520  130.5587  150.9009 LP  0  0  0  0  0  0  0  0  0  0  0  0  # atno 17370 bound_to 10713
  157.5946  131.0943  150.9062 LP  0  0  0  0  0  0  0  0  0  0  0  0  # atno 17371 bound_to 10713
  140.1717  134.4600  155.7827 LP  0  0  0  0  0  0  0  0  0  0  0  0  # atno 17394 bound_to 11000
  141.2215  133.6944  156.7718 LP  0  0  0  0  0  0  0  0  0  0  0  0  # atno 17395 bound_to 11000

$$$$
