AV-unprocessed.smi:3183|AV-procd|sdf|12160|dock5
  -GOLD-   2272017593D 1   1.00000     0.00000
 Structure written by MMmdl.
 43 44  0  0  0  0  0  0  0  0  2 V2000
  143.3668  133.1823  151.6141 C   0  0  0  0  0  0  0  0  0  0  0  0
  143.8269  134.6190  151.3098 C   0  0  1  0  0  0  0  0  0  0  0  0
  143.1221  135.6068  152.2613 C   0  0  0  0  0  0  0  0  0  0  0  0
  143.5309  137.0621  151.9937 C   0  0  0  0  0  0  0  0  0  0  0  0
  145.0583  137.2373  152.0908 C   0  0  2  0  0  0  0  0  0  0  0  0
  145.4697  138.6242  151.7795 N   0  3  0  0  0  0  0  0  0  0  0  0
  146.7804  139.0340  152.3259 C   0  0  0  0  0  0  0  0  0  0  0  0
  146.8095  138.8831  153.8542 C   0  0  0  0  0  0  0  0  0  0  0  0
  147.7317  139.8377  154.5511 C   0  0  0  0  0  0  0  0  0  0  0  0
  147.6772  141.1986  154.6855 C   0  0  0  0  0  0  0  0  0  0  0  0
  148.8334  141.5218  155.4469 C   0  0  0  0  0  0  0  0  0  0  0  0
  149.5464  140.4554  155.7610 N   0  0  0  0  0  0  0  0  0  0  0  0
  148.8738  139.4209  155.2151 N   0  0  0  0  0  0  0  0  0  0  0  0
  149.4106  138.0835  155.3830 C   0  0  0  0  0  0  0  0  0  0  0  0
  145.7598  136.2616  151.1297 C   0  0  0  0  0  0  0  0  0  0  0  0
  145.3666  134.7925  151.3897 C   0  0  2  0  0  0  0  0  0  0  0  0
  146.1258  133.8677  150.4212 C   0  0  0  0  0  0  0  0  0  0  0  0
  143.7200  132.8512  152.5911 H   0  0  0  0  0  0  0  0  0  0  0  0
  143.7272  132.4745  150.8682 H   0  0  0  0  0  0  0  0  0  0  0  0
  142.2786  133.1126  151.6148 H   0  0  0  0  0  0  0  0  0  0  0  0
  143.5102  134.8555  150.2925 H   0  0  0  0  0  0  0  0  0  0  0  0
  142.0402  135.5133  152.1594 H   0  0  0  0  0  0  0  0  0  0  0  0
  143.3548  135.3504  153.2961 H   0  0  0  0  0  0  0  0  0  0  0  0
  143.1832  137.3622  151.0043 H   0  0  0  0  0  0  0  0  0  0  0  0
  143.0215  137.7070  152.7094 H   0  0  0  0  0  0  0  0  0  0  0  0
  145.3833  137.0041  153.1062 H   0  0  0  0  0  0  0  0  0  0  0  0
  145.5266  138.7052  150.7743 H   0  0  0  0  0  0  0  0  0  0  0  0
  147.5705  138.4280  151.8823 H   0  0  0  0  0  0  0  0  0  0  0  0
  146.9731  140.0723  152.0524 H   0  0  0  0  0  0  0  0  0  0  0  0
  145.7998  139.0180  154.2438 H   0  0  0  0  0  0  0  0  0  0  0  0
  147.1007  137.8628  154.1069 H   0  0  0  0  0  0  0  0  0  0  0  0
  146.9248  141.8694  154.2982 H   0  0  0  0  0  0  0  0  0  0  0  0
  149.1725  142.4923  155.7775 H   0  0  0  0  0  0  0  0  0  0  0  0
  148.7011  137.3320  155.0383 H   0  0  0  0  0  0  0  0  0  0  0  0
  149.6243  137.9015  156.4369 H   0  0  0  0  0  0  0  0  0  0  0  0
  150.3339  137.9854  154.8114 H   0  0  0  0  0  0  0  0  0  0  0  0
  145.5174  136.5254  150.0989 H   0  0  0  0  0  0  0  0  0  0  0  0
  146.8408  136.3725  151.2272 H   0  0  0  0  0  0  0  0  0  0  0  0
  145.6853  134.5379  152.4017 H   0  0  0  0  0  0  0  0  0  0  0  0
  145.8019  134.0183  149.3910 H   0  0  0  0  0  0  0  0  0  0  0  0
  145.9808  132.8164  150.6682 H   0  0  0  0  0  0  0  0  0  0  0  0
  147.1994  134.0545  150.4617 H   0  0  0  0  0  0  0  0  0  0  0  0
  144.7563  139.2580  152.1106 H   0  0  0  0  0  0  0  0  0  0  0  0
  1  2  1  0  0  0  0
  1 18  1  0  0  0  0
  1 19  1  0  0  0  0
  1 20  1  0  0  0  0
  2 16  1  0  0  0  0
  2  3  1  0  0  0  0
  2 21  1  0  0  0  0
  3  4  1  0  0  0  0
  3 22  1  0  0  0  0
  3 23  1  0  0  0  0
  4  5  1  0  0  0  0
  4 24  1  0  0  0  0
  4 25  1  0  0  0  0
  5  6  1  0  0  0  0
  5 15  1  0  0  0  0
  5 26  1  0  0  0  0
  6  7  1  0  0  0  0
  6 27  1  0  0  0  0
  6 43  1  0  0  0  0
  7  8  1  0  0  0  0
  7 28  1  0  0  0  0
  7 29  1  0  0  0  0
  8  9  1  0  0  0  0
  8 30  1  0  0  0  0
  8 31  1  0  0  0  0
  9 13  1  0  0  0  0
  9 10  2  0  0  0  0
 10 11  1  0  0  0  0
 10 32  1  0  0  0  0
 11 12  2  0  0  0  0
 11 33  1  0  0  0  0
 12 13  1  0  0  0  0
 13 14  1  0  0  0  0
 14 34  1  0  0  0  0
 14 35  1  0  0  0  0
 14 36  1  0  0  0  0
 15 16  1  0  0  0  0
 15 37  1  0  0  0  0
 15 38  1  0  0  0  0
 16 17  1  0  0  0  0
 16 39  1  0  0  0  0
 17 40  1  0  0  0  0
 17 41  1  0  0  0  0
 17 42  1  0  0  0  0
M  CHG  1   6   1
M  END
> <s_m_source_file>
AV-unprocessed.smi

> <i_m_source_file_index>
3183

> <i_lp_mmshare_version>
43012

> <i_f3d_flags>
0

> <s_epik_input>
W0NIM11bQ0BASF0xW0NIMl1bQ0gyXVtDQEhdKFtDSDJdW0NASF0xW0NIM10pW05IXVtDSDJdW0NIMl1jMltjSF1bY0hdbm4yW0NIM10=

> <s_epik_cmdline>
J2VwaWtfcHl0aG9uJywgJy1waCcsICc3LjAnLCAnLXRuJywgJzgnLCAnLW1hJywgJzIwMCcsICctbWV0YWxfYmluZGluZycsICctaW1hZScsICc8aW5maWxlLm1hZT4nLCAnLW9tYWUnLCAnPG91dGZpbGUubWFlPic=

> <r_lp_tautomer_probability>
1

> <r_epik_Ionization_Penalty>
0.000327718

> <r_epik_Ionization_Penalty_Charging>
0.000294043

> <r_epik_Ionization_Penalty_Neutral>
3.36755e-05

> <r_epik_State_Penalty>
-0

> <r_epik_Charging_Adjusted_Penalty>
0.000294043

> <i_epik_Tot_Q>
1

> <i_epik_Tot_abs_Q>
1

> <r_epik_Metal_State_Penalty>
-0

> <b_epik_Metal_Only>
0

> <s_lp_Force_Field>
OPLS_2005

> <r_lp_Energy>
12.5672

> <b_lp_Chiralities_Consistent>
1

> <s_lp_Variant>
AV-unprocessed.smi:3183-8

> <Gold.Version>
5.8.1

> <Gold.Id.Protein>
6NUR|6NUR_protein|mol2

> <Gold.PLP.Fitness>
45.5193

> <Gold.PLP.PLP>
-32.0025

> <Gold.PLP.part.hbond>
-3.0000

> <Gold.PLP.part.metal>
0.0000

> <Gold.PLP.part.buried>
3.5309

> <Gold.PLP.part.nonpolar>
-32.0806

> <Gold.PLP.part.repulsive>
0.1304

> <Gold.PLP.ligand.clash>
0.0000

> <Gold.PLP.ligand.torsion>
0.4366

> <Gold.PLP.Chemscore.Hbond>
3.7920

> <Gold.PLP.Chemscore.CHOScore>
1.0000

> <Gold.PLP.Chemscore.Metal>
0.0000

> <Gold.Chemscore.Hbonds>
donor molecule, donor type, donor heavy atom, donor atom, acceptor molecule, acceptor atom, score
      L1  H     6    27       P1 10171  0.35
      L1  H     6    43       P1 10175  2.00
      L1  C    11    33       P1  8028  1.00

> <Gold.PLP.Chemscore.Internal.Correction>
0.0140

> <Gold.Rescore>
     Score         DG    S(hbond)    S(metal)    S(lipo)     H(rot)  DE(clash)    DE(int)     intcor
     15.89     -19.14       2.07        0.00      87.76       1.38       2.60       0.65       ----

> <Gold.Chemscore.Fitness>
15.8926

> <Gold.Chemscore.DG>
-19.1431

> <Gold.Chemscore.ZeroCoef>
-5.4800

> <Gold.Chemscore.Hbond>
2.0719

> <Gold.Chemscore.Metal>
0.0000

> <Gold.Chemscore.Lipo>
87.7572

> <Gold.Chemscore.Internal_Hbond>
0.0000

> <Gold.Chemscore.DEClash>
2.5970

> <Gold.Chemscore.DEInternal>
0.6535

> <Gold.Chemscore.Rot>
1.3768

> <Gold.Chemscore.Internal.Correction>
   9.000000E+99

> <Gold.Chemscore.Hbonds>
donor molecule, donor type, donor heavy atom, donor atom, acceptor molecule, acceptor atom, score
      L1  H     6    27       P1 10171  0.34
      L1  H     6    43       P1 10175  1.00

> <Gold.Chemscore.Hbond.Weighted>
-6.9202

> <Gold.Chemscore.Metal.Weighted>
-0.0000

> <Gold.Chemscore.Lipo.Weighted>
-10.2676

> <Gold.Chemscore.Internal_Hbond.Weighted>
0.0000

> <Gold.Chemscore.DEClash.Weighted>
2.5970

> <Gold.Chemscore.DEInternal.Weighted>
0.6535

> <Gold.Chemscore.Rot.Weighted>
3.5247

> <Gold.Chemscore.Internal.Correction.Weighted>
   9.000000E+99

> <Gold.Protein.RotatedTorsions>
[ 6907 6896 6895 6894 ] final  -39.37 input  -60.11 | X-H torsion
[ 7974 7965 7964 7962 ] final   34.89 input  175.53 | X-H torsion
[ 8008 7997 7996 7995 ] final -152.04 input   59.86 | X-H torsion
[ 10167 10162 10161 10158 ] final   56.55 input  -65.29 | X-H torsion
[ 10718 10713 10712 10709 ] final  -72.53 input   66.30 | X-H torsion
[ 10763 10752 10751 10750 ] final  108.14 input  -60.55 | X-H torsion
[ 11005 11000 10999 10996 ] final -105.49 input  -57.11 | X-H torsion

> <Gold.Protein.ActiveResidues>
 VAL166  LYS551  ARG553  GLY616  TRP617  ASP618  TYR619  PRO620  LYS621  CYS622 
 ASP623  PHE694  ASN695  SER759  ASP760  ASP761  ALA762  ILE779  LEU786  VAL792 
 PHE793  MET794  SER795  GLU796  ALA797  LYS798  CYS799  TRP800  GLU811  SER814 

> <Gold.Protein.RotatedAtoms>
  150.9912  134.9246  159.7900 H   0  0  0  0  0  0  0  0  0  0  0  0  # atno 6907 bound_to 6896
  152.5251  134.3280  159.9182 H   0  0  0  0  0  0  0  0  0  0  0  0  # atno 6908 bound_to 6896
  151.3285  133.3969  159.2695 H   0  0  0  0  0  0  0  0  0  0  0  0  # atno 6909 bound_to 6896
  146.1321  139.6211  142.9219 H   0  0  0  0  0  0  0  0  0  0  0  0  # atno 7974 bound_to 7965
  155.6489  140.0710  157.2593 H   0  0  0  0  0  0  0  0  0  0  0  0  # atno 8008 bound_to 7997
  154.4167  140.1737  156.1703 H   0  0  0  0  0  0  0  0  0  0  0  0  # atno 8009 bound_to 7997
  155.9793  140.3355  155.6651 H   0  0  0  0  0  0  0  0  0  0  0  0  # atno 8010 bound_to 7997
  140.2075  144.3923  150.6502 H   0  0  0  0  0  0  0  0  0  0  0  0  # atno 10167 bound_to 10162
  156.0317  130.4374  150.2606 H   0  0  0  0  0  0  0  0  0  0  0  0  # atno 10718 bound_to 10713
  153.4165  135.3821  155.2084 H   0  0  0  0  0  0  0  0  0  0  0  0  # atno 10763 bound_to 10752
  154.8741  135.3807  154.4437 H   0  0  0  0  0  0  0  0  0  0  0  0  # atno 10764 bound_to 10752
  153.4951  135.7088  153.5925 H   0  0  0  0  0  0  0  0  0  0  0  0  # atno 10765 bound_to 10752
  141.1051  133.8812  157.1740 H   0  0  0  0  0  0  0  0  0  0  0  0  # atno 11005 bound_to 11000
  145.5237  141.0430  143.2421 LP  0  0  0  0  0  0  0  0  0  0  0  0  # atno 17320 bound_to 7965
  144.7701  139.6753  143.7198 LP  0  0  0  0  0  0  0  0  0  0  0  0  # atno 17321 bound_to 7965
  140.6347  143.2193  151.6421 LP  0  0  0  0  0  0  0  0  0  0  0  0  # atno 17342 bound_to 10162
  139.5193  144.3259  152.0869 LP  0  0  0  0  0  0  0  0  0  0  0  0  # atno 17343 bound_to 10162
  157.0708  131.0116  151.3191 LP  0  0  0  0  0  0  0  0  0  0  0  0  # atno 17370 bound_to 10713
  157.5001  130.7874  149.7595 LP  0  0  0  0  0  0  0  0  0  0  0  0  # atno 17371 bound_to 10713
  139.9918  135.0062  156.9991 LP  0  0  0  0  0  0  0  0  0  0  0  0  # atno 17394 bound_to 11000
  140.4923  134.1180  155.7235 LP  0  0  0  0  0  0  0  0  0  0  0  0  # atno 17395 bound_to 11000

$$$$
