#       Name:                AV-unprocessed.smi:159
#       Creating user name   scv26
#       Creation time:       Thu Mar 26 19:03:45 2020


#       File generated by GOLD software.
#

@<TRIPOS>MOLECULE
AV-unprocessed.smi:159
    35    36     1
SMALL
NO_CHARGES


@<TRIPOS>ATOM
      1 ****        -4.8036  -0.5313   0.2349 N.pl3          1 S1                 0.0000
      2 ****        -3.4677  -0.6141   0.3071 C.2            1 S1                 0.0000
      3 ****        -2.6452   0.5205  -0.0480 C.2            1 S1                 0.0000
      4 ****        -1.3076   0.3602   0.0554 C.2            1 S1                 0.0000
      5 ****        -0.7360  -0.8276   0.4900 N.am           1 S1                 0.0000
      6 ****         0.7654  -0.9798   0.5912 C.3            1 S1                 0.0000
      7 ****         1.3543  -1.3935  -0.7624 C.3            1 S1                 0.0000
      8 ****         1.9630  -0.0964  -1.2517 C.3            1 S1                 0.0000
      9 ****         2.3939   0.5644   0.0559 C.3            1 S1                 0.0000
     10 ****         2.5725   2.0853  -0.0584 C.3            1 S1                 0.0000
     11 ****         3.3517   2.5635   1.0169 O.3            1 S1                 0.0000
     12 ****         1.3215   0.2545   0.9399 O.3            1 S1                 0.0000
     13 ****        -1.5672  -1.9286   0.8095 C.2            1 S1                 0.0000
     14 ****        -1.1050  -3.0136   1.1610 O.2            1 S1                 0.0000
     15 ****        -2.9201  -1.7468   0.7026 N.2            1 S1                 0.0000
     16 ****         0.9675  -1.6939   1.3912 H              1 S1                 0.0000
     17 ****         3.3084   0.0860   0.4123 H              1 S1                 0.0000
     18 ****        -5.3755  -1.3263   0.4805 H              1 S1                 0.0000
     19 ****        -5.2360   0.3286  -0.0711 H              1 S1                 0.0000
     20 ****        -3.0479   1.4656  -0.3833 H              1 S1                 0.0000
     21 ****        -0.6788   1.1960  -0.2140 H              1 S1                 0.0000
     22 ****         2.1292  -2.1418  -0.5914 H              1 S1                 0.0000
     23 ****         0.6022  -1.8100  -1.4339 H              1 S1                 0.0000
     24 ****         2.7918  -0.2499  -1.9433 H              1 S1                 0.0000
     25 ****         1.2055   0.5056  -1.7554 H              1 S1                 0.0000
     26 ****         3.1016   2.3319  -0.9794 H              1 S1                 0.0000
     27 ****         1.6105   2.5976  -0.0898 H              1 S1                 0.0000
     28 ****         3.4532   3.4983   0.9226 H              1 S1                 0.0000
     29 ****         4.2498   2.1240   1.0039 LP             1 S1                 0.0000
     30 ****         2.8933   2.3598   1.8820 LP             1 S1                 0.0000
     31 ****         1.6657   0.2110   1.8777 LP             1 S1                 0.0000
     32 ****         0.6209   0.9651   0.8746 LP             1 S1                 0.0000
     33 ****        -0.1150  -3.1372   1.2278 LP             1 S1                 0.0000
     34 ****        -1.7195  -3.7716   1.3797 LP             1 S1                 0.0000
     35 ****        -3.5224  -2.5102   0.9358 LP             1 S1                 0.0000
@<TRIPOS>BOND
    1    1    2 1     
    2    1   18 1     
    3    1   19 1     
    4    2   15 2     
    5    2    3 1     
    6    3    4 2     
    7    3   20 1     
    8    4    5 1     
    9    4   21 1     
   10    5    6 1     
   11    5   13 am    
   12    6   16 1     
   13    6   12 1     
   14    6    7 1     
   15    7    8 1     
   16    7   22 1     
   17    7   23 1     
   18    8    9 1     
   19    8   24 1     
   20    8   25 1     
   21    9   17 1     
   22    9   10 1     
   23    9   12 1     
   24   10   11 1     
   25   10   26 1     
   26   10   27 1     
   27   11   28 1     
   28   13   14 2     
   29   13   15 1     
   30   11   29 1     
   31   11   30 1     
   32   12   31 1     
   33   12   32 1     
   34   14   33 1     
   35   14   34 1     
   36   15   35 1     
@<TRIPOS>SUBSTRUCTURE
      1 S1             1
@<TRIPOS>SET
LONE_PAIRS      STATIC     ATOMS    <user>   **** ""
7 29 30 31 32 33 34 35
DONOR_HYDROGENS      STATIC     ATOMS    <user>   **** ""
3 18 19 28
ATOM$BLUE        STATIC     ATOMS    COLORGROUP SYSTEM
7 29 30 31 32 33 34 35
ATOM$RED        STATIC     ATOMS    COLORGROUP SYSTEM
3 18 19 28
