#       Name:                AV-unprocessed.smi:1504
#       Creating user name   scv26
#       Creation time:       Fri Mar 27 06:19:26 2020


#       File generated by GOLD software.
#

@<TRIPOS>MOLECULE
AV-unprocessed.smi:1504
    42    43     1
SMALL
NO_CHARGES


@<TRIPOS>ATOM
      1 ****         0.4470   1.6289   0.2476 O.2            1 S1                 0.0000
      2 ****        -0.0018   0.4834   0.2930 C.2            1 S1                 0.0000
      3 ****         0.7585  -0.6199   0.3253 N.am           1 S1                 0.0000
      4 ****         2.2167  -0.6274   0.3132 C.3            1 S1                 0.0000
      5 ****         2.7718  -0.4261  -1.1070 C.3            1 S1                 0.0000
      6 ****         4.2874  -0.4496  -1.1416 C.ar           1 S1                 0.0000
      7 ****         5.0558   0.7333  -1.2029 C.ar           1 S1                 0.0000
      8 ****         6.4629   0.6401  -1.2308 C.ar           1 S1                 0.0000
      9 ****         7.0715  -0.6319  -1.1955 C.ar           1 S1                 0.0000
     10 ****         6.2559  -1.7802  -1.1319 C.ar           1 S1                 0.0000
     11 ****         4.9112  -1.6495  -1.1074 N.pl3          1 S1                 1.0000
     12 ****        -1.3078   0.1899   0.3125 N.am           1 S1                 0.0000
     13 ****        -2.3731   1.1838   0.2879 C.3            1 S1                 0.0000
     14 ****        -3.7574   0.5132   0.2919 C.3            1 S1                 0.0000
     15 ****        -4.9071   1.5373   0.2256 C.3            1 S1                 0.0000
     16 ****        -6.2251   0.8078   0.5018 C.3            1 S1                 0.0000
     17 ****        -5.8185  -0.4879   1.7296 S.o2           1 S1                 0.0000
     18 ****        -6.1667  -0.0125   3.0770 O.2            1 S1                 0.0000
     19 ****        -6.3023  -1.7860   1.2356 O.2            1 S1                 0.0000
     20 ****        -3.9997  -0.3871   1.5168 C.3            1 S1                 0.0000
     21 ****         0.2963  -1.5168   0.3632 H              1 S1                 0.0000
     22 ****         2.5992   0.1424   0.9857 H              1 S1                 0.0000
     23 ****         2.5516  -1.5844   0.7140 H              1 S1                 0.0000
     24 ****         2.3916  -1.2035  -1.7713 H              1 S1                 0.0000
     25 ****         2.4257   0.5239  -1.5167 H              1 S1                 0.0000
     26 ****         4.5751   1.7007  -1.2278 H              1 S1                 0.0000
     27 ****         7.0680   1.5336  -1.2785 H              1 S1                 0.0000
     28 ****         8.1476  -0.7248  -1.2164 H              1 S1                 0.0000
     29 ****         6.6350  -2.7913  -1.1007 H              1 S1                 0.0000
     30 ****        -1.5847  -0.7802   0.3492 H              1 S1                 0.0000
     31 ****        -2.2704   1.8438   1.1509 H              1 S1                 0.0000
     32 ****        -2.2647   1.8039  -0.6035 H              1 S1                 0.0000
     33 ****        -3.8377  -0.1151  -0.5967 H              1 S1                 0.0000
     34 ****        -4.7572   2.2964   0.9947 H              1 S1                 0.0000
     35 ****        -4.9330   2.0556  -0.7333 H              1 S1                 0.0000
     36 ****        -7.0070   1.4630   0.8858 H              1 S1                 0.0000
     37 ****        -6.5908   0.3159  -0.3998 H              1 S1                 0.0000
     38 ****        -3.5813  -1.3869   1.4008 H              1 S1                 0.0000
     39 ****        -3.5849   0.0593   2.4212 H              1 S1                 0.0000
     40 ****         4.3407  -2.4942  -1.0613 H              1 S1                 0.0000
     41 ****         1.4357   1.7783   0.2328 LP             1 S1                 0.0000
     42 ****        -0.1771   2.4099   0.2256 LP             1 S1                 0.0000
@<TRIPOS>BOND
    1    1    2 2     
    2    2    3 am    
    3    2   12 am    
    4    3    4 1     
    5    3   21 1     
    6    4    5 1     
    7    4   22 1     
    8    4   23 1     
    9    5    6 1     
   10    5   24 1     
   11    5   25 1     
   12    6   11 ar    
   13    6    7 ar    
   14    7    8 ar    
   15    7   26 1     
   16    8    9 ar    
   17    8   27 1     
   18    9   10 ar    
   19    9   28 1     
   20   10   11 ar    
   21   10   29 1     
   22   11   40 1     
   23   12   13 1     
   24   12   30 1     
   25   13   14 1     
   26   13   31 1     
   27   13   32 1     
   28   14   20 1     
   29   14   15 1     
   30   14   33 1     
   31   15   16 1     
   32   15   34 1     
   33   15   35 1     
   34   16   17 1     
   35   16   36 1     
   36   16   37 1     
   37   17   18 2     
   38   17   19 2     
   39   17   20 1     
   40   20   38 1     
   41   20   39 1     
   42    1   41 1     
   43    1   42 1     
@<TRIPOS>SUBSTRUCTURE
      1 S1             1
@<TRIPOS>SET
LONE_PAIRS      STATIC     ATOMS    <user>   **** ""
4 41 42 18 19
DONOR_HYDROGENS      STATIC     ATOMS    <user>   **** ""
3 21 40 30
ATOM$BLUE        STATIC     ATOMS    COLORGROUP SYSTEM
4 41 42 18 19
ATOM$RED        STATIC     ATOMS    COLORGROUP SYSTEM
3 21 40 30
