AV-unprocessed.smi:2278|AV-procd|sdf|9179|dock1
  -GOLD-   2272012393D 1   1.00000     0.00000
 Structure written by MMmdl.
 46 47  0  0  0  0  0  0  0  0  2 V2000
  152.7554  138.8604  155.5579 C   0  0  0  0  0  0  0  0  0  0  0  0
  151.4410  139.6158  155.6410 C   0  0  0  0  0  0  0  0  0  0  0  0
  150.6958  139.6637  154.4594 N   0  0  0  0  0  0  0  0  0  0  0  0
  149.5600  140.2803  154.4382 C   0  0  0  0  0  0  0  0  0  0  0  0
  149.0390  140.9104  155.5810 N   0  0  0  0  0  0  0  0  0  0  0  0
  147.7262  141.5608  155.4197 C   0  0  0  0  0  0  0  0  0  0  0  0
  146.8752  140.9197  154.2997 C   0  0  2  0  0  0  0  0  0  0  0  0
  145.8459  141.8303  153.9689 O   0  0  0  0  0  0  0  0  0  0  0  0
  146.2266  139.5781  154.7057 C   0  0  0  0  0  0  0  0  0  0  0  0
  145.7512  138.7948  153.5371 N   0  3  2  0  0  0  0  0  0  0  0  0
  145.1178  137.5130  153.9403 C   0  0  0  0  0  0  0  0  0  0  0  0
  144.5100  136.7875  152.7281 C   0  0  0  0  0  0  0  0  0  0  0  0
  145.5649  136.5421  151.6364 C   0  0  1  0  0  0  0  0  0  0  0  0
  144.9608  135.8472  150.4081 C   0  0  0  0  0  0  0  0  0  0  0  0
  146.2298  137.8783  151.2654 C   0  0  0  0  0  0  0  0  0  0  0  0
  146.8028  138.5815  152.5071 C   0  0  0  0  0  0  0  0  0  0  0  0
  149.7074  140.9207  156.7712 C   0  0  0  0  0  0  0  0  0  0  0  0
  149.2444  141.4768  157.7689 O   0  0  0  0  0  0  0  0  0  0  0  0
  150.9974  140.2121  156.7810 C   0  0  0  0  0  0  0  0  0  0  0  0
  151.7625  140.1871  158.0985 C   0  0  0  0  0  0  0  0  0  0  0  0
  153.5897  139.5144  155.8131 H   0  0  0  0  0  0  0  0  0  0  0  0
  152.9299  138.4752  154.5523 H   0  0  0  0  0  0  0  0  0  0  0  0
  152.7530  138.0135  156.2445 H   0  0  0  0  0  0  0  0  0  0  0  0
  148.9388  140.3457  153.5431 H   0  0  0  0  0  0  0  0  0  0  0  0
  147.1654  141.5613  156.3562 H   0  0  0  0  0  0  0  0  0  0  0  0
  147.8787  142.6195  155.1990 H   0  0  0  0  0  0  0  0  0  0  0  0
  147.4968  140.7945  153.4140 H   0  0  0  0  0  0  0  0  0  0  0  0
  145.2014  141.3817  153.4424 H   0  0  0  0  0  0  0  0  0  0  0  0
  146.9220  138.9592  155.2722 H   0  0  0  0  0  0  0  0  0  0  0  0
  145.3929  139.7895  155.3775 H   0  0  0  0  0  0  0  0  0  0  0  0
  145.8579  136.8773  154.4295 H   0  0  0  0  0  0  0  0  0  0  0  0
  144.3308  137.7042  154.6710 H   0  0  0  0  0  0  0  0  0  0  0  0
  144.0763  135.8395  153.0486 H   0  0  0  0  0  0  0  0  0  0  0  0
  143.6888  137.3813  152.3234 H   0  0  0  0  0  0  0  0  0  0  0  0
  146.3318  135.8831  152.0466 H   0  0  0  0  0  0  0  0  0  0  0  0
  144.1803  136.4560  149.9507 H   0  0  0  0  0  0  0  0  0  0  0  0
  144.5189  134.8877  150.6781 H   0  0  0  0  0  0  0  0  0  0  0  0
  145.7214  135.6572  149.6504 H   0  0  0  0  0  0  0  0  0  0  0  0
  147.0271  137.7093  150.5406 H   0  0  0  0  0  0  0  0  0  0  0  0
  145.5044  138.5323  150.7792 H   0  0  0  0  0  0  0  0  0  0  0  0
  147.2380  139.5327  152.2033 H   0  0  0  0  0  0  0  0  0  0  0  0
  147.6140  137.9873  152.9315 H   0  0  0  0  0  0  0  0  0  0  0  0
  151.1606  139.7113  158.8733 H   0  0  0  0  0  0  0  0  0  0  0  0
  151.9887  141.2036  158.4216 H   0  0  0  0  0  0  0  0  0  0  0  0
  152.7048  139.6454  158.0385 H   0  0  0  0  0  0  0  0  0  0  0  0
  145.0209  139.3463  153.1088 H   0  0  0  0  0  0  0  0  0  0  0  0
  1  2  1  0  0  0  0
  1 21  1  0  0  0  0
  1 22  1  0  0  0  0
  1 23  1  0  0  0  0
  2 19  2  0  0  0  0
  2  3  1  0  0  0  0
  3  4  2  0  0  0  0
  4  5  1  0  0  0  0
  4 24  1  0  0  0  0
  5  6  1  0  0  0  0
  5 17  1  0  0  0  0
  6  7  1  0  0  0  0
  6 25  1  0  0  0  0
  6 26  1  0  0  0  0
  7  8  1  0  0  0  0
  7  9  1  0  0  0  0
  7 27  1  0  0  0  0
  8 28  1  0  0  0  0
  9 10  1  0  0  0  0
  9 29  1  0  0  0  0
  9 30  1  0  0  0  0
 10 16  1  0  0  0  0
 10 11  1  0  0  0  0
 10 46  1  0  0  0  0
 11 12  1  0  0  0  0
 11 31  1  0  0  0  0
 11 32  1  0  0  0  0
 12 13  1  0  0  0  0
 12 33  1  0  0  0  0
 12 34  1  0  0  0  0
 13 14  1  0  0  0  0
 13 15  1  0  0  0  0
 13 35  1  0  0  0  0
 14 36  1  0  0  0  0
 14 37  1  0  0  0  0
 14 38  1  0  0  0  0
 15 16  1  0  0  0  0
 15 39  1  0  0  0  0
 15 40  1  0  0  0  0
 16 41  1  0  0  0  0
 16 42  1  0  0  0  0
 17 18  2  0  0  0  0
 17 19  1  0  0  0  0
 19 20  1  0  0  0  0
 20 43  1  0  0  0  0
 20 44  1  0  0  0  0
 20 45  1  0  0  0  0
M  CHG  1  10   1
M  END
> <s_m_source_file>
AV-unprocessed.smi

> <i_m_source_file_index>
2278

> <i_lp_mmshare_version>
43012

> <i_f3d_flags>
0

> <s_epik_input>
W0NIM11jMW5bY0hdbihjKD1PKWMxW0NIM10pW0NIMl1bQ0BIXShbT0hdKVtDSDJdTjJbQ0gyXVtDSDJdW0NIXShbQ0gzXSlbQ0gyXVtDSDJdMg==

> <s_epik_cmdline>
J2VwaWtfcHl0aG9uJywgJy1waCcsICc3LjAnLCAnLXRuJywgJzgnLCAnLW1hJywgJzIwMCcsICctbWV0YWxfYmluZGluZycsICctaW1hZScsICc8aW5maWxlLm1hZT4nLCAnLW9tYWUnLCAnPG91dGZpbGUubWFlPic=

> <r_lp_tautomer_probability>
1

> <r_epik_Ionization_Penalty>
0.00139489

> <r_epik_Ionization_Penalty_Charging>
0.00136819

> <r_epik_Ionization_Penalty_Neutral>
2.66975e-05

> <r_epik_State_Penalty>
0.000910892

> <r_epik_Charging_Adjusted_Penalty>
0.00227908

> <i_epik_Tot_Q>
1

> <i_epik_Tot_abs_Q>
1

> <r_epik_Metal_State_Penalty>
-0

> <b_epik_Metal_Only>
0

> <s_lp_Force_Field>
OPLS_2005

> <r_lp_Energy>
28.1947

> <b_lp_Chiralities_Consistent>
1

> <s_lp_Variant>
AV-unprocessed.smi:2278-1

> <Gold.Version>
5.8.1

> <Gold.Id.Protein>
6NUR|6NUR_protein|mol2

> <Gold.PLP.Fitness>
45.2683

> <Gold.PLP.PLP>
-31.6321

> <Gold.PLP.part.hbond>
-3.0000

> <Gold.PLP.part.metal>
0.0000

> <Gold.PLP.part.buried>
2.2881

> <Gold.PLP.part.nonpolar>
-31.5471

> <Gold.PLP.part.repulsive>
0.1986

> <Gold.PLP.ligand.clash>
0.0000

> <Gold.PLP.ligand.torsion>
0.6454

> <Gold.PLP.Chemscore.Hbond>
4.0000

> <Gold.PLP.Chemscore.CHOScore>
0.9434

> <Gold.PLP.Chemscore.Metal>
0.0000

> <Gold.Chemscore.Hbonds>
donor molecule, donor type, donor heavy atom, donor atom, acceptor molecule, acceptor atom, score
      L1  H     8    28       P1 10175  0.90
      L1  H    10    46       P1 10175  2.00
      P1  H  7989  7998       L1     3  0.85
      L1  C     4    24       P1  7957  0.97

> <Gold.PLP.Chemscore.Internal.Correction>
0.0969

> <Gold.Rescore>
     Score         DG    S(hbond)    S(metal)    S(lipo)     H(rot)  DE(clash)    DE(int)     intcor
     12.16     -13.34       1.71        0.00      66.43       2.20       0.58       0.59       ----

> <Gold.Chemscore.Fitness>
12.1585

> <Gold.Chemscore.DG>
-13.3356

> <Gold.Chemscore.ZeroCoef>
-5.4800

> <Gold.Chemscore.Hbond>
1.7102

> <Gold.Chemscore.Metal>
0.0000

> <Gold.Chemscore.Lipo>
66.4270

> <Gold.Chemscore.Internal_Hbond>
0.0000

> <Gold.Chemscore.DEClash>
0.5844

> <Gold.Chemscore.DEInternal>
0.5927

> <Gold.Chemscore.Rot>
2.1986

> <Gold.Chemscore.Internal.Correction>
   9.000000E+99

> <Gold.Chemscore.Hbonds>
donor molecule, donor type, donor heavy atom, donor atom, acceptor molecule, acceptor atom, score
      L1  H     8    28       P1 10175  0.17
      L1  H    10    46       P1 10175  1.00
      P1  H  7989  7998       L1     3  0.05

> <Gold.Chemscore.Hbond.Weighted>
-5.7121

> <Gold.Chemscore.Metal.Weighted>
-0.0000

> <Gold.Chemscore.Lipo.Weighted>
-7.7720

> <Gold.Chemscore.Internal_Hbond.Weighted>
0.0000

> <Gold.Chemscore.DEClash.Weighted>
0.5844

> <Gold.Chemscore.DEInternal.Weighted>
0.5927

> <Gold.Chemscore.Rot.Weighted>
5.6285

> <Gold.Chemscore.Internal.Correction.Weighted>
   9.000000E+99

> <Gold.Protein.RotatedTorsions>
[ 6907 6896 6895 6894 ] final   43.69 input  -60.11 | X-H torsion
[ 7974 7965 7964 7962 ] final  173.37 input  175.53 | X-H torsion
[ 8008 7997 7996 7995 ] final -145.33 input   59.86 | X-H torsion
[ 10167 10162 10161 10158 ] final   97.96 input  -65.29 | X-H torsion
[ 10718 10713 10712 10709 ] final  137.00 input   66.30 | X-H torsion
[ 10763 10752 10751 10750 ] final -101.60 input  -60.55 | X-H torsion
[ 11005 11000 10999 10996 ] final   95.94 input  -57.11 | X-H torsion

> <Gold.Protein.ActiveResidues>
 VAL166  LYS551  ARG553  GLY616  TRP617  ASP618  TYR619  PRO620  LYS621  CYS622 
 ASP623  PHE694  ASN695  SER759  ASP760  ASP761  ALA762  ILE779  LEU786  VAL792 
 PHE793  MET794  SER795  GLU796  ALA797  LYS798  CYS799  TRP800  GLU811  SER814 

> <Gold.Protein.RotatedAtoms>
  152.2234  134.8391  160.0482 H   0  0  0  0  0  0  0  0  0  0  0  0  # atno 6907 bound_to 6896
  151.9166  133.3569  159.3890 H   0  0  0  0  0  0  0  0  0  0  0  0  # atno 6908 bound_to 6896
  150.7006  134.4603  159.5421 H   0  0  0  0  0  0  0  0  0  0  0  0  # atno 6909 bound_to 6896
  144.7245  139.9638  143.6435 H   0  0  0  0  0  0  0  0  0  0  0  0  # atno 7974 bound_to 7965
  155.5415  140.0608  157.2869 H   0  0  0  0  0  0  0  0  0  0  0  0  # atno 8008 bound_to 7997
  154.4450  140.1918  156.0639 H   0  0  0  0  0  0  0  0  0  0  0  0  # atno 8009 bound_to 7997
  156.0581  140.3276  155.7433 H   0  0  0  0  0  0  0  0  0  0  0  0  # atno 8010 bound_to 7997
  139.7753  144.6908  151.0099 H   0  0  0  0  0  0  0  0  0  0  0  0  # atno 10167 bound_to 10162
  157.4407  131.1057  151.0146 H   0  0  0  0  0  0  0  0  0  0  0  0  # atno 10718 bound_to 10713
  154.7670  135.4892  153.9574 H   0  0  0  0  0  0  0  0  0  0  0  0  # atno 10763 bound_to 10752
  153.1320  135.6755  153.9171 H   0  0  0  0  0  0  0  0  0  0  0  0  # atno 10764 bound_to 10752
  153.8871  135.3125  155.3425 H   0  0  0  0  0  0  0  0  0  0  0  0  # atno 10765 bound_to 10752
  139.8785  134.8925  156.4085 H   0  0  0  0  0  0  0  0  0  0  0  0  # atno 11005 bound_to 11000
  146.0617  139.3610  143.0577 LP  0  0  0  0  0  0  0  0  0  0  0  0  # atno 17320 bound_to 7965
  145.8084  140.9737  143.0961 LP  0  0  0  0  0  0  0  0  0  0  0  0  # atno 17321 bound_to 7965
  140.7816  143.4543  151.0368 LP  0  0  0  0  0  0  0  0  0  0  0  0  # atno 17342 bound_to 10162
  139.8225  143.7800  152.3177 LP  0  0  0  0  0  0  0  0  0  0  0  0  # atno 17343 bound_to 10162
  157.1011  130.5982  149.5460 LP  0  0  0  0  0  0  0  0  0  0  0  0  # atno 17370 bound_to 10713
  155.9947  130.5012  150.7432 LP  0  0  0  0  0  0  0  0  0  0  0  0  # atno 17371 bound_to 10713
  140.9217  133.7640  155.9915 LP  0  0  0  0  0  0  0  0  0  0  0  0  # atno 17394 bound_to 11000
  140.8432  134.3042  157.5305 LP  0  0  0  0  0  0  0  0  0  0  0  0  # atno 17395 bound_to 11000

$$$$
