AV-unprocessed.smi:1941|AV-procd|sdf|7846|dock2
  -GOLD-   22720 9593D 1   1.00000     0.00000
 Structure written by MMmdl.
 40 41  0  0  0  0  0  0  0  0  1 V2000
  149.0351  139.3567  157.5259 C   0  0  0  0  0  0  0  0  0  0  0  0
  149.6767  138.4528  156.5305 C   0  0  0  0  0  0  0  0  0  0  0  0
  149.6380  137.1207  156.6116 N   0  0  0  0  0  0  0  0  0  0  0  0
  150.3326  136.4982  155.5700 C   0  0  0  0  0  0  0  0  0  0  0  0
  150.4272  135.0007  155.5248 C   0  0  0  0  0  0  0  0  0  0  0  0
  149.0686  134.2996  155.3277 C   0  0  0  0  0  0  0  0  0  0  0  0
  148.3455  134.8028  154.1617 N   0  0  0  0  0  0  0  0  0  0  0  0
  147.1011  134.4504  153.8072 C   0  0  0  0  0  0  0  0  0  0  0  0
  146.3947  133.6707  154.4466 O   0  0  0  0  0  0  0  0  0  0  0  0
  146.7298  135.0344  152.6591 N   0  0  0  0  0  0  0  0  0  0  0  0
  145.4665  134.8046  151.9619 C   0  0  1  0  0  0  0  0  0  0  0  0
  145.3591  135.8029  150.7987 C   0  0  0  0  0  0  0  0  0  0  0  0
  145.3928  133.3385  151.4862 C   0  0  2  0  0  0  0  0  0  0  0  0
  146.5391  132.9075  150.5694 C   0  0  0  0  0  0  0  0  0  0  0  0
  145.9181  131.7482  149.8254 C   0  0  0  0  0  0  0  0  0  0  0  0
  144.4909  132.2429  149.6182 C   0  0  0  0  0  0  0  0  0  0  0  0
  144.2156  133.1147  150.7110 O   0  0  0  0  0  0  0  0  0  0  0  0
  150.8823  137.3865  154.6790 C   0  0  0  0  0  0  0  0  0  0  0  0
  150.5602  139.0383  155.1269 S   0  0  0  0  0  0  0  0  0  0  0  0
  148.8208  138.8178  158.4492 H   0  0  0  0  0  0  0  0  0  0  0  0
  148.1013  139.7499  157.1238 H   0  0  0  0  0  0  0  0  0  0  0  0
  149.6990  140.1904  157.7555 H   0  0  0  0  0  0  0  0  0  0  0  0
  151.1015  134.6988  154.7224 H   0  0  0  0  0  0  0  0  0  0  0  0
  150.8849  134.6337  156.4441 H   0  0  0  0  0  0  0  0  0  0  0  0
  149.2115  133.2200  155.2554 H   0  0  0  0  0  0  0  0  0  0  0  0
  148.4446  134.4632  156.2064 H   0  0  0  0  0  0  0  0  0  0  0  0
  148.8419  135.4485  153.5653 H   0  0  0  0  0  0  0  0  0  0  0  0
  147.3865  135.6556  152.2105 H   0  0  0  0  0  0  0  0  0  0  0  0
  144.6319  134.9960  152.6391 H   0  0  0  0  0  0  0  0  0  0  0  0
  144.4027  135.7124  150.2836 H   0  0  0  0  0  0  0  0  0  0  0  0
  146.1493  135.6442  150.0640 H   0  0  0  0  0  0  0  0  0  0  0  0
  145.4370  136.8301  151.1561 H   0  0  0  0  0  0  0  0  0  0  0  0
  145.3529  132.6655  152.3446 H   0  0  0  0  0  0  0  0  0  0  0  0
  146.7946  133.7048  149.8698 H   0  0  0  0  0  0  0  0  0  0  0  0
  147.4402  132.6277  151.1153 H   0  0  0  0  0  0  0  0  0  0  0  0
  146.4282  131.5113  148.8912 H   0  0  0  0  0  0  0  0  0  0  0  0
  145.9200  130.8566  150.4538 H   0  0  0  0  0  0  0  0  0  0  0  0
  144.4136  132.8156  148.6935 H   0  0  0  0  0  0  0  0  0  0  0  0
  143.7722  131.4247  149.5708 H   0  0  0  0  0  0  0  0  0  0  0  0
  151.4662  137.1701  153.7967 H   0  0  0  0  0  0  0  0  0  0  0  0
  1  2  1  0  0  0  0
  1 20  1  0  0  0  0
  1 21  1  0  0  0  0
  1 22  1  0  0  0  0
  2 19  1  0  0  0  0
  2  3  2  0  0  0  0
  3  4  1  0  0  0  0
  4  5  1  0  0  0  0
  4 18  2  0  0  0  0
  5  6  1  0  0  0  0
  5 23  1  0  0  0  0
  5 24  1  0  0  0  0
  6  7  1  0  0  0  0
  6 25  1  0  0  0  0
  6 26  1  0  0  0  0
  7  8  1  0  0  0  0
  7 27  1  0  0  0  0
  8  9  2  0  0  0  0
  8 10  1  0  0  0  0
 10 11  1  0  0  0  0
 10 28  1  0  0  0  0
 11 12  1  0  0  0  0
 11 13  1  0  0  0  0
 11 29  1  0  0  0  0
 12 30  1  0  0  0  0
 12 31  1  0  0  0  0
 12 32  1  0  0  0  0
 13 17  1  0  0  0  0
 13 14  1  0  0  0  0
 13 33  1  0  0  0  0
 14 15  1  0  0  0  0
 14 34  1  0  0  0  0
 14 35  1  0  0  0  0
 15 16  1  0  0  0  0
 15 36  1  0  0  0  0
 15 37  1  0  0  0  0
 16 17  1  0  0  0  0
 16 38  1  0  0  0  0
 16 39  1  0  0  0  0
 18 19  1  0  0  0  0
 18 40  1  0  0  0  0
M  END
> <s_m_source_file>
AV-unprocessed.smi

> <i_m_source_file_index>
1941

> <i_lp_mmshare_version>
43012

> <i_f3d_flags>
0

> <s_epik_input>
W0NIM11jMW5jKFtjSF1zMSlbQ0gyXVtDSDJdW05IXUMoPU8pW05IXVtDQEhdKFtDSDNdKVtDQEBIXTJbQ0gyXVtDSDJdW0NIMl1PMg==

> <s_epik_cmdline>
J2VwaWtfcHl0aG9uJywgJy1waCcsICc3LjAnLCAnLXRuJywgJzgnLCAnLW1hJywgJzIwMCcsICctbWV0YWxfYmluZGluZycsICctaW1hZScsICc8aW5maWxlLm1hZT4nLCAnLW9tYWUnLCAnPG91dGZpbGUubWFlPic=

> <r_epik_Ionization_Penalty>
0.00195486

> <r_epik_Ionization_Penalty_Charging>
0

> <r_epik_Ionization_Penalty_Neutral>
0.00195486

> <r_epik_State_Penalty>
0.00129472

> <r_epik_Charging_Adjusted_Penalty>
0.00129472

> <i_epik_Tot_Q>
0

> <i_epik_Tot_abs_Q>
0

> <r_epik_Metal_State_Penalty>
-0

> <b_epik_Metal_Only>
0

> <s_lp_Force_Field>
OPLS_2005

> <r_lp_Energy>
10.9889

> <b_lp_Chiralities_Consistent>
1

> <s_lp_Variant>
AV-unprocessed.smi:1941-2

> <Gold.Version>
5.8.1

> <Gold.Id.Protein>
6NUR|6NUR_protein|mol2

> <Gold.PLP.Fitness>
39.9546

> <Gold.PLP.PLP>
-31.2879

> <Gold.PLP.part.hbond>
-2.0000

> <Gold.PLP.part.metal>
0.0000

> <Gold.PLP.part.buried>
-4.6419

> <Gold.PLP.part.nonpolar>
-25.5074

> <Gold.PLP.part.repulsive>
0.2439

> <Gold.PLP.ligand.clash>
0.0000

> <Gold.PLP.ligand.torsion>
0.0983

> <Gold.PLP.Chemscore.Hbond>
1.9440

> <Gold.PLP.Chemscore.CHOScore>
1.0000

> <Gold.PLP.Chemscore.Metal>
0.0000

> <Gold.Chemscore.Hbonds>
donor molecule, donor type, donor heavy atom, donor atom, acceptor molecule, acceptor atom, score
      L1  H     7    27       P1  7948  0.93
      L1  H    10    28       P1  7948  1.00
      L1  C    18    40       P1  7949  0.81

> <Gold.PLP.Chemscore.Internal.Correction>
0.0314

> <Gold.Rescore>
     Score         DG    S(hbond)    S(metal)    S(lipo)     H(rot)  DE(clash)    DE(int)     intcor
     16.68     -16.83       1.80        0.00      82.52       1.69       0.04       0.10       ----

> <Gold.Chemscore.Fitness>
16.6799

> <Gold.Chemscore.DG>
-16.8256

> <Gold.Chemscore.ZeroCoef>
-5.4800

> <Gold.Chemscore.Hbond>
1.8033

> <Gold.Chemscore.Metal>
0.0000

> <Gold.Chemscore.Lipo>
82.5190

> <Gold.Chemscore.Internal_Hbond>
0.0000

> <Gold.Chemscore.DEClash>
0.0414

> <Gold.Chemscore.DEInternal>
0.1042

> <Gold.Chemscore.Rot>
1.6923

> <Gold.Chemscore.Internal.Correction>
   9.000000E+99

> <Gold.Chemscore.Hbonds>
donor molecule, donor type, donor heavy atom, donor atom, acceptor molecule, acceptor atom, score
      L1  H     7    27       P1  7948  0.78
      L1  H    10    28       P1  7948  0.97

> <Gold.Chemscore.Hbond.Weighted>
-6.0231

> <Gold.Chemscore.Metal.Weighted>
-0.0000

> <Gold.Chemscore.Lipo.Weighted>
-9.6547

> <Gold.Chemscore.Internal_Hbond.Weighted>
0.0000

> <Gold.Chemscore.DEClash.Weighted>
0.0414

> <Gold.Chemscore.DEInternal.Weighted>
0.1042

> <Gold.Chemscore.Rot.Weighted>
4.3323

> <Gold.Chemscore.Internal.Correction.Weighted>
   9.000000E+99

> <Gold.Protein.RotatedTorsions>
[ 6907 6896 6895 6894 ] final  -99.15 input  -60.11 | X-H torsion
[ 7974 7965 7964 7962 ] final  -73.30 input  175.53 | X-H torsion
[ 8008 7997 7996 7995 ] final  140.68 input   59.86 | X-H torsion
[ 10167 10162 10161 10158 ] final  120.49 input  -65.29 | X-H torsion
[ 10718 10713 10712 10709 ] final  134.28 input   66.30 | X-H torsion
[ 10763 10752 10751 10750 ] final  -18.10 input  -60.55 | X-H torsion
[ 11005 11000 10999 10996 ] final  -86.25 input  -57.11 | X-H torsion

> <Gold.Protein.ActiveResidues>
 VAL166  LYS551  ARG553  GLY616  TRP617  ASP618  TYR619  PRO620  LYS621  CYS622 
 ASP623  PHE694  ASN695  SER759  ASP760  ASP761  ALA762  ILE779  LEU786  VAL792 
 PHE793  MET794  SER795  GLU796  ALA797  LYS798  CYS799  TRP800  GLU811  SER814 

> <Gold.Protein.RotatedAtoms>
  150.7070  134.1085  159.3991 H   0  0  0  0  0  0  0  0  0  0  0  0  # atno 6907 bound_to 6896
  151.9072  135.0352  160.0520 H   0  0  0  0  0  0  0  0  0  0  0  0  # atno 6908 bound_to 6896
  152.2366  133.5065  159.5282 H   0  0  0  0  0  0  0  0  0  0  0  0  # atno 6909 bound_to 6896
  145.6539  140.9274  143.0970 H   0  0  0  0  0  0  0  0  0  0  0  0  # atno 7974 bound_to 7965
  156.2976  140.2335  156.4440 H   0  0  0  0  0  0  0  0  0  0  0  0  # atno 8008 bound_to 7997
  154.8160  140.0440  157.1398 H   0  0  0  0  0  0  0  0  0  0  0  0  # atno 8009 bound_to 7997
  154.9368  140.3024  155.5144 H   0  0  0  0  0  0  0  0  0  0  0  0  # atno 8010 bound_to 7997
  139.5979  144.7047  151.3132 H   0  0  0  0  0  0  0  0  0  0  0  0  # atno 10167 bound_to 10162
  157.4688  131.1078  150.9828 H   0  0  0  0  0  0  0  0  0  0  0  0  # atno 10718 bound_to 10713
  153.5840  135.7004  153.5451 H   0  0  0  0  0  0  0  0  0  0  0  0  # atno 10763 bound_to 10752
  153.3236  135.4067  155.1437 H   0  0  0  0  0  0  0  0  0  0  0  0  # atno 10764 bound_to 10752
  154.8612  135.3701  154.5369 H   0  0  0  0  0  0  0  0  0  0  0  0  # atno 10765 bound_to 10752
  141.1632  133.7444  156.9134 H   0  0  0  0  0  0  0  0  0  0  0  0  # atno 11005 bound_to 11000
  144.7113  139.8362  143.7413 LP  0  0  0  0  0  0  0  0  0  0  0  0  # atno 17320 bound_to 7965
  146.1181  139.4195  143.0245 LP  0  0  0  0  0  0  0  0  0  0  0  0  # atno 17321 bound_to 7965
  140.7226  143.7092  150.7783 LP  0  0  0  0  0  0  0  0  0  0  0  0  # atno 17342 bound_to 10162
  140.0662  143.5106  152.2603 LP  0  0  0  0  0  0  0  0  0  0  0  0  # atno 17343 bound_to 10162
  157.0600  130.5822  149.5384 LP  0  0  0  0  0  0  0  0  0  0  0  0  # atno 17370 bound_to 10713
  156.0063  130.5150  150.7841 LP  0  0  0  0  0  0  0  0  0  0  0  0  # atno 17371 bound_to 10713
  140.1501  134.9236  157.2581 LP  0  0  0  0  0  0  0  0  0  0  0  0  # atno 17394 bound_to 11000
  140.2733  134.3435  155.7366 LP  0  0  0  0  0  0  0  0  0  0  0  0  # atno 17395 bound_to 11000

$$$$
