AV-unprocessed.smi:1285|AV-procd|sdf|5368|dock6
  -GOLD-   22720 4513D 1   1.00000     0.00000
 Structure written by MMmdl.
 46 47  0  0  0  0  0  0  0  0  1 V2000
  147.9073  137.5601  157.8347 C   0  0  0  0  0  0  0  0  0  0  0  0
  148.0573  136.3043  156.9569 C   0  0  0  0  0  0  0  0  0  0  0  0
  147.7437  136.4994  155.4386 C   0  0  2  0  0  0  0  0  0  0  0  0
  146.2932  137.0485  155.3623 C   0  0  0  0  0  0  0  0  0  0  0  0
  147.7852  135.0985  154.7439 C   0  0  0  0  0  0  0  0  0  0  0  0
  147.2500  135.1090  153.3841 N   0  0  0  0  0  0  0  0  0  0  0  0
  146.0424  134.6607  153.0051 C   0  0  0  0  0  0  0  0  0  0  0  0
  145.1880  134.2692  153.8011 O   0  0  0  0  0  0  0  0  0  0  0  0
  145.7841  134.6301  151.4895 C   0  0  2  0  0  0  0  0  0  0  0  0
  144.9192  135.8085  150.9977 C   0  0  0  0  0  0  0  0  0  0  0  0
  145.2179  133.3417  151.1057 N   0  0  0  0  0  0  0  0  0  0  0  0
  145.7773  132.1298  151.0846 C   0  0  0  0  0  0  0  0  0  0  0  0
  144.9451  131.1578  150.7387 N   0  0  0  0  0  0  0  0  0  0  0  0
  143.8063  131.8888  150.5520 C   0  0  0  0  0  0  0  0  0  0  0  0
  143.9120  133.1999  150.7664 N   0  0  0  0  0  0  0  0  0  0  0  0
  148.6951  137.4612  154.8129 N   0  0  0  0  0  0  0  0  0  0  0  0
  150.1162  137.1321  154.9781 C   0  0  0  0  0  0  0  0  0  0  0  0
  151.0251  138.0879  154.1864 C   0  0  0  0  0  0  0  0  0  0  0  0
  150.7718  139.4303  154.5828 O   0  0  0  0  0  0  0  0  0  0  0  0
  149.4147  139.8078  154.3845 C   0  0  0  0  0  0  0  0  0  0  0  0
  148.4950  138.8679  155.1817 C   0  0  0  0  0  0  0  0  0  0  0  0
  148.1568  137.3322  158.8709 H   0  0  0  0  0  0  0  0  0  0  0  0
  146.8865  137.9409  157.8251 H   0  0  0  0  0  0  0  0  0  0  0  0
  148.5687  138.3637  157.5112 H   0  0  0  0  0  0  0  0  0  0  0  0
  149.0625  135.9032  157.0867 H   0  0  0  0  0  0  0  0  0  0  0  0
  147.4039  135.5394  157.3781 H   0  0  0  0  0  0  0  0  0  0  0  0
  145.6131  136.5063  156.0197 H   0  0  0  0  0  0  0  0  0  0  0  0
  145.8793  136.9665  154.3570 H   0  0  0  0  0  0  0  0  0  0  0  0
  146.2439  138.0990  155.6495 H   0  0  0  0  0  0  0  0  0  0  0  0
  148.7967  134.6918  154.7383 H   0  0  0  0  0  0  0  0  0  0  0  0
  147.1816  134.3804  155.2975 H   0  0  0  0  0  0  0  0  0  0  0  0
  147.8811  135.4186  152.6595 H   0  0  0  0  0  0  0  0  0  0  0  0
  146.7560  134.7129  151.0001 H   0  0  0  0  0  0  0  0  0  0  0  0
  145.3858  136.7651  151.2350 H   0  0  0  0  0  0  0  0  0  0  0  0
  143.9262  135.8036  151.4491 H   0  0  0  0  0  0  0  0  0  0  0  0
  144.7896  135.7698  149.9158 H   0  0  0  0  0  0  0  0  0  0  0  0
  146.8124  131.9530  151.3381 H   0  0  0  0  0  0  0  0  0  0  0  0
  142.8695  131.4402  150.2560 H   0  0  0  0  0  0  0  0  0  0  0  0
  150.3964  137.1771  156.0305 H   0  0  0  0  0  0  0  0  0  0  0  0
  150.3247  136.1190  154.6383 H   0  0  0  0  0  0  0  0  0  0  0  0
  152.0735  137.8541  154.3717 H   0  0  0  0  0  0  0  0  0  0  0  0
  150.8575  137.9798  153.1135 H   0  0  0  0  0  0  0  0  0  0  0  0
  149.2806  140.8382  154.7140 H   0  0  0  0  0  0  0  0  0  0  0  0
  149.1707  139.7768  153.3213 H   0  0  0  0  0  0  0  0  0  0  0  0
  147.4671  139.1774  155.0026 H   0  0  0  0  0  0  0  0  0  0  0  0
  148.6891  139.0122  156.2444 H   0  0  0  0  0  0  0  0  0  0  0  0
  1  2  1  0  0  0  0
  1 22  1  0  0  0  0
  1 23  1  0  0  0  0
  1 24  1  0  0  0  0
  2  3  1  0  0  0  0
  2 25  1  0  0  0  0
  2 26  1  0  0  0  0
  3  4  1  0  0  0  0
  3  5  1  0  0  0  0
  3 16  1  0  0  0  0
  4 27  1  0  0  0  0
  4 28  1  0  0  0  0
  4 29  1  0  0  0  0
  5  6  1  0  0  0  0
  5 30  1  0  0  0  0
  5 31  1  0  0  0  0
  6  7  1  0  0  0  0
  6 32  1  0  0  0  0
  7  8  2  0  0  0  0
  7  9  1  0  0  0  0
  9 10  1  0  0  0  0
  9 11  1  0  0  0  0
  9 33  1  0  0  0  0
 10 34  1  0  0  0  0
 10 35  1  0  0  0  0
 10 36  1  0  0  0  0
 11 15  1  0  0  0  0
 11 12  1  0  0  0  0
 12 13  2  0  0  0  0
 12 37  1  0  0  0  0
 13 14  1  0  0  0  0
 14 15  2  0  0  0  0
 14 38  1  0  0  0  0
 16 21  1  0  0  0  0
 16 17  1  0  0  0  0
 17 18  1  0  0  0  0
 17 39  1  0  0  0  0
 17 40  1  0  0  0  0
 18 19  1  0  0  0  0
 18 41  1  0  0  0  0
 18 42  1  0  0  0  0
 19 20  1  0  0  0  0
 20 21  1  0  0  0  0
 20 43  1  0  0  0  0
 20 44  1  0  0  0  0
 21 45  1  0  0  0  0
 21 46  1  0  0  0  0
M  END
> <s_m_source_file>
AV-unprocessed.smi

> <i_m_source_file_index>
1285

> <i_lp_mmshare_version>
43012

> <i_f3d_flags>
0

> <s_epik_input>
W0NIMl0xW0NIMl1PW0NIMl1bQ0gyXU4xW0NAQF0oW0NIM10pKFtDSDJdW0NIM10pW0NIMl1bTkhdQyg9TylbQ0BIXShbQ0gzXSluMltjSF1uW2NIXW4y

> <s_epik_cmdline>
J2VwaWtfcHl0aG9uJywgJy1waCcsICc3LjAnLCAnLXRuJywgJzgnLCAnLW1hJywgJzIwMCcsICctbWV0YWxfYmluZGluZycsICctaW1hZScsICc8aW5maWxlLm1hZT4nLCAnLW9tYWUnLCAnPG91dGZpbGUubWFlPic=

> <r_lp_tautomer_probability>
1

> <r_epik_Ionization_Penalty>
0.285697

> <r_epik_Ionization_Penalty_Charging>
0

> <r_epik_Ionization_Penalty_Neutral>
0.285697

> <r_epik_State_Penalty>
0.278478

> <r_epik_Charging_Adjusted_Penalty>
0.278478

> <i_epik_Tot_Q>
0

> <i_epik_Tot_abs_Q>
0

> <r_epik_Metal_State_Penalty>
0.278477

> <b_epik_Metal_Only>
0

> <s_lp_Force_Field>
OPLS_2005

> <r_lp_Energy>
47.2582

> <b_lp_Chiralities_Consistent>
1

> <s_lp_Variant>
AV-unprocessed.smi:1285-2

> <Gold.Version>
5.8.1

> <Gold.Id.Protein>
6NUR|6NUR_protein|mol2

> <Gold.PLP.Fitness>
35.6665

> <Gold.PLP.PLP>
-25.8417

> <Gold.PLP.part.hbond>
-1.9077

> <Gold.PLP.part.metal>
0.0000

> <Gold.PLP.part.buried>
-5.8894

> <Gold.PLP.part.nonpolar>
-19.7473

> <Gold.PLP.part.repulsive>
0.6234

> <Gold.PLP.ligand.clash>
0.0000

> <Gold.PLP.ligand.torsion>
1.1383

> <Gold.PLP.Chemscore.Hbond>
1.9588

> <Gold.PLP.Chemscore.CHOScore>
1.9592

> <Gold.PLP.Chemscore.Metal>
0.0000

> <Gold.Chemscore.Hbonds>
donor molecule, donor type, donor heavy atom, donor atom, acceptor molecule, acceptor atom, score
      L1  H     6    32       P1  7948  1.00
      P1  H  7989  7998       L1    19  0.90
      L1  C    12    37       P1 10747  0.70
      L1  C    14    38       P1 10952  1.00

> <Gold.PLP.Chemscore.Internal.Correction>
0.3478

> <Gold.Rescore>
     Score         DG    S(hbond)    S(metal)    S(lipo)     H(rot)  DE(clash)    DE(int)     intcor
      7.06      -8.80       1.66        0.00      39.67       2.68       0.26       1.48       ----

> <Gold.Chemscore.Fitness>
7.0640

> <Gold.Chemscore.DG>
-8.8006

> <Gold.Chemscore.ZeroCoef>
-5.4800

> <Gold.Chemscore.Hbond>
1.6601

> <Gold.Chemscore.Metal>
0.0000

> <Gold.Chemscore.Lipo>
39.6748

> <Gold.Chemscore.Internal_Hbond>
0.0000

> <Gold.Chemscore.DEClash>
0.2566

> <Gold.Chemscore.DEInternal>
1.4800

> <Gold.Chemscore.Rot>
2.6821

> <Gold.Chemscore.Internal.Correction>
   9.000000E+99

> <Gold.Chemscore.Hbonds>
donor molecule, donor type, donor heavy atom, donor atom, acceptor molecule, acceptor atom, score
      L1  H     6    32       P1  7948  0.94
      P1  H  7989  7998       L1    19  0.16

> <Gold.Chemscore.Hbond.Weighted>
-5.5448

> <Gold.Chemscore.Metal.Weighted>
-0.0000

> <Gold.Chemscore.Lipo.Weighted>
-4.6419

> <Gold.Chemscore.Internal_Hbond.Weighted>
0.0000

> <Gold.Chemscore.DEClash.Weighted>
0.2566

> <Gold.Chemscore.DEInternal.Weighted>
1.4800

> <Gold.Chemscore.Rot.Weighted>
6.8661

> <Gold.Chemscore.Internal.Correction.Weighted>
   9.000000E+99

> <Gold.Protein.RotatedTorsions>
[ 6907 6896 6895 6894 ] final -166.66 input  -60.11 | X-H torsion
[ 7974 7965 7964 7962 ] final -146.57 input  175.53 | X-H torsion
[ 8008 7997 7996 7995 ] final  -48.86 input   59.86 | X-H torsion
[ 10167 10162 10161 10158 ] final   -0.90 input  -65.29 | X-H torsion
[ 10718 10713 10712 10709 ] final   31.83 input   66.30 | X-H torsion
[ 10763 10752 10751 10750 ] final  109.36 input  -60.55 | X-H torsion
[ 11005 11000 10999 10996 ] final  -42.80 input  -57.11 | X-H torsion

> <Gold.Protein.ActiveResidues>
 VAL166  LYS551  ARG553  GLY616  TRP617  ASP618  TYR619  PRO620  LYS621  CYS622 
 ASP623  PHE694  ASN695  SER759  ASP760  ASP761  ALA762  ILE779  LEU786  VAL792 
 PHE793  MET794  SER795  GLU796  ALA797  LYS798  CYS799  TRP800  GLU811  SER814 

> <Gold.Protein.RotatedAtoms>
  151.4471  133.3627  159.2789 H   0  0  0  0  0  0  0  0  0  0  0  0  # atno 6907 bound_to 6896
  150.9117  134.8535  159.7440 H   0  0  0  0  0  0  0  0  0  0  0  0  # atno 6908 bound_to 6896
  152.4936  134.4401  159.9592 H   0  0  0  0  0  0  0  0  0  0  0  0  # atno 6909 bound_to 6896
  144.8150  140.5439  143.5616 H   0  0  0  0  0  0  0  0  0  0  0  0  # atno 7974 bound_to 7965
  154.4035  140.1311  156.4408 H   0  0  0  0  0  0  0  0  0  0  0  0  # atno 8008 bound_to 7997
  155.7461  140.3489  155.5107 H   0  0  0  0  0  0  0  0  0  0  0  0  # atno 8009 bound_to 7997
  155.8993  140.1016  157.1351 H   0  0  0  0  0  0  0  0  0  0  0  0  # atno 8010 bound_to 7997
  140.6787  143.6839  150.8083 H   0  0  0  0  0  0  0  0  0  0  0  0  # atno 10167 bound_to 10162
  157.2775  130.7238  149.6538 H   0  0  0  0  0  0  0  0  0  0  0  0  # atno 10718 bound_to 10713
  153.4336  135.3782  155.2185 H   0  0  0  0  0  0  0  0  0  0  0  0  # atno 10763 bound_to 10752
  154.8751  135.3846  154.4238 H   0  0  0  0  0  0  0  0  0  0  0  0  # atno 10764 bound_to 10752
  153.4774  135.7088  153.6021 H   0  0  0  0  0  0  0  0  0  0  0  0  # atno 10765 bound_to 10752
  141.0340  133.6808  156.2644 H   0  0  0  0  0  0  0  0  0  0  0  0  # atno 11005 bound_to 11000
  145.5234  139.1476  143.3539 LP  0  0  0  0  0  0  0  0  0  0  0  0  # atno 17320 bound_to 7965
  146.2453  140.5375  142.8916 LP  0  0  0  0  0  0  0  0  0  0  0  0  # atno 17321 bound_to 7965
  140.0536  143.5225  152.2662 LP  0  0  0  0  0  0  0  0  0  0  0  0  # atno 17342 bound_to 10162
  139.6096  144.7605  151.2983 LP  0  0  0  0  0  0  0  0  0  0  0  0  # atno 17343 bound_to 10162
  155.9664  130.4348  150.5066 LP  0  0  0  0  0  0  0  0  0  0  0  0  # atno 17370 bound_to 10713
  157.3003  131.0644  151.2073 LP  0  0  0  0  0  0  0  0  0  0  0  0  # atno 17371 bound_to 10713
  140.6355  134.5219  157.5564 LP  0  0  0  0  0  0  0  0  0  0  0  0  # atno 17394 bound_to 11000
  139.9228  134.8116  156.1160 LP  0  0  0  0  0  0  0  0  0  0  0  0  # atno 17395 bound_to 11000

$$$$
