AV-unprocessed.smi:232|AV-procd|sdf|1776|dock8
  -GOLD-   2262020323D 1   1.00000     0.00000
 Structure written by MMmdl.
 52 55  0  0  0  0  0  0  0  0  1 V2000
  149.8894  139.4701  157.7448 C   0  0  0  0  0  0  0  0  0  0  0  0
  150.6914  140.2418  158.7998 C   0  0  0  0  0  0  0  0  0  0  0  0
  151.5042  141.4138  158.2088 C   0  0  1  0  0  0  0  0  0  0  0  0
  150.7352  142.2389  157.1649 C   0  0  0  0  0  0  0  0  0  0  0  0
  151.2418  143.6754  157.3423 C   0  0  0  0  0  0  0  0  0  0  0  0
  152.2953  143.5786  158.4505 C   0  0  1  0  0  0  0  0  0  0  0  0
  152.3883  144.8421  159.3211 C   0  0  0  0  0  0  0  0  0  0  0  0
  151.9228  142.3899  159.2089 N   0  0  0  0  0  0  0  0  0  0  0  0
  152.8325  141.9327  160.1021 C   0  0  0  0  0  0  0  0  0  0  0  0
  153.4975  140.7677  159.8796 N   0  0  0  0  0  0  0  0  0  0  0  0
  154.3793  140.3203  160.7791 C   0  0  0  0  0  0  0  0  0  0  0  0
  154.7331  140.8659  161.9455 N   0  0  0  0  0  0  0  0  0  0  0  0
  154.0627  142.0327  162.1698 C   0  0  0  0  0  0  0  0  0  0  0  0
  153.1064  142.6334  161.3053 C   0  0  0  0  0  0  0  0  0  0  0  0
  152.6335  143.8155  161.8608 N   0  0  0  0  0  0  0  0  0  0  0  0
  153.2734  143.9081  162.9946 C   0  0  0  0  0  0  0  0  0  0  0  0
  154.1484  142.8790  163.2608 N   0  0  0  0  0  0  0  0  0  0  0  0
  154.9744  142.7310  164.4455 C   0  0  0  0  0  0  0  0  0  0  0  0
  155.0040  144.0096  165.3056 C   0  0  2  0  0  0  0  0  0  0  0  0
  155.5938  145.0576  164.5601 O   0  0  0  0  0  0  0  0  0  0  0  0
  155.7981  143.8157  166.6104 C   0  0  1  0  0  0  0  0  0  0  0  0
  155.8657  145.0584  167.5001 C   0  0  0  0  0  0  0  0  0  0  0  0
  156.1343  144.4481  168.8561 C   0  0  0  0  0  0  0  0  0  0  0  0
  155.2716  143.1906  168.8077 C   0  0  0  0  0  0  0  0  0  0  0  0
  155.1747  142.8304  167.4318 O   0  0  0  0  0  0  0  0  0  0  0  0
  149.3609  138.6314  158.1984 H   0  0  0  0  0  0  0  0  0  0  0  0
  150.5440  139.0698  156.9703 H   0  0  0  0  0  0  0  0  0  0  0  0
  149.1465  140.1058  157.2630 H   0  0  0  0  0  0  0  0  0  0  0  0
  150.0181  140.6102  159.5748 H   0  0  0  0  0  0  0  0  0  0  0  0
  151.3620  139.5365  159.2913 H   0  0  0  0  0  0  0  0  0  0  0  0
  152.4031  141.0138  157.7358 H   0  0  0  0  0  0  0  0  0  0  0  0
  150.9061  141.8625  156.1561 H   0  0  0  0  0  0  0  0  0  0  0  0
  149.6610  142.2065  157.3521 H   0  0  0  0  0  0  0  0  0  0  0  0
  151.6612  144.0864  156.4234 H   0  0  0  0  0  0  0  0  0  0  0  0
  150.4150  144.3188  157.6462 H   0  0  0  0  0  0  0  0  0  0  0  0
  153.2628  143.4081  157.9753 H   0  0  0  0  0  0  0  0  0  0  0  0
  152.6256  145.7155  158.7136 H   0  0  0  0  0  0  0  0  0  0  0  0
  153.1677  144.7471  160.0777 H   0  0  0  0  0  0  0  0  0  0  0  0
  151.4472  145.0377  159.8362 H   0  0  0  0  0  0  0  0  0  0  0  0
  154.8685  139.3901  160.5306 H   0  0  0  0  0  0  0  0  0  0  0  0
  153.1232  144.7344  163.6740 H   0  0  0  0  0  0  0  0  0  0  0  0
  154.5826  141.8939  165.0241 H   0  0  0  0  0  0  0  0  0  0  0  0
  155.9831  142.4505  164.1398 H   0  0  0  0  0  0  0  0  0  0  0  0
  153.9821  144.3037  165.5481 H   0  0  0  0  0  0  0  0  0  0  0  0
  155.6025  144.8088  163.6483 H   0  0  0  0  0  0  0  0  0  0  0  0
  156.8114  143.4742  166.3921 H   0  0  0  0  0  0  0  0  0  0  0  0
  156.6365  145.7644  167.1895 H   0  0  0  0  0  0  0  0  0  0  0  0
  154.9071  145.5795  167.5089 H   0  0  0  0  0  0  0  0  0  0  0  0
  157.1880  144.1790  168.9423 H   0  0  0  0  0  0  0  0  0  0  0  0
  155.8799  145.1092  169.6850 H   0  0  0  0  0  0  0  0  0  0  0  0
  155.6912  142.3792  169.4027 H   0  0  0  0  0  0  0  0  0  0  0  0
  154.2686  143.3998  169.1812 H   0  0  0  0  0  0  0  0  0  0  0  0
  1  2  1  0  0  0  0
  1 26  1  0  0  0  0
  1 27  1  0  0  0  0
  1 28  1  0  0  0  0
  2  3  1  0  0  0  0
  2 29  1  0  0  0  0
  2 30  1  0  0  0  0
  3  8  1  0  0  0  0
  3  4  1  0  0  0  0
  3 31  1  0  0  0  0
  4  5  1  0  0  0  0
  4 32  1  0  0  0  0
  4 33  1  0  0  0  0
  5  6  1  0  0  0  0
  5 34  1  0  0  0  0
  5 35  1  0  0  0  0
  6  7  1  0  0  0  0
  6  8  1  0  0  0  0
  6 36  1  0  0  0  0
  7 37  1  0  0  0  0
  7 38  1  0  0  0  0
  7 39  1  0  0  0  0
  8  9  1  0  0  0  0
  9 14  1  0  0  0  0
  9 10  2  0  0  0  0
 10 11  1  0  0  0  0
 11 12  2  0  0  0  0
 11 40  1  0  0  0  0
 12 13  1  0  0  0  0
 13 17  1  0  0  0  0
 13 14  2  0  0  0  0
 14 15  1  0  0  0  0
 15 16  2  0  0  0  0
 16 17  1  0  0  0  0
 16 41  1  0  0  0  0
 17 18  1  0  0  0  0
 18 19  1  0  0  0  0
 18 42  1  0  0  0  0
 18 43  1  0  0  0  0
 19 20  1  0  0  0  0
 19 21  1  0  0  0  0
 19 44  1  0  0  0  0
 20 45  1  0  0  0  0
 21 25  1  0  0  0  0
 21 22  1  0  0  0  0
 21 46  1  0  0  0  0
 22 23  1  0  0  0  0
 22 47  1  0  0  0  0
 22 48  1  0  0  0  0
 23 24  1  0  0  0  0
 23 49  1  0  0  0  0
 23 50  1  0  0  0  0
 24 25  1  0  0  0  0
 24 51  1  0  0  0  0
 24 52  1  0  0  0  0
M  END
> <s_m_source_file>
AV-unprocessed.smi

> <i_m_source_file_index>
232

> <i_lp_mmshare_version>
43012

> <i_f3d_flags>
0

> <s_epik_input>
W0NIM11bQ0gyXVtDQEBIXTFbQ0gyXVtDSDJdW0NAQEhdKFtDSDNdKU4xYyhuW2NIXW4yKWMoYzIzKW5bY0hdbjNbQ0gyXVtDQEhdKFtPSF0pW0NAQEhdNFtDSDJdW0NIMl1bQ0gyXU80

> <s_epik_cmdline>
J2VwaWtfcHl0aG9uJywgJy1waCcsICc3LjAnLCAnLXRuJywgJzgnLCAnLW1hJywgJzIwMCcsICctbWV0YWxfYmluZGluZycsICctaW1hZScsICc8aW5maWxlLm1hZT4nLCAnLW9tYWUnLCAnPG91dGZpbGUubWFlPic=

> <r_lp_tautomer_probability>
1

> <r_epik_Ionization_Penalty>
0.00258048

> <r_epik_Ionization_Penalty_Charging>
0

> <r_epik_Ionization_Penalty_Neutral>
0.00258048

> <r_epik_State_Penalty>
0.00168551

> <r_epik_Charging_Adjusted_Penalty>
0.00168551

> <i_epik_Tot_Q>
0

> <i_epik_Tot_abs_Q>
0

> <r_epik_Metal_State_Penalty>
-0

> <b_epik_Metal_Only>
0

> <s_lp_Force_Field>
OPLS_2005

> <r_lp_Energy>
51.3027

> <b_lp_Chiralities_Consistent>
1

> <s_lp_Variant>
AV-unprocessed.smi:232-10

> <Gold.Version>
5.8.1

> <Gold.Id.Protein>
6NUR|6NUR_protein|mol2

> <Gold.PLP.Fitness>
53.6892

> <Gold.PLP.PLP>
-54.7003

> <Gold.PLP.part.hbond>
-2.0111

> <Gold.PLP.part.metal>
0.0000

> <Gold.PLP.part.buried>
-0.6210

> <Gold.PLP.part.nonpolar>
-51.1543

> <Gold.PLP.part.repulsive>
0.2703

> <Gold.PLP.ligand.clash>
0.0000

> <Gold.PLP.ligand.torsion>
0.5704

> <Gold.PLP.Chemscore.Hbond>
0.0000

> <Gold.PLP.Chemscore.CHOScore>
0.0000

> <Gold.PLP.Chemscore.Metal>
0.0000

> <Gold.PLP.Chemscore.Internal.Correction>
0.1298

> <Gold.Rescore>
     Score         DG    S(hbond)    S(metal)    S(lipo)     H(rot)  DE(clash)    DE(int)     intcor
      7.12     -13.44       0.00        0.00     121.11       2.43       3.38       2.94       ----

> <Gold.Chemscore.Fitness>
7.1206

> <Gold.Chemscore.DG>
-13.4394

> <Gold.Chemscore.ZeroCoef>
-5.4800

> <Gold.Chemscore.Hbond>
0.0000

> <Gold.Chemscore.Metal>
0.0000

> <Gold.Chemscore.Lipo>
121.1121

> <Gold.Chemscore.Internal_Hbond>
0.0000

> <Gold.Chemscore.DEClash>
3.3837

> <Gold.Chemscore.DEInternal>
2.9352

> <Gold.Chemscore.Rot>
2.4260

> <Gold.Chemscore.Internal.Correction>
   9.000000E+99

> <Gold.Chemscore.Hbond.Weighted>
-0.0000

> <Gold.Chemscore.Metal.Weighted>
-0.0000

> <Gold.Chemscore.Lipo.Weighted>
-14.1701

> <Gold.Chemscore.Internal_Hbond.Weighted>
0.0000

> <Gold.Chemscore.DEClash.Weighted>
3.3837

> <Gold.Chemscore.DEInternal.Weighted>
2.9352

> <Gold.Chemscore.Rot.Weighted>
6.2107

> <Gold.Chemscore.Internal.Correction.Weighted>
   9.000000E+99

> <Gold.Protein.RotatedTorsions>
[ 6907 6896 6895 6894 ] final  -65.29 input  -60.11 | X-H torsion
[ 7974 7965 7964 7962 ] final -137.67 input  175.53 | X-H torsion
[ 8008 7997 7996 7995 ] final  -62.50 input   59.86 | X-H torsion
[ 10167 10162 10161 10158 ] final   43.54 input  -65.29 | X-H torsion
[ 10718 10713 10712 10709 ] final  116.45 input   66.30 | X-H torsion
[ 10763 10752 10751 10750 ] final   52.25 input  -60.55 | X-H torsion
[ 11005 11000 10999 10996 ] final  148.02 input  -57.11 | X-H torsion

> <Gold.Protein.ActiveResidues>
 VAL166  LYS551  ARG553  GLY616  TRP617  ASP618  TYR619  PRO620  LYS621  CYS622 
 ASP623  PHE694  ASN695  SER759  ASP760  ASP761  ALA762  ILE779  LEU786  VAL792 
 PHE793  MET794  SER795  GLU796  ALA797  LYS798  CYS799  TRP800  GLU811  SER814 

> <Gold.Protein.RotatedAtoms>
  150.7533  134.6181  159.6120 H   0  0  0  0  0  0  0  0  0  0  0  0  # atno 6907 bound_to 6896
  152.3495  134.7022  160.0249 H   0  0  0  0  0  0  0  0  0  0  0  0  # atno 6908 bound_to 6896
  151.7447  133.3288  159.3412 H   0  0  0  0  0  0  0  0  0  0  0  0  # atno 6909 bound_to 6896
  144.8822  140.6524  143.5198 H   0  0  0  0  0  0  0  0  0  0  0  0  # atno 7974 bound_to 7965
  154.4503  140.0995  156.6597 H   0  0  0  0  0  0  0  0  0  0  0  0  # atno 8008 bound_to 7997
  155.5307  140.3481  155.4407 H   0  0  0  0  0  0  0  0  0  0  0  0  # atno 8009 bound_to 7997
  156.0666  140.1339  156.9867 H   0  0  0  0  0  0  0  0  0  0  0  0  # atno 8010 bound_to 7997
  140.3433  144.2442  150.6153 H   0  0  0  0  0  0  0  0  0  0  0  0  # atno 10167 bound_to 10162
  157.6160  131.1025  150.7474 H   0  0  0  0  0  0  0  0  0  0  0  0  # atno 10718 bound_to 10713
  152.9788  135.5819  154.4548 H   0  0  0  0  0  0  0  0  0  0  0  0  # atno 10763 bound_to 10752
  154.4132  135.2770  155.2025 H   0  0  0  0  0  0  0  0  0  0  0  0  # atno 10764 bound_to 10752
  154.3806  135.6147  153.5843 H   0  0  0  0  0  0  0  0  0  0  0  0  # atno 10765 bound_to 10752
  140.0925  134.9032  157.1672 H   0  0  0  0  0  0  0  0  0  0  0  0  # atno 11005 bound_to 11000
  145.3933  139.1612  143.4217 LP  0  0  0  0  0  0  0  0  0  0  0  0  # atno 17320 bound_to 7965
  146.3002  140.4024  142.8707 LP  0  0  0  0  0  0  0  0  0  0  0  0  # atno 17321 bound_to 7965
  140.5288  143.2248  151.8272 LP  0  0  0  0  0  0  0  0  0  0  0  0  # atno 17342 bound_to 10162
  139.4837  144.4746  151.9383 LP  0  0  0  0  0  0  0  0  0  0  0  0  # atno 17343 bound_to 10162
  156.7841  130.4869  149.5396 LP  0  0  0  0  0  0  0  0  0  0  0  0  # atno 17370 bound_to 10713
  156.1282  130.6159  151.0294 LP  0  0  0  0  0  0  0  0  0  0  0  0  # atno 17371 bound_to 10713
  140.3332  134.2786  155.7224 LP  0  0  0  0  0  0  0  0  0  0  0  0  # atno 17394 bound_to 11000
  141.2082  133.7784  157.0073 LP  0  0  0  0  0  0  0  0  0  0  0  0  # atno 17395 bound_to 11000

$$$$
