AV-unprocessed.smi:1043|AV-procd|sdf|4541|dock10
  -GOLD-   22720 2563D 1   1.00000     0.00000
 Structure written by MMmdl.
 34 35  0  0  0  0  0  0  0  0  2 V2000
  150.7159  139.8433  155.0175 C   0  0  0  0  0  0  0  0  0  0  0  0
  149.4695  140.6832  155.3825 C   0  0  0  0  0  0  0  0  0  0  0  0
  149.8989  141.9351  156.0243 N   0  0  0  0  0  0  0  0  0  0  0  0
  150.8164  142.1240  156.9876 C   0  0  0  0  0  0  0  0  0  0  0  0
  151.4268  141.1657  157.4664 O   0  0  0  0  0  0  0  0  0  0  0  0
  150.9787  143.4229  157.3276 N   0  5  0  0  0  0  0  0  0  0  0  0
  151.2169  143.7572  158.6063 C   0  0  0  0  0  0  0  0  0  0  0  0
  150.9032  142.9491  159.6316 N   0  0  0  0  0  0  0  0  0  0  0  0
  151.2287  143.4872  160.8695 N   0  0  0  0  0  0  0  0  0  0  0  0
  151.7731  144.6974  160.7453 C   0  0  0  0  0  0  0  0  0  0  0  0
  151.9379  145.2896  159.1063 S   0  0  0  0  0  0  0  0  0  0  0  0
  148.6247  140.9199  154.0966 C   0  0  0  0  0  0  0  0  0  0  0  0
  147.6021  142.0784  154.0833 C   0  0  0  0  0  0  0  0  0  0  0  0
  146.7599  142.3022  155.3511 C   0  0  0  0  0  0  0  0  0  0  0  0
  146.3572  141.0292  156.1075 C   0  0  0  0  0  0  0  0  0  0  0  0
  147.4496  140.5445  157.0739 C   0  0  0  0  0  0  0  0  0  0  0  0
  148.6505  139.8515  156.4052 C   0  0  0  0  0  0  0  0  0  0  0  0
  150.4316  138.8704  154.6151 H   0  0  0  0  0  0  0  0  0  0  0  0
  151.3462  139.6652  155.8897 H   0  0  0  0  0  0  0  0  0  0  0  0
  151.3365  140.3286  154.2641 H   0  0  0  0  0  0  0  0  0  0  0  0
  149.4466  142.7707  155.6839 H   0  0  0  0  0  0  0  0  0  0  0  0
  152.0777  145.2456  161.6241 H   0  0  0  0  0  0  0  0  0  0  0  0
  149.2947  141.0852  153.2518 H   0  0  0  0  0  0  0  0  0  0  0  0
  148.1037  139.9948  153.8473 H   0  0  0  0  0  0  0  0  0  0  0  0
  148.1159  143.0114  153.8495 H   0  0  0  0  0  0  0  0  0  0  0  0
  146.9270  141.9105  153.2434 H   0  0  0  0  0  0  0  0  0  0  0  0
  147.2875  142.9745  156.0288 H   0  0  0  0  0  0  0  0  0  0  0  0
  145.8581  142.8433  155.0626 H   0  0  0  0  0  0  0  0  0  0  0  0
  145.4709  141.2590  156.7001 H   0  0  0  0  0  0  0  0  0  0  0  0
  146.0591  140.2391  155.4178 H   0  0  0  0  0  0  0  0  0  0  0  0
  147.7898  141.3717  157.6981 H   0  0  0  0  0  0  0  0  0  0  0  0
  146.9985  139.8314  157.7642 H   0  0  0  0  0  0  0  0  0  0  0  0
  148.3035  138.9322  155.9315 H   0  0  0  0  0  0  0  0  0  0  0  0
  149.3172  139.5247  157.2048 H   0  0  0  0  0  0  0  0  0  0  0  0
  1  2  1  0  0  0  0
  1 18  1  0  0  0  0
  1 19  1  0  0  0  0
  1 20  1  0  0  0  0
  2 17  1  0  0  0  0
  2  3  1  0  0  0  0
  2 12  1  0  0  0  0
  3  4  1  0  0  0  0
  3 21  1  0  0  0  0
  4  5  2  0  0  0  0
  4  6  1  0  0  0  0
  6  7  1  0  0  0  0
  7 11  1  0  0  0  0
  7  8  2  0  0  0  0
  8  9  1  0  0  0  0
  9 10  2  0  0  0  0
 10 11  1  0  0  0  0
 10 22  1  0  0  0  0
 12 13  1  0  0  0  0
 12 23  1  0  0  0  0
 12 24  1  0  0  0  0
 13 14  1  0  0  0  0
 13 25  1  0  0  0  0
 13 26  1  0  0  0  0
 14 15  1  0  0  0  0
 14 27  1  0  0  0  0
 14 28  1  0  0  0  0
 15 16  1  0  0  0  0
 15 29  1  0  0  0  0
 15 30  1  0  0  0  0
 16 17  1  0  0  0  0
 16 31  1  0  0  0  0
 16 32  1  0  0  0  0
 17 33  1  0  0  0  0
 17 34  1  0  0  0  0
M  CHG  1   6  -1
M  END
> <s_m_source_file>
AV-unprocessed.smi

> <i_m_source_file_index>
1043

> <i_lp_mmshare_version>
43012

> <i_f3d_flags>
0

> <s_epik_input>
W0NIMl0xW0NIMl1bQ0gyXVtDSDJdW0NIMl1bQ0gyXUMxKFtDSDNdKVtOSF1DKD1PKVtOSF1jMm5uW2NIXXMy

> <s_epik_cmdline>
J2VwaWtfcHl0aG9uJywgJy1waCcsICc3LjAnLCAnLXRuJywgJzgnLCAnLW1hJywgJzIwMCcsICctbWV0YWxfYmluZGluZycsICctaW1hZScsICc8aW5maWxlLm1hZT4nLCAnLW9tYWUnLCAnPG91dGZpbGUubWFlPic=

> <r_lp_tautomer_probability>
1

> <r_epik_Ionization_Penalty>
4.55555

> <r_epik_Ionization_Penalty_Charging>
4.50588

> <r_epik_Ionization_Penalty_Neutral>
0.0496753

> <r_epik_State_Penalty>
4.50558

> <r_epik_Charging_Adjusted_Penalty>
9.01146

> <i_epik_Tot_Q>
-1

> <i_epik_Tot_abs_Q>
1

> <r_epik_Metal_State_Penalty>
0.822218

> <b_epik_Metal_Only>
1

> <s_lp_Force_Field>
OPLS_2005

> <r_lp_Energy>
17.5754

> <b_lp_Chiralities_Consistent>
1

> <s_lp_Variant>
AV-unprocessed.smi:1043-2

> <Gold.Version>
5.8.1

> <Gold.Id.Protein>
6NUR|6NUR_protein|mol2

> <Gold.PLP.Fitness>
33.6540

> <Gold.PLP.PLP>
-31.8287

> <Gold.PLP.part.hbond>
-2.5181

> <Gold.PLP.part.metal>
0.0000

> <Gold.PLP.part.buried>
-3.5447

> <Gold.PLP.part.nonpolar>
-26.4205

> <Gold.PLP.part.repulsive>
1.2793

> <Gold.PLP.ligand.clash>
0.0000

> <Gold.PLP.ligand.torsion>
0.5795

> <Gold.PLP.Chemscore.Hbond>
0.9913

> <Gold.PLP.Chemscore.CHOScore>
0.0000

> <Gold.PLP.Chemscore.Metal>
0.0000

> <Gold.Chemscore.Hbonds>
donor molecule, donor type, donor heavy atom, donor atom, acceptor molecule, acceptor atom, score
      L1  H     3    21       P1  8028  1.00

> <Gold.PLP.Chemscore.Internal.Correction>
0.0106

> <Gold.Rescore>
     Score         DG    S(hbond)    S(metal)    S(lipo)     H(rot)  DE(clash)    DE(int)     intcor
      9.99     -13.54       0.95        0.00      63.65       1.00       0.28       3.28       ----

> <Gold.Chemscore.Fitness>
9.9855

> <Gold.Chemscore.DG>
-13.5433

> <Gold.Chemscore.ZeroCoef>
-5.4800

> <Gold.Chemscore.Hbond>
0.9510

> <Gold.Chemscore.Metal>
0.0000

> <Gold.Chemscore.Lipo>
63.6498

> <Gold.Chemscore.Internal_Hbond>
0.0000

> <Gold.Chemscore.DEClash>
0.2759

> <Gold.Chemscore.DEInternal>
3.2819

> <Gold.Chemscore.Rot>
1.0000

> <Gold.Chemscore.Internal.Correction>
   9.000000E+99

> <Gold.Chemscore.Hbonds>
donor molecule, donor type, donor heavy atom, donor atom, acceptor molecule, acceptor atom, score
      L1  H     3    21       P1  8028  0.93

> <Gold.Chemscore.Hbond.Weighted>
-3.1763

> <Gold.Chemscore.Metal.Weighted>
-0.0000

> <Gold.Chemscore.Lipo.Weighted>
-7.4470

> <Gold.Chemscore.Internal_Hbond.Weighted>
0.0000

> <Gold.Chemscore.DEClash.Weighted>
0.2759

> <Gold.Chemscore.DEInternal.Weighted>
3.2819

> <Gold.Chemscore.Rot.Weighted>
2.5600

> <Gold.Chemscore.Internal.Correction.Weighted>
   9.000000E+99

> <Gold.Protein.RotatedTorsions>
[ 6907 6896 6895 6894 ] final  -22.47 input  -60.11 | X-H torsion
[ 7974 7965 7964 7962 ] final -129.67 input  175.53 | X-H torsion
[ 8008 7997 7996 7995 ] final   42.99 input   59.86 | X-H torsion
[ 10167 10162 10161 10158 ] final  -48.59 input  -65.29 | X-H torsion
[ 10718 10713 10712 10709 ] final  -62.74 input   66.30 | X-H torsion
[ 10763 10752 10751 10750 ] final  -88.64 input  -60.55 | X-H torsion
[ 11005 11000 10999 10996 ] final -164.00 input  -57.11 | X-H torsion

> <Gold.Protein.ActiveResidues>
 VAL166  LYS551  ARG553  GLY616  TRP617  ASP618  TYR619  PRO620  LYS621  CYS622 
 ASP623  PHE694  ASN695  SER759  ASP760  ASP761  ALA762  ILE779  LEU786  VAL792 
 PHE793  MET794  SER795  GLU796  ALA797  LYS798  CYS799  TRP800  GLU811  SER814 

> <Gold.Protein.RotatedAtoms>
  151.2182  135.0508  159.8938 H   0  0  0  0  0  0  0  0  0  0  0  0  # atno 6907 bound_to 6896
  152.5418  134.0670  159.8187 H   0  0  0  0  0  0  0  0  0  0  0  0  # atno 6908 bound_to 6896
  151.0832  133.5325  159.2651 H   0  0  0  0  0  0  0  0  0  0  0  0  # atno 6909 bound_to 6896
  144.9550  140.7385  143.4764 H   0  0  0  0  0  0  0  0  0  0  0  0  # atno 7974 bound_to 7965
  155.2954  140.3381  155.4250 H   0  0  0  0  0  0  0  0  0  0  0  0  # atno 8008 bound_to 7997
  156.2026  140.1739  156.7906 H   0  0  0  0  0  0  0  0  0  0  0  0  # atno 8009 bound_to 7997
  154.5579  140.0693  156.8757 H   0  0  0  0  0  0  0  0  0  0  0  0  # atno 8010 bound_to 7997
  140.6724  143.2733  151.4093 H   0  0  0  0  0  0  0  0  0  0  0  0  # atno 10167 bound_to 10162
  156.0835  130.4212  150.1178 H   0  0  0  0  0  0  0  0  0  0  0  0  # atno 10718 bound_to 10713
  154.6467  135.5370  153.7853 H   0  0  0  0  0  0  0  0  0  0  0  0  # atno 10763 bound_to 10752
  153.0363  135.6472  154.1079 H   0  0  0  0  0  0  0  0  0  0  0  0  # atno 10764 bound_to 10752
  154.0999  135.2934  155.3233 H   0  0  0  0  0  0  0  0  0  0  0  0  # atno 10765 bound_to 10752
  140.5919  134.5036  157.5194 H   0  0  0  0  0  0  0  0  0  0  0  0  # atno 11005 bound_to 11000
  145.2787  139.1927  143.4803 LP  0  0  0  0  0  0  0  0  0  0  0  0  # atno 17320 bound_to 7965
  146.3334  140.2745  142.8607 LP  0  0  0  0  0  0  0  0  0  0  0  0  # atno 17321 bound_to 7965
  139.5999  144.1319  152.2186 LP  0  0  0  0  0  0  0  0  0  0  0  0  # atno 17342 bound_to 10162
  140.0699  144.5787  150.7199 LP  0  0  0  0  0  0  0  0  0  0  0  0  # atno 17343 bound_to 10162
  156.9204  130.9681  151.3549 LP  0  0  0  0  0  0  0  0  0  0  0  0  # atno 17370 bound_to 10713
  157.5961  130.8479  149.8732 LP  0  0  0  0  0  0  0  0  0  0  0  0  # atno 17371 bound_to 10713
  139.9270  134.8036  156.1039 LP  0  0  0  0  0  0  0  0  0  0  0  0  # atno 17394 bound_to 11000
  141.0929  133.6707  156.2581 LP  0  0  0  0  0  0  0  0  0  0  0  0  # atno 17395 bound_to 11000

$$$$
