AV-unprocessed.smi:3280|AV-procd|sdf|12554|dock7
  -GOLD-   2272018473D 1   1.00000     0.00000
 Structure written by MMmdl.
 38 39  0  0  0  0  0  0  0  0  1 V2000
  146.8668  134.9703  159.4880 C   0  0  0  0  0  0  0  0  0  0  0  0
  147.9540  135.5518  160.4036 C   0  0  0  0  0  0  0  0  0  0  0  0
  147.4513  135.8309  161.8281 C   0  0  0  0  0  0  0  0  0  0  0  0
  148.6009  136.7585  159.7955 C   0  0  0  0  0  0  0  0  0  0  0  0
  147.9068  137.8656  159.5576 N   0  0  0  0  0  0  0  0  0  0  0  0
  148.8630  138.7408  159.0231 O   0  0  0  0  0  0  0  0  0  0  0  0
  150.0235  138.0429  158.9867 C   0  0  0  0  0  0  0  0  0  0  0  0
  151.2613  138.7260  158.5104 C   0  0  0  0  0  0  0  0  0  0  0  0
  151.5319  140.0296  159.2720 C   0  0  0  0  0  0  0  0  0  0  0  0
  152.8179  140.5785  158.8641 N   0  0  0  0  0  0  0  0  0  0  0  0
  153.0876  141.8669  159.4930 C   0  0  2  0  0  0  0  0  0  0  0  0
  152.7593  141.8203  161.0030 C   0  0  0  0  0  0  0  0  0  0  0  0
  153.0337  143.1589  161.7074 C   0  0  0  0  0  0  0  0  0  0  0  0
  152.1934  144.3086  161.1355 C   0  0  0  0  0  0  0  0  0  0  0  0
  152.5801  144.5939  159.3877 S   0  0  0  0  0  0  0  0  0  0  0  0
  152.2385  142.9253  158.7650 C   0  0  0  0  0  0  0  0  0  0  0  0
  149.9236  136.8076  159.4705 N   0  0  0  0  0  0  0  0  0  0  0  0
  147.2734  134.7188  158.5079 H   0  0  0  0  0  0  0  0  0  0  0  0
  146.0520  135.6798  159.3387 H   0  0  0  0  0  0  0  0  0  0  0  0
  146.4413  134.0608  159.9123 H   0  0  0  0  0  0  0  0  0  0  0  0
  148.7229  134.7826  160.4946 H   0  0  0  0  0  0  0  0  0  0  0  0
  148.2627  136.1760  162.4698 H   0  0  0  0  0  0  0  0  0  0  0  0
  147.0334  134.9308  162.2794 H   0  0  0  0  0  0  0  0  0  0  0  0
  146.6740  136.5956  161.8327 H   0  0  0  0  0  0  0  0  0  0  0  0
  152.1017  138.0396  158.6221 H   0  0  0  0  0  0  0  0  0  0  0  0
  151.1578  138.9261  157.4430 H   0  0  0  0  0  0  0  0  0  0  0  0
  150.7316  140.7417  159.0729 H   0  0  0  0  0  0  0  0  0  0  0  0
  151.5390  139.8344  160.3452 H   0  0  0  0  0  0  0  0  0  0  0  0
  153.5438  139.9275  159.1284 H   0  0  0  0  0  0  0  0  0  0  0  0
  154.1400  142.1176  159.3501 H   0  0  0  0  0  0  0  0  0  0  0  0
  151.7152  141.5398  161.1482 H   0  0  0  0  0  0  0  0  0  0  0  0
  153.3514  141.0525  161.4999 H   0  0  0  0  0  0  0  0  0  0  0  0
  152.8200  143.0538  162.7714 H   0  0  0  0  0  0  0  0  0  0  0  0
  154.0937  143.4043  161.6323 H   0  0  0  0  0  0  0  0  0  0  0  0
  151.1299  144.0883  161.2339 H   0  0  0  0  0  0  0  0  0  0  0  0
  152.3831  145.2276  161.6903 H   0  0  0  0  0  0  0  0  0  0  0  0
  152.4475  142.9154  157.6945 H   0  0  0  0  0  0  0  0  0  0  0  0
  151.1743  142.7172  158.8848 H   0  0  0  0  0  0  0  0  0  0  0  0
  1  2  1  0  0  0  0
  1 18  1  0  0  0  0
  1 19  1  0  0  0  0
  1 20  1  0  0  0  0
  2  3  1  0  0  0  0
  2  4  1  0  0  0  0
  2 21  1  0  0  0  0
  3 22  1  0  0  0  0
  3 23  1  0  0  0  0
  3 24  1  0  0  0  0
  4 17  1  0  0  0  0
  4  5  2  0  0  0  0
  5  6  1  0  0  0  0
  6  7  1  0  0  0  0
  7  8  1  0  0  0  0
  7 17  2  0  0  0  0
  8  9  1  0  0  0  0
  8 25  1  0  0  0  0
  8 26  1  0  0  0  0
  9 10  1  0  0  0  0
  9 27  1  0  0  0  0
  9 28  1  0  0  0  0
 10 11  1  0  0  0  0
 10 29  1  0  0  0  0
 11 16  1  0  0  0  0
 11 12  1  0  0  0  0
 11 30  1  0  0  0  0
 12 13  1  0  0  0  0
 12 31  1  0  0  0  0
 12 32  1  0  0  0  0
 13 14  1  0  0  0  0
 13 33  1  0  0  0  0
 13 34  1  0  0  0  0
 14 15  1  0  0  0  0
 14 35  1  0  0  0  0
 14 36  1  0  0  0  0
 15 16  1  0  0  0  0
 16 37  1  0  0  0  0
 16 38  1  0  0  0  0
M  END
> <s_m_source_file>
AV-unprocessed.smi

> <i_m_source_file_index>
3280

> <i_lp_mmshare_version>
43012

> <i_f3d_flags>
0

> <s_epik_input>
W0NIM11bQ0hdKFtDSDNdKWMxbm9jKG4xKVtDSDJdW0NIMl1bTkhdW0NAQEhdMltDSDJdW0NIMl1bQ0gyXVNbQ0gyXTI=

> <s_epik_cmdline>
J2VwaWtfcHl0aG9uJywgJy1waCcsICc3LjAnLCAnLXRuJywgJzgnLCAnLW1hJywgJzIwMCcsICctbWV0YWxfYmluZGluZycsICctaW1hZScsICc8aW5maWxlLm1hZT4nLCAnLW9tYWUnLCAnPG91dGZpbGUubWFlPic=

> <r_lp_tautomer_probability>
1

> <r_epik_Ionization_Penalty>
2.40576

> <r_epik_Ionization_Penalty_Charging>
0

> <r_epik_Ionization_Penalty_Neutral>
2.40576

> <r_epik_State_Penalty>
2.56401

> <r_epik_Charging_Adjusted_Penalty>
2.56401

> <i_epik_Tot_Q>
0

> <i_epik_Tot_abs_Q>
0

> <r_epik_Metal_State_Penalty>
2.56401

> <b_epik_Metal_Only>
0

> <s_lp_Force_Field>
OPLS_2005

> <r_lp_Energy>
1.17925

> <b_lp_Chiralities_Consistent>
1

> <s_lp_Variant>
AV-unprocessed.smi:3280-3

> <Gold.Version>
5.8.1

> <Gold.Id.Protein>
6NUR|6NUR_protein|mol2

> <Gold.PLP.Fitness>
40.4971

> <Gold.PLP.PLP>
-37.2014

> <Gold.PLP.part.hbond>
-3.6855

> <Gold.PLP.part.metal>
0.0000

> <Gold.PLP.part.buried>
-4.7831

> <Gold.PLP.part.nonpolar>
-29.2078

> <Gold.PLP.part.repulsive>
0.0000

> <Gold.PLP.ligand.clash>
0.0000

> <Gold.PLP.ligand.torsion>
0.1819

> <Gold.PLP.Chemscore.Hbond>
1.1867

> <Gold.PLP.Chemscore.CHOScore>
0.0000

> <Gold.PLP.Chemscore.Metal>
0.0000

> <Gold.Chemscore.Hbonds>
donor molecule, donor type, donor heavy atom, donor atom, acceptor molecule, acceptor atom, score
      P1  H  6896  6908       L1    17  0.78
      P1  H  6934  6947       L1     5  0.41

> <Gold.PLP.Chemscore.Internal.Correction>
0.0993

> <Gold.Rescore>
     Score         DG    S(hbond)    S(metal)    S(lipo)     H(rot)  DE(clash)    DE(int)     intcor
     15.66     -15.81       0.99        0.00      96.69       1.68       0.04       0.11       ----

> <Gold.Chemscore.Fitness>
15.6618

> <Gold.Chemscore.DG>
-15.8069

> <Gold.Chemscore.ZeroCoef>
-5.4800

> <Gold.Chemscore.Hbond>
0.9949

> <Gold.Chemscore.Metal>
0.0000

> <Gold.Chemscore.Lipo>
96.6926

> <Gold.Chemscore.Internal_Hbond>
0.0000

> <Gold.Chemscore.DEClash>
0.0368

> <Gold.Chemscore.DEInternal>
0.1083

> <Gold.Chemscore.Rot>
1.6833

> <Gold.Chemscore.Internal.Correction>
   9.000000E+99

> <Gold.Chemscore.Hbonds>
donor molecule, donor type, donor heavy atom, donor atom, acceptor molecule, acceptor atom, score
      P1  H  6896  6908       L1    17  0.70
      P1  H  6934  6947       L1     5  0.07

> <Gold.Chemscore.Hbond.Weighted>
-3.3230

> <Gold.Chemscore.Metal.Weighted>
-0.0000

> <Gold.Chemscore.Lipo.Weighted>
-11.3130

> <Gold.Chemscore.Internal_Hbond.Weighted>
0.0000

> <Gold.Chemscore.DEClash.Weighted>
0.0368

> <Gold.Chemscore.DEInternal.Weighted>
0.1083

> <Gold.Chemscore.Rot.Weighted>
4.3092

> <Gold.Chemscore.Internal.Correction.Weighted>
   9.000000E+99

> <Gold.Protein.RotatedTorsions>
[ 6907 6896 6895 6894 ] final -156.62 input  -60.11 | X-H torsion
[ 7974 7965 7964 7962 ] final -142.68 input  175.53 | X-H torsion
[ 8008 7997 7996 7995 ] final   37.47 input   59.86 | X-H torsion
[ 10167 10162 10161 10158 ] final  -36.64 input  -65.29 | X-H torsion
[ 10718 10713 10712 10709 ] final    2.36 input   66.30 | X-H torsion
[ 10763 10752 10751 10750 ] final -159.54 input  -60.55 | X-H torsion
[ 11005 11000 10999 10996 ] final -166.75 input  -57.11 | X-H torsion

> <Gold.Protein.ActiveResidues>
 VAL166  LYS551  ARG553  GLY616  TRP617  ASP618  TYR619  PRO620  LYS621  CYS622 
 ASP623  PHE694  ASN695  SER759  ASP760  ASP761  ALA762  ILE779  LEU786  VAL792 
 PHE793  MET794  SER795  GLU796  ALA797  LYS798  CYS799  TRP800  GLU811  SER814 

> <Gold.Protein.RotatedAtoms>
  151.2903  133.4168  159.2632 H   0  0  0  0  0  0  0  0  0  0  0  0  # atno 6907 bound_to 6896
  151.0283  134.9521  159.8107 H   0  0  0  0  0  0  0  0  0  0  0  0  # atno 6908 bound_to 6896
  152.5340  134.2865  159.9079 H   0  0  0  0  0  0  0  0  0  0  0  0  # atno 6909 bound_to 6896
  144.8425  140.5928  143.5443 H   0  0  0  0  0  0  0  0  0  0  0  0  # atno 7974 bound_to 7965
  155.2043  140.3318  155.4338 H   0  0  0  0  0  0  0  0  0  0  0  0  # atno 8008 bound_to 7997
  156.2395  140.1888  156.7078 H   0  0  0  0  0  0  0  0  0  0  0  0  # atno 8009 bound_to 7997
  154.6120  140.0607  156.9492 H   0  0  0  0  0  0  0  0  0  0  0  0  # atno 8010 bound_to 7997
  140.7137  143.3395  151.2389 H   0  0  0  0  0  0  0  0  0  0  0  0  # atno 10167 bound_to 10162
  156.8618  130.5589  149.5662 H   0  0  0  0  0  0  0  0  0  0  0  0  # atno 10718 bound_to 10713
  154.7466  135.3082  154.8633 H   0  0  0  0  0  0  0  0  0  0  0  0  # atno 10763 bound_to 10752
  153.9433  135.6772  153.4748 H   0  0  0  0  0  0  0  0  0  0  0  0  # atno 10764 bound_to 10752
  153.1062  135.4888  154.8882 H   0  0  0  0  0  0  0  0  0  0  0  0  # atno 10765 bound_to 10752
  140.5609  134.5334  157.5143 H   0  0  0  0  0  0  0  0  0  0  0  0  # atno 11005 bound_to 11000
  145.4665  139.1507  143.3838 LP  0  0  0  0  0  0  0  0  0  0  0  0  # atno 17320 bound_to 7965
  146.2715  140.4796  142.8812 LP  0  0  0  0  0  0  0  0  0  0  0  0  # atno 17321 bound_to 7965
  139.6898  143.9711  152.2853 LP  0  0  0  0  0  0  0  0  0  0  0  0  # atno 17342 bound_to 10162
  139.9369  144.6706  150.8306 LP  0  0  0  0  0  0  0  0  0  0  0  0  # atno 17343 bound_to 10162
  156.0772  130.5792  150.9496 LP  0  0  0  0  0  0  0  0  0  0  0  0  # atno 17370 bound_to 10713
  157.6245  131.0927  150.8559 LP  0  0  0  0  0  0  0  0  0  0  0  0  # atno 17371 bound_to 10713
  139.9408  134.7790  156.0683 LP  0  0  0  0  0  0  0  0  0  0  0  0  # atno 17394 bound_to 11000
  141.1115  133.6642  156.2990 LP  0  0  0  0  0  0  0  0  0  0  0  0  # atno 17395 bound_to 11000

$$$$
