AV-unprocessed.smi:2629|AV-procd|sdf|10244|dock4
  -GOLD-   2272014253D 1   1.00000     0.00000
 Structure written by MMmdl.
 24 25  0  0  0  0  0  0  0  0  3 V2000
  150.9463  132.6433  153.8899 O   0  0  0  0  0  0  0  0  0  0  0  0
  151.1945  133.8213  154.1354 C   0  0  0  0  0  0  0  0  0  0  0  0
  150.6140  134.9121  153.2690 N   0  0  0  0  0  0  0  0  0  0  0  0
  150.8786  136.1112  153.5336 N   0  3  0  0  0  0  0  0  0  0  0  0
  151.7059  136.5593  154.6145 C   0  0  0  0  0  0  0  0  0  0  0  0
  151.9240  137.9111  154.8021 N   0  0  0  0  0  0  0  0  0  0  0  0
  153.0432  138.4225  155.5773 C   0  0  0  0  0  0  0  0  0  0  0  0
  152.5363  139.0264  156.8984 C   0  0  0  0  0  0  0  0  0  0  0  0
  151.5585  140.0257  156.6222 O   0  0  0  0  0  0  0  0  0  0  0  0
  150.4319  139.5004  155.9253 C   0  0  0  0  0  0  0  0  0  0  0  0
  150.8880  138.9074  154.5808 C   0  0  0  0  0  0  0  0  0  0  0  0
  152.2449  135.5656  155.4184 C   0  0  0  0  0  0  0  0  0  0  0  0
  152.9895  135.5581  156.4230 O   0  5  0  0  0  0  0  0  0  0  0  0
  151.9724  134.2251  155.1549 N   0  0  0  0  0  0  0  0  0  0  0  0
  150.4722  136.8182  152.9306 H   0  0  0  0  0  0  0  0  0  0  0  0
  153.5639  139.1795  154.9901 H   0  0  0  0  0  0  0  0  0  0  0  0
  153.7591  137.6235  155.7743 H   0  0  0  0  0  0  0  0  0  0  0  0
  152.1099  138.2535  157.5398 H   0  0  0  0  0  0  0  0  0  0  0  0
  153.3622  139.4781  157.4482 H   0  0  0  0  0  0  0  0  0  0  0  0
  149.9351  138.7435  156.5345 H   0  0  0  0  0  0  0  0  0  0  0  0
  149.7108  140.3007  155.7591 H   0  0  0  0  0  0  0  0  0  0  0  0
  150.0428  138.4594  154.0570 H   0  0  0  0  0  0  0  0  0  0  0  0
  151.2836  139.6923  153.9353 H   0  0  0  0  0  0  0  0  0  0  0  0
  152.3876  133.5389  155.7683 H   0  0  0  0  0  0  0  0  0  0  0  0
  1  2  2  0  0  0  0
  2 14  1  0  0  0  0
  2  3  1  0  0  0  0
  3  4  2  0  0  0  0
  4 15  1  0  0  0  0
  4  5  1  0  0  0  0
  5 12  2  0  0  0  0
  5  6  1  0  0  0  0
  6 11  1  0  0  0  0
  6  7  1  0  0  0  0
  7  8  1  0  0  0  0
  7 16  1  0  0  0  0
  7 17  1  0  0  0  0
  8  9  1  0  0  0  0
  8 18  1  0  0  0  0
  8 19  1  0  0  0  0
  9 10  1  0  0  0  0
 10 11  1  0  0  0  0
 10 20  1  0  0  0  0
 10 21  1  0  0  0  0
 11 22  1  0  0  0  0
 11 23  1  0  0  0  0
 12 13  1  0  0  0  0
 12 14  1  0  0  0  0
 14 24  1  0  0  0  0
M  CHG  1   4   1
M  CHG  1  13  -1
M  END
> <s_m_source_file>
AV-unprocessed.smi

> <i_m_source_file_index>
2629

> <i_lp_mmshare_version>
43012

> <i_f3d_flags>
0

> <s_epik_input>
Tz1jMVtuSF1uYyhjKD1PKVtuSF0xKU4yW0NIMl1bQ0gyXU9bQ0gyXVtDSDJdMg==

> <s_epik_cmdline>
J2VwaWtfcHl0aG9uJywgJy1waCcsICc3LjAnLCAnLXRuJywgJzgnLCAnLW1hJywgJzIwMCcsICctbWV0YWxfYmluZGluZycsICctaW1hZScsICc8aW5maWxlLm1hZT4nLCAnLW9tYWUnLCAnPG91dGZpbGUubWFlPic=

> <r_lp_tautomer_probability>
1

> <r_epik_Ionization_Penalty>
6.1095

> <r_epik_Ionization_Penalty_Charging>
6.1095

> <r_epik_Ionization_Penalty_Neutral>
3.71443e-10

> <r_epik_State_Penalty>
-0

> <r_epik_Charging_Adjusted_Penalty>
6.1095

> <i_epik_Tot_Q>
0

> <i_epik_Tot_abs_Q>
2

> <r_epik_Metal_State_Penalty>
6.62767

> <b_epik_Metal_Only>
0

> <s_lp_Force_Field>
OPLS_2005

> <r_lp_Energy>
17.9127

> <b_lp_Chiralities_Consistent>
1

> <s_lp_Variant>
AV-unprocessed.smi:2629-1

> <Gold.Version>
5.8.1

> <Gold.Id.Protein>
6NUR|6NUR_protein|mol2

> <Gold.PLP.Fitness>
31.8899

> <Gold.PLP.PLP>
-21.9117

> <Gold.PLP.part.hbond>
-3.0000

> <Gold.PLP.part.metal>
0.0000

> <Gold.PLP.part.buried>
-2.9770

> <Gold.PLP.part.nonpolar>
-17.0293

> <Gold.PLP.part.repulsive>
0.3036

> <Gold.PLP.ligand.clash>
0.0000

> <Gold.PLP.ligand.torsion>
0.3629

> <Gold.PLP.Chemscore.Hbond>
3.5440

> <Gold.PLP.Chemscore.CHOScore>
0.0000

> <Gold.PLP.Chemscore.Metal>
0.0000

> <Gold.PLP.Chemscore.Internal.Correction>
0.0720

> <Gold.Rescore>
     Score         DG    S(hbond)    S(metal)    S(lipo)     H(rot)  DE(clash)    DE(int)     intcor
     13.46     -14.84       1.73        0.00      30.70       0.00       0.04       1.33       ----

> <Gold.Chemscore.Fitness>
13.4627

> <Gold.Chemscore.DG>
-14.8362

> <Gold.Chemscore.ZeroCoef>
-5.4800

> <Gold.Chemscore.Hbond>
1.7259

> <Gold.Chemscore.Metal>
0.0000

> <Gold.Chemscore.Lipo>
30.6978

> <Gold.Chemscore.Internal_Hbond>
0.0000

> <Gold.Chemscore.DEClash>
0.0435

> <Gold.Chemscore.DEInternal>
1.3300

> <Gold.Chemscore.Rot>
0.0000

> <Gold.Chemscore.Internal.Correction>
   9.000000E+99

> <Gold.Chemscore.Hbond.Weighted>
-5.7646

> <Gold.Chemscore.Metal.Weighted>
-0.0000

> <Gold.Chemscore.Lipo.Weighted>
-3.5916

> <Gold.Chemscore.Internal_Hbond.Weighted>
0.0000

> <Gold.Chemscore.DEClash.Weighted>
0.0435

> <Gold.Chemscore.DEInternal.Weighted>
1.3300

> <Gold.Chemscore.Rot.Weighted>
0.0000

> <Gold.Chemscore.Internal.Correction.Weighted>
   9.000000E+99

> <Gold.Protein.RotatedTorsions>
[ 6907 6896 6895 6894 ] final   66.19 input  -60.11 | X-H torsion
[ 7974 7965 7964 7962 ] final   68.87 input  175.53 | X-H torsion
[ 8008 7997 7996 7995 ] final  173.26 input   59.86 | X-H torsion
[ 10167 10162 10161 10158 ] final -101.21 input  -65.29 | X-H torsion
[ 10718 10713 10712 10709 ] final -127.47 input   66.30 | X-H torsion
[ 10763 10752 10751 10750 ] final  118.84 input  -60.55 | X-H torsion
[ 11005 11000 10999 10996 ] final -131.09 input  -57.11 | X-H torsion

> <Gold.Protein.ActiveResidues>
 VAL166  LYS551  ARG553  GLY616  TRP617  ASP618  TYR619  PRO620  LYS621  CYS622 
 ASP623  PHE694  ASN695  SER759  ASP760  ASP761  ALA762  ILE779  LEU786  VAL792 
 PHE793  MET794  SER795  GLU796  ALA797  LYS798  CYS799  TRP800  GLU811  SER814 

> <Gold.Protein.RotatedAtoms>
  152.4463  134.5488  159.9860 H   0  0  0  0  0  0  0  0  0  0  0  0  # atno 6907 bound_to 6896
  151.5573  133.3402  159.2972 H   0  0  0  0  0  0  0  0  0  0  0  0  # atno 6908 bound_to 6896
  150.8379  134.7693  159.6972 H   0  0  0  0  0  0  0  0  0  0  0  0  # atno 6909 bound_to 6896
  145.7974  139.2964  143.1175 H   0  0  0  0  0  0  0  0  0  0  0  0  # atno 7974 bound_to 7965
  156.1093  140.1465  156.9360 H   0  0  0  0  0  0  0  0  0  0  0  0  # atno 8008 bound_to 7997
  154.4756  140.0895  156.7296 H   0  0  0  0  0  0  0  0  0  0  0  0  # atno 8009 bound_to 7997
  155.4624  140.3439  155.4317 H   0  0  0  0  0  0  0  0  0  0  0  0  # atno 8010 bound_to 7997
  140.2438  143.3520  152.0778 H   0  0  0  0  0  0  0  0  0  0  0  0  # atno 10167 bound_to 10162
  156.1860  130.6763  151.0364 H   0  0  0  0  0  0  0  0  0  0  0  0  # atno 10718 bound_to 10713
  153.5738  135.3497  155.2848 H   0  0  0  0  0  0  0  0  0  0  0  0  # atno 10763 bound_to 10752
  154.8678  135.4166  154.2695 H   0  0  0  0  0  0  0  0  0  0  0  0  # atno 10764 bound_to 10752
  153.3467  135.7053  153.6892 H   0  0  0  0  0  0  0  0  0  0  0  0  # atno 10765 bound_to 10752
  140.9289  134.1346  157.4252 H   0  0  0  0  0  0  0  0  0  0  0  0  # atno 11005 bound_to 11000
  145.9914  140.8599  143.0064 LP  0  0  0  0  0  0  0  0  0  0  0  0  # atno 17320 bound_to 7965
  144.6773  140.2220  143.7365 LP  0  0  0  0  0  0  0  0  0  0  0  0  # atno 17321 bound_to 7965
  139.5068  144.6821  151.5981 LP  0  0  0  0  0  0  0  0  0  0  0  0  # atno 17342 bound_to 10162
  140.6093  143.9465  150.6442 LP  0  0  0  0  0  0  0  0  0  0  0  0  # atno 17343 bound_to 10162
  157.6899  131.0813  150.7138 LP  0  0  0  0  0  0  0  0  0  0  0  0  # atno 17370 bound_to 10713
  156.7195  130.4676  149.5526 LP  0  0  0  0  0  0  0  0  0  0  0  0  # atno 17371 bound_to 10713
  139.8792  134.9998  156.5974 LP  0  0  0  0  0  0  0  0  0  0  0  0  # atno 17394 bound_to 11000
  140.7889  133.8598  155.8629 LP  0  0  0  0  0  0  0  0  0  0  0  0  # atno 17395 bound_to 11000

$$$$
