AV-unprocessed.smi:121|AV-procd|sdf|1139|dock6
  -GOLD-   2262018273D 1   1.00000     0.00000
 Structure written by MMmdl.
 37 39  0  0  0  0  0  0  0  0  1 V2000
  153.6104  143.0744  162.8810 N   0  0  0  0  0  0  0  0  0  0  0  0
  153.1201  143.1716  161.8375 C   0  0  0  0  0  0  0  0  0  0  0  0
  152.5038  143.2934  160.5269 C   0  0  0  0  0  0  0  0  0  0  0  0
  152.1030  144.5571  160.0489 C   0  0  0  0  0  0  0  0  0  0  0  0
  151.5009  144.6698  158.7815 C   0  0  0  0  0  0  0  0  0  0  0  0
  151.3004  143.5219  157.9910 C   0  0  0  0  0  0  0  0  0  0  0  0
  151.7039  142.2532  158.4569 C   0  0  0  0  0  0  0  0  0  0  0  0
  151.4627  141.0338  157.5711 C   0  0  0  0  0  0  0  0  0  0  0  0
  150.1457  140.9351  156.9604 N   0  0  0  0  0  0  0  0  0  0  0  0
  150.0906  140.5848  155.5895 C   0  0  0  0  0  0  0  0  0  0  0  0
  151.1085  140.3830  154.9247 O   0  0  0  0  0  0  0  0  0  0  0  0
  148.7413  140.4738  155.0469 C   0  0  0  0  0  0  0  0  0  0  0  0
  148.5708  140.1675  153.7497 F   0  0  0  0  0  0  0  0  0  0  0  0
  147.6564  140.6714  155.8268 C   0  0  0  0  0  0  0  0  0  0  0  0
  147.7407  140.9850  157.1741 N   0  0  0  0  0  0  0  0  0  0  0  0
  146.5093  141.1813  158.0341 C   0  0  2  0  0  0  0  0  0  0  0  0
  145.6889  139.8787  158.1117 C   0  0  0  0  0  0  0  0  0  0  0  0
  144.2974  140.3326  157.7174 C   0  0  0  0  0  0  0  0  0  0  0  0
  144.5963  141.5102  156.8021 C   0  0  0  0  0  0  0  0  0  0  0  0
  145.6789  142.1522  157.4629 O   0  0  0  0  0  0  0  0  0  0  0  0
  149.0080  141.1372  157.7779 C   0  0  0  0  0  0  0  0  0  0  0  0
  149.1042  141.4150  158.9757 O   0  0  0  0  0  0  0  0  0  0  0  0
  152.3042  142.1456  159.7332 C   0  0  0  0  0  0  0  0  0  0  0  0
  152.2527  145.4428  160.6497 H   0  0  0  0  0  0  0  0  0  0  0  0
  151.1919  145.6376  158.4151 H   0  0  0  0  0  0  0  0  0  0  0  0
  150.8362  143.6188  157.0204 H   0  0  0  0  0  0  0  0  0  0  0  0
  152.2131  140.9965  156.7809 H   0  0  0  0  0  0  0  0  0  0  0  0
  151.6191  140.1128  158.1361 H   0  0  0  0  0  0  0  0  0  0  0  0
  146.6895  140.5745  155.3579 H   0  0  0  0  0  0  0  0  0  0  0  0
  146.8776  141.5374  158.9982 H   0  0  0  0  0  0  0  0  0  0  0  0
  146.0677  139.1483  157.3946 H   0  0  0  0  0  0  0  0  0  0  0  0
  145.7323  139.4478  159.1123 H   0  0  0  0  0  0  0  0  0  0  0  0
  143.7143  139.5504  157.2306 H   0  0  0  0  0  0  0  0  0  0  0  0
  143.7500  140.6727  158.5973 H   0  0  0  0  0  0  0  0  0  0  0  0
  144.9067  141.1649  155.8148 H   0  0  0  0  0  0  0  0  0  0  0  0
  143.7446  142.1797  156.6815 H   0  0  0  0  0  0  0  0  0  0  0  0
  152.6137  141.1834  160.1137 H   0  0  0  0  0  0  0  0  0  0  0  0
  1  2  3  0  0  0  0
  2  3  1  0  0  0  0
  3 23  1  0  0  0  0
  3  4  2  0  0  0  0
  4  5  1  0  0  0  0
  4 24  1  0  0  0  0
  5  6  2  0  0  0  0
  5 25  1  0  0  0  0
  6  7  1  0  0  0  0
  6 26  1  0  0  0  0
  7  8  1  0  0  0  0
  7 23  2  0  0  0  0
  8  9  1  0  0  0  0
  8 27  1  0  0  0  0
  8 28  1  0  0  0  0
  9 21  1  0  0  0  0
  9 10  1  0  0  0  0
 10 11  2  0  0  0  0
 10 12  1  0  0  0  0
 12 13  1  0  0  0  0
 12 14  2  0  0  0  0
 14 15  1  0  0  0  0
 14 29  1  0  0  0  0
 15 16  1  0  0  0  0
 15 21  1  0  0  0  0
 16 20  1  0  0  0  0
 16 17  1  0  0  0  0
 16 30  1  0  0  0  0
 17 18  1  0  0  0  0
 17 31  1  0  0  0  0
 17 32  1  0  0  0  0
 18 19  1  0  0  0  0
 18 33  1  0  0  0  0
 18 34  1  0  0  0  0
 19 20  1  0  0  0  0
 19 35  1  0  0  0  0
 19 36  1  0  0  0  0
 21 22  2  0  0  0  0
 23 37  1  0  0  0  0
M  END
> <s_m_source_file>
AV-unprocessed.smi

> <i_m_source_file_index>
121

> <i_lp_mmshare_version>
43012

> <i_f3d_flags>
0

> <s_epik_input>
TiNDYzFbY0hdW2NIXVtjSF1jKFtjSF0xKVtDSDJdbjJjKD1PKWMoRilbY0hdbihjMj1PKVtDQEBIXTNbQ0gyXVtDSDJdW0NIMl1PMw==

> <s_epik_cmdline>
J2VwaWtfcHl0aG9uJywgJy1waCcsICc3LjAnLCAnLXRuJywgJzgnLCAnLW1hJywgJzIwMCcsICctbWV0YWxfYmluZGluZycsICctaW1hZScsICc8aW5maWxlLm1hZT4nLCAnLW9tYWUnLCAnPG91dGZpbGUubWFlPic=

> <r_lp_tautomer_probability>
1

> <r_epik_Ionization_Penalty>
1.69864e-08

> <r_epik_Ionization_Penalty_Charging>
1.69802e-08

> <r_epik_Ionization_Penalty_Neutral>
6.20402e-12

> <r_epik_State_Penalty>
-0

> <r_epik_Charging_Adjusted_Penalty>
1.69802e-08

> <i_epik_Tot_Q>
0

> <i_epik_Tot_abs_Q>
0

> <r_epik_Metal_State_Penalty>
-0

> <b_epik_Metal_Only>
0

> <s_epik_Chemistry_Notes>
This compound contains an acetal/aminal-like group ( X-CH(R)-Y where X, Y are N, S, or O) that may be acid/base labile, releasing an aldehyde.

> <s_lp_Force_Field>
OPLS_2005

> <r_lp_Energy>
32.9852

> <b_lp_Chiralities_Consistent>
1

> <s_lp_Variant>
AV-unprocessed.smi:121-1

> <Gold.Version>
5.8.1

> <Gold.Id.Protein>
6NUR|6NUR_protein|mol2

> <Gold.PLP.Fitness>
44.6510

> <Gold.PLP.PLP>
-42.3597

> <Gold.PLP.part.hbond>
-1.5854

> <Gold.PLP.part.metal>
0.0000

> <Gold.PLP.part.buried>
-1.8129

> <Gold.PLP.part.nonpolar>
-38.3286

> <Gold.PLP.part.repulsive>
0.4471

> <Gold.PLP.ligand.clash>
0.0000

> <Gold.PLP.ligand.torsion>
0.3593

> <Gold.PLP.Chemscore.Hbond>
1.0000

> <Gold.PLP.Chemscore.CHOScore>
0.0000

> <Gold.PLP.Chemscore.Metal>
0.0000

> <Gold.Chemscore.Hbonds>
donor molecule, donor type, donor heavy atom, donor atom, acceptor molecule, acceptor atom, score
      P1  H  7989  7998       L1    11  1.00

> <Gold.PLP.Chemscore.Internal.Correction>
0.0099

> <Gold.Rescore>
     Score         DG    S(hbond)    S(metal)    S(lipo)     H(rot)  DE(clash)    DE(int)     intcor
     12.66     -15.08       0.98        0.00      88.80       1.59       0.85       1.56       ----

> <Gold.Chemscore.Fitness>
12.6645

> <Gold.Chemscore.DG>
-15.0768

> <Gold.Chemscore.ZeroCoef>
-5.4800

> <Gold.Chemscore.Hbond>
0.9798

> <Gold.Chemscore.Metal>
0.0000

> <Gold.Chemscore.Lipo>
88.8025

> <Gold.Chemscore.Internal_Hbond>
0.0000

> <Gold.Chemscore.DEClash>
0.8520

> <Gold.Chemscore.DEInternal>
1.5603

> <Gold.Chemscore.Rot>
1.5882

> <Gold.Chemscore.Internal.Correction>
   9.000000E+99

> <Gold.Chemscore.Hbonds>
donor molecule, donor type, donor heavy atom, donor atom, acceptor molecule, acceptor atom, score
      P1  H  7989  7998       L1    11  0.96

> <Gold.Chemscore.Hbond.Weighted>
-3.2727

> <Gold.Chemscore.Metal.Weighted>
-0.0000

> <Gold.Chemscore.Lipo.Weighted>
-10.3899

> <Gold.Chemscore.Internal_Hbond.Weighted>
0.0000

> <Gold.Chemscore.DEClash.Weighted>
0.8520

> <Gold.Chemscore.DEInternal.Weighted>
1.5603

> <Gold.Chemscore.Rot.Weighted>
4.0657

> <Gold.Chemscore.Internal.Correction.Weighted>
   9.000000E+99

> <Gold.Protein.RotatedTorsions>
[ 6907 6896 6895 6894 ] final  -82.19 input  -60.11 | X-H torsion
[ 7974 7965 7964 7962 ] final   33.99 input  175.53 | X-H torsion
[ 8008 7997 7996 7995 ] final   -6.36 input   59.86 | X-H torsion
[ 10167 10162 10161 10158 ] final  161.40 input  -65.29 | X-H torsion
[ 10718 10713 10712 10709 ] final  -99.20 input   66.30 | X-H torsion
[ 10763 10752 10751 10750 ] final  -67.90 input  -60.55 | X-H torsion
[ 11005 11000 10999 10996 ] final  -29.23 input  -57.11 | X-H torsion

> <Gold.Protein.ActiveResidues>
 VAL166  LYS551  ARG553  GLY616  TRP617  ASP618  TYR619  PRO620  LYS621  CYS622 
 ASP623  PHE694  ASN695  SER759  ASP760  ASP761  ALA762  ILE779  LEU786  VAL792 
 PHE793  MET794  SER795  GLU796  ALA797  LYS798  CYS799  TRP800  GLU811  SER814 

> <Gold.Protein.RotatedAtoms>
  150.6901  134.3702  159.4988 H   0  0  0  0  0  0  0  0  0  0  0  0  # atno 6907 bound_to 6896
  152.1519  134.8979  160.0556 H   0  0  0  0  0  0  0  0  0  0  0  0  # atno 6908 bound_to 6896
  152.0073  133.3813  159.4242 H   0  0  0  0  0  0  0  0  0  0  0  0  # atno 6909 bound_to 6896
  146.1383  139.6325  142.9180 H   0  0  0  0  0  0  0  0  0  0  0  0  # atno 7974 bound_to 7965
  154.5945  140.2435  155.7875 H   0  0  0  0  0  0  0  0  0  0  0  0  # atno 8008 bound_to 7997
  156.2270  140.2979  156.0045 H   0  0  0  0  0  0  0  0  0  0  0  0  # atno 8009 bound_to 7997
  155.2316  140.0404  157.2953 H   0  0  0  0  0  0  0  0  0  0  0  0  # atno 8010 bound_to 7997
  139.4849  144.4540  151.8793 H   0  0  0  0  0  0  0  0  0  0  0  0  # atno 10167 bound_to 10162
  156.0127  130.5272  150.6635 H   0  0  0  0  0  0  0  0  0  0  0  0  # atno 10718 bound_to 10713
  154.3812  135.6074  153.5791 H   0  0  0  0  0  0  0  0  0  0  0  0  # atno 10763 bound_to 10752
  152.9788  135.5861  154.4408 H   0  0  0  0  0  0  0  0  0  0  0  0  # atno 10764 bound_to 10752
  154.4178  135.2845  155.1973 H   0  0  0  0  0  0  0  0  0  0  0  0  # atno 10765 bound_to 10752
  140.9278  133.7358  156.0892 H   0  0  0  0  0  0  0  0  0  0  0  0  # atno 11005 bound_to 11000
  145.5105  141.0435  143.2490 LP  0  0  0  0  0  0  0  0  0  0  0  0  # atno 17320 bound_to 7965
  144.7764  139.6621  143.7173 LP  0  0  0  0  0  0  0  0  0  0  0  0  # atno 17321 bound_to 7965
  140.3998  144.2508  150.5894 LP  0  0  0  0  0  0  0  0  0  0  0  0  # atno 17342 bound_to 10162
  140.5068  143.2302  151.8596 LP  0  0  0  0  0  0  0  0  0  0  0  0  # atno 17343 bound_to 10162
  157.4373  131.0857  151.0979 LP  0  0  0  0  0  0  0  0  0  0  0  0  # atno 17370 bound_to 10713
  157.1534  130.6194  149.5589 LP  0  0  0  0  0  0  0  0  0  0  0  0  # atno 17371 bound_to 10713
  140.7903  134.3625  157.5466 LP  0  0  0  0  0  0  0  0  0  0  0  0  # atno 17394 bound_to 11000
  139.8789  134.9136  156.3088 LP  0  0  0  0  0  0  0  0  0  0  0  0  # atno 17395 bound_to 11000

$$$$
