AV-unprocessed.smi:992|AV-procd|sdf|4334|dock3
  -GOLD-   22720 2233D 1   1.00000     0.00000
 Structure written by MMmdl.
 33 34  0  0  0  0  0  0  0  0  2 V2000
  148.2970  128.9239  154.4342 C   0  0  0  0  0  0  0  0  0  0  0  0
  147.0886  128.2222  153.7892 C   0  0  1  0  0  0  0  0  0  0  0  0
  146.1402  129.1839  153.0450 C   0  0  0  0  0  0  0  0  0  0  0  0
  146.7242  129.6098  151.7800 N   0  0  0  0  0  0  0  0  0  0  0  0
  145.9502  130.5691  151.1140 C   0  0  0  0  0  0  0  0  0  0  0  0
  144.6155  130.8782  151.4678 C   0  0  0  0  0  0  0  0  0  0  0  0
  143.9157  131.8595  150.7351 C   0  0  0  0  0  0  0  0  0  0  0  0
  144.5613  132.5133  149.6645 C   0  0  0  0  0  0  0  0  0  0  0  0
  143.8932  133.4850  148.9221 N   0  0  0  0  0  0  0  0  0  0  0  0
  145.8932  132.1688  149.3559 C   0  0  0  0  0  0  0  0  0  0  0  0
  146.5287  131.2235  150.0824 N   0  3  0  0  0  0  0  0  0  0  0  0
  147.1035  128.4850  150.9370 C   0  0  0  0  0  0  0  0  0  0  0  0
  148.0810  127.5680  151.6933 C   0  0  2  0  0  0  0  0  0  0  0  0
  148.4282  126.3120  150.8873 C   0  0  0  0  0  0  0  0  0  0  0  0
  147.4847  127.1550  152.9232 O   0  0  0  0  0  0  0  0  0  0  0  0
  147.9699  129.6474  155.1814 H   0  0  0  0  0  0  0  0  0  0  0  0
  148.9023  129.4628  153.7059 H   0  0  0  0  0  0  0  0  0  0  0  0
  148.9417  128.2021  154.9363 H   0  0  0  0  0  0  0  0  0  0  0  0
  146.5235  127.7618  154.6001 H   0  0  0  0  0  0  0  0  0  0  0  0
  145.1935  128.6782  152.8491 H   0  0  0  0  0  0  0  0  0  0  0  0
  145.9147  130.0515  153.6667 H   0  0  0  0  0  0  0  0  0  0  0  0
  144.1296  130.3731  152.2896 H   0  0  0  0  0  0  0  0  0  0  0  0
  142.8960  132.1042  150.9944 H   0  0  0  0  0  0  0  0  0  0  0  0
  142.9388  133.7447  149.1281 H   0  0  0  0  0  0  0  0  0  0  0  0
  144.3533  133.9950  148.1813 H   0  0  0  0  0  0  0  0  0  0  0  0
  146.4676  132.6148  148.5567 H   0  0  0  0  0  0  0  0  0  0  0  0
  146.2140  127.9233  150.6490 H   0  0  0  0  0  0  0  0  0  0  0  0
  147.5658  128.8514  150.0193 H   0  0  0  0  0  0  0  0  0  0  0  0
  149.0074  128.1063  151.8954 H   0  0  0  0  0  0  0  0  0  0  0  0
  148.8949  126.5723  149.9369 H   0  0  0  0  0  0  0  0  0  0  0  0
  147.5375  125.7209  150.6727 H   0  0  0  0  0  0  0  0  0  0  0  0
  149.1246  125.6773  151.4362 H   0  0  0  0  0  0  0  0  0  0  0  0
  147.4918  130.9911  149.8386 H   0  0  0  0  0  0  0  0  0  0  0  0
  1  2  1  0  0  0  0
  1 16  1  0  0  0  0
  1 17  1  0  0  0  0
  1 18  1  0  0  0  0
  2 15  1  0  0  0  0
  2  3  1  0  0  0  0
  2 19  1  0  0  0  0
  3  4  1  0  0  0  0
  3 20  1  0  0  0  0
  3 21  1  0  0  0  0
  4  5  1  0  0  0  0
  4 12  1  0  0  0  0
  5 11  1  0  0  0  0
  5  6  2  0  0  0  0
  6  7  1  0  0  0  0
  6 22  1  0  0  0  0
  7  8  2  0  0  0  0
  7 23  1  0  0  0  0
  8  9  1  0  0  0  0
  8 10  1  0  0  0  0
  9 24  1  0  0  0  0
  9 25  1  0  0  0  0
 10 11  2  0  0  0  0
 10 26  1  0  0  0  0
 11 33  1  0  0  0  0
 12 13  1  0  0  0  0
 12 27  1  0  0  0  0
 12 28  1  0  0  0  0
 13 14  1  0  0  0  0
 13 15  1  0  0  0  0
 13 29  1  0  0  0  0
 14 30  1  0  0  0  0
 14 31  1  0  0  0  0
 14 32  1  0  0  0  0
M  CHG  1  11   1
M  END
> <s_m_source_file>
AV-unprocessed.smi

> <i_m_source_file_index>
992

> <i_lp_mmshare_version>
43012

> <i_f3d_flags>
0

> <s_epik_input>
W0NIM11bQ0BASF0xW0NIMl1OKFtDSDJdW0NASF0oTzEpW0NIM10pYzJbY0hdW2NIXWMoW05IMl0pW2NIXW4y

> <s_epik_cmdline>
J2VwaWtfcHl0aG9uJywgJy1waCcsICc3LjAnLCAnLXRuJywgJzgnLCAnLW1hJywgJzIwMCcsICctbWV0YWxfYmluZGluZycsICctaW1hZScsICc8aW5maWxlLm1hZT4nLCAnLW9tYWUnLCAnPG91dGZpbGUubWFlPic=

> <r_lp_tautomer_probability>
0.999846

> <r_epik_Ionization_Penalty>
2.28753

> <r_epik_Ionization_Penalty_Charging>
2.28753

> <r_epik_Ionization_Penalty_Neutral>
1.09395e-07

> <r_epik_State_Penalty>
2.43729

> <r_epik_Charging_Adjusted_Penalty>
4.72482

> <i_epik_Tot_Q>
1

> <i_epik_Tot_abs_Q>
1

> <r_epik_Metal_State_Penalty>
6.52028

> <b_epik_Metal_Only>
0

> <s_lp_Force_Field>
OPLS_2005

> <r_lp_Energy>
28.0905

> <b_lp_Chiralities_Consistent>
1

> <s_lp_Variant>
AV-unprocessed.smi:992-6

> <Gold.Version>
5.8.1

> <Gold.Id.Protein>
6NUR|6NUR_protein|mol2

> <Gold.PLP.Fitness>
39.1875

> <Gold.PLP.PLP>
-31.2748

> <Gold.PLP.part.hbond>
-2.6050

> <Gold.PLP.part.metal>
0.0000

> <Gold.PLP.part.buried>
-4.2735

> <Gold.PLP.part.nonpolar>
-25.7267

> <Gold.PLP.part.repulsive>
1.6060

> <Gold.PLP.ligand.clash>
0.0000

> <Gold.PLP.ligand.torsion>
0.1653

> <Gold.PLP.Chemscore.Hbond>
2.7175

> <Gold.PLP.Chemscore.CHOScore>
0.0000

> <Gold.PLP.Chemscore.Metal>
0.0000

> <Gold.Chemscore.Hbonds>
donor molecule, donor type, donor heavy atom, donor atom, acceptor molecule, acceptor atom, score
      L1  H     9    24       P1 10186  0.86
      L1  H     9    25       P1  7921  0.88
      L1  H    11    33       P1 10747  0.99

> <Gold.PLP.Chemscore.Internal.Correction>
0.0908

> <Gold.Rescore>
     Score         DG    S(hbond)    S(metal)    S(lipo)     H(rot)  DE(clash)    DE(int)     intcor
     21.24     -21.50       2.67        0.00      82.57       1.00       0.11       0.15       ----

> <Gold.Chemscore.Fitness>
21.2368

> <Gold.Chemscore.DG>
-21.4978

> <Gold.Chemscore.ZeroCoef>
-5.4800

> <Gold.Chemscore.Hbond>
2.6698

> <Gold.Chemscore.Metal>
0.0000

> <Gold.Chemscore.Lipo>
82.5701

> <Gold.Chemscore.Internal_Hbond>
0.0000

> <Gold.Chemscore.DEClash>
0.1088

> <Gold.Chemscore.DEInternal>
0.1523

> <Gold.Chemscore.Rot>
1.0000

> <Gold.Chemscore.Internal.Correction>
   9.000000E+99

> <Gold.Chemscore.Hbonds>
donor molecule, donor type, donor heavy atom, donor atom, acceptor molecule, acceptor atom, score
      L1  H     9    24       P1 10186  0.84
      L1  H     9    25       P1  7921  0.82
      L1  H    11    33       P1 10747  0.89

> <Gold.Chemscore.Hbond.Weighted>
-8.9171

> <Gold.Chemscore.Metal.Weighted>
-0.0000

> <Gold.Chemscore.Lipo.Weighted>
-9.6607

> <Gold.Chemscore.Internal_Hbond.Weighted>
0.0000

> <Gold.Chemscore.DEClash.Weighted>
0.1088

> <Gold.Chemscore.DEInternal.Weighted>
0.1523

> <Gold.Chemscore.Rot.Weighted>
2.5600

> <Gold.Chemscore.Internal.Correction.Weighted>
   9.000000E+99

> <Gold.Protein.RotatedTorsions>
[ 6907 6896 6895 6894 ] final   35.08 input  -60.11 | X-H torsion
[ 7974 7965 7964 7962 ] final  -58.11 input  175.53 | X-H torsion
[ 8008 7997 7996 7995 ] final   84.54 input   59.86 | X-H torsion
[ 10167 10162 10161 10158 ] final  -51.91 input  -65.29 | X-H torsion
[ 10718 10713 10712 10709 ] final -140.94 input   66.30 | X-H torsion
[ 10763 10752 10751 10750 ] final -104.78 input  -60.55 | X-H torsion
[ 11005 11000 10999 10996 ] final   47.90 input  -57.11 | X-H torsion

> <Gold.Protein.ActiveResidues>
 VAL166  LYS551  ARG553  GLY616  TRP617  ASP618  TYR619  PRO620  LYS621  CYS622 
 ASP623  PHE694  ASN695  SER759  ASP760  ASP761  ALA762  ILE779  LEU786  VAL792 
 PHE793  MET794  SER795  GLU796  ALA797  LYS798  CYS799  TRP800  GLU811  SER814 

> <Gold.Protein.RotatedAtoms>
  152.1112  134.9273  160.0566 H   0  0  0  0  0  0  0  0  0  0  0  0  # atno 6907 bound_to 6896
  152.0450  133.3989  159.4361 H   0  0  0  0  0  0  0  0  0  0  0  0  # atno 6908 bound_to 6896
  150.6843  134.3293  159.4863 H   0  0  0  0  0  0  0  0  0  0  0  0  # atno 6909 bound_to 6896
  145.8431  140.8403  143.0024 H   0  0  0  0  0  0  0  0  0  0  0  0  # atno 7974 bound_to 7965
  155.9384  140.3410  155.6307 H   0  0  0  0  0  0  0  0  0  0  0  0  # atno 8008 bound_to 7997
  155.7070  140.0767  157.2405 H   0  0  0  0  0  0  0  0  0  0  0  0  # atno 8009 bound_to 7997
  154.4098  140.1629  156.2242 H   0  0  0  0  0  0  0  0  0  0  0  0  # atno 8010 bound_to 7997
  140.6564  143.2602  151.4572 H   0  0  0  0  0  0  0  0  0  0  0  0  # atno 10167 bound_to 10162
  156.3282  130.7572  151.1684 H   0  0  0  0  0  0  0  0  0  0  0  0  # atno 10718 bound_to 10713
  154.7902  135.4773  154.0035 H   0  0  0  0  0  0  0  0  0  0  0  0  # atno 10763 bound_to 10752
  153.1619  135.6810  153.8737 H   0  0  0  0  0  0  0  0  0  0  0  0  # atno 10764 bound_to 10752
  153.8348  135.3187  155.3399 H   0  0  0  0  0  0  0  0  0  0  0  0  # atno 10765 bound_to 10752
  140.1238  134.4794  155.8576 H   0  0  0  0  0  0  0  0  0  0  0  0  # atno 11005 bound_to 11000
  144.6732  140.0842  143.7468 LP  0  0  0  0  0  0  0  0  0  0  0  0  # atno 17320 bound_to 7965
  145.9442  139.2690  143.1250 LP  0  0  0  0  0  0  0  0  0  0  0  0  # atno 17321 bound_to 7965
  139.5788  144.1757  152.1940 LP  0  0  0  0  0  0  0  0  0  0  0  0  # atno 17342 bound_to 10162
  140.1076  144.5485  150.6946 LP  0  0  0  0  0  0  0  0  0  0  0  0  # atno 17343 bound_to 10162
  157.7425  131.0488  150.5017 LP  0  0  0  0  0  0  0  0  0  0  0  0  # atno 17370 bound_to 10713
  156.5179  130.4155  149.6266 LP  0  0  0  0  0  0  0  0  0  0  0  0  # atno 17371 bound_to 10713
  141.2157  133.6770  156.6940 LP  0  0  0  0  0  0  0  0  0  0  0  0  # atno 17394 bound_to 11000
  140.2930  134.8225  157.4033 LP  0  0  0  0  0  0  0  0  0  0  0  0  # atno 17395 bound_to 11000

$$$$
