AV-unprocessed.smi:127|AV-procd|sdf|1153|dock1
  -GOLD-   2262018293D 1   1.00000     0.00000
 Structure written by MMmdl.
 28 29  0  0  0  0  0  0  0  0  2 V2000
  152.3518  137.7771  154.0208 O   0  0  0  0  0  0  0  0  0  0  0  0
  152.9134  138.6699  154.6923 C   0  0  0  0  0  0  0  0  0  0  0  0
  153.7079  139.5256  154.2455 O   0  5  0  0  0  0  0  0  0  0  0  0
  152.5981  138.7223  156.1903 C   0  0  0  0  0  0  0  0  0  0  0  0
  151.9050  139.9432  156.5770 N   0  0  0  0  0  0  0  0  0  0  0  0
  150.7952  140.3489  155.7926 C   0  0  0  0  0  0  0  0  0  0  0  0
  150.3334  139.6446  154.8929 O   0  0  0  0  0  0  0  0  0  0  0  0
  150.2470  141.6546  156.1430 C   0  0  0  0  0  0  0  0  0  0  0  0
  149.1740  142.1244  155.4837 F   0  0  0  0  0  0  0  0  0  0  0  0
  150.7975  142.4030  157.1224 C   0  0  0  0  0  0  0  0  0  0  0  0
  151.9044  141.9993  157.8491 N   0  0  0  0  0  0  0  0  0  0  0  0
  152.4907  142.8676  158.9402 C   0  0  2  0  0  0  0  0  0  0  0  0
  151.4769  143.0477  160.0757 C   0  0  0  0  0  0  0  0  0  0  0  0
  150.7998  144.3431  159.6846 C   0  0  0  0  0  0  0  0  0  0  0  0
  151.9561  145.1172  159.0620 C   0  0  0  0  0  0  0  0  0  0  0  0
  152.7668  144.1364  158.4190 O   0  0  0  0  0  0  0  0  0  0  0  0
  152.4903  140.7403  157.5915 C   0  0  0  0  0  0  0  0  0  0  0  0
  153.4671  140.3578  158.2404 O   0  0  0  0  0  0  0  0  0  0  0  0
  151.9894  137.8680  156.4908 H   0  0  0  0  0  0  0  0  0  0  0  0
  153.5087  138.6382  156.7856 H   0  0  0  0  0  0  0  0  0  0  0  0
  150.3414  143.3576  157.3382 H   0  0  0  0  0  0  0  0  0  0  0  0
  153.4207  142.3862  159.2464 H   0  0  0  0  0  0  0  0  0  0  0  0
  150.7974  142.1994  160.1678 H   0  0  0  0  0  0  0  0  0  0  0  0
  152.0218  143.1683  161.0128 H   0  0  0  0  0  0  0  0  0  0  0  0
  150.0251  144.1542  158.9405 H   0  0  0  0  0  0  0  0  0  0  0  0
  150.3440  144.8610  160.5288 H   0  0  0  0  0  0  0  0  0  0  0  0
  151.6208  145.8817  158.3609 H   0  0  0  0  0  0  0  0  0  0  0  0
  152.5486  145.6034  159.8381 H   0  0  0  0  0  0  0  0  0  0  0  0
  1  2  2  0  0  0  0
  2  3  1  0  0  0  0
  2  4  1  0  0  0  0
  4  5  1  0  0  0  0
  4 19  1  0  0  0  0
  4 20  1  0  0  0  0
  5 17  1  0  0  0  0
  5  6  1  0  0  0  0
  6  7  2  0  0  0  0
  6  8  1  0  0  0  0
  8  9  1  0  0  0  0
  8 10  2  0  0  0  0
 10 11  1  0  0  0  0
 10 21  1  0  0  0  0
 11 12  1  0  0  0  0
 11 17  1  0  0  0  0
 12 16  1  0  0  0  0
 12 13  1  0  0  0  0
 12 22  1  0  0  0  0
 13 14  1  0  0  0  0
 13 23  1  0  0  0  0
 13 24  1  0  0  0  0
 14 15  1  0  0  0  0
 14 25  1  0  0  0  0
 14 26  1  0  0  0  0
 15 16  1  0  0  0  0
 15 27  1  0  0  0  0
 15 28  1  0  0  0  0
 17 18  2  0  0  0  0
M  CHG  1   3  -1
M  END
> <s_m_source_file>
AV-unprocessed.smi

> <i_m_source_file_index>
127

> <i_lp_mmshare_version>
43012

> <i_f3d_flags>
0

> <s_epik_input>
Tz1DKFtPSF0pW0NIMl1uMWMoPU8pYyhGKVtjSF1uKGMxPU8pW0NAQEhdMltDSDJdW0NIMl1bQ0gyXU8y

> <s_epik_cmdline>
J2VwaWtfcHl0aG9uJywgJy1waCcsICc3LjAnLCAnLXRuJywgJzgnLCAnLW1hJywgJzIwMCcsICctbWV0YWxfYmluZGluZycsICctaW1hZScsICc8aW5maWxlLm1hZT4nLCAnLW9tYWUnLCAnPG91dGZpbGUubWFlPic=

> <r_lp_tautomer_probability>
1

> <r_epik_Ionization_Penalty>
0.00125813

> <r_epik_Ionization_Penalty_Charging>
0.00125813

> <r_epik_Ionization_Penalty_Neutral>
6.20402e-12

> <r_epik_State_Penalty>
0.000832915

> <r_epik_Charging_Adjusted_Penalty>
0.00209104

> <i_epik_Tot_Q>
-1

> <i_epik_Tot_abs_Q>
1

> <r_epik_Metal_State_Penalty>
-0

> <b_epik_Metal_Only>
0

> <s_epik_Chemistry_Notes>
This compound contains an acetal/aminal-like group ( X-CH(R)-Y where X, Y are N, S, or O) that may be acid/base labile, releasing an aldehyde.

> <s_lp_Force_Field>
OPLS_2005

> <r_lp_Energy>
23.3893

> <b_lp_Chiralities_Consistent>
1

> <s_lp_Variant>
AV-unprocessed.smi:127-1

> <Gold.Version>
5.8.1

> <Gold.Id.Protein>
6NUR|6NUR_protein|mol2

> <Gold.PLP.Fitness>
48.7373

> <Gold.PLP.PLP>
-32.5700

> <Gold.PLP.part.hbond>
-3.2365

> <Gold.PLP.part.metal>
0.0000

> <Gold.PLP.part.buried>
0.1236

> <Gold.PLP.part.nonpolar>
-29.6173

> <Gold.PLP.part.repulsive>
0.2305

> <Gold.PLP.ligand.clash>
0.0000

> <Gold.PLP.ligand.torsion>
0.1584

> <Gold.PLP.Chemscore.Hbond>
4.5107

> <Gold.PLP.Chemscore.CHOScore>
0.9686

> <Gold.PLP.Chemscore.Metal>
0.0000

> <Gold.Chemscore.Hbonds>
donor molecule, donor type, donor heavy atom, donor atom, acceptor molecule, acceptor atom, score
      P1  H  7989  7998       L1     7  0.13
      P1  H  7997  8008       L1    18  0.69
      P1  H  7997  8009       L1     3  2.00
      P1  H 10752 10765       L1     1  0.98
      L1  C    10    21       P1  8028  0.77

> <Gold.PLP.Chemscore.Internal.Correction>
0.0461

> <Gold.Rescore>
     Score         DG    S(hbond)    S(metal)    S(lipo)     H(rot)  DE(clash)    DE(int)     intcor
      9.84     -13.55       2.16        0.00      52.67       2.08       0.77       2.94       ----

> <Gold.Chemscore.Fitness>
9.8434

> <Gold.Chemscore.DG>
-13.5523

> <Gold.Chemscore.ZeroCoef>
-5.4800

> <Gold.Chemscore.Hbond>
2.1635

> <Gold.Chemscore.Metal>
0.0000

> <Gold.Chemscore.Lipo>
52.6679

> <Gold.Chemscore.Internal_Hbond>
0.0000

> <Gold.Chemscore.DEClash>
0.7705

> <Gold.Chemscore.DEInternal>
2.9383

> <Gold.Chemscore.Rot>
2.0765

> <Gold.Chemscore.Internal.Correction>
   9.000000E+99

> <Gold.Chemscore.Hbonds>
donor molecule, donor type, donor heavy atom, donor atom, acceptor molecule, acceptor atom, score
      P1  H  7997  8008       L1    18  0.56
      P1  H  7997  8009       L1     3  0.88
      P1  H 10752 10765       L1     1  0.48

> <Gold.Chemscore.Hbond.Weighted>
-7.2260

> <Gold.Chemscore.Metal.Weighted>
-0.0000

> <Gold.Chemscore.Lipo.Weighted>
-6.1621

> <Gold.Chemscore.Internal_Hbond.Weighted>
0.0000

> <Gold.Chemscore.DEClash.Weighted>
0.7705

> <Gold.Chemscore.DEInternal.Weighted>
2.9383

> <Gold.Chemscore.Rot.Weighted>
5.3159

> <Gold.Chemscore.Internal.Correction.Weighted>
   9.000000E+99

> <Gold.Protein.RotatedTorsions>
[ 6907 6896 6895 6894 ] final  -55.09 input  -60.11 | X-H torsion
[ 7974 7965 7964 7962 ] final -161.66 input  175.53 | X-H torsion
[ 8008 7997 7996 7995 ] final -105.92 input   59.86 | X-H torsion
[ 10167 10162 10161 10158 ] final  -33.53 input  -65.29 | X-H torsion
[ 10718 10713 10712 10709 ] final  -18.00 input   66.30 | X-H torsion
[ 10763 10752 10751 10750 ] final  152.07 input  -60.55 | X-H torsion
[ 11005 11000 10999 10996 ] final  -22.39 input  -57.11 | X-H torsion

> <Gold.Protein.ActiveResidues>
 VAL166  LYS551  ARG553  GLY616  TRP617  ASP618  TYR619  PRO620  LYS621  CYS622 
 ASP623  PHE694  ASN695  SER759  ASP760  ASP761  ALA762  ILE779  LEU786  VAL792 
 PHE793  MET794  SER795  GLU796  ALA797  LYS798  CYS799  TRP800  GLU811  SER814 

> <Gold.Protein.RotatedAtoms>
  150.8281  134.7522  159.6830 H   0  0  0  0  0  0  0  0  0  0  0  0  # atno 6907 bound_to 6896
  152.4390  134.5626  159.9908 H   0  0  0  0  0  0  0  0  0  0  0  0  # atno 6908 bound_to 6896
  151.5794  133.3342  159.3041 H   0  0  0  0  0  0  0  0  0  0  0  0  # atno 6909 bound_to 6896
  144.7383  140.3365  143.6143 H   0  0  0  0  0  0  0  0  0  0  0  0  # atno 7974 bound_to 7965
  154.9069  140.0411  157.1924 H   0  0  0  0  0  0  0  0  0  0  0  0  # atno 8008 bound_to 7997
  154.8387  140.2911  155.5652 H   0  0  0  0  0  0  0  0  0  0  0  0  # atno 8009 bound_to 7997
  156.2991  140.2487  156.3326 H   0  0  0  0  0  0  0  0  0  0  0  0  # atno 8010 bound_to 7997
  140.7203  143.3614  151.1956 H   0  0  0  0  0  0  0  0  0  0  0  0  # atno 10167 bound_to 10162
  156.5657  130.4736  149.6386 H   0  0  0  0  0  0  0  0  0  0  0  0  # atno 10718 bound_to 10713
  154.1141  135.2837  155.3224 H   0  0  0  0  0  0  0  0  0  0  0  0  # atno 10763 bound_to 10752
  154.6469  135.5382  153.7859 H   0  0  0  0  0  0  0  0  0  0  0  0  # atno 10764 bound_to 10752
  153.0335  135.6500  154.1298 H   0  0  0  0  0  0  0  0  0  0  0  0  # atno 10765 bound_to 10752
  140.8652  133.7759  156.0121 H   0  0  0  0  0  0  0  0  0  0  0  0  # atno 11005 bound_to 11000
  145.7419  139.1767  143.2371 LP  0  0  0  0  0  0  0  0  0  0  0  0  # atno 17320 bound_to 7965
  146.1128  140.7407  142.9495 LP  0  0  0  0  0  0  0  0  0  0  0  0  # atno 17321 bound_to 7965
  139.7167  143.9290  152.2969 LP  0  0  0  0  0  0  0  0  0  0  0  0  # atno 17342 bound_to 10162
  139.9033  144.6899  150.8642 LP  0  0  0  0  0  0  0  0  0  0  0  0  # atno 17343 bound_to 10162
  156.2759  130.7043  151.1854 LP  0  0  0  0  0  0  0  0  0  0  0  0  # atno 17370 bound_to 10713
  157.7359  131.0567  150.5443 LP  0  0  0  0  0  0  0  0  0  0  0  0  # atno 17371 bound_to 10713
  140.8637  134.2810  157.5223 LP  0  0  0  0  0  0  0  0  0  0  0  0  # atno 17394 bound_to 11000
  139.8709  134.9531  156.4136 LP  0  0  0  0  0  0  0  0  0  0  0  0  # atno 17395 bound_to 11000

$$$$
