AV-unprocessed.smi:3030|AV-procd|sdf|11535|dock9
  -GOLD-   2272016483D 1   1.00000     0.00000
 Structure written by MMmdl.
 52 53  0  0  0  0  0  0  0  0  1 V2000
  149.0119  131.5552  159.5188 C   0  0  0  0  0  0  0  0  0  0  0  0
  147.6685  131.9642  160.1331 C   0  0  0  0  0  0  0  0  0  0  0  0
  147.6626  133.3638  160.5326 N   0  0  0  0  0  0  0  0  0  0  0  0
  147.4292  133.7382  161.8520 C   0  0  0  0  0  0  0  0  0  0  0  0
  147.4452  135.0123  162.2894 C   0  0  0  0  0  0  0  0  0  0  0  0
  147.7299  136.1019  161.3336 C   0  0  0  0  0  0  0  0  0  0  0  0
  147.7396  137.2785  161.6953 O   0  0  0  0  0  0  0  0  0  0  0  0
  148.0005  135.6995  159.9284 C   0  0  0  0  0  0  0  0  0  0  0  0
  148.2622  136.7362  159.0191 N   0  0  0  0  0  0  0  0  0  0  0  0
  149.3803  137.4699  158.8748 C   0  0  0  0  0  0  0  0  0  0  0  0
  150.3843  137.3955  159.5828 O   0  0  0  0  0  0  0  0  0  0  0  0
  149.2597  138.3206  157.8450 N   0  0  0  0  0  0  0  0  0  0  0  0
  150.2602  139.2924  157.4032 C   0  0  2  0  0  0  0  0  0  0  0  0
  150.7866  140.0309  158.6506 C   0  0  0  0  0  0  0  0  0  0  0  0
  151.8024  141.1304  158.2969 C   0  0  2  0  0  0  0  0  0  0  0  0
  152.3117  141.8515  159.5530 C   0  0  0  0  0  0  0  0  0  0  0  0
  151.1801  142.1175  157.2969 C   0  0  0  0  0  0  0  0  0  0  0  0
  150.6881  141.3945  156.0353 C   0  0  0  0  0  0  0  0  0  0  0  0
  149.6617  140.2837  156.3641 C   0  0  1  0  0  0  0  0  0  0  0  0
  149.0790  139.5978  155.0915 C   0  0  0  0  0  0  0  0  0  0  0  0
  150.0925  138.7257  154.3271 C   0  0  0  0  0  0  0  0  0  0  0  0
  148.4034  140.6016  154.1416 C   0  0  0  0  0  0  0  0  0  0  0  0
  147.9459  134.3788  159.6209 C   0  0  0  0  0  0  0  0  0  0  0  0
  149.0008  130.5048  159.2275 H   0  0  0  0  0  0  0  0  0  0  0  0
  149.8284  131.6962  160.2277 H   0  0  0  0  0  0  0  0  0  0  0  0
  149.2341  132.1450  158.6290 H   0  0  0  0  0  0  0  0  0  0  0  0
  146.8652  131.7865  159.4173 H   0  0  0  0  0  0  0  0  0  0  0  0
  147.4505  131.3376  160.9988 H   0  0  0  0  0  0  0  0  0  0  0  0
  147.2221  132.9137  162.5188 H   0  0  0  0  0  0  0  0  0  0  0  0
  147.2545  135.2559  163.3242 H   0  0  0  0  0  0  0  0  0  0  0  0
  147.4897  136.9663  158.4110 H   0  0  0  0  0  0  0  0  0  0  0  0
  148.3951  138.3027  157.3241 H   0  0  0  0  0  0  0  0  0  0  0  0
  151.1097  138.7790  156.9507 H   0  0  0  0  0  0  0  0  0  0  0  0
  149.9502  140.4739  159.1939 H   0  0  0  0  0  0  0  0  0  0  0  0
  151.2478  139.3138  159.3313 H   0  0  0  0  0  0  0  0  0  0  0  0
  152.6608  140.6576  157.8174 H   0  0  0  0  0  0  0  0  0  0  0  0
  151.4968  142.3417  160.0867 H   0  0  0  0  0  0  0  0  0  0  0  0
  153.0482  142.6139  159.2972 H   0  0  0  0  0  0  0  0  0  0  0  0
  152.7878  141.1529  160.2413 H   0  0  0  0  0  0  0  0  0  0  0  0
  150.3484  142.6465  157.7642 H   0  0  0  0  0  0  0  0  0  0  0  0
  151.9115  142.8771  157.0192 H   0  0  0  0  0  0  0  0  0  0  0  0
  150.2539  142.1312  155.3604 H   0  0  0  0  0  0  0  0  0  0  0  0
  151.5485  140.9707  155.5171 H   0  0  0  0  0  0  0  0  0  0  0  0
  148.8215  140.7739  156.8594 H   0  0  0  0  0  0  0  0  0  0  0  0
  148.2775  138.9332  155.4127 H   0  0  0  0  0  0  0  0  0  0  0  0
  150.9018  139.3202  153.9039 H   0  0  0  0  0  0  0  0  0  0  0  0
  149.6080  138.2057  153.5003 H   0  0  0  0  0  0  0  0  0  0  0  0
  150.5360  137.9634  154.9661 H   0  0  0  0  0  0  0  0  0  0  0  0
  149.1250  141.2737  153.6777 H   0  0  0  0  0  0  0  0  0  0  0  0
  147.6667  141.2094  154.6675 H   0  0  0  0  0  0  0  0  0  0  0  0
  147.8813  140.0827  153.3371 H   0  0  0  0  0  0  0  0  0  0  0  0
  148.0966  134.0055  158.6200 H   0  0  0  0  0  0  0  0  0  0  0  0
  1  2  1  0  0  0  0
  1 24  1  0  0  0  0
  1 25  1  0  0  0  0
  1 26  1  0  0  0  0
  2  3  1  0  0  0  0
  2 27  1  0  0  0  0
  2 28  1  0  0  0  0
  3 23  1  0  0  0  0
  3  4  1  0  0  0  0
  4  5  2  0  0  0  0
  4 29  1  0  0  0  0
  5  6  1  0  0  0  0
  5 30  1  0  0  0  0
  6  7  2  0  0  0  0
  6  8  1  0  0  0  0
  8  9  1  0  0  0  0
  8 23  2  0  0  0  0
  9 10  1  0  0  0  0
  9 31  1  0  0  0  0
 10 11  2  0  0  0  0
 10 12  1  0  0  0  0
 12 13  1  0  0  0  0
 12 32  1  0  0  0  0
 13 19  1  0  0  0  0
 13 14  1  0  0  0  0
 13 33  1  0  0  0  0
 14 15  1  0  0  0  0
 14 34  1  0  0  0  0
 14 35  1  0  0  0  0
 15 16  1  0  0  0  0
 15 17  1  0  0  0  0
 15 36  1  0  0  0  0
 16 37  1  0  0  0  0
 16 38  1  0  0  0  0
 16 39  1  0  0  0  0
 17 18  1  0  0  0  0
 17 40  1  0  0  0  0
 17 41  1  0  0  0  0
 18 19  1  0  0  0  0
 18 42  1  0  0  0  0
 18 43  1  0  0  0  0
 19 20  1  0  0  0  0
 19 44  1  0  0  0  0
 20 21  1  0  0  0  0
 20 22  1  0  0  0  0
 20 45  1  0  0  0  0
 21 46  1  0  0  0  0
 21 47  1  0  0  0  0
 21 48  1  0  0  0  0
 22 49  1  0  0  0  0
 22 50  1  0  0  0  0
 22 51  1  0  0  0  0
 23 52  1  0  0  0  0
M  END
> <s_m_source_file>
AV-unprocessed.smi

> <i_m_source_file_index>
3030

> <i_lp_mmshare_version>
43012

> <i_f3d_flags>
0

> <s_epik_input>
W0NIM11bQ0gyXW4xW2NIXVtjSF1jKD1PKWMoW2NIXTEpW05IXUMoPU8pW05IXVtDQEBIXTJbQ0gyXVtDQEBIXShbQ0gzXSlbQ0gyXVtDSDJdW0NASF0yW0NIXShbQ0gzXSlbQ0gzXQ==

> <s_epik_cmdline>
J2VwaWtfcHl0aG9uJywgJy1waCcsICc3LjAnLCAnLXRuJywgJzgnLCAnLW1hJywgJzIwMCcsICctbWV0YWxfYmluZGluZycsICctaW1hZScsICc8aW5maWxlLm1hZT4nLCAnLW9tYWUnLCAnPG91dGZpbGUubWFlPic=

> <r_lp_tautomer_probability>
1

> <r_epik_Ionization_Penalty>
0.00147933

> <r_epik_Ionization_Penalty_Charging>
0.00145753

> <r_epik_Ionization_Penalty_Neutral>
2.17987e-05

> <r_epik_State_Penalty>
0.00097457

> <r_epik_Charging_Adjusted_Penalty>
0.0024321

> <i_epik_Tot_Q>
0

> <i_epik_Tot_abs_Q>
0

> <r_epik_Metal_State_Penalty>
-0

> <b_epik_Metal_Only>
0

> <s_lp_Force_Field>
OPLS_2005

> <r_lp_Energy>
10.2365

> <b_lp_Chiralities_Consistent>
1

> <s_lp_Variant>
AV-unprocessed.smi:3030-3

> <Gold.Version>
5.8.1

> <Gold.Id.Protein>
6NUR|6NUR_protein|mol2

> <Gold.PLP.Fitness>
43.3188

> <Gold.PLP.PLP>
-39.9497

> <Gold.PLP.part.hbond>
-2.6981

> <Gold.PLP.part.metal>
0.0000

> <Gold.PLP.part.buried>
-5.0365

> <Gold.PLP.part.nonpolar>
-32.6072

> <Gold.PLP.part.repulsive>
0.2387

> <Gold.PLP.ligand.clash>
0.0000

> <Gold.PLP.ligand.torsion>
0.8735

> <Gold.PLP.Chemscore.Hbond>
1.6800

> <Gold.PLP.Chemscore.CHOScore>
0.0000

> <Gold.PLP.Chemscore.Metal>
0.0000

> <Gold.Chemscore.Hbonds>
donor molecule, donor type, donor heavy atom, donor atom, acceptor molecule, acceptor atom, score
      P1  H  6931  6943       L1     7  0.99
      P1  H  6934  6947       L1     7  0.67

> <Gold.PLP.Chemscore.Internal.Correction>
0.0761

> <Gold.Rescore>
     Score         DG    S(hbond)    S(metal)    S(lipo)     H(rot)  DE(clash)    DE(int)     intcor
     17.14     -19.42       1.77        0.00      96.36       1.27       0.01       2.26       ----

> <Gold.Chemscore.Fitness>
17.1421

> <Gold.Chemscore.DG>
-19.4158

> <Gold.Chemscore.ZeroCoef>
-5.4800

> <Gold.Chemscore.Hbond>
1.7694

> <Gold.Chemscore.Metal>
0.0000

> <Gold.Chemscore.Lipo>
96.3557

> <Gold.Chemscore.Internal_Hbond>
0.0000

> <Gold.Chemscore.DEClash>
0.0134

> <Gold.Chemscore.DEInternal>
2.2603

> <Gold.Chemscore.Rot>
1.2685

> <Gold.Chemscore.Internal.Correction>
   9.000000E+99

> <Gold.Chemscore.Hbonds>
donor molecule, donor type, donor heavy atom, donor atom, acceptor molecule, acceptor atom, score
      P1  H  6931  6943       L1     7  0.94
      P1  H  6934  6947       L1     7  0.67

> <Gold.Chemscore.Hbond.Weighted>
-5.9096

> <Gold.Chemscore.Metal.Weighted>
-0.0000

> <Gold.Chemscore.Lipo.Weighted>
-11.2736

> <Gold.Chemscore.Internal_Hbond.Weighted>
0.0000

> <Gold.Chemscore.DEClash.Weighted>
0.0134

> <Gold.Chemscore.DEInternal.Weighted>
2.2603

> <Gold.Chemscore.Rot.Weighted>
3.2474

> <Gold.Chemscore.Internal.Correction.Weighted>
   9.000000E+99

> <Gold.Protein.RotatedTorsions>
[ 6907 6896 6895 6894 ] final   14.49 input  -60.11 | X-H torsion
[ 7974 7965 7964 7962 ] final  -51.63 input  175.53 | X-H torsion
[ 8008 7997 7996 7995 ] final  177.95 input   59.86 | X-H torsion
[ 10167 10162 10161 10158 ] final -141.62 input  -65.29 | X-H torsion
[ 10718 10713 10712 10709 ] final   64.03 input   66.30 | X-H torsion
[ 10763 10752 10751 10750 ] final   80.97 input  -60.55 | X-H torsion
[ 11005 11000 10999 10996 ] final -134.70 input  -57.11 | X-H torsion

> <Gold.Protein.ActiveResidues>
 VAL166  LYS551  ARG553  GLY616  TRP617  ASP618  TYR619  PRO620  LYS621  CYS622 
 ASP623  PHE694  ASN695  SER759  ASP760  ASP761  ALA762  ILE779  LEU786  VAL792 
 PHE793  MET794  SER795  GLU796  ALA797  LYS798  CYS799  TRP800  GLU811  SER814 

> <Gold.Protein.RotatedAtoms>
  151.8031  135.0703  160.0402 H   0  0  0  0  0  0  0  0  0  0  0  0  # atno 6907 bound_to 6896
  152.3075  133.5713  159.5667 H   0  0  0  0  0  0  0  0  0  0  0  0  # atno 6908 bound_to 6896
  150.7303  134.0118  159.3714 H   0  0  0  0  0  0  0  0  0  0  0  0  # atno 6909 bound_to 6896
  145.9169  140.7867  142.9667 H   0  0  0  0  0  0  0  0  0  0  0  0  # atno 7974 bound_to 7965
  156.0600  140.1345  156.9952 H   0  0  0  0  0  0  0  0  0  0  0  0  # atno 8008 bound_to 7997
  154.4477  140.0993  156.6573 H   0  0  0  0  0  0  0  0  0  0  0  0  # atno 8009 bound_to 7997
  155.5392  140.3460  155.4445 H   0  0  0  0  0  0  0  0  0  0  0  0  # atno 8010 bound_to 7997
  139.8167  143.7629  152.2665 H   0  0  0  0  0  0  0  0  0  0  0  0  # atno 10167 bound_to 10162
  157.6012  130.9137  149.9792 H   0  0  0  0  0  0  0  0  0  0  0  0  # atno 10718 bound_to 10713
  153.1078  135.4782  154.8982 H   0  0  0  0  0  0  0  0  0  0  0  0  # atno 10763 bound_to 10752
  154.7448  135.3091  154.8666 H   0  0  0  0  0  0  0  0  0  0  0  0  # atno 10764 bound_to 10752
  153.9263  135.6849  153.4800 H   0  0  0  0  0  0  0  0  0  0  0  0  # atno 10765 bound_to 10752
  140.8966  134.1744  157.4490 H   0  0  0  0  0  0  0  0  0  0  0  0  # atno 11005 bound_to 11000
  144.6749  140.1914  143.7396 LP  0  0  0  0  0  0  0  0  0  0  0  0  # atno 17320 bound_to 7965
  145.8600  139.2218  143.1722 LP  0  0  0  0  0  0  0  0  0  0  0  0  # atno 17321 bound_to 7965
  139.7794  144.7449  151.0109 LP  0  0  0  0  0  0  0  0  0  0  0  0  # atno 17342 bound_to 10162
  140.7815  143.4558  151.0348 LP  0  0  0  0  0  0  0  0  0  0  0  0  # atno 17343 bound_to 10162
  156.1085  130.3651  150.0090 LP  0  0  0  0  0  0  0  0  0  0  0  0  # atno 17370 bound_to 10713
  156.8193  130.9353  151.3642 LP  0  0  0  0  0  0  0  0  0  0  0  0  # atno 17371 bound_to 10713
  139.8736  134.9881  156.5396 LP  0  0  0  0  0  0  0  0  0  0  0  0  # atno 17394 bound_to 11000
  140.8281  133.8300  155.8958 LP  0  0  0  0  0  0  0  0  0  0  0  0  # atno 17395 bound_to 11000

$$$$
