AV-unprocessed.smi:1830|AV-procd|sdf|7444|dock5
  -GOLD-   22720 9133D 1   1.00000     0.00000
 Structure written by MMmdl.
 54 57  0  0  0  0  0  0  0  0  3 V2000
  149.6422  134.7927  157.6872 O   0  0  0  0  0  0  0  0  0  0  0  0
  148.9283  133.7919  157.6297 C   0  0  0  0  0  0  0  0  0  0  0  0
  148.8900  132.9707  156.5723 N   0  0  0  0  0  0  0  0  0  0  0  0
  149.6689  133.1584  155.3541 C   0  0  0  0  0  0  0  0  0  0  0  0
  149.2452  132.1556  154.2713 C   0  0  2  0  0  0  0  0  0  0  0  0
  147.8217  132.4513  153.7414 C   0  0  0  0  0  0  0  0  0  0  0  0
  147.4500  131.3852  152.7939 N   0  3  2  0  0  0  0  0  0  0  0  0
  146.1341  131.4594  152.1365 C   0  0  0  0  0  0  0  0  0  0  0  0
  145.8141  130.0057  151.7338 C   0  0  0  0  0  0  0  0  0  0  0  0
  146.9221  129.1426  152.3654 C   0  0  0  0  0  0  0  0  0  0  0  0
  147.5160  130.0654  153.4251 C   0  0  1  0  0  0  0  0  0  0  0  0
  148.9537  129.8057  153.8928 C   0  0  0  0  0  0  0  0  0  0  0  0
  149.2975  130.8343  154.8236 O   0  0  0  0  0  0  0  0  0  0  0  0
  148.1094  133.3701  158.6077 N   0  0  0  0  0  0  0  0  0  0  0  0
  147.9297  133.9393  159.9006 C   0  0  0  0  0  0  0  0  0  0  0  0
  147.9055  135.3461  160.0836 C   0  0  0  0  0  0  0  0  0  0  0  0
  147.6576  135.8857  161.3596 C   0  0  0  0  0  0  0  0  0  0  0  0
  147.4203  135.0109  162.4330 C   0  0  0  0  0  0  0  0  0  0  0  0
  147.4359  133.6782  162.2250 N   0  3  0  0  0  0  0  0  0  0  0  0
  147.6832  133.0971  161.0242 C   0  0  0  0  0  0  0  0  0  0  0  0
  147.6756  131.6845  160.9628 N   0  0  0  0  0  0  0  0  0  0  0  0
  146.4519  130.9396  161.2357 C   0  0  0  0  0  0  0  0  0  0  0  0
  146.9019  129.4930  161.4184 C   0  0  0  0  0  0  0  0  0  0  0  0
  148.2599  129.6552  162.0946 C   0  0  0  0  0  0  0  0  0  0  0  0
  148.8210  130.9415  161.4792 C   0  0  0  0  0  0  0  0  0  0  0  0
  148.2735  132.1719  156.6029 H   0  0  0  0  0  0  0  0  0  0  0  0
  149.5382  134.1814  154.9988 H   0  0  0  0  0  0  0  0  0  0  0  0
  150.7306  133.0283  155.5714 H   0  0  0  0  0  0  0  0  0  0  0  0
  149.9523  132.2142  153.4415 H   0  0  0  0  0  0  0  0  0  0  0  0
  147.1028  132.4876  154.5617 H   0  0  0  0  0  0  0  0  0  0  0  0
  147.7916  133.4177  153.2368 H   0  0  0  0  0  0  0  0  0  0  0  0
  145.3851  131.8274  152.8398 H   0  0  0  0  0  0  0  0  0  0  0  0
  146.1606  132.1359  151.2820 H   0  0  0  0  0  0  0  0  0  0  0  0
  144.8330  129.7182  152.1135 H   0  0  0  0  0  0  0  0  0  0  0  0
  145.7953  129.8827  150.6504 H   0  0  0  0  0  0  0  0  0  0  0  0
  146.5451  128.2083  152.7828 H   0  0  0  0  0  0  0  0  0  0  0  0
  147.6743  128.8971  151.6143 H   0  0  0  0  0  0  0  0  0  0  0  0
  146.8536  130.0602  154.2941 H   0  0  0  0  0  0  0  0  0  0  0  0
  149.0272  128.8360  154.3853 H   0  0  0  0  0  0  0  0  0  0  0  0
  149.6534  129.8014  153.0553 H   0  0  0  0  0  0  0  0  0  0  0  0
  147.6506  132.4842  158.4542 H   0  0  0  0  0  0  0  0  0  0  0  0
  148.0509  136.0246  159.2566 H   0  0  0  0  0  0  0  0  0  0  0  0
  147.6371  136.9555  161.5087 H   0  0  0  0  0  0  0  0  0  0  0  0
  147.2143  135.3328  163.4436 H   0  0  0  0  0  0  0  0  0  0  0  0
  145.9850  131.2965  162.1549 H   0  0  0  0  0  0  0  0  0  0  0  0
  145.7331  131.0402  160.4221 H   0  0  0  0  0  0  0  0  0  0  0  0
  146.1996  128.8992  162.0044 H   0  0  0  0  0  0  0  0  0  0  0  0
  147.0248  129.0134  160.4461 H   0  0  0  0  0  0  0  0  0  0  0  0
  148.1196  129.7923  163.1676 H   0  0  0  0  0  0  0  0  0  0  0  0
  148.9141  128.7952  161.9488 H   0  0  0  0  0  0  0  0  0  0  0  0
  149.4830  130.6970  160.6482 H   0  0  0  0  0  0  0  0  0  0  0  0
  149.3905  131.5160  162.2108 H   0  0  0  0  0  0  0  0  0  0  0  0
  148.1387  131.3843  152.0550 H   0  0  0  0  0  0  0  0  0  0  0  0
  147.2574  133.0697  163.0240 H   0  0  0  0  0  0  0  0  0  0  0  0
  1  2  2  0  0  0  0
  2  3  1  0  0  0  0
  2 14  1  0  0  0  0
  3  4  1  0  0  0  0
  3 26  1  0  0  0  0
  4  5  1  0  0  0  0
  4 27  1  0  0  0  0
  4 28  1  0  0  0  0
  5 13  1  0  0  0  0
  5  6  1  0  0  0  0
  5 29  1  0  0  0  0
  6  7  1  0  0  0  0
  6 30  1  0  0  0  0
  6 31  1  0  0  0  0
  7 11  1  0  0  0  0
  7  8  1  0  0  0  0
  7 53  1  0  0  0  0
  8  9  1  0  0  0  0
  8 32  1  0  0  0  0
  8 33  1  0  0  0  0
  9 10  1  0  0  0  0
  9 34  1  0  0  0  0
  9 35  1  0  0  0  0
 10 11  1  0  0  0  0
 10 36  1  0  0  0  0
 10 37  1  0  0  0  0
 11 12  1  0  0  0  0
 11 38  1  0  0  0  0
 12 13  1  0  0  0  0
 12 39  1  0  0  0  0
 12 40  1  0  0  0  0
 14 15  1  0  0  0  0
 14 41  1  0  0  0  0
 15 20  1  0  0  0  0
 15 16  2  0  0  0  0
 16 17  1  0  0  0  0
 16 42  1  0  0  0  0
 17 18  2  0  0  0  0
 17 43  1  0  0  0  0
 18 19  1  0  0  0  0
 18 44  1  0  0  0  0
 19 20  2  0  0  0  0
 19 54  1  0  0  0  0
 20 21  1  0  0  0  0
 21 25  1  0  0  0  0
 21 22  1  0  0  0  0
 22 23  1  0  0  0  0
 22 45  1  0  0  0  0
 22 46  1  0  0  0  0
 23 24  1  0  0  0  0
 23 47  1  0  0  0  0
 23 48  1  0  0  0  0
 24 25  1  0  0  0  0
 24 49  1  0  0  0  0
 24 50  1  0  0  0  0
 25 51  1  0  0  0  0
 25 52  1  0  0  0  0
M  CHG  1   7   1
M  CHG  1  19   1
M  END
> <s_m_source_file>
AV-unprocessed.smi

> <i_m_source_file_index>
1830

> <i_lp_mmshare_version>
43012

> <i_f3d_flags>
0

> <s_epik_input>
W0NIMl0xW0NIMl1bQ0gyXVtDQEhdKE4xMilbQ0gyXU9bQ0BASF0oW0NIMl0yKVtDSDJdW05IXUMoPU8pW05IXWMzW2NIXVtjSF1bY0hdbmMzTjRbQ0gyXVtDSDJdW0NIMl1bQ0gyXTQ=

> <s_epik_cmdline>
J2VwaWtfcHl0aG9uJywgJy1waCcsICc3LjAnLCAnLXRuJywgJzgnLCAnLW1hJywgJzIwMCcsICctbWV0YWxfYmluZGluZycsICctaW1hZScsICc8aW5maWxlLm1hZT4nLCAnLW9tYWUnLCAnPG91dGZpbGUubWFlPic=

> <r_lp_tautomer_probability>
0.999994

> <r_epik_Ionization_Penalty>
1.29113

> <r_epik_Ionization_Penalty_Charging>
1.29111

> <r_epik_Ionization_Penalty_Neutral>
1.88144e-05

> <r_epik_State_Penalty>
1.32676

> <r_epik_Charging_Adjusted_Penalty>
2.61787

> <i_epik_Tot_Q>
2

> <i_epik_Tot_abs_Q>
2

> <r_epik_Metal_State_Penalty>
1.40425

> <b_epik_Metal_Only>
0

> <s_lp_Force_Field>
OPLS_2005

> <r_lp_Energy>
74.3766

> <b_lp_Chiralities_Consistent>
1

> <s_lp_Variant>
AV-unprocessed.smi:1830-13

> <Gold.Version>
5.8.1

> <Gold.Id.Protein>
6NUR|6NUR_protein|mol2

> <Gold.PLP.Fitness>
43.2836

> <Gold.PLP.PLP>
-38.0197

> <Gold.PLP.part.hbond>
-2.0000

> <Gold.PLP.part.metal>
0.0000

> <Gold.PLP.part.buried>
-6.1821

> <Gold.PLP.part.nonpolar>
-31.2666

> <Gold.PLP.part.repulsive>
0.2350

> <Gold.PLP.ligand.clash>
0.0000

> <Gold.PLP.ligand.torsion>
0.5724

> <Gold.PLP.Chemscore.Hbond>
2.0000

> <Gold.PLP.Chemscore.CHOScore>
0.0000

> <Gold.PLP.Chemscore.Metal>
0.0000

> <Gold.Chemscore.Hbonds>
donor molecule, donor type, donor heavy atom, donor atom, acceptor molecule, acceptor atom, score
      L1  H     7    53       P1 10747  1.00
      P1  H  6896  6907       L1     1  0.85

> <Gold.PLP.Chemscore.Internal.Correction>
0.4086

> <Gold.Rescore>
     Score         DG    S(hbond)    S(metal)    S(lipo)     H(rot)  DE(clash)    DE(int)     intcor
     17.37     -18.95       1.81        0.00      94.83       1.43       0.01       1.57       ----

> <Gold.Chemscore.Fitness>
17.3742

> <Gold.Chemscore.DG>
-18.9550

> <Gold.Chemscore.ZeroCoef>
-5.4800

> <Gold.Chemscore.Hbond>
1.8068

> <Gold.Chemscore.Metal>
0.0000

> <Gold.Chemscore.Lipo>
94.8330

> <Gold.Chemscore.Internal_Hbond>
0.0000

> <Gold.Chemscore.DEClash>
0.0089

> <Gold.Chemscore.DEInternal>
1.5719

> <Gold.Chemscore.Rot>
1.4278

> <Gold.Chemscore.Internal.Correction>
   9.000000E+99

> <Gold.Chemscore.Hbonds>
donor molecule, donor type, donor heavy atom, donor atom, acceptor molecule, acceptor atom, score
      L1  H     7    53       P1 10747  0.92
      P1  H  6896  6907       L1     1  0.15

> <Gold.Chemscore.Hbond.Weighted>
-6.0346

> <Gold.Chemscore.Metal.Weighted>
-0.0000

> <Gold.Chemscore.Lipo.Weighted>
-11.0955

> <Gold.Chemscore.Internal_Hbond.Weighted>
0.0000

> <Gold.Chemscore.DEClash.Weighted>
0.0089

> <Gold.Chemscore.DEInternal.Weighted>
1.5719

> <Gold.Chemscore.Rot.Weighted>
3.6551

> <Gold.Chemscore.Internal.Correction.Weighted>
   9.000000E+99

> <Gold.Protein.RotatedTorsions>
[ 6907 6896 6895 6894 ] final  -87.45 input  -60.11 | X-H torsion
[ 7974 7965 7964 7962 ] final  -49.18 input  175.53 | X-H torsion
[ 8008 7997 7996 7995 ] final  -43.43 input   59.86 | X-H torsion
[ 10167 10162 10161 10158 ] final   61.36 input  -65.29 | X-H torsion
[ 10718 10713 10712 10709 ] final  140.82 input   66.30 | X-H torsion
[ 10763 10752 10751 10750 ] final   94.88 input  -60.55 | X-H torsion
[ 11005 11000 10999 10996 ] final  -89.95 input  -57.11 | X-H torsion

> <Gold.Protein.ActiveResidues>
 VAL166  LYS551  ARG553  GLY616  TRP617  ASP618  TYR619  PRO620  LYS621  CYS622 
 ASP623  PHE694  ASN695  SER759  ASP760  ASP761  ALA762  ILE779  LEU786  VAL792 
 PHE793  MET794  SER795  GLU796  ALA797  LYS798  CYS799  TRP800  GLU811  SER814 

> <Gold.Protein.RotatedAtoms>
  150.6866  134.2894  159.4660 H   0  0  0  0  0  0  0  0  0  0  0  0  # atno 6907 bound_to 6896
  152.0801  134.9474  160.0583 H   0  0  0  0  0  0  0  0  0  0  0  0  # atno 6908 bound_to 6896
  152.0830  133.4127  159.4547 H   0  0  0  0  0  0  0  0  0  0  0  0  # atno 6909 bound_to 6896
  145.9433  140.7642  142.9541 H   0  0  0  0  0  0  0  0  0  0  0  0  # atno 7974 bound_to 7965
  154.3997  140.1448  156.3518 H   0  0  0  0  0  0  0  0  0  0  0  0  # atno 8008 bound_to 7997
  155.8262  140.3467  155.5523 H   0  0  0  0  0  0  0  0  0  0  0  0  # atno 8009 bound_to 7997
  155.8236  140.0901  157.1825 H   0  0  0  0  0  0  0  0  0  0  0  0  # atno 8010 bound_to 7997
  140.1556  144.4420  150.6736 H   0  0  0  0  0  0  0  0  0  0  0  0  # atno 10167 bound_to 10162
  157.3990  131.1014  151.0571 H   0  0  0  0  0  0  0  0  0  0  0  0  # atno 10718 bound_to 10713
  153.2467  135.4274  155.0755 H   0  0  0  0  0  0  0  0  0  0  0  0  # atno 10763 bound_to 10752
  154.8364  135.3416  154.6571 H   0  0  0  0  0  0  0  0  0  0  0  0  # atno 10764 bound_to 10752
  153.6993  135.7029  153.5124 H   0  0  0  0  0  0  0  0  0  0  0  0  # atno 10765 bound_to 10752
  141.1575  133.7662  156.9669 H   0  0  0  0  0  0  0  0  0  0  0  0  # atno 11005 bound_to 11000
  144.6783  140.2315  143.7355 LP  0  0  0  0  0  0  0  0  0  0  0  0  # atno 17320 bound_to 7965
  145.8271  139.2069  143.1904 LP  0  0  0  0  0  0  0  0  0  0  0  0  # atno 17321 bound_to 7965
  140.6675  143.2273  151.5707 LP  0  0  0  0  0  0  0  0  0  0  0  0  # atno 17342 bound_to 10162
  139.5405  144.2661  152.1340 LP  0  0  0  0  0  0  0  0  0  0  0  0  # atno 17343 bound_to 10162
  157.1577  130.6212  149.5601 LP  0  0  0  0  0  0  0  0  0  0  0  0  # atno 17370 bound_to 10713
  155.9818  130.4827  150.6847 LP  0  0  0  0  0  0  0  0  0  0  0  0  # atno 17371 bound_to 10713
  140.1156  134.9450  157.2129 LP  0  0  0  0  0  0  0  0  0  0  0  0  # atno 17394 bound_to 11000
  140.3138  134.2994  155.7261 LP  0  0  0  0  0  0  0  0  0  0  0  0  # atno 17395 bound_to 11000

$$$$
