AV-unprocessed.smi:38|AV-procd|sdf|342|dock7
  -GOLD-   2262016183D 1   1.00000     0.00000
 Structure written by MMmdl.
 28 29  0  0  0  0  0  0  0  0  1 V2000
  153.1591  138.9959  156.2257 O   0  0  0  0  0  0  0  0  0  0  0  0
  152.0789  139.4273  155.8273 C   0  0  0  0  0  0  0  0  0  0  0  0
  151.4704  140.5060  156.4760 N   0  0  0  0  0  0  0  0  0  0  0  0
  150.2488  141.0829  156.1226 C   0  0  0  0  0  0  0  0  0  0  0  0
  149.8057  142.0243  156.7787 O   0  0  0  0  0  0  0  0  0  0  0  0
  149.5740  140.5301  155.0105 N   0  0  0  0  0  0  0  0  0  0  0  0
  148.2518  141.1090  154.5614 C   0  0  2  0  0  0  0  0  0  0  0  0
  147.0841  140.4521  155.3048 C   0  0  0  0  0  0  0  0  0  0  0  0
  146.4687  139.5700  154.2342 C   0  0  1  0  0  0  0  0  0  0  0  0
  145.0778  139.4282  154.4390 O   0  0  0  0  0  0  0  0  0  0  0  0
  146.7953  140.3337  152.9478 C   0  0  2  0  0  0  0  0  0  0  0  0
  146.8214  139.4444  151.6954 C   0  0  0  0  0  0  0  0  0  0  0  0
  147.7529  138.3976  151.8642 O   0  0  0  0  0  0  0  0  0  0  0  0
  148.0991  140.8491  153.1990 O   0  0  0  0  0  0  0  0  0  0  0  0
  150.1408  139.4566  154.3369 C   0  0  0  0  0  0  0  0  0  0  0  0
  151.3251  138.9048  154.6915 C   0  0  0  0  0  0  0  0  0  0  0  0
  151.8097  137.8664  153.9895 F   0  0  0  0  0  0  0  0  0  0  0  0
  151.9549  140.9004  157.2690 H   0  0  0  0  0  0  0  0  0  0  0  0
  148.2896  142.1896  154.7040 H   0  0  0  0  0  0  0  0  0  0  0  0
  146.9467  138.5898  154.2344 H   0  0  0  0  0  0  0  0  0  0  0  0
  146.1008  141.1683  152.8308 H   0  0  0  0  0  0  0  0  0  0  0  0
  147.4100  139.9052  156.1906 H   0  0  0  0  0  0  0  0  0  0  0  0
  146.3938  141.2388  155.6134 H   0  0  0  0  0  0  0  0  0  0  0  0
  144.6329  139.6000  153.6231 H   0  0  0  0  0  0  0  0  0  0  0  0
  145.8323  139.0426  151.4731 H   0  0  0  0  0  0  0  0  0  0  0  0
  147.1375  140.0250  150.8281 H   0  0  0  0  0  0  0  0  0  0  0  0
  148.5889  138.7726  152.0957 H   0  0  0  0  0  0  0  0  0  0  0  0
  149.6239  139.0346  153.4879 H   0  0  0  0  0  0  0  0  0  0  0  0
  1  2  2  0  0  0  0
  2 16  1  0  0  0  0
  2  3  1  0  0  0  0
  3 18  1  0  0  0  0
  3  4  1  0  0  0  0
  4  5  2  0  0  0  0
  4  6  1  0  0  0  0
  6  7  1  0  0  0  0
  6 15  1  0  0  0  0
  7 19  1  0  0  0  0
  7 14  1  0  0  0  0
  7  8  1  0  0  0  0
  8  9  1  0  0  0  0
  8 22  1  0  0  0  0
  8 23  1  0  0  0  0
  9 20  1  0  0  0  0
  9 10  1  0  0  0  0
  9 11  1  0  0  0  0
 10 24  1  0  0  0  0
 11 21  1  0  0  0  0
 11 12  1  0  0  0  0
 11 14  1  0  0  0  0
 12 13  1  0  0  0  0
 12 25  1  0  0  0  0
 12 26  1  0  0  0  0
 13 27  1  0  0  0  0
 15 16  2  0  0  0  0
 15 28  1  0  0  0  0
 16 17  1  0  0  0  0
M  END
> <s_m_source_file>
AV-unprocessed.smi

> <i_m_source_file_index>
38

> <i_lp_mmshare_version>
43012

> <i_f3d_flags>
0

> <s_epik_input>
Tz1jMVtuSF1jKD1PKW4oW2NIXWMxRilbQ0BIXTJbQ0gyXVtDQEhdKFtPSF0pW0NASF0oTzIpW0NIMl1bT0hd

> <s_epik_cmdline>
J2VwaWtfcHl0aG9uJywgJy1waCcsICc3LjAnLCAnLXRuJywgJzgnLCAnLW1hJywgJzIwMCcsICctbWV0YWxfYmluZGluZycsICctaW1hZScsICc8aW5maWxlLm1hZT4nLCAnLW9tYWUnLCAnPG91dGZpbGUubWFlPic=

> <r_lp_tautomer_probability>
0.999537

> <r_epik_Ionization_Penalty>
0.0357432

> <r_epik_Ionization_Penalty_Charging>
0.0357431

> <r_epik_Ionization_Penalty_Neutral>
1.19946e-07

> <r_epik_State_Penalty>
0.0298169

> <r_epik_Charging_Adjusted_Penalty>
0.06556

> <i_epik_Tot_Q>
0

> <i_epik_Tot_abs_Q>
0

> <r_epik_Metal_State_Penalty>
2.348

> <b_epik_Metal_Only>
0

> <s_epik_Chemistry_Notes>
This compound contains an acetal/aminal-like group ( X-CH(R)-Y where X, Y are N, S, or O) that may be acid/base labile, releasing an aldehyde.

> <s_lp_Force_Field>
OPLS_2005

> <r_lp_Energy>
27.0037

> <b_lp_Chiralities_Consistent>
1

> <s_lp_Variant>
AV-unprocessed.smi:38-8

> <Gold.Version>
5.8.1

> <Gold.Id.Protein>
6NUR|6NUR_protein|mol2

> <Gold.PLP.Fitness>
38.4218

> <Gold.PLP.PLP>
-26.6372

> <Gold.PLP.part.hbond>
-4.5550

> <Gold.PLP.part.metal>
0.0000

> <Gold.PLP.part.buried>
0.8151

> <Gold.PLP.part.nonpolar>
-25.4934

> <Gold.PLP.part.repulsive>
3.6325

> <Gold.PLP.ligand.clash>
0.0000

> <Gold.PLP.ligand.torsion>
0.7337

> <Gold.PLP.Chemscore.Hbond>
3.4956

> <Gold.PLP.Chemscore.CHOScore>
0.9187

> <Gold.PLP.Chemscore.Metal>
0.0000

> <Gold.Chemscore.Hbonds>
donor molecule, donor type, donor heavy atom, donor atom, acceptor molecule, acceptor atom, score
      L1  H    10    24       P1 10175  1.00
      L1  H    13    27       P1  7957  0.56
      P1  H  7954  7966       L1    13  0.81
      P1  H  7997  8008       L1     1  1.00
      L1  C    15    28       P1  7957  0.90

> <Gold.PLP.Chemscore.Internal.Correction>
0.0091

> <Gold.Rescore>
     Score         DG    S(hbond)    S(metal)    S(lipo)     H(rot)  DE(clash)    DE(int)     intcor
      9.14     -11.38       2.58        0.00      40.57       2.91       1.54       0.71       ----

> <Gold.Chemscore.Fitness>
9.1363

> <Gold.Chemscore.DG>
-11.3822

> <Gold.Chemscore.ZeroCoef>
-5.4800

> <Gold.Chemscore.Hbond>
2.5795

> <Gold.Chemscore.Metal>
0.0000

> <Gold.Chemscore.Lipo>
40.5710

> <Gold.Chemscore.Internal_Hbond>
0.0000

> <Gold.Chemscore.DEClash>
1.5354

> <Gold.Chemscore.DEInternal>
0.7105

> <Gold.Chemscore.Rot>
2.9141

> <Gold.Chemscore.Internal.Correction>
   9.000000E+99

> <Gold.Chemscore.Hbonds>
donor molecule, donor type, donor heavy atom, donor atom, acceptor molecule, acceptor atom, score
      L1  H    10    24       P1 10175  0.99
      L1  H    13    27       P1  7957  0.49
      P1  H  7954  7966       L1    13  0.05
      P1  H  7997  8008       L1     1  0.92
      P1  H  8011  8017       L1    14  0.01

> <Gold.Chemscore.Hbond.Weighted>
-8.6155

> <Gold.Chemscore.Metal.Weighted>
-0.0000

> <Gold.Chemscore.Lipo.Weighted>
-4.7468

> <Gold.Chemscore.Internal_Hbond.Weighted>
0.0000

> <Gold.Chemscore.DEClash.Weighted>
1.5354

> <Gold.Chemscore.DEInternal.Weighted>
0.7105

> <Gold.Chemscore.Rot.Weighted>
7.4601

> <Gold.Chemscore.Internal.Correction.Weighted>
   9.000000E+99

> <Gold.Protein.RotatedTorsions>
[ 6907 6896 6895 6894 ] final -121.88 input  -60.11 | X-H torsion
[ 7974 7965 7964 7962 ] final   -1.39 input  175.53 | X-H torsion
[ 8008 7997 7996 7995 ] final  -45.04 input   59.86 | X-H torsion
[ 10167 10162 10161 10158 ] final  -29.12 input  -65.29 | X-H torsion
[ 10718 10713 10712 10709 ] final  -61.06 input   66.30 | X-H torsion
[ 10763 10752 10751 10750 ] final -105.03 input  -60.55 | X-H torsion
[ 11005 11000 10999 10996 ] final  -86.38 input  -57.11 | X-H torsion

> <Gold.Protein.ActiveResidues>
 VAL166  LYS551  ARG553  GLY616  TRP617  ASP618  TYR619  PRO620  LYS621  CYS622 
 ASP623  PHE694  ASN695  SER759  ASP760  ASP761  ALA762  ILE779  LEU786  VAL792 
 PHE793  MET794  SER795  GLU796  ALA797  LYS798  CYS799  TRP800  GLU811  SER814 

> <Gold.Protein.RotatedAtoms>
  150.8524  133.7767  159.3020 H   0  0  0  0  0  0  0  0  0  0  0  0  # atno 6907 bound_to 6896
  151.5434  135.1066  159.9941 H   0  0  0  0  0  0  0  0  0  0  0  0  # atno 6908 bound_to 6896
  152.4563  133.7687  159.6843 H   0  0  0  0  0  0  0  0  0  0  0  0  # atno 6909 bound_to 6896
  146.2417  140.1414  142.8335 H   0  0  0  0  0  0  0  0  0  0  0  0  # atno 7974 bound_to 7965
  154.3999  140.1407  156.3781 H   0  0  0  0  0  0  0  0  0  0  0  0  # atno 8008 bound_to 7997
  155.8029  140.3475  155.5392 H   0  0  0  0  0  0  0  0  0  0  0  0  # atno 8009 bound_to 7997
  155.8465  140.0935  157.1692 H   0  0  0  0  0  0  0  0  0  0  0  0  # atno 8010 bound_to 7997
  140.7263  143.3954  151.1356 H   0  0  0  0  0  0  0  0  0  0  0  0  # atno 10167 bound_to 10162
  156.0947  130.4194  150.0942 H   0  0  0  0  0  0  0  0  0  0  0  0  # atno 10718 bound_to 10713
  154.7919  135.4764  154.0072 H   0  0  0  0  0  0  0  0  0  0  0  0  # atno 10763 bound_to 10752
  153.1644  135.6814  153.8703 H   0  0  0  0  0  0  0  0  0  0  0  0  # atno 10764 bound_to 10752
  153.8306  135.3192  155.3396 H   0  0  0  0  0  0  0  0  0  0  0  0  # atno 10765 bound_to 10752
  141.1630  133.7451  156.9153 H   0  0  0  0  0  0  0  0  0  0  0  0  # atno 11005 bound_to 11000
  145.0244  140.8820  143.5147 LP  0  0  0  0  0  0  0  0  0  0  0  0  # atno 17320 bound_to 7965
  145.1467  139.2539  143.5462 LP  0  0  0  0  0  0  0  0  0  0  0  0  # atno 17321 bound_to 7965
  139.7566  143.8698  152.3090 LP  0  0  0  0  0  0  0  0  0  0  0  0  # atno 17342 bound_to 10162
  139.8570  144.7136  150.9145 LP  0  0  0  0  0  0  0  0  0  0  0  0  # atno 17343 bound_to 10162
  156.8943  130.9599  151.3584 LP  0  0  0  0  0  0  0  0  0  0  0  0  # atno 17370 bound_to 10713
  157.6105  130.8579  149.8944 LP  0  0  0  0  0  0  0  0  0  0  0  0  # atno 17371 bound_to 10713
  140.1489  134.9244  157.2566 LP  0  0  0  0  0  0  0  0  0  0  0  0  # atno 17394 bound_to 11000
  140.2747  134.3419  155.7362 LP  0  0  0  0  0  0  0  0  0  0  0  0  # atno 17395 bound_to 11000

$$$$
