AV-unprocessed.smi:2871|AV-procd|sdf|11031|dock10
  -GOLD-   2272015493D 1   1.00000     0.00000
 Structure written by MMmdl.
 38 40  0  0  0  0  0  0  0  0  1 V2000
  151.6797  144.1823  158.1390 C   0  0  0  0  0  0  0  0  0  0  0  0
  152.0273  143.5448  159.4048 N   0  0  0  0  0  0  0  0  0  0  0  0
  151.8108  144.2472  160.6632 C   0  0  0  0  0  0  0  0  0  0  0  0
  152.5729  142.2422  159.4055 C   0  0  0  0  0  0  0  0  0  0  0  0
  153.4132  141.7794  160.4475 C   0  0  0  0  0  0  0  0  0  0  0  0
  153.8979  140.4563  160.3407 C   0  0  0  0  0  0  0  0  0  0  0  0
  154.8105  139.8424  161.3918 C   0  0  0  0  0  0  0  0  0  0  0  0
  156.0290  139.6674  160.8800 F   0  0  0  0  0  0  0  0  0  0  0  0
  154.9126  140.6207  162.4698 F   0  0  0  0  0  0  0  0  0  0  0  0
  154.3288  138.6584  161.7709 F   0  0  0  0  0  0  0  0  0  0  0  0
  153.5752  139.6677  159.2911 N   0  0  0  0  0  0  0  0  0  0  0  0
  152.7766  140.1921  158.3626 C   0  0  0  0  0  0  0  0  0  0  0  0
  152.4584  139.3545  157.3097 N   0  0  0  0  0  0  0  0  0  0  0  0
  152.1301  139.8089  155.9630 C   0  0  1  0  0  0  0  0  0  0  0  0
  152.0991  138.6753  154.9357 C   0  0  0  0  0  0  0  0  0  0  0  0
  150.7084  138.8559  154.3103 C   0  0  1  0  0  0  0  0  0  0  0  0
  149.5993  138.3734  155.2540 C   0  0  0  0  0  0  0  0  0  0  0  0
  149.5962  139.4714  156.3158 C   0  0  0  0  0  0  0  0  0  0  0  0
  150.7145  140.4017  155.8154 C   0  0  2  0  0  0  0  0  0  0  0  0
  150.5437  140.2604  154.4154 O   0  0  0  0  0  0  0  0  0  0  0  0
  152.2672  141.4275  158.3671 N   0  0  0  0  0  0  0  0  0  0  0  0
  152.5653  144.2994  157.5136 H   0  0  0  0  0  0  0  0  0  0  0  0
  151.2485  145.1710  158.2960 H   0  0  0  0  0  0  0  0  0  0  0  0
  150.9491  143.5822  157.5951 H   0  0  0  0  0  0  0  0  0  0  0  0
  152.7488  144.3551  161.2087 H   0  0  0  0  0  0  0  0  0  0  0  0
  151.1037  143.7018  161.2890 H   0  0  0  0  0  0  0  0  0  0  0  0
  151.4069  145.2461  160.4968 H   0  0  0  0  0  0  0  0  0  0  0  0
  153.6796  142.3971  161.2915 H   0  0  0  0  0  0  0  0  0  0  0  0
  152.3257  138.3775  157.5257 H   0  0  0  0  0  0  0  0  0  0  0  0
  152.8673  140.5490  155.6484 H   0  0  0  0  0  0  0  0  0  0  0  0
  152.8830  138.8193  154.1913 H   0  0  0  0  0  0  0  0  0  0  0  0
  152.2245  137.6824  155.3704 H   0  0  0  0  0  0  0  0  0  0  0  0
  150.6248  138.4672  153.2952 H   0  0  0  0  0  0  0  0  0  0  0  0
  148.6386  138.3371  154.7393 H   0  0  0  0  0  0  0  0  0  0  0  0
  149.8045  137.3850  155.6661 H   0  0  0  0  0  0  0  0  0  0  0  0
  148.6383  139.9926  156.3173 H   0  0  0  0  0  0  0  0  0  0  0  0
  149.7720  139.0921  157.3227 H   0  0  0  0  0  0  0  0  0  0  0  0
  150.6246  141.4287  156.1704 H   0  0  0  0  0  0  0  0  0  0  0  0
  1  2  1  0  0  0  0
  1 22  1  0  0  0  0
  1 23  1  0  0  0  0
  1 24  1  0  0  0  0
  2  3  1  0  0  0  0
  2  4  1  0  0  0  0
  3 25  1  0  0  0  0
  3 26  1  0  0  0  0
  3 27  1  0  0  0  0
  4 21  1  0  0  0  0
  4  5  2  0  0  0  0
  5  6  1  0  0  0  0
  5 28  1  0  0  0  0
  6  7  1  0  0  0  0
  6 11  2  0  0  0  0
  7  8  1  0  0  0  0
  7  9  1  0  0  0  0
  7 10  1  0  0  0  0
 11 12  1  0  0  0  0
 12 13  1  0  0  0  0
 12 21  2  0  0  0  0
 13 14  1  0  0  0  0
 13 29  1  0  0  0  0
 14 19  1  0  0  0  0
 14 15  1  0  0  0  0
 14 30  1  0  0  0  0
 15 16  1  0  0  0  0
 15 31  1  0  0  0  0
 15 32  1  0  0  0  0
 16 20  1  0  0  0  0
 16 17  1  0  0  0  0
 16 33  1  0  0  0  0
 17 18  1  0  0  0  0
 17 34  1  0  0  0  0
 17 35  1  0  0  0  0
 18 19  1  0  0  0  0
 18 36  1  0  0  0  0
 18 37  1  0  0  0  0
 19 20  1  0  0  0  0
 19 38  1  0  0  0  0
M  END
> <s_m_source_file>
AV-unprocessed.smi

> <i_m_source_file_index>
2871

> <i_lp_mmshare_version>
43012

> <i_f3d_flags>
0

> <s_epik_input>
W0NIM11OKFtDSDNdKWMxW2NIXWMoQyhGKShGKUYpbmMobjEpW05IXVtDQEhdKFtDSDJdW0NAQEhdMjMpW0NAQEhdKE8zKVtDSDJdW0NIMl0y

> <s_epik_cmdline>
J2VwaWtfcHl0aG9uJywgJy1waCcsICc3LjAnLCAnLXRuJywgJzgnLCAnLW1hJywgJzIwMCcsICctbWV0YWxfYmluZGluZycsICctaW1hZScsICc8aW5maWxlLm1hZT4nLCAnLW9tYWUnLCAnPG91dGZpbGUubWFlPic=

> <r_lp_tautomer_probability>
1

> <r_epik_Ionization_Penalty>
0.00695968

> <r_epik_Ionization_Penalty_Charging>
0

> <r_epik_Ionization_Penalty_Neutral>
0.00695968

> <r_epik_State_Penalty>
0.0050343

> <r_epik_Charging_Adjusted_Penalty>
0.0050343

> <i_epik_Tot_Q>
0

> <i_epik_Tot_abs_Q>
0

> <r_epik_Metal_State_Penalty>
-0

> <b_epik_Metal_Only>
0

> <s_lp_Force_Field>
OPLS_2005

> <r_lp_Energy>
32.958

> <b_lp_Chiralities_Consistent>
1

> <s_lp_Variant>
AV-unprocessed.smi:2871-2

> <Gold.Version>
5.8.1

> <Gold.Id.Protein>
6NUR|6NUR_protein|mol2

> <Gold.PLP.Fitness>
46.1122

> <Gold.PLP.PLP>
-44.8346

> <Gold.PLP.part.hbond>
-1.0000

> <Gold.PLP.part.metal>
0.0000

> <Gold.PLP.part.buried>
-3.7662

> <Gold.PLP.part.nonpolar>
-40.8048

> <Gold.PLP.part.repulsive>
0.2034

> <Gold.PLP.ligand.clash>
0.0000

> <Gold.PLP.ligand.torsion>
0.8598

> <Gold.PLP.Chemscore.Hbond>
0.9920

> <Gold.PLP.Chemscore.CHOScore>
0.0000

> <Gold.PLP.Chemscore.Metal>
0.0000

> <Gold.Chemscore.Hbonds>
donor molecule, donor type, donor heavy atom, donor atom, acceptor molecule, acceptor atom, score
      P1  H  7989  7998       L1    20  1.00

> <Gold.PLP.Chemscore.Internal.Correction>
0.0213

> <Gold.Rescore>
     Score         DG    S(hbond)    S(metal)    S(lipo)     H(rot)  DE(clash)    DE(int)     intcor
     15.14     -16.38       0.94        0.00      88.17       1.00       0.01       1.23       ----

> <Gold.Chemscore.Fitness>
15.1445

> <Gold.Chemscore.DG>
-16.3832

> <Gold.Chemscore.ZeroCoef>
-5.4800

> <Gold.Chemscore.Hbond>
0.9423

> <Gold.Chemscore.Metal>
0.0000

> <Gold.Chemscore.Lipo>
88.1698

> <Gold.Chemscore.Internal_Hbond>
0.0000

> <Gold.Chemscore.DEClash>
0.0085

> <Gold.Chemscore.DEInternal>
1.2302

> <Gold.Chemscore.Rot>
1.0000

> <Gold.Chemscore.Internal.Correction>
   9.000000E+99

> <Gold.Chemscore.Hbonds>
donor molecule, donor type, donor heavy atom, donor atom, acceptor molecule, acceptor atom, score
      P1  H  7989  7998       L1    20  0.50

> <Gold.Chemscore.Hbond.Weighted>
-3.1473

> <Gold.Chemscore.Metal.Weighted>
-0.0000

> <Gold.Chemscore.Lipo.Weighted>
-10.3159

> <Gold.Chemscore.Internal_Hbond.Weighted>
0.0000

> <Gold.Chemscore.DEClash.Weighted>
0.0085

> <Gold.Chemscore.DEInternal.Weighted>
1.2302

> <Gold.Chemscore.Rot.Weighted>
2.5600

> <Gold.Chemscore.Internal.Correction.Weighted>
   9.000000E+99

> <Gold.Protein.RotatedTorsions>
[ 6907 6896 6895 6894 ] final  -42.02 input  -60.11 | X-H torsion
[ 7974 7965 7964 7962 ] final  117.24 input  175.53 | X-H torsion
[ 8008 7997 7996 7995 ] final  161.83 input   59.86 | X-H torsion
[ 10167 10162 10161 10158 ] final  -76.28 input  -65.29 | X-H torsion
[ 10718 10713 10712 10709 ] final  -80.93 input   66.30 | X-H torsion
[ 10763 10752 10751 10750 ] final   15.50 input  -60.55 | X-H torsion
[ 11005 11000 10999 10996 ] final   84.73 input  -57.11 | X-H torsion

> <Gold.Protein.ActiveResidues>
 VAL166  LYS551  ARG553  GLY616  TRP617  ASP618  TYR619  PRO620  LYS621  CYS622 
 ASP623  PHE694  ASN695  SER759  ASP760  ASP761  ALA762  ILE779  LEU786  VAL792 
 PHE793  MET794  SER795  GLU796  ALA797  LYS798  CYS799  TRP800  GLU811  SER814 

> <Gold.Protein.RotatedAtoms>
  150.9600  134.8989  159.7724 H   0  0  0  0  0  0  0  0  0  0  0  0  # atno 6907 bound_to 6896
  152.5152  134.3687  159.9320 H   0  0  0  0  0  0  0  0  0  0  0  0  # atno 6908 bound_to 6896
  151.3699  133.3818  159.2733 H   0  0  0  0  0  0  0  0  0  0  0  0  # atno 6909 bound_to 6896
  145.1698  139.3108  143.4473 H   0  0  0  0  0  0  0  0  0  0  0  0  # atno 7974 bound_to 7965
  156.2075  140.1766  156.7768 H   0  0  0  0  0  0  0  0  0  0  0  0  # atno 8008 bound_to 7997
  154.5675  140.0688  156.8944 H   0  0  0  0  0  0  0  0  0  0  0  0  # atno 8009 bound_to 7997
  155.2733  140.3344  155.4266 H   0  0  0  0  0  0  0  0  0  0  0  0  # atno 8010 bound_to 7997
  140.4871  143.2389  151.7967 H   0  0  0  0  0  0  0  0  0  0  0  0  # atno 10167 bound_to 10162
  156.0060  130.4589  150.3875 H   0  0  0  0  0  0  0  0  0  0  0  0  # atno 10718 bound_to 10713
  153.1520  135.6780  153.8868 H   0  0  0  0  0  0  0  0  0  0  0  0  # atno 10763 bound_to 10752
  153.8292  135.3120  155.3418 H   0  0  0  0  0  0  0  0  0  0  0  0  # atno 10764 bound_to 10752
  154.7869  135.4857  154.0052 H   0  0  0  0  0  0  0  0  0  0  0  0  # atno 10765 bound_to 10752
  139.8992  134.8237  156.2485 H   0  0  0  0  0  0  0  0  0  0  0  0  # atno 11005 bound_to 11000
  146.3470  140.1840  142.8589 LP  0  0  0  0  0  0  0  0  0  0  0  0  # atno 17320 bound_to 7965
  145.0244  140.8820  143.5147 LP  0  0  0  0  0  0  0  0  0  0  0  0  # atno 17321 bound_to 7965
  139.4844  144.4698  151.9439 LP  0  0  0  0  0  0  0  0  0  0  0  0  # atno 17342 bound_to 10162
  140.3784  144.2767  150.5911 LP  0  0  0  0  0  0  0  0  0  0  0  0  # atno 17343 bound_to 10162
  157.1951  131.0424  151.2680 LP  0  0  0  0  0  0  0  0  0  0  0  0  # atno 17370 bound_to 10713
  157.4026  130.7341  149.6778 LP  0  0  0  0  0  0  0  0  0  0  0  0  # atno 17371 bound_to 10713
  141.0239  133.7026  156.1315 LP  0  0  0  0  0  0  0  0  0  0  0  0  # atno 17394 bound_to 11000
  140.7194  134.4375  157.5576 LP  0  0  0  0  0  0  0  0  0  0  0  0  # atno 17395 bound_to 11000

$$$$
