#       Name:                AV-unprocessed.smi:2322
#       Creating user name   scv26
#       Creation time:       Fri Mar 27 12:51:11 2020


#       File generated by GOLD software.
#

@<TRIPOS>MOLECULE
AV-unprocessed.smi:2322
    44    46     1
SMALL
NO_CHARGES


@<TRIPOS>ATOM
      1 ****        -2.1014  -5.1833  -0.9568 C.3            1 S1                 0.0000
      2 ****        -0.7846  -5.4652  -0.4186 N.pl3          1 S1                 0.0000
      3 ****        -0.3400  -6.7386  -0.3046 N.2            1 S1                 0.0000
      4 ****         0.8748  -6.5792   0.2192 C.2            1 S1                 0.0000
      5 ****         1.2583  -5.2907   0.4591 N.2            1 S1                 0.0000
      6 ****         0.1714  -4.6491   0.0373 C.2            1 S1                 0.0000
      7 ****        -0.0442  -3.2389   0.0305 N.am           1 S1                 0.0000
      8 ****         0.7363  -2.2179   0.4428 C.2            1 S1                 0.0000
      9 ****         1.8493  -2.4248   0.9235 O.2            1 S1                 0.0000
     10 ****         0.2265  -0.9844   0.2937 N.am           1 S1                 0.0000
     11 ****         0.8946   0.2613   0.6549 C.3            1 S1                 0.0000
     12 ****         0.7004   0.5765   2.1472 C.3            1 S1                 0.0000
     13 ****         1.2624   1.9672   2.4831 C.3            1 S1                 0.0000
     14 ****         0.6566   2.9533   1.6535 O.3            1 S1                 0.0000
     15 ****         0.9237   2.7615   0.2673 C.3            1 S1                 0.0000
     16 ****         0.3231   3.9263  -0.4944 C.3            1 S1                 0.0000
     17 ****         0.8107   4.2725  -1.8821 C.3            1 S1                 0.0000
     18 ****         1.1148   5.1925  -0.7247 C.3            1 S1                 0.0000
     19 ****         0.3290   1.4152  -0.1850 C.3            1 S1                 0.0000
     20 ****        -2.7560  -4.8357  -0.1573 H              1 S1                 0.0000
     21 ****        -2.5321  -6.0800  -1.4040 H              1 S1                 0.0000
     22 ****        -2.0299  -4.4098  -1.7217 H              1 S1                 0.0000
     23 ****         1.5097  -7.4253   0.4370 H              1 S1                 0.0000
     24 ****        -0.9351  -2.9559  -0.3514 H              1 S1                 0.0000
     25 ****        -0.6973  -0.9057  -0.1079 H              1 S1                 0.0000
     26 ****         1.9623   0.1748   0.4435 H              1 S1                 0.0000
     27 ****        -0.3612   0.5490   2.3972 H              1 S1                 0.0000
     28 ****         1.1865  -0.1802   2.7637 H              1 S1                 0.0000
     29 ****         1.0579   2.2109   3.5258 H              1 S1                 0.0000
     30 ****         2.3461   1.9889   2.3589 H              1 S1                 0.0000
     31 ****         2.0035   2.7606   0.1057 H              1 S1                 0.0000
     32 ****        -0.7443   4.0564  -0.3246 H              1 S1                 0.0000
     33 ****         1.6341   3.6894  -2.2902 H              1 S1                 0.0000
     34 ****         0.0686   4.6019  -2.6063 H              1 S1                 0.0000
     35 ****         0.5758   6.1364  -0.6762 H              1 S1                 0.0000
     36 ****         2.1409   5.2225  -0.3635 H              1 S1                 0.0000
     37 ****         0.5411   1.2476  -1.2417 H              1 S1                 0.0000
     38 ****        -0.7573   1.4466  -0.0858 H              1 S1                 0.0000
     39 ****        -0.8069  -7.5876  -0.5519 LP             1 S1                 0.0000
     40 ****         2.1102  -4.9326   0.8414 LP             1 S1                 0.0000
     41 ****         2.1887  -3.3611   1.0138 LP             1 S1                 0.0000
     42 ****         2.4148  -1.6567   1.2240 LP             1 S1                 0.0000
     43 ****         1.0034   3.8518   1.9226 LP             1 S1                 0.0000
     44 ****        -0.3331   2.9223   1.7937 LP             1 S1                 0.0000
@<TRIPOS>BOND
    1    1    2 1     
    2    1   20 1     
    3    1   21 1     
    4    1   22 1     
    5    2    6 1     
    6    2    3 1     
    7    3    4 2     
    8    4    5 1     
    9    4   23 1     
   10    5    6 2     
   11    6    7 1     
   12    7    8 am    
   13    7   24 1     
   14    8    9 2     
   15    8   10 am    
   16   10   11 1     
   17   10   25 1     
   18   11   19 1     
   19   11   12 1     
   20   11   26 1     
   21   12   13 1     
   22   12   27 1     
   23   12   28 1     
   24   13   14 1     
   25   13   29 1     
   26   13   30 1     
   27   14   15 1     
   28   15   16 1     
   29   15   19 1     
   30   15   31 1     
   31   16   18 1     
   32   16   17 1     
   33   16   32 1     
   34   17   18 1     
   35   17   33 1     
   36   17   34 1     
   37   18   35 1     
   38   18   36 1     
   39   19   37 1     
   40   19   38 1     
   41    3   39 1     
   42    5   40 1     
   43    9   41 1     
   44    9   42 1     
   45   14   43 1     
   46   14   44 1     
@<TRIPOS>SUBSTRUCTURE
      1 S1             1
@<TRIPOS>SET
LONE_PAIRS      STATIC     ATOMS    <user>   **** ""
6 39 40 41 42 43 44
DONOR_HYDROGENS      STATIC     ATOMS    <user>   **** ""
2 24 25
ATOM$BLUE        STATIC     ATOMS    COLORGROUP SYSTEM
6 39 40 41 42 43 44
ATOM$RED        STATIC     ATOMS    COLORGROUP SYSTEM
2 24 25
