AV-unprocessed.smi:1901|AV-procd|sdf|7719|dock10
  -GOLD-   22720 9463D 1   1.00000     0.00000
 Structure written by MMmdl.
 27 28  0  0  0  0  0  0  0  0  2 V2000
  151.0961  140.4456  155.6042 O   0  0  0  0  0  0  0  0  0  0  0  0
  150.4450  141.4913  155.5419 C   0  0  0  0  0  0  0  0  0  0  0  0
  150.5657  142.4094  156.5099 N   0  0  0  0  0  0  0  0  0  0  0  0
  151.4268  142.2862  157.6796 C   0  0  0  0  0  0  0  0  0  0  0  0
  151.2726  143.4999  158.6106 C   0  0  1  0  0  0  0  0  0  0  0  0
  152.1697  143.4558  159.8299 C   0  0  0  0  0  0  0  0  0  0  0  0
  152.1596  144.9137  160.2778 C   0  0  0  0  0  0  0  0  0  0  0  0
  152.0388  145.6827  159.0848 O   0  0  0  0  0  0  0  0  0  0  0  0
  151.6788  144.8397  157.9929 C   0  0  0  0  0  0  0  0  0  0  0  0
  149.5775  141.8395  154.5642 N   0  5  0  0  0  0  0  0  0  0  0  0
  148.6932  140.9411  154.1006 C   0  0  0  0  0  0  0  0  0  0  0  0
  148.9441  139.6277  154.0504 N   0  0  0  0  0  0  0  0  0  0  0  0
  147.8870  138.8802  153.5280 C   0  0  0  0  0  0  0  0  0  0  0  0
  146.8101  139.6432  153.1621 C   0  0  0  0  0  0  0  0  0  0  0  0
  147.0927  141.3335  153.4663 S   0  0  0  0  0  0  0  0  0  0  0  0
  150.0173  143.2526  156.4258 H   0  0  0  0  0  0  0  0  0  0  0  0
  151.1707  141.3734  158.2196 H   0  0  0  0  0  0  0  0  0  0  0  0
  152.4636  142.1861  157.3542 H   0  0  0  0  0  0  0  0  0  0  0  0
  150.2367  143.5690  158.9479 H   0  0  0  0  0  0  0  0  0  0  0  0
  151.8124  142.7725  160.6008 H   0  0  0  0  0  0  0  0  0  0  0  0
  153.1812  143.1576  159.5495 H   0  0  0  0  0  0  0  0  0  0  0  0
  151.2911  145.1111  160.9075 H   0  0  0  0  0  0  0  0  0  0  0  0
  153.0540  145.1845  160.8394 H   0  0  0  0  0  0  0  0  0  0  0  0
  152.5521  144.7216  157.3498 H   0  0  0  0  0  0  0  0  0  0  0  0
  150.8800  145.2821  157.3973 H   0  0  0  0  0  0  0  0  0  0  0  0
  147.9885  137.8079  153.4508 H   0  0  0  0  0  0  0  0  0  0  0  0
  145.8740  139.3174  152.7345 H   0  0  0  0  0  0  0  0  0  0  0  0
  1  2  2  0  0  0  0
  2  3  1  0  0  0  0
  2 10  1  0  0  0  0
  3  4  1  0  0  0  0
  3 16  1  0  0  0  0
  4  5  1  0  0  0  0
  4 17  1  0  0  0  0
  4 18  1  0  0  0  0
  5  9  1  0  0  0  0
  5  6  1  0  0  0  0
  5 19  1  0  0  0  0
  6  7  1  0  0  0  0
  6 20  1  0  0  0  0
  6 21  1  0  0  0  0
  7  8  1  0  0  0  0
  7 22  1  0  0  0  0
  7 23  1  0  0  0  0
  8  9  1  0  0  0  0
  9 24  1  0  0  0  0
  9 25  1  0  0  0  0
 10 11  1  0  0  0  0
 11 15  1  0  0  0  0
 11 12  2  0  0  0  0
 12 13  1  0  0  0  0
 13 14  2  0  0  0  0
 13 26  1  0  0  0  0
 14 15  1  0  0  0  0
 14 27  1  0  0  0  0
M  CHG  1  10  -1
M  END
> <s_m_source_file>
AV-unprocessed.smi

> <i_m_source_file_index>
1901

> <i_lp_mmshare_version>
43012

> <i_f3d_flags>
0

> <s_epik_input>
czFbY0hdW2NIXW5jMVtOSF1DKD1PKVtOSF1bQ0gyXVtDQEBIXTJbQ0gyXVtDSDJdT1tDSDJdMg==

> <s_epik_cmdline>
J2VwaWtfcHl0aG9uJywgJy1waCcsICc3LjAnLCAnLXRuJywgJzgnLCAnLW1hJywgJzIwMCcsICctbWV0YWxfYmluZGluZycsICctaW1hZScsICc8aW5maWxlLm1hZT4nLCAnLW9tYWUnLCAnPG91dGZpbGUubWFlPic=

> <r_lp_tautomer_probability>
0.999

> <r_epik_Ionization_Penalty>
8.4411

> <r_epik_Ionization_Penalty_Charging>
6.72681

> <r_epik_Ionization_Penalty_Neutral>
1.71429

> <r_epik_State_Penalty>
6.72698

> <r_epik_Charging_Adjusted_Penalty>
13.4538

> <i_epik_Tot_Q>
-1

> <i_epik_Tot_abs_Q>
1

> <r_epik_Metal_State_Penalty>
2.64812

> <b_epik_Metal_Only>
1

> <s_lp_Force_Field>
OPLS_2005

> <r_lp_Energy>
14.3262

> <b_lp_Chiralities_Consistent>
1

> <s_lp_Variant>
AV-unprocessed.smi:1901-4

> <Gold.Version>
5.8.1

> <Gold.Id.Protein>
6NUR|6NUR_protein|mol2

> <Gold.PLP.Fitness>
39.6186

> <Gold.PLP.PLP>
-31.5640

> <Gold.PLP.part.hbond>
-4.0357

> <Gold.PLP.part.metal>
0.0000

> <Gold.PLP.part.buried>
-3.6795

> <Gold.PLP.part.nonpolar>
-24.0679

> <Gold.PLP.part.repulsive>
1.1354

> <Gold.PLP.ligand.clash>
0.0000

> <Gold.PLP.ligand.torsion>
0.5713

> <Gold.PLP.Chemscore.Hbond>
1.0636

> <Gold.PLP.Chemscore.CHOScore>
2.0000

> <Gold.PLP.Chemscore.Metal>
0.0000

> <Gold.Chemscore.Hbonds>
donor molecule, donor type, donor heavy atom, donor atom, acceptor molecule, acceptor atom, score
      L1  H     3    16       P1  8028  1.00
      P1  H  7989  7998       L1     1  0.13
      P1  H  8011  8017       L1    10  0.03
      L1  C    13    26       P1  7948  1.00
      L1  C    14    27       P1 10175  1.00

> <Gold.PLP.Chemscore.Internal.Correction>
0.0063

> <Gold.Rescore>
     Score         DG    S(hbond)    S(metal)    S(lipo)     H(rot)  DE(clash)    DE(int)     intcor
     11.18     -14.04       0.95        0.00      74.44       1.30       0.80       2.07       ----

> <Gold.Chemscore.Fitness>
11.1813

> <Gold.Chemscore.DG>
-14.0442

> <Gold.Chemscore.ZeroCoef>
-5.4800

> <Gold.Chemscore.Hbond>
0.9530

> <Gold.Chemscore.Metal>
0.0000

> <Gold.Chemscore.Lipo>
74.4385

> <Gold.Chemscore.Internal_Hbond>
0.0000

> <Gold.Chemscore.DEClash>
0.7962

> <Gold.Chemscore.DEInternal>
2.0667

> <Gold.Chemscore.Rot>
1.3000

> <Gold.Chemscore.Internal.Correction>
   9.000000E+99

> <Gold.Chemscore.Hbonds>
donor molecule, donor type, donor heavy atom, donor atom, acceptor molecule, acceptor atom, score
      L1  H     3    16       P1  8028  0.96

> <Gold.Chemscore.Hbond.Weighted>
-3.1829

> <Gold.Chemscore.Metal.Weighted>
-0.0000

> <Gold.Chemscore.Lipo.Weighted>
-8.7093

> <Gold.Chemscore.Internal_Hbond.Weighted>
0.0000

> <Gold.Chemscore.DEClash.Weighted>
0.7962

> <Gold.Chemscore.DEInternal.Weighted>
2.0667

> <Gold.Chemscore.Rot.Weighted>
3.3280

> <Gold.Chemscore.Internal.Correction.Weighted>
   9.000000E+99

> <Gold.Protein.RotatedTorsions>
[ 6907 6896 6895 6894 ] final   17.47 input  -60.11 | X-H torsion
[ 7974 7965 7964 7962 ] final  -81.15 input  175.53 | X-H torsion
[ 8008 7997 7996 7995 ] final  113.10 input   59.86 | X-H torsion
[ 10167 10162 10161 10158 ] final  -33.59 input  -65.29 | X-H torsion
[ 10718 10713 10712 10709 ] final   97.60 input   66.30 | X-H torsion
[ 10763 10752 10751 10750 ] final  -26.22 input  -60.55 | X-H torsion
[ 11005 11000 10999 10996 ] final  -81.03 input  -57.11 | X-H torsion

> <Gold.Protein.ActiveResidues>
 VAL166  LYS551  ARG553  GLY616  TRP617  ASP618  TYR619  PRO620  LYS621  CYS622 
 ASP623  PHE694  ASN695  SER759  ASP760  ASP761  ALA762  ILE779  LEU786  VAL792 
 PHE793  MET794  SER795  GLU796  ALA797  LYS798  CYS799  TRP800  GLU811  SER814 

> <Gold.Protein.RotatedAtoms>
  151.8502  135.0560  160.0457 H   0  0  0  0  0  0  0  0  0  0  0  0  # atno 6907 bound_to 6896
  152.2742  133.5406  159.5466 H   0  0  0  0  0  0  0  0  0  0  0  0  # atno 6908 bound_to 6896
  150.7163  134.0571  159.3860 H   0  0  0  0  0  0  0  0  0  0  0  0  # atno 6909 bound_to 6896
  145.5505  140.9497  143.1502 H   0  0  0  0  0  0  0  0  0  0  0  0  # atno 7974 bound_to 7965
  156.2236  140.2986  156.0012 H   0  0  0  0  0  0  0  0  0  0  0  0  # atno 8008 bound_to 7997
  155.2416  140.0422  157.2993 H   0  0  0  0  0  0  0  0  0  0  0  0  # atno 8009 bound_to 7997
  154.5880  140.2393  155.7969 H   0  0  0  0  0  0  0  0  0  0  0  0  # atno 8010 bound_to 7997
  140.7201  143.3609  151.1965 H   0  0  0  0  0  0  0  0  0  0  0  0  # atno 10167 bound_to 10162
  157.6910  131.0614  150.4669 H   0  0  0  0  0  0  0  0  0  0  0  0  # atno 10718 bound_to 10713
  153.7125  135.6950  153.5034 H   0  0  0  0  0  0  0  0  0  0  0  0  # atno 10763 bound_to 10752
  153.2262  135.4353  155.0544 H   0  0  0  0  0  0  0  0  0  0  0  0  # atno 10764 bound_to 10752
  154.8310  135.3473  154.6661 H   0  0  0  0  0  0  0  0  0  0  0  0  # atno 10765 bound_to 10752
  141.1667  133.7177  156.8361 H   0  0  0  0  0  0  0  0  0  0  0  0  # atno 11005 bound_to 11000
  144.7532  139.7141  143.7265 LP  0  0  0  0  0  0  0  0  0  0  0  0  # atno 17320 bound_to 7965
  146.1920  139.5165  142.9799 LP  0  0  0  0  0  0  0  0  0  0  0  0  # atno 17321 bound_to 7965
  139.7160  143.9299  152.2967 LP  0  0  0  0  0  0  0  0  0  0  0  0  # atno 17342 bound_to 10162
  139.9040  144.6895  150.8634 LP  0  0  0  0  0  0  0  0  0  0  0  0  # atno 17343 bound_to 10162
  156.5009  130.4117  149.6353 LP  0  0  0  0  0  0  0  0  0  0  0  0  # atno 17370 bound_to 10713
  156.3329  130.7341  151.2273 LP  0  0  0  0  0  0  0  0  0  0  0  0  # atno 17371 bound_to 10713
  140.2016  134.8893  157.3175 LP  0  0  0  0  0  0  0  0  0  0  0  0  # atno 17394 bound_to 11000
  140.2181  134.4056  155.7579 LP  0  0  0  0  0  0  0  0  0  0  0  0  # atno 17395 bound_to 11000

$$$$
