AV-unprocessed.smi:697|AV-procd|sdf|3393|dock9
  -GOLD-   22720 0373D 1   1.00000     0.00000
 Structure written by MMmdl.
 43 44  0  0  0  0  0  0  0  0  2 V2000
  149.4347  141.5396  154.7812 C   0  0  0  0  0  0  0  0  0  0  0  0
  150.0644  140.2992  154.4871 O   0  0  0  0  0  0  0  0  0  0  0  0
  150.7214  139.6489  155.5761 C   0  0  1  0  0  0  0  0  0  0  0  0
  152.2048  140.0494  155.6078 C   0  0  0  0  0  0  0  0  0  0  0  0
  149.9191  139.7498  156.8867 C   0  0  0  0  0  0  0  0  0  0  0  0
  150.2510  138.2748  157.0991 C   0  0  1  0  0  0  0  0  0  0  0  0
  149.1569  137.5354  157.7183 N   0  0  0  0  0  0  0  0  0  0  0  0
  149.2848  136.7621  158.8045 C   0  0  0  0  0  0  0  0  0  0  0  0
  150.3526  136.6070  159.3968 O   0  0  0  0  0  0  0  0  0  0  0  0
  148.1036  136.2130  159.1403 N   0  0  0  0  0  0  0  0  0  0  0  0
  147.7921  135.3299  160.1884 C   0  0  0  0  0  0  0  0  0  0  0  0
  147.8217  133.9711  160.0982 C   0  0  0  0  0  0  0  0  0  0  0  0
  147.4774  133.1068  161.2201 C   0  0  0  0  0  0  0  0  0  0  0  0
  147.5941  131.5933  161.1862 C   0  0  0  0  0  0  0  0  0  0  0  0
  146.4586  131.0162  161.5798 F   0  0  0  0  0  0  0  0  0  0  0  0
  147.8581  131.1863  159.9455 F   0  0  0  0  0  0  0  0  0  0  0  0
  148.5778  131.1710  161.9805 F   0  0  0  0  0  0  0  0  0  0  0  0
  147.1386  133.8248  162.3503 C   0  0  0  0  0  0  0  0  0  0  0  0
  147.0575  135.1633  162.5154 N   0  5  0  0  0  0  0  0  0  0  0  0
  147.3788  135.9621  161.4587 C   0  0  0  0  0  0  0  0  0  0  0  0
  147.3300  137.1901  161.5416 O   0  0  0  0  0  0  0  0  0  0  0  0
  150.3481  138.1307  155.5585 C   0  0  0  0  0  0  0  0  0  0  0  0
  149.0509  137.7583  154.8117 C   0  0  0  0  0  0  0  0  0  0  0  0
  151.4174  137.1608  155.0461 C   0  0  0  0  0  0  0  0  0  0  0  0
  148.9002  141.8859  153.8969 H   0  0  0  0  0  0  0  0  0  0  0  0
  150.1575  142.3111  155.0439 H   0  0  0  0  0  0  0  0  0  0  0  0
  148.7086  141.4478  155.5890 H   0  0  0  0  0  0  0  0  0  0  0  0
  152.7669  139.4697  156.3396 H   0  0  0  0  0  0  0  0  0  0  0  0
  152.3381  141.0958  155.8806 H   0  0  0  0  0  0  0  0  0  0  0  0
  152.6775  139.8959  154.6375 H   0  0  0  0  0  0  0  0  0  0  0  0
  150.3449  140.4192  157.6347 H   0  0  0  0  0  0  0  0  0  0  0  0
  148.8551  139.9433  156.7373 H   0  0  0  0  0  0  0  0  0  0  0  0
  151.2117  138.1450  157.6027 H   0  0  0  0  0  0  0  0  0  0  0  0
  148.2457  137.6158  157.2910 H   0  0  0  0  0  0  0  0  0  0  0  0
  147.3073  136.4907  158.5853 H   0  0  0  0  0  0  0  0  0  0  0  0
  148.0870  133.4821  159.1757 H   0  0  0  0  0  0  0  0  0  0  0  0
  146.9001  133.2342  163.2605 H   0  0  0  0  0  0  0  0  0  0  0  0
  148.7568  136.7260  155.0048 H   0  0  0  0  0  0  0  0  0  0  0  0
  149.1692  137.8612  153.7325 H   0  0  0  0  0  0  0  0  0  0  0  0
  148.2098  138.3884  155.1009 H   0  0  0  0  0  0  0  0  0  0  0  0
  151.1014  136.1229  155.1550 H   0  0  0  0  0  0  0  0  0  0  0  0
  152.3544  137.2592  155.5935 H   0  0  0  0  0  0  0  0  0  0  0  0
  151.6364  137.3296  153.9912 H   0  0  0  0  0  0  0  0  0  0  0  0
  1  2  1  0  0  0  0
  1 25  1  0  0  0  0
  1 26  1  0  0  0  0
  1 27  1  0  0  0  0
  2  3  1  0  0  0  0
  3 22  1  0  0  0  0
  3  4  1  0  0  0  0
  3  5  1  0  0  0  0
  4 28  1  0  0  0  0
  4 29  1  0  0  0  0
  4 30  1  0  0  0  0
  5  6  1  0  0  0  0
  5 31  1  0  0  0  0
  5 32  1  0  0  0  0
  6  7  1  0  0  0  0
  6 22  1  0  0  0  0
  6 33  1  0  0  0  0
  7  8  1  0  0  0  0
  7 34  1  0  0  0  0
  8  9  2  0  0  0  0
  8 10  1  0  0  0  0
 10 11  1  0  0  0  0
 10 35  1  0  0  0  0
 11 20  1  0  0  0  0
 11 12  2  0  0  0  0
 12 13  1  0  0  0  0
 12 36  1  0  0  0  0
 13 14  1  0  0  0  0
 13 18  2  0  0  0  0
 14 15  1  0  0  0  0
 14 16  1  0  0  0  0
 14 17  1  0  0  0  0
 18 19  1  0  0  0  0
 18 37  1  0  0  0  0
 19 20  1  0  0  0  0
 20 21  2  0  0  0  0
 22 23  1  0  0  0  0
 22 24  1  0  0  0  0
 23 38  1  0  0  0  0
 23 39  1  0  0  0  0
 23 40  1  0  0  0  0
 24 41  1  0  0  0  0
 24 42  1  0  0  0  0
 24 43  1  0  0  0  0
M  CHG  1  19  -1
M  END
> <s_m_source_file>
AV-unprocessed.smi

> <i_m_source_file_index>
697

> <i_lp_mmshare_version>
43012

> <i_f3d_flags>
0

> <s_epik_input>
W0NIM11PW0NAQF0xKFtDSDNdKVtDSDJdW0NASF0oQzEoW0NIM10pW0NIM10pW05IXUMoPU8pW05IXWMyW2NIXWMoQyhGKShGKUYpW2NIXVtuSF1jMj1P

> <s_epik_cmdline>
J2VwaWtfcHl0aG9uJywgJy1waCcsICc3LjAnLCAnLXRuJywgJzgnLCAnLW1hJywgJzIwMCcsICctbWV0YWxfYmluZGluZycsICctaW1hZScsICc8aW5maWxlLm1hZT4nLCAnLW9tYWUnLCAnPG91dGZpbGUubWFlPic=

> <r_lp_tautomer_probability>
1

> <r_epik_Ionization_Penalty>
3.20094

> <r_epik_Ionization_Penalty_Charging>
0.180017

> <r_epik_Ionization_Penalty_Neutral>
3.02092

> <r_epik_State_Penalty>
3.01726

> <r_epik_Charging_Adjusted_Penalty>
3.19727

> <i_epik_Tot_Q>
-1

> <i_epik_Tot_abs_Q>
1

> <r_epik_Metal_State_Penalty>
0.455096

> <b_epik_Metal_Only>
1

> <s_lp_Force_Field>
OPLS_2005

> <r_lp_Energy>
36.1164

> <b_lp_Chiralities_Consistent>
1

> <s_lp_Variant>
AV-unprocessed.smi:697-5

> <Gold.Version>
5.8.1

> <Gold.Id.Protein>
6NUR|6NUR_protein|mol2

> <Gold.PLP.Fitness>
43.2418

> <Gold.PLP.PLP>
-34.9672

> <Gold.PLP.part.hbond>
-4.0000

> <Gold.PLP.part.metal>
0.0000

> <Gold.PLP.part.buried>
-3.1074

> <Gold.PLP.part.nonpolar>
-28.4957

> <Gold.PLP.part.repulsive>
0.2824

> <Gold.PLP.ligand.clash>
0.0000

> <Gold.PLP.ligand.torsion>
1.6213

> <Gold.PLP.Chemscore.Hbond>
3.6960

> <Gold.PLP.Chemscore.CHOScore>
0.0000

> <Gold.PLP.Chemscore.Metal>
0.0000

> <Gold.Chemscore.Hbonds>
donor molecule, donor type, donor heavy atom, donor atom, acceptor molecule, acceptor atom, score
      P1  H  6896  6909       L1     9  0.91
      P1  H  6931  6943       L1    21  0.89
      P1  H  6934  6947       L1    21  0.91
      P1  H  7989  7998       L1     2  0.98

> <Gold.PLP.Chemscore.Internal.Correction>
0.4292

> <Gold.Rescore>
     Score         DG    S(hbond)    S(metal)    S(lipo)     H(rot)  DE(clash)    DE(int)     intcor
     18.82     -20.70       3.25        0.00      65.70       1.30       0.07       1.81       ----

> <Gold.Chemscore.Fitness>
18.8213

> <Gold.Chemscore.DG>
-20.7002

> <Gold.Chemscore.ZeroCoef>
-5.4800

> <Gold.Chemscore.Hbond>
3.2497

> <Gold.Chemscore.Metal>
0.0000

> <Gold.Chemscore.Lipo>
65.7016

> <Gold.Chemscore.Internal_Hbond>
0.0000

> <Gold.Chemscore.DEClash>
0.0650

> <Gold.Chemscore.DEInternal>
1.8139

> <Gold.Chemscore.Rot>
1.2973

> <Gold.Chemscore.Internal.Correction>
   9.000000E+99

> <Gold.Chemscore.Hbonds>
donor molecule, donor type, donor heavy atom, donor atom, acceptor molecule, acceptor atom, score
      P1  H  6896  6909       L1     9  0.79
      P1  H  6931  6943       L1    21  0.80
      P1  H  6934  6947       L1    21  0.89
      P1  H  7989  7998       L1     2  0.07

> <Gold.Chemscore.Hbond.Weighted>
-10.8541

> <Gold.Chemscore.Metal.Weighted>
-0.0000

> <Gold.Chemscore.Lipo.Weighted>
-7.6871

> <Gold.Chemscore.Internal_Hbond.Weighted>
0.0000

> <Gold.Chemscore.DEClash.Weighted>
0.0650

> <Gold.Chemscore.DEInternal.Weighted>
1.8139

> <Gold.Chemscore.Rot.Weighted>
3.3210

> <Gold.Chemscore.Internal.Correction.Weighted>
   9.000000E+99

> <Gold.Protein.RotatedTorsions>
[ 6907 6896 6895 6894 ] final   63.89 input  -60.11 | X-H torsion
[ 7974 7965 7964 7962 ] final   43.84 input  175.53 | X-H torsion
[ 8008 7997 7996 7995 ] final  106.45 input   59.86 | X-H torsion
[ 10167 10162 10161 10158 ] final  134.01 input  -65.29 | X-H torsion
[ 10718 10713 10712 10709 ] final   -3.30 input   66.30 | X-H torsion
[ 10763 10752 10751 10750 ] final -100.37 input  -60.55 | X-H torsion
[ 11005 11000 10999 10996 ] final   99.27 input  -57.11 | X-H torsion

> <Gold.Protein.ActiveResidues>
 VAL166  LYS551  ARG553  GLY616  TRP617  ASP618  TYR619  PRO620  LYS621  CYS622 
 ASP623  PHE694  ASN695  SER759  ASP760  ASP761  ALA762  ILE779  LEU786  VAL792 
 PHE793  MET794  SER795  GLU796  ALA797  LYS798  CYS799  TRP800  GLU811  SER814 

> <Gold.Protein.RotatedAtoms>
  152.4289  134.5816  159.9949 H   0  0  0  0  0  0  0  0  0  0  0  0  # atno 6907 bound_to 6896
  151.5945  133.3357  159.3042 H   0  0  0  0  0  0  0  0  0  0  0  0  # atno 6908 bound_to 6896
  150.8180  134.7409  159.6812 H   0  0  0  0  0  0  0  0  0  0  0  0  # atno 6909 bound_to 6896
  146.0621  139.5142  142.9652 H   0  0  0  0  0  0  0  0  0  0  0  0  # atno 7974 bound_to 7965
  156.1744  140.3112  155.9032 H   0  0  0  0  0  0  0  0  0  0  0  0  # atno 8008 bound_to 7997
  155.3519  140.0471  157.3063 H   0  0  0  0  0  0  0  0  0  0  0  0  # atno 8009 bound_to 7997
  154.5275  140.2219  155.8875 H   0  0  0  0  0  0  0  0  0  0  0  0  # atno 8010 bound_to 7997
  139.5273  144.6588  151.5078 H   0  0  0  0  0  0  0  0  0  0  0  0  # atno 10167 bound_to 10162
  156.7781  130.5322  149.5755 H   0  0  0  0  0  0  0  0  0  0  0  0  # atno 10718 bound_to 10713
  154.7574  135.4937  153.9399 H   0  0  0  0  0  0  0  0  0  0  0  0  # atno 10763 bound_to 10752
  153.1211  135.6732  153.9342 H   0  0  0  0  0  0  0  0  0  0  0  0  # atno 10764 bound_to 10752
  153.9073  135.3103  155.3427 H   0  0  0  0  0  0  0  0  0  0  0  0  # atno 10765 bound_to 10752
  139.8771  134.9088  156.4581 H   0  0  0  0  0  0  0  0  0  0  0  0  # atno 11005 bound_to 11000
  145.6542  141.0256  143.1744 LP  0  0  0  0  0  0  0  0  0  0  0  0  # atno 17320 bound_to 7965
  144.7181  139.8126  143.7391 LP  0  0  0  0  0  0  0  0  0  0  0  0  # atno 17321 bound_to 7965
  140.6426  143.8857  150.6707 LP  0  0  0  0  0  0  0  0  0  0  0  0  # atno 17342 bound_to 10162
  140.2197  143.3818  152.1653 LP  0  0  0  0  0  0  0  0  0  0  0  0  # atno 17343 bound_to 10162
  156.1235  130.6127  151.0229 LP  0  0  0  0  0  0  0  0  0  0  0  0  # atno 17370 bound_to 10713
  157.6659  131.0871  150.7729 LP  0  0  0  0  0  0  0  0  0  0  0  0  # atno 17371 bound_to 10713
  140.8883  133.7866  155.9544 LP  0  0  0  0  0  0  0  0  0  0  0  0  # atno 17394 bound_to 11000
  140.8780  134.2646  157.5158 LP  0  0  0  0  0  0  0  0  0  0  0  0  # atno 17395 bound_to 11000

$$$$
