AV-unprocessed.smi:2821|AV-procd|sdf|10856|dock4
  -GOLD-   2272015303D 1   1.00000     0.00000
 Structure written by MMmdl.
 36 37  0  0  0  0  0  0  0  0  1 V2000
  152.8526  138.9098  154.7065 C   0  0  0  0  0  0  0  0  0  0  0  0
  151.7880  137.8895  155.1159 C   0  0  0  0  0  0  0  0  0  0  0  0
  150.6314  138.0856  154.3083 O   0  0  0  0  0  0  0  0  0  0  0  0
  149.9789  139.2989  154.3846 C   0  0  0  0  0  0  0  0  0  0  0  0
  148.8082  139.5082  153.6250 C   0  0  0  0  0  0  0  0  0  0  0  0
  148.1321  140.6776  153.6610 N   0  0  0  0  0  0  0  0  0  0  0  0
  148.6322  141.6417  154.4651 C   0  0  0  0  0  0  0  0  0  0  0  0
  149.8003  141.4456  155.2345 C   0  0  0  0  0  0  0  0  0  0  0  0
  150.2689  142.4853  156.0511 N   0  0  0  0  0  0  0  0  0  0  0  0
  151.1568  142.2322  157.1828 C   0  0  2  0  0  0  0  0  0  0  0  0
  150.4963  141.2614  158.1777 C   0  0  0  0  0  0  0  0  0  0  0  0
  151.5354  143.5590  157.8678 C   0  0  2  0  0  0  0  0  0  0  0  0
  152.5044  143.4117  159.0432 C   0  0  0  0  0  0  0  0  0  0  0  0
  152.2132  144.6284  159.9084 C   0  0  0  0  0  0  0  0  0  0  0  0
  150.8840  145.1606  159.3674 C   0  0  0  0  0  0  0  0  0  0  0  0
  150.4066  144.1429  158.4998 O   0  0  0  0  0  0  0  0  0  0  0  0
  150.4750  140.2716  155.1900 N   0  0  0  0  0  0  0  0  0  0  0  0
  153.7540  138.7949  155.3088 H   0  0  0  0  0  0  0  0  0  0  0  0
  152.4894  139.9292  154.8389 H   0  0  0  0  0  0  0  0  0  0  0  0
  153.1314  138.7855  153.6599 H   0  0  0  0  0  0  0  0  0  0  0  0
  152.1793  136.8793  154.9837 H   0  0  0  0  0  0  0  0  0  0  0  0
  151.5420  138.0214  156.1710 H   0  0  0  0  0  0  0  0  0  0  0  0
  148.4128  138.7335  152.9849 H   0  0  0  0  0  0  0  0  0  0  0  0
  148.0917  142.5767  154.4951 H   0  0  0  0  0  0  0  0  0  0  0  0
  149.8369  143.3952  155.9797 H   0  0  0  0  0  0  0  0  0  0  0  0
  152.0773  141.7769  156.8152 H   0  0  0  0  0  0  0  0  0  0  0  0
  151.1604  141.0417  159.0139 H   0  0  0  0  0  0  0  0  0  0  0  0
  150.2489  140.3102  157.7058 H   0  0  0  0  0  0  0  0  0  0  0  0
  149.5755  141.6786  158.5866 H   0  0  0  0  0  0  0  0  0  0  0  0
  151.9358  144.2670  157.1391 H   0  0  0  0  0  0  0  0  0  0  0  0
  152.2789  142.5045  159.6056 H   0  0  0  0  0  0  0  0  0  0  0  0
  153.5460  143.3577  158.7255 H   0  0  0  0  0  0  0  0  0  0  0  0
  152.1362  144.3465  160.9590 H   0  0  0  0  0  0  0  0  0  0  0  0
  152.9955  145.3827  159.8190 H   0  0  0  0  0  0  0  0  0  0  0  0
  150.1637  145.3741  160.1575 H   0  0  0  0  0  0  0  0  0  0  0  0
  151.0417  146.0750  158.7936 H   0  0  0  0  0  0  0  0  0  0  0  0
  1  2  1  0  0  0  0
  1 18  1  0  0  0  0
  1 19  1  0  0  0  0
  1 20  1  0  0  0  0
  2  3  1  0  0  0  0
  2 21  1  0  0  0  0
  2 22  1  0  0  0  0
  3  4  1  0  0  0  0
  4 17  1  0  0  0  0
  4  5  2  0  0  0  0
  5  6  1  0  0  0  0
  5 23  1  0  0  0  0
  6  7  2  0  0  0  0
  7  8  1  0  0  0  0
  7 24  1  0  0  0  0
  8  9  1  0  0  0  0
  8 17  2  0  0  0  0
  9 10  1  0  0  0  0
  9 25  1  0  0  0  0
 10 11  1  0  0  0  0
 10 12  1  0  0  0  0
 10 26  1  0  0  0  0
 11 27  1  0  0  0  0
 11 28  1  0  0  0  0
 11 29  1  0  0  0  0
 12 16  1  0  0  0  0
 12 13  1  0  0  0  0
 12 30  1  0  0  0  0
 13 14  1  0  0  0  0
 13 31  1  0  0  0  0
 13 32  1  0  0  0  0
 14 15  1  0  0  0  0
 14 33  1  0  0  0  0
 14 34  1  0  0  0  0
 15 16  1  0  0  0  0
 15 35  1  0  0  0  0
 15 36  1  0  0  0  0
M  END
> <s_m_source_file>
AV-unprocessed.smi

> <i_m_source_file_index>
2821

> <i_lp_mmshare_version>
43012

> <i_f3d_flags>
0

> <s_epik_input>
W0NIM11bQ0gyXU9jMVtjSF1uW2NIXWMobjEpW05IXVtDQEhdKFtDSDNdKVtDQEBIXTJbQ0gyXVtDSDJdW0NIMl1PMg==

> <s_epik_cmdline>
J2VwaWtfcHl0aG9uJywgJy1waCcsICc3LjAnLCAnLXRuJywgJzgnLCAnLW1hJywgJzIwMCcsICctbWV0YWxfYmluZGluZycsICctaW1hZScsICc8aW5maWxlLm1hZT4nLCAnLW9tYWUnLCAnPG91dGZpbGUubWFlPic=

> <r_lp_tautomer_probability>
1

> <r_epik_Ionization_Penalty>
4.69533e-05

> <r_epik_Ionization_Penalty_Charging>
0

> <r_epik_Ionization_Penalty_Neutral>
4.69533e-05

> <r_epik_State_Penalty>
-0

> <r_epik_Charging_Adjusted_Penalty>
0

> <i_epik_Tot_Q>
0

> <i_epik_Tot_abs_Q>
0

> <r_epik_Metal_State_Penalty>
-0

> <b_epik_Metal_Only>
0

> <s_lp_Force_Field>
OPLS_2005

> <r_lp_Energy>
27.5992

> <b_lp_Chiralities_Consistent>
1

> <s_lp_Variant>
AV-unprocessed.smi:2821-1

> <Gold.Version>
5.8.1

> <Gold.Id.Protein>
6NUR|6NUR_protein|mol2

> <Gold.PLP.Fitness>
44.1174

> <Gold.PLP.PLP>
-36.7448

> <Gold.PLP.part.hbond>
-1.8171

> <Gold.PLP.part.metal>
0.0000

> <Gold.PLP.part.buried>
-2.9071

> <Gold.PLP.part.nonpolar>
-33.7796

> <Gold.PLP.part.repulsive>
1.5867

> <Gold.PLP.ligand.clash>
0.0000

> <Gold.PLP.ligand.torsion>
0.1277

> <Gold.PLP.Chemscore.Hbond>
1.1664

> <Gold.PLP.Chemscore.CHOScore>
1.3586

> <Gold.PLP.Chemscore.Metal>
0.0000

> <Gold.Chemscore.Hbonds>
donor molecule, donor type, donor heavy atom, donor atom, acceptor molecule, acceptor atom, score
      L1  H     9    25       P1  8028  1.00
      P1  H  7989  7998       L1    17  0.15
      L1  C     5    23       P1  7948  0.40
      L1  C     5    23       P1  7957  0.09
      L1  C     7    24       P1  8028  0.92

> <Gold.PLP.Chemscore.Internal.Correction>
0.0532

> <Gold.Rescore>
     Score         DG    S(hbond)    S(metal)    S(lipo)     H(rot)  DE(clash)    DE(int)     intcor
     14.25     -15.84       1.00        0.00      94.01       1.55       0.37       1.22       ----

> <Gold.Chemscore.Fitness>
14.2502

> <Gold.Chemscore.DG>
-15.8392

> <Gold.Chemscore.ZeroCoef>
-5.4800

> <Gold.Chemscore.Hbond>
0.9975

> <Gold.Chemscore.Metal>
0.0000

> <Gold.Chemscore.Lipo>
94.0100

> <Gold.Chemscore.Internal_Hbond>
0.0000

> <Gold.Chemscore.DEClash>
0.3694

> <Gold.Chemscore.DEInternal>
1.2196

> <Gold.Chemscore.Rot>
1.5514

> <Gold.Chemscore.Internal.Correction>
   9.000000E+99

> <Gold.Chemscore.Hbonds>
donor molecule, donor type, donor heavy atom, donor atom, acceptor molecule, acceptor atom, score
      L1  H     9    25       P1  8028  1.00

> <Gold.Chemscore.Hbond.Weighted>
-3.3315

> <Gold.Chemscore.Metal.Weighted>
-0.0000

> <Gold.Chemscore.Lipo.Weighted>
-10.9992

> <Gold.Chemscore.Internal_Hbond.Weighted>
0.0000

> <Gold.Chemscore.DEClash.Weighted>
0.3694

> <Gold.Chemscore.DEInternal.Weighted>
1.2196

> <Gold.Chemscore.Rot.Weighted>
3.9715

> <Gold.Chemscore.Internal.Correction.Weighted>
   9.000000E+99

> <Gold.Protein.RotatedTorsions>
[ 6907 6896 6895 6894 ] final -109.84 input  -60.11 | X-H torsion
[ 7974 7965 7964 7962 ] final   44.99 input  175.53 | X-H torsion
[ 8008 7997 7996 7995 ] final -174.61 input   59.86 | X-H torsion
[ 10167 10162 10161 10158 ] final  147.11 input  -65.29 | X-H torsion
[ 10718 10713 10712 10709 ] final  -86.93 input   66.30 | X-H torsion
[ 10763 10752 10751 10750 ] final  -11.44 input  -60.55 | X-H torsion
[ 11005 11000 10999 10996 ] final   40.32 input  -57.11 | X-H torsion

> <Gold.Protein.ActiveResidues>
 VAL166  LYS551  ARG553  GLY616  TRP617  ASP618  TYR619  PRO620  LYS621  CYS622 
 ASP623  PHE694  ASN695  SER759  ASP760  ASP761  ALA762  ILE779  LEU786  VAL792 
 PHE793  MET794  SER795  GLU796  ALA797  LYS798  CYS799  TRP800  GLU811  SER814 

> <Gold.Protein.RotatedAtoms>
  150.7587  133.9470  159.3473 H   0  0  0  0  0  0  0  0  0  0  0  0  # atno 6907 bound_to 6896
  151.7384  135.0857  160.0321 H   0  0  0  0  0  0  0  0  0  0  0  0  # atno 6908 bound_to 6896
  152.3544  133.6182  159.6004 H   0  0  0  0  0  0  0  0  0  0  0  0  # atno 6909 bound_to 6896
  146.0519  139.5013  142.9713 H   0  0  0  0  0  0  0  0  0  0  0  0  # atno 7974 bound_to 7965
  155.9723  140.1165  157.0801 H   0  0  0  0  0  0  0  0  0  0  0  0  # atno 8008 bound_to 7997
  154.4159  140.1161  156.5390 H   0  0  0  0  0  0  0  0  0  0  0  0  # atno 8009 bound_to 7997
  155.6581  140.3473  155.4774 H   0  0  0  0  0  0  0  0  0  0  0  0  # atno 8010 bound_to 7997
  139.4895  144.5779  151.6928 H   0  0  0  0  0  0  0  0  0  0  0  0  # atno 10167 bound_to 10162
  155.9987  130.4782  150.4790 H   0  0  0  0  0  0  0  0  0  0  0  0  # atno 10718 bound_to 10713
  153.4838  135.7017  153.5923 H   0  0  0  0  0  0  0  0  0  0  0  0  # atno 10763 bound_to 10752
  153.4125  135.3845  155.2059 H   0  0  0  0  0  0  0  0  0  0  0  0  # atno 10764 bound_to 10752
  154.8720  135.3908  154.4290 H   0  0  0  0  0  0  0  0  0  0  0  0  # atno 10765 bound_to 10752
  140.1942  134.3949  155.8130 H   0  0  0  0  0  0  0  0  0  0  0  0  # atno 11005 bound_to 11000
  145.6709  141.0216  143.1658 LP  0  0  0  0  0  0  0  0  0  0  0  0  # atno 17320 bound_to 7965
  144.7127  139.8310  143.7409 LP  0  0  0  0  0  0  0  0  0  0  0  0  # atno 17321 bound_to 7965
  140.5380  144.0625  150.6077 LP  0  0  0  0  0  0  0  0  0  0  0  0  # atno 17342 bound_to 10162
  140.3638  143.2893  152.0355 LP  0  0  0  0  0  0  0  0  0  0  0  0  # atno 17343 bound_to 10162
  157.2797  131.0604  151.2205 LP  0  0  0  0  0  0  0  0  0  0  0  0  # atno 17370 bound_to 10713
  157.3256  130.6959  149.6294 LP  0  0  0  0  0  0  0  0  0  0  0  0  # atno 17371 bound_to 10713
  141.2227  133.7061  156.8147 LP  0  0  0  0  0  0  0  0  0  0  0  0  # atno 17394 bound_to 11000
  140.2126  134.8816  157.3291 LP  0  0  0  0  0  0  0  0  0  0  0  0  # atno 17395 bound_to 11000

$$$$
