AV-unprocessed.smi:66|AV-procd|sdf|628|dock10
  -GOLD-   2262016523D 1   1.00000     0.00000
 Structure written by MMmdl.
 27 29  0  0  0  0  0  0  0  0  3 V2000
  151.1951  140.1898  155.1662 O   0  0  0  0  0  0  0  0  0  0  0  0
  152.0030  139.7257  156.0004 C   0  0  0  0  0  0  0  0  0  0  0  0
  153.1694  139.3508  155.7443 O   0  5  0  0  0  0  0  0  0  0  0  0
  151.5055  139.5976  157.4497 C   0  0  1  0  0  0  0  0  0  0  0  0
  151.5681  138.1494  157.9650 C   0  0  0  0  0  0  0  0  0  0  0  0
  152.8929  138.0915  158.7242 C   0  0  2  0  0  0  0  0  0  0  0  0
  152.9060  137.0821  159.7121 O   0  0  0  0  0  0  0  0  0  0  0  0
  153.0124  139.4947  159.3215 C   0  0  0  0  0  0  0  0  0  0  0  0
  152.3381  140.3726  158.3745 N   0  0  0  0  0  0  0  0  0  0  0  0
  152.0912  141.7428  158.6350 C   0  0  0  0  0  0  0  0  0  0  0  0
  151.5063  142.4668  157.6456 N   0  0  0  0  0  0  0  0  0  0  0  0
  151.2645  143.7627  157.8646 C   0  0  0  0  0  0  0  0  0  0  0  0
  151.5323  144.4526  158.9755 N   0  0  0  0  0  0  0  0  0  0  0  0
  152.1138  143.7549  159.9717 C   0  0  0  0  0  0  0  0  0  0  0  0
  152.5117  144.1121  161.1821 N   0  5  0  0  0  0  0  0  0  0  0  0
  153.0383  143.0115  161.7744 C   0  0  0  0  0  0  0  0  0  0  0  0
  153.0051  141.9137  160.9931 N   0  0  0  0  0  0  0  0  0  0  0  0
  152.4171  142.3965  159.8567 C   0  0  0  0  0  0  0  0  0  0  0  0
  150.4694  139.9365  157.4931 H   0  0  0  0  0  0  0  0  0  0  0  0
  150.7356  137.9798  158.6495 H   0  0  0  0  0  0  0  0  0  0  0  0
  151.5021  137.3977  157.1771 H   0  0  0  0  0  0  0  0  0  0  0  0
  153.7105  137.9184  158.0231 H   0  0  0  0  0  0  0  0  0  0  0  0
  153.7241  137.1384  160.1812 H   0  0  0  0  0  0  0  0  0  0  0  0
  152.5067  139.5557  160.2865 H   0  0  0  0  0  0  0  0  0  0  0  0
  154.0596  139.7670  159.4545 H   0  0  0  0  0  0  0  0  0  0  0  0
  150.7998  144.3092  157.0573 H   0  0  0  0  0  0  0  0  0  0  0  0
  153.4326  143.0782  162.7810 H   0  0  0  0  0  0  0  0  0  0  0  0
  1  2  2  0  0  0  0
  2  3  1  0  0  0  0
  2  4  1  0  0  0  0
  4  5  1  0  0  0  0
  4 19  1  0  0  0  0
  4  9  1  0  0  0  0
  5  6  1  0  0  0  0
  5 20  1  0  0  0  0
  5 21  1  0  0  0  0
  6  7  1  0  0  0  0
  6  8  1  0  0  0  0
  6 22  1  0  0  0  0
  7 23  1  0  0  0  0
  8 24  1  0  0  0  0
  8 25  1  0  0  0  0
  8  9  1  0  0  0  0
  9 10  1  0  0  0  0
 10 11  1  0  0  0  0
 10 18  2  0  0  0  0
 11 12  2  0  0  0  0
 12 26  1  0  0  0  0
 12 13  1  0  0  0  0
 13 14  2  0  0  0  0
 14 15  1  0  0  0  0
 14 18  1  0  0  0  0
 15 16  1  0  0  0  0
 16 17  2  0  0  0  0
 16 27  1  0  0  0  0
 17 18  1  0  0  0  0
M  CHG  1   3  -1
M  CHG  1  15  -1
M  END
> <s_m_source_file>
AV-unprocessed.smi

> <i_m_source_file_index>
66

> <i_lp_mmshare_version>
43012

> <i_f3d_flags>
0

> <s_epik_input>
Tz1DKFtPSF0pW0NAQEhdMVtDSDJdW0NAQEhdKFtPSF0pW0NIMl1OMWMobltjSF1uMiljKGMyMylbbkhdW2NIXW4z

> <s_epik_cmdline>
J2VwaWtfcHl0aG9uJywgJy1waCcsICc3LjAnLCAnLXRuJywgJzgnLCAnLW1hJywgJzIwMCcsICctbWV0YWxfYmluZGluZycsICctaW1hZScsICc8aW5maWxlLm1hZT4nLCAnLW9tYWUnLCAnPG91dGZpbGUubWFlPic=

> <r_lp_tautomer_probability>
0.955585

> <r_epik_Ionization_Penalty>
7.65809

> <r_epik_Ionization_Penalty_Charging>
3.4974

> <r_epik_Ionization_Penalty_Neutral>
4.16069

> <r_epik_State_Penalty>
3.51624

> <r_epik_Charging_Adjusted_Penalty>
7.01364

> <i_epik_Tot_Q>
-2

> <i_epik_Tot_abs_Q>
2

> <r_epik_Metal_State_Penalty>
0.522662

> <b_epik_Metal_Only>
1

> <s_lp_Force_Field>
OPLS_2005

> <r_lp_Energy>
43.3227

> <b_lp_Chiralities_Consistent>
1

> <s_lp_Variant>
AV-unprocessed.smi:66-12

> <Gold.Version>
5.8.1

> <Gold.Id.Protein>
6NUR|6NUR_protein|mol2

> <Gold.PLP.Fitness>
47.2519

> <Gold.PLP.PLP>
-32.4501

> <Gold.PLP.part.hbond>
-2.9593

> <Gold.PLP.part.metal>
0.0000

> <Gold.PLP.part.buried>
-6.3015

> <Gold.PLP.part.nonpolar>
-23.6631

> <Gold.PLP.part.repulsive>
0.3156

> <Gold.PLP.ligand.clash>
0.0000

> <Gold.PLP.ligand.torsion>
0.1757

> <Gold.PLP.Chemscore.Hbond>
4.0000

> <Gold.PLP.Chemscore.CHOScore>
1.0000

> <Gold.PLP.Chemscore.Metal>
0.0000

> <Gold.Chemscore.Hbonds>
donor molecule, donor type, donor heavy atom, donor atom, acceptor molecule, acceptor atom, score
      P1  H  6896  6907       L1     7  0.42
      P1  H  7989  7998       L1     1  1.00
      P1  H  7997  8009       L1     3  1.82
      L1  C    12    26       P1  8028  1.00

> <Gold.PLP.Chemscore.Internal.Correction>
0.1532

> <Gold.Rescore>
     Score         DG    S(hbond)    S(metal)    S(lipo)     H(rot)  DE(clash)    DE(int)     intcor
     12.11     -13.54       2.79        0.00      28.09       1.78       0.05       1.38       ----

> <Gold.Chemscore.Fitness>
12.1106

> <Gold.Chemscore.DG>
-13.5382

> <Gold.Chemscore.ZeroCoef>
-5.4800

> <Gold.Chemscore.Hbond>
2.7893

> <Gold.Chemscore.Metal>
0.0000

> <Gold.Chemscore.Lipo>
28.0929

> <Gold.Chemscore.Internal_Hbond>
0.0000

> <Gold.Chemscore.DEClash>
0.0515

> <Gold.Chemscore.DEInternal>
1.3760

> <Gold.Chemscore.Rot>
1.7754

> <Gold.Chemscore.Internal.Correction>
   9.000000E+99

> <Gold.Chemscore.Hbonds>
donor molecule, donor type, donor heavy atom, donor atom, acceptor molecule, acceptor atom, score
      P1  H  6896  6907       L1     7  0.38
      P1  H  7989  7998       L1     1  0.98
      P1  H  7997  8009       L1     3  0.87

> <Gold.Chemscore.Hbond.Weighted>
-9.3164

> <Gold.Chemscore.Metal.Weighted>
-0.0000

> <Gold.Chemscore.Lipo.Weighted>
-3.2869

> <Gold.Chemscore.Internal_Hbond.Weighted>
0.0000

> <Gold.Chemscore.DEClash.Weighted>
0.0515

> <Gold.Chemscore.DEInternal.Weighted>
1.3760

> <Gold.Chemscore.Rot.Weighted>
4.5451

> <Gold.Chemscore.Internal.Correction.Weighted>
   9.000000E+99

> <Gold.Protein.RotatedTorsions>
[ 6907 6896 6895 6894 ] final   11.42 input  -60.11 | X-H torsion
[ 7974 7965 7964 7962 ] final   34.70 input  175.53 | X-H torsion
[ 8008 7997 7996 7995 ] final -143.97 input   59.86 | X-H torsion
[ 10167 10162 10161 10158 ] final  159.40 input  -65.29 | X-H torsion
[ 10718 10713 10712 10709 ] final  142.26 input   66.30 | X-H torsion
[ 10763 10752 10751 10750 ] final  116.94 input  -60.55 | X-H torsion
[ 11005 11000 10999 10996 ] final   61.53 input  -57.11 | X-H torsion

> <Gold.Protein.ActiveResidues>
 VAL166  LYS551  ARG553  GLY616  TRP617  ASP618  TYR619  PRO620  LYS621  CYS622 
 ASP623  PHE694  ASN695  SER759  ASP760  ASP761  ALA762  ILE779  LEU786  VAL792 
 PHE793  MET794  SER795  GLU796  ALA797  LYS798  CYS799  TRP800  GLU811  SER814 

> <Gold.Protein.RotatedAtoms>
  151.7541  135.0826  160.0335 H   0  0  0  0  0  0  0  0  0  0  0  0  # atno 6907 bound_to 6896
  152.3397  133.6048  159.5876 H   0  0  0  0  0  0  0  0  0  0  0  0  # atno 6908 bound_to 6896
  150.7472  133.9657  159.3571 H   0  0  0  0  0  0  0  0  0  0  0  0  # atno 6909 bound_to 6896
  146.1334  139.6235  142.9211 H   0  0  0  0  0  0  0  0  0  0  0  0  # atno 7974 bound_to 7965
  155.5192  140.0590  157.2910 H   0  0  0  0  0  0  0  0  0  0  0  0  # atno 8008 bound_to 7997
  154.4524  140.1955  156.0427 H   0  0  0  0  0  0  0  0  0  0  0  0  # atno 8009 bound_to 7997
  156.0730  140.3257  155.7604 H   0  0  0  0  0  0  0  0  0  0  0  0  # atno 8010 bound_to 7997
  139.4832  144.4733  151.8546 H   0  0  0  0  0  0  0  0  0  0  0  0  # atno 10167 bound_to 10162
  157.3826  131.0994  151.0724 H   0  0  0  0  0  0  0  0  0  0  0  0  # atno 10718 bound_to 10713
  153.5448  135.3551  155.2734 H   0  0  0  0  0  0  0  0  0  0  0  0  # atno 10763 bound_to 10752
  154.8713  135.4099  154.3003 H   0  0  0  0  0  0  0  0  0  0  0  0  # atno 10764 bound_to 10752
  153.3718  135.7064  153.6700 H   0  0  0  0  0  0  0  0  0  0  0  0  # atno 10765 bound_to 10752
  140.0155  134.6231  155.9716 H   0  0  0  0  0  0  0  0  0  0  0  0  # atno 11005 bound_to 11000
  145.5209  141.0432  143.2436 LP  0  0  0  0  0  0  0  0  0  0  0  0  # atno 17320 bound_to 7965
  144.7714  139.6725  143.7193 LP  0  0  0  0  0  0  0  0  0  0  0  0  # atno 17321 bound_to 7965
  140.4203  144.2251  150.5887 LP  0  0  0  0  0  0  0  0  0  0  0  0  # atno 17342 bound_to 10162
  140.4880  143.2357  151.8860 LP  0  0  0  0  0  0  0  0  0  0  0  0  # atno 17343 bound_to 10162
  157.1787  130.6300  149.5664 LP  0  0  0  0  0  0  0  0  0  0  0  0  # atno 17370 bound_to 10713
  155.9779  130.4761  150.6623 LP  0  0  0  0  0  0  0  0  0  0  0  0  # atno 17371 bound_to 10713
  141.1740  133.6539  156.4757 LP  0  0  0  0  0  0  0  0  0  0  0  0  # atno 17394 bound_to 11000
  140.4479  134.6956  157.5025 LP  0  0  0  0  0  0  0  0  0  0  0  0  # atno 17395 bound_to 11000

$$$$
