AV-unprocessed.smi:1983|AV-procd|sdf|8034|dock8
  -GOLD-   2272010233D 1   1.00000     0.00000
 Structure written by MMmdl.
 50 51  0  0  0  0  0  0  0  0  2 V2000
  146.6873  134.9590  155.1205 C   0  0  0  0  0  0  0  0  0  0  0  0
  146.0871  135.8906  154.0533 C   0  0  2  0  0  0  0  0  0  0  0  0
  145.4887  135.1131  152.8680 C   0  0  0  0  0  0  0  0  0  0  0  0
  146.5149  134.5689  152.0658 O   0  0  0  0  0  0  0  0  0  0  0  0
  147.1040  136.8139  153.5567 N   0  0  0  0  0  0  0  0  0  0  0  0
  147.0978  138.1422  153.7364 C   0  0  0  0  0  0  0  0  0  0  0  0
  146.2354  138.7511  154.3700 O   0  0  0  0  0  0  0  0  0  0  0  0
  148.1449  138.7314  153.1422 N   0  0  0  0  0  0  0  0  0  0  0  0
  148.3960  140.1680  153.1445 C   0  0  0  0  0  0  0  0  0  0  0  0
  149.1311  140.6450  154.3855 C   0  0  0  0  0  0  0  0  0  0  0  0
  150.3130  140.0045  154.8170 C   0  0  0  0  0  0  0  0  0  0  0  0
  150.9737  140.4725  155.9715 C   0  0  0  0  0  0  0  0  0  0  0  0
  150.4389  141.5757  156.6776 C   0  0  0  0  0  0  0  0  0  0  0  0
  151.0183  142.1119  157.8354 N   0  0  0  0  0  0  0  0  0  0  0  0
  152.1618  141.3401  158.3016 C   0  0  0  0  0  0  0  0  0  0  0  0
  152.6599  141.8917  159.6517 C   0  0  1  0  0  0  0  0  0  0  0  0
  153.9365  141.1889  160.1258 C   0  0  0  0  0  0  0  0  0  0  0  0
  152.9397  143.2835  159.5138 O   0  0  0  0  0  0  0  0  0  0  0  0
  151.7918  144.0416  159.1384 C   0  0  1  0  0  0  0  0  0  0  0  0
  152.1795  145.5236  159.1044 C   0  0  0  0  0  0  0  0  0  0  0  0
  151.2934  143.5413  157.7702 C   0  0  0  0  0  0  0  0  0  0  0  0
  149.2985  142.1511  156.2351 N   0  3  0  0  0  0  0  0  0  0  0  0
  148.6385  141.7357  155.1324 C   0  0  0  0  0  0  0  0  0  0  0  0
  145.9334  134.2774  155.5156 H   0  0  0  0  0  0  0  0  0  0  0  0
  147.0847  135.5260  155.9629 H   0  0  0  0  0  0  0  0  0  0  0  0
  147.4987  134.3561  154.7117 H   0  0  0  0  0  0  0  0  0  0  0  0
  145.2863  136.4766  154.5094 H   0  0  0  0  0  0  0  0  0  0  0  0
  144.8750  134.2854  153.2260 H   0  0  0  0  0  0  0  0  0  0  0  0
  144.8459  135.7519  152.2612 H   0  0  0  0  0  0  0  0  0  0  0  0
  147.2864  135.1066  152.1581 H   0  0  0  0  0  0  0  0  0  0  0  0
  147.8602  136.4098  153.0235 H   0  0  0  0  0  0  0  0  0  0  0  0
  148.8004  138.1510  152.6392 H   0  0  0  0  0  0  0  0  0  0  0  0
  148.9987  140.4112  152.2692 H   0  0  0  0  0  0  0  0  0  0  0  0
  147.4548  140.7091  153.0298 H   0  0  0  0  0  0  0  0  0  0  0  0
  150.7102  139.1623  154.2691 H   0  0  0  0  0  0  0  0  0  0  0  0
  151.8750  139.9816  156.3079 H   0  0  0  0  0  0  0  0  0  0  0  0
  151.8817  140.2909  158.4058 H   0  0  0  0  0  0  0  0  0  0  0  0
  152.9591  141.3896  157.5584 H   0  0  0  0  0  0  0  0  0  0  0  0
  151.8871  141.7576  160.4107 H   0  0  0  0  0  0  0  0  0  0  0  0
  153.7703  140.1197  160.2591 H   0  0  0  0  0  0  0  0  0  0  0  0
  154.2728  141.5937  161.0806 H   0  0  0  0  0  0  0  0  0  0  0  0
  154.7467  141.3152  159.4073 H   0  0  0  0  0  0  0  0  0  0  0  0
  151.0108  143.9047  159.8886 H   0  0  0  0  0  0  0  0  0  0  0  0
  151.3273  146.1460  158.8298 H   0  0  0  0  0  0  0  0  0  0  0  0
  152.9755  145.7074  158.3822 H   0  0  0  0  0  0  0  0  0  0  0  0
  152.5323  145.8563  160.0810 H   0  0  0  0  0  0  0  0  0  0  0  0
  152.0475  143.7429  157.0084 H   0  0  0  0  0  0  0  0  0  0  0  0
  150.3874  144.0756  157.4811 H   0  0  0  0  0  0  0  0  0  0  0  0
  147.7396  142.2824  154.8866 H   0  0  0  0  0  0  0  0  0  0  0  0
  148.9197  142.9419  156.7569 H   0  0  0  0  0  0  0  0  0  0  0  0
  1  2  1  0  0  0  0
  1 24  1  0  0  0  0
  1 25  1  0  0  0  0
  1 26  1  0  0  0  0
  2  3  1  0  0  0  0
  2  5  1  0  0  0  0
  2 27  1  0  0  0  0
  3  4  1  0  0  0  0
  3 28  1  0  0  0  0
  3 29  1  0  0  0  0
  4 30  1  0  0  0  0
  5  6  1  0  0  0  0
  5 31  1  0  0  0  0
  6  7  2  0  0  0  0
  6  8  1  0  0  0  0
  8  9  1  0  0  0  0
  8 32  1  0  0  0  0
  9 10  1  0  0  0  0
  9 33  1  0  0  0  0
  9 34  1  0  0  0  0
 10 23  1  0  0  0  0
 10 11  2  0  0  0  0
 11 12  1  0  0  0  0
 11 35  1  0  0  0  0
 12 13  2  0  0  0  0
 12 36  1  0  0  0  0
 13 14  1  0  0  0  0
 13 22  1  0  0  0  0
 14 21  1  0  0  0  0
 14 15  1  0  0  0  0
 15 16  1  0  0  0  0
 15 37  1  0  0  0  0
 15 38  1  0  0  0  0
 16 17  1  0  0  0  0
 16 18  1  0  0  0  0
 16 39  1  0  0  0  0
 17 40  1  0  0  0  0
 17 41  1  0  0  0  0
 17 42  1  0  0  0  0
 18 19  1  0  0  0  0
 19 20  1  0  0  0  0
 19 21  1  0  0  0  0
 19 43  1  0  0  0  0
 20 44  1  0  0  0  0
 20 45  1  0  0  0  0
 20 46  1  0  0  0  0
 21 47  1  0  0  0  0
 21 48  1  0  0  0  0
 22 23  2  0  0  0  0
 22 50  1  0  0  0  0
 23 49  1  0  0  0  0
M  CHG  1  22   1
M  END
> <s_m_source_file>
AV-unprocessed.smi

> <i_m_source_file_index>
1983

> <i_lp_mmshare_version>
43012

> <i_f3d_flags>
0

> <s_epik_input>
W09IXVtDSDJdW0NAQEhdKFtDSDNdKVtOSF1DKD1PKVtOSF1bQ0gyXWMxW2NIXVtjSF1jKG5bY0hdMSlOMltDSDJdW0NAQEhdKFtDSDNdKU9bQ0BASF0oW0NIM10pW0NIMl0y

> <s_epik_cmdline>
J2VwaWtfcHl0aG9uJywgJy1waCcsICc3LjAnLCAnLXRuJywgJzgnLCAnLW1hJywgJzIwMCcsICctbWV0YWxfYmluZGluZycsICctaW1hZScsICc8aW5maWxlLm1hZT4nLCAnLW9tYWUnLCAnPG91dGZpbGUubWFlPic=

> <r_lp_tautomer_probability>
0.999994

> <r_epik_Ionization_Penalty>
2.55677

> <r_epik_Ionization_Penalty_Charging>
2.55673

> <r_epik_Ionization_Penalty_Neutral>
3.71772e-05

> <r_epik_State_Penalty>
2.72571

> <r_epik_Charging_Adjusted_Penalty>
5.28244

> <i_epik_Tot_Q>
1

> <i_epik_Tot_abs_Q>
1

> <r_epik_Metal_State_Penalty>
2.73364

> <b_epik_Metal_Only>
0

> <s_lp_Force_Field>
OPLS_2005

> <r_lp_Energy>
19.4893

> <b_lp_Chiralities_Consistent>
1

> <s_lp_Variant>
AV-unprocessed.smi:1983-7

> <Gold.Version>
5.8.1

> <Gold.Id.Protein>
6NUR|6NUR_protein|mol2

> <Gold.PLP.Fitness>
48.5713

> <Gold.PLP.PLP>
-39.0823

> <Gold.PLP.part.hbond>
-5.0000

> <Gold.PLP.part.metal>
0.0000

> <Gold.PLP.part.buried>
2.0312

> <Gold.PLP.part.nonpolar>
-35.7692

> <Gold.PLP.part.repulsive>
0.2745

> <Gold.PLP.ligand.clash>
0.0000

> <Gold.PLP.ligand.torsion>
0.4057

> <Gold.PLP.Chemscore.Hbond>
3.3840

> <Gold.PLP.Chemscore.CHOScore>
0.0000

> <Gold.PLP.Chemscore.Metal>
0.0000

> <Gold.Chemscore.Hbonds>
donor molecule, donor type, donor heavy atom, donor atom, acceptor molecule, acceptor atom, score
      L1  H     4    30       P1  7948  1.00
      L1  H     5    31       P1  7948  1.00
      L1  H     8    32       P1  7948  0.80
      L1  H    22    50       P1  8028  0.50

> <Gold.PLP.Chemscore.Internal.Correction>
0.1483

> <Gold.Rescore>
     Score         DG    S(hbond)    S(metal)    S(lipo)     H(rot)  DE(clash)    DE(int)     intcor
     18.89     -21.61       3.15        0.00     106.20       2.66       2.18       0.54       ----

> <Gold.Chemscore.Fitness>
18.8893

> <Gold.Chemscore.DG>
-21.6069

> <Gold.Chemscore.ZeroCoef>
-5.4800

> <Gold.Chemscore.Hbond>
3.1498

> <Gold.Chemscore.Metal>
0.0000

> <Gold.Chemscore.Lipo>
106.2022

> <Gold.Chemscore.Internal_Hbond>
0.0000

> <Gold.Chemscore.DEClash>
2.1825

> <Gold.Chemscore.DEInternal>
0.5351

> <Gold.Chemscore.Rot>
2.6637

> <Gold.Chemscore.Internal.Correction>
   9.000000E+99

> <Gold.Chemscore.Hbonds>
donor molecule, donor type, donor heavy atom, donor atom, acceptor molecule, acceptor atom, score
      L1  H     4    30       P1  7948  0.95
      L1  H     5    31       P1  7948  0.98
      L1  H     8    32       P1  7948  0.74
      L1  H    22    50       P1  8028  0.22

> <Gold.Chemscore.Hbond.Weighted>
-10.5203

> <Gold.Chemscore.Metal.Weighted>
-0.0000

> <Gold.Chemscore.Lipo.Weighted>
-12.4257

> <Gold.Chemscore.Internal_Hbond.Weighted>
0.0000

> <Gold.Chemscore.DEClash.Weighted>
2.1825

> <Gold.Chemscore.DEInternal.Weighted>
0.5351

> <Gold.Chemscore.Rot.Weighted>
6.8191

> <Gold.Chemscore.Internal.Correction.Weighted>
   9.000000E+99

> <Gold.Protein.RotatedTorsions>
[ 6907 6896 6895 6894 ] final -148.87 input  -60.11 | X-H torsion
[ 7974 7965 7964 7962 ] final -161.08 input  175.53 | X-H torsion
[ 8008 7997 7996 7995 ] final   38.95 input   59.86 | X-H torsion
[ 10167 10162 10161 10158 ] final -113.42 input  -65.29 | X-H torsion
[ 10718 10713 10712 10709 ] final   67.49 input   66.30 | X-H torsion
[ 10763 10752 10751 10750 ] final -108.72 input  -60.55 | X-H torsion
[ 11005 11000 10999 10996 ] final   96.38 input  -57.11 | X-H torsion

> <Gold.Protein.ActiveResidues>
 VAL166  LYS551  ARG553  GLY616  TRP617  ASP618  TYR619  PRO620  LYS621  CYS622 
 ASP623  PHE694  ASN695  SER759  ASP760  ASP761  ALA762  ILE779  LEU786  VAL792 
 PHE793  MET794  SER795  GLU796  ALA797  LYS798  CYS799  TRP800  GLU811  SER814 

> <Gold.Protein.RotatedAtoms>
  151.1760  133.4754  159.2593 H   0  0  0  0  0  0  0  0  0  0  0  0  # atno 6907 bound_to 6896
  151.1307  135.0129  159.8591 H   0  0  0  0  0  0  0  0  0  0  0  0  # atno 6908 bound_to 6896
  152.5460  134.1663  159.8631 H   0  0  0  0  0  0  0  0  0  0  0  0  # atno 6909 bound_to 6896
  144.7403  140.3449  143.6127 H   0  0  0  0  0  0  0  0  0  0  0  0  # atno 7974 bound_to 7965
  155.2285  140.3336  155.4306 H   0  0  0  0  0  0  0  0  0  0  0  0  # atno 8008 bound_to 7997
  156.2304  140.1848  156.7302 H   0  0  0  0  0  0  0  0  0  0  0  0  # atno 8009 bound_to 7997
  154.5969  140.0629  156.9301 H   0  0  0  0  0  0  0  0  0  0  0  0  # atno 8010 bound_to 7997
  140.1121  143.4518  152.1746 H   0  0  0  0  0  0  0  0  0  0  0  0  # atno 10167 bound_to 10162
  157.6233  130.9323  150.0249 H   0  0  0  0  0  0  0  0  0  0  0  0  # atno 10718 bound_to 10713
  154.8152  135.4627  154.0623 H   0  0  0  0  0  0  0  0  0  0  0  0  # atno 10763 bound_to 10752
  153.2022  135.6870  153.8224 H   0  0  0  0  0  0  0  0  0  0  0  0  # atno 10764 bound_to 10752
  153.7705  135.3271  155.3328 H   0  0  0  0  0  0  0  0  0  0  0  0  # atno 10765 bound_to 10752
  139.8782  134.8948  156.4150 H   0  0  0  0  0  0  0  0  0  0  0  0  # atno 11005 bound_to 11000
  145.7336  139.1743  143.2416 LP  0  0  0  0  0  0  0  0  0  0  0  0  # atno 17320 bound_to 7965
  146.1187  140.7336  142.9468 LP  0  0  0  0  0  0  0  0  0  0  0  0  # atno 17321 bound_to 7965
  139.5614  144.7408  151.4145 LP  0  0  0  0  0  0  0  0  0  0  0  0  # atno 17342 bound_to 10162
  140.6920  143.7839  150.7269 LP  0  0  0  0  0  0  0  0  0  0  0  0  # atno 17343 bound_to 10162
  156.1391  130.3642  149.9611 LP  0  0  0  0  0  0  0  0  0  0  0  0  # atno 17370 bound_to 10713
  156.7656  130.9167  151.3643 LP  0  0  0  0  0  0  0  0  0  0  0  0  # atno 17371 bound_to 10713
  140.9174  133.7669  155.9864 LP  0  0  0  0  0  0  0  0  0  0  0  0  # atno 17394 bound_to 11000
  140.8478  134.2989  157.5287 LP  0  0  0  0  0  0  0  0  0  0  0  0  # atno 17395 bound_to 11000

$$$$
