AV-unprocessed.smi:72|AV-procd|sdf|746|dock8
  -GOLD-   2262017 83D 1   1.00000     0.00000
 Structure written by MMmdl.
 29 30  0  0  0  0  0  0  0  0  1 V2000
  153.1202  140.4177  158.7388 N   0  0  0  0  0  0  0  0  0  0  0  0
  152.1646  140.3565  157.7464 C   0  0  0  0  0  0  0  0  0  0  0  0
  150.8862  140.8229  158.0827 N   0  0  0  0  0  0  0  0  0  0  0  0
  149.9842  140.7587  157.1551 C   0  0  0  0  0  0  0  0  0  0  0  0
  150.2910  140.2292  155.8386 N   0  0  0  0  0  0  0  0  0  0  0  0
  149.2327  140.1568  154.7562 C   0  0  1  0  0  0  0  0  0  0  0  0
  148.1064  139.5084  155.2686 O   0  0  0  0  0  0  0  0  0  0  0  0
  146.9317  140.1853  154.8379 C   0  0  1  0  0  0  0  0  0  0  0  0
  145.7379  139.8503  155.7494 C   0  0  0  0  0  0  0  0  0  0  0  0
  144.5836  140.5398  155.3191 O   0  0  0  0  0  0  0  0  0  0  0  0
  147.3578  141.6585  154.7548 C   0  0  1  0  0  0  0  0  0  0  0  0
  147.2828  142.2853  156.0246 O   0  0  0  0  0  0  0  0  0  0  0  0
  148.7902  141.5447  154.2416 C   0  0  1  0  0  0  0  0  0  0  0  0
  149.6098  142.6373  154.6197 O   0  0  0  0  0  0  0  0  0  0  0  0
  151.6144  139.7884  155.5610 C   0  0  0  0  0  0  0  0  0  0  0  0
  151.9070  139.3622  154.4437 O   0  0  0  0  0  0  0  0  0  0  0  0
  152.5489  139.8723  156.6002 N   0  0  0  0  0  0  0  0  0  0  0  0
  149.6420  139.5303  153.9627 H   0  0  0  0  0  0  0  0  0  0  0  0
  146.7180  139.8291  153.8281 H   0  0  0  0  0  0  0  0  0  0  0  0
  146.7282  142.2206  154.0640 H   0  0  0  0  0  0  0  0  0  0  0  0
  148.7734  141.4895  153.1524 H   0  0  0  0  0  0  0  0  0  0  0  0
  154.0736  140.1110  158.6120 H   0  0  0  0  0  0  0  0  0  0  0  0
  152.9373  140.7743  159.6654 H   0  0  0  0  0  0  0  0  0  0  0  0
  148.9559  141.0931  157.2983 H   0  0  0  0  0  0  0  0  0  0  0  0
  145.5320  138.7804  155.7089 H   0  0  0  0  0  0  0  0  0  0  0  0
  145.9457  140.0921  156.7920 H   0  0  0  0  0  0  0  0  0  0  0  0
  144.5619  140.5286  154.3743 H   0  0  0  0  0  0  0  0  0  0  0  0
  147.8651  143.0298  156.0234 H   0  0  0  0  0  0  0  0  0  0  0  0
  149.0710  143.2653  155.0767 H   0  0  0  0  0  0  0  0  0  0  0  0
  1  2  1  0  0  0  0
  1 22  1  0  0  0  0
  1 23  1  0  0  0  0
  2 17  2  0  0  0  0
  2  3  1  0  0  0  0
  3  4  2  0  0  0  0
  4  5  1  0  0  0  0
  4 24  1  0  0  0  0
  5  6  1  0  0  0  0
  5 15  1  0  0  0  0
  6 18  1  0  0  0  0
  6 13  1  0  0  0  0
  6  7  1  0  0  0  0
  7  8  1  0  0  0  0
  8 19  1  0  0  0  0
  8  9  1  0  0  0  0
  8 11  1  0  0  0  0
  9 10  1  0  0  0  0
  9 25  1  0  0  0  0
  9 26  1  0  0  0  0
 10 27  1  0  0  0  0
 11 20  1  0  0  0  0
 11 12  1  0  0  0  0
 11 13  1  0  0  0  0
 12 28  1  0  0  0  0
 13 21  1  0  0  0  0
 13 14  1  0  0  0  0
 14 29  1  0  0  0  0
 15 16  2  0  0  0  0
 15 17  1  0  0  0  0
M  END
> <s_m_source_file>
AV-unprocessed.smi

> <i_m_source_file_index>
72

> <i_lp_mmshare_version>
43012

> <i_f3d_flags>
0

> <s_epik_input>
W05IMl1jMW5bY0hdbihjKD1PKW4xKVtDQEBIXTJPW0NASF0oW0NIMl1bT0hdKVtDQEBIXShbT0hdKVtDQEhdMltPSF0=

> <s_epik_cmdline>
J2VwaWtfcHl0aG9uJywgJy1waCcsICc3LjAnLCAnLXRuJywgJzgnLCAnLW1hJywgJzIwMCcsICctbWV0YWxfYmluZGluZycsICctaW1hZScsICc8aW5maWxlLm1hZT4nLCAnLW9tYWUnLCAnPG91dGZpbGUubWFlPic=

> <r_lp_tautomer_probability>
4.77166e-05

> <r_epik_Ionization_Penalty>
1.3546

> <r_epik_Ionization_Penalty_Charging>
1.46833e-10

> <r_epik_Ionization_Penalty_Neutral>
1.3546

> <r_epik_State_Penalty>
3.51908

> <r_epik_Charging_Adjusted_Penalty>
3.51908

> <i_epik_Tot_Q>
0

> <i_epik_Tot_abs_Q>
0

> <r_epik_Metal_State_Penalty>
3.44088

> <b_epik_Metal_Only>
1

> <s_epik_Chemistry_Notes>
This compound contains an acetal/aminal-like group ( X-CH(R)-Y where X, Y are N, S, or O) that may be acid/base labile, releasing an aldehyde.

> <s_lp_Force_Field>
OPLS_2005

> <r_lp_Energy>
35.7585

> <b_lp_Chiralities_Consistent>
1

> <s_lp_Variant>
AV-unprocessed.smi:72-84

> <Gold.Version>
5.8.1

> <Gold.Id.Protein>
6NUR|6NUR_protein|mol2

> <Gold.PLP.Fitness>
35.0384

> <Gold.PLP.PLP>
-20.4702

> <Gold.PLP.part.hbond>
-6.2058

> <Gold.PLP.part.metal>
0.0000

> <Gold.PLP.part.buried>
0.9383

> <Gold.PLP.part.nonpolar>
-14.7550

> <Gold.PLP.part.repulsive>
0.1931

> <Gold.PLP.ligand.clash>
0.0000

> <Gold.PLP.ligand.torsion>
0.1450

> <Gold.PLP.Chemscore.Hbond>
4.9520

> <Gold.PLP.Chemscore.CHOScore>
0.0000

> <Gold.PLP.Chemscore.Metal>
0.0000

> <Gold.Chemscore.Hbonds>
donor molecule, donor type, donor heavy atom, donor atom, acceptor molecule, acceptor atom, score
      L1  H    10    27       P1 10175  0.88
      L1  H    12    28       P1  8028  1.00
      L1  H    14    29       P1  8028  0.98
      P1  H  7989  7998       L1    16  0.93
      P1  H  7997  8008       L1    17  1.00

> <Gold.PLP.Chemscore.Internal.Correction>
0.0023

> <Gold.Rescore>
     Score         DG    S(hbond)    S(metal)    S(lipo)     H(rot)  DE(clash)    DE(int)     intcor
      8.73     -10.73       4.06        0.00      17.78       4.06       1.51       0.49       ----

> <Gold.Chemscore.Fitness>
8.7294

> <Gold.Chemscore.DG>
-10.7265

> <Gold.Chemscore.ZeroCoef>
-5.4800

> <Gold.Chemscore.Hbond>
4.0598

> <Gold.Chemscore.Metal>
0.0000

> <Gold.Chemscore.Lipo>
17.7803

> <Gold.Chemscore.Internal_Hbond>
0.0000

> <Gold.Chemscore.DEClash>
1.5066

> <Gold.Chemscore.DEInternal>
0.4905

> <Gold.Chemscore.Rot>
4.0600

> <Gold.Chemscore.Internal.Correction>
   9.000000E+99

> <Gold.Chemscore.Hbonds>
donor molecule, donor type, donor heavy atom, donor atom, acceptor molecule, acceptor atom, score
      L1  H    10    27       P1 10175  0.84
      L1  H    12    28       P1  8028  0.39
      L1  H    14    29       P1  8028  0.90
      P1  H  7989  7998       L1    16  0.23
      P1  H  7997  8008       L1    17  0.65

> <Gold.Chemscore.Hbond.Weighted>
-13.5598

> <Gold.Chemscore.Metal.Weighted>
-0.0000

> <Gold.Chemscore.Lipo.Weighted>
-2.0803

> <Gold.Chemscore.Internal_Hbond.Weighted>
0.0000

> <Gold.Chemscore.DEClash.Weighted>
1.5066

> <Gold.Chemscore.DEInternal.Weighted>
0.4905

> <Gold.Chemscore.Rot.Weighted>
10.3936

> <Gold.Chemscore.Internal.Correction.Weighted>
   9.000000E+99

> <Gold.Protein.RotatedTorsions>
[ 6907 6896 6895 6894 ] final  -47.71 input  -60.11 | X-H torsion
[ 7974 7965 7964 7962 ] final -177.02 input  175.53 | X-H torsion
[ 8008 7997 7996 7995 ] final  -49.02 input   59.86 | X-H torsion
[ 10167 10162 10161 10158 ] final -169.08 input  -65.29 | X-H torsion
[ 10718 10713 10712 10709 ] final -142.56 input   66.30 | X-H torsion
[ 10763 10752 10751 10750 ] final  -49.30 input  -60.55 | X-H torsion
[ 11005 11000 10999 10996 ] final  -41.44 input  -57.11 | X-H torsion

> <Gold.Protein.ActiveResidues>
 VAL166  LYS551  ARG553  GLY616  TRP617  ASP618  TYR619  PRO620  LYS621  CYS622 
 ASP623  PHE694  ASN695  SER759  ASP760  ASP761  ALA762  ILE779  LEU786  VAL792 
 PHE793  MET794  SER795  GLU796  ALA797  LYS798  CYS799  TRP800  GLU811  SER814 

> <Gold.Protein.RotatedAtoms>
  150.8980  134.8390  159.7339 H   0  0  0  0  0  0  0  0  0  0  0  0  # atno 6907 bound_to 6896
  152.4876  134.4546  159.9595 H   0  0  0  0  0  0  0  0  0  0  0  0  # atno 6908 bound_to 6896
  151.4601  133.3556  159.2843 H   0  0  0  0  0  0  0  0  0  0  0  0  # atno 6909 bound_to 6896
  144.7127  140.1082  143.6412 H   0  0  0  0  0  0  0  0  0  0  0  0  # atno 7974 bound_to 7965
  154.4037  140.1307  156.4435 H   0  0  0  0  0  0  0  0  0  0  0  0  # atno 8008 bound_to 7997
  155.7436  140.3489  155.5096 H   0  0  0  0  0  0  0  0  0  0  0  0  # atno 8009 bound_to 7997
  155.9016  140.1020  157.1336 H   0  0  0  0  0  0  0  0  0  0  0  0  # atno 8010 bound_to 7997
  139.5945  144.1142  152.1673 H   0  0  0  0  0  0  0  0  0  0  0  0  # atno 10167 bound_to 10162
  156.3474  130.7670  151.1817 H   0  0  0  0  0  0  0  0  0  0  0  0  # atno 10718 bound_to 10713
  154.0919  135.6576  153.4854 H   0  0  0  0  0  0  0  0  0  0  0  0  # atno 10763 bound_to 10752
  153.0319  135.5204  154.7372 H   0  0  0  0  0  0  0  0  0  0  0  0  # atno 10764 bound_to 10752
  154.6498  135.2999  154.9970 H   0  0  0  0  0  0  0  0  0  0  0  0  # atno 10765 bound_to 10752
  141.0246  133.6847  156.2458 H   0  0  0  0  0  0  0  0  0  0  0  0  # atno 11005 bound_to 11000
  145.9478  139.2713  143.1230 LP  0  0  0  0  0  0  0  0  0  0  0  0  # atno 17320 bound_to 7965
  145.9355  140.9017  143.0334 LP  0  0  0  0  0  0  0  0  0  0  0  0  # atno 17321 bound_to 7965
  140.0724  144.5768  150.7182 LP  0  0  0  0  0  0  0  0  0  0  0  0  # atno 17342 bound_to 10162
  140.7200  143.2580  151.4308 LP  0  0  0  0  0  0  0  0  0  0  0  0  # atno 17343 bound_to 10162
  157.7456  131.0437  150.4758 LP  0  0  0  0  0  0  0  0  0  0  0  0  # atno 17370 bound_to 10713
  156.4947  130.4103  149.6386 LP  0  0  0  0  0  0  0  0  0  0  0  0  # atno 17371 bound_to 10713
  140.6514  134.5063  157.5577 LP  0  0  0  0  0  0  0  0  0  0  0  0  # atno 17394 bound_to 11000
  139.9168  134.8231  156.1341 LP  0  0  0  0  0  0  0  0  0  0  0  0  # atno 17395 bound_to 11000

$$$$
