#       Name:                AV-unprocessed.smi:2826
#       Creating user name   scv26
#       Creation time:       Fri Mar 27 15:34:01 2020


#       File generated by GOLD software.
#

@<TRIPOS>MOLECULE
AV-unprocessed.smi:2826
    57    58     1
SMALL
NO_CHARGES


@<TRIPOS>ATOM
      1 ****        -6.6365   4.0233   0.3350 C.3            1 S1                 0.0000
      2 ****        -5.3775   4.6737   0.2017 O.3            1 S1                 0.0000
      3 ****        -4.2797   3.9112  -0.1402 C.ar           1 S1                 0.0000
      4 ****        -3.0296   4.5468  -0.2648 C.ar           1 S1                 0.0000
      5 ****        -1.9050   3.7735  -0.6081 C.ar           1 S1                 0.0000
      6 ****        -2.0610   2.3809  -0.8092 C.ar           1 S1                 0.0000
      7 ****        -0.9872   1.5224  -1.1766 N.am           1 S1                 0.0000
      8 ****         0.3231   1.6717  -0.9186 C.2            1 S1                 0.0000
      9 ****         0.8240   2.6094  -0.2981 O.2            1 S1                 0.0000
     10 ****         1.0325   0.6443  -1.4063 N.am           1 S1                 0.0000
     11 ****         2.4796   0.4780  -1.2768 C.3            1 S1                 0.0000
     12 ****         3.0116  -0.4650  -2.3672 C.3            1 S1                 0.0000
     13 ****         2.6291  -1.9271  -2.0802 C.3            1 S1                 0.0000
     14 ****         3.0811  -2.3029  -0.7840 O.3            1 S1                 0.0000
     15 ****         2.4749  -1.5529   0.2659 C.3            1 S1                 0.0000
     16 ****         2.9441  -2.1277   1.6153 C.3            1 S1                 0.0000
     17 ****         2.5555  -3.6018   1.8630 C.3            1 S1                 0.0000
     18 ****         1.0351  -3.8019   1.9831 C.3            1 S1                 0.0000
     19 ****         3.2651  -4.1437   3.1134 C.3            1 S1                 0.0000
     20 ****         2.8672  -0.0692   0.1099 C.3            1 S1                 0.0000
     21 ****        -3.3629   1.8397  -0.6783 C.ar           1 S1                 0.0000
     22 ****        -3.6315   0.3609  -0.8968 C.3            1 S1                 0.0000
     23 ****        -4.4431   2.5816  -0.3481 N.ar           1 S1                 0.0000
     24 ****        -7.3926   4.7557   0.6169 H              1 S1                 0.0000
     25 ****        -6.6109   3.2583   1.1124 H              1 S1                 0.0000
     26 ****        -6.9513   3.5685  -0.6053 H              1 S1                 0.0000
     27 ****        -2.9346   5.6104  -0.1030 H              1 S1                 0.0000
     28 ****        -0.9511   4.2645  -0.7243 H              1 S1                 0.0000
     29 ****        -1.2572   0.6556  -1.6181 H              1 S1                 0.0000
     30 ****         0.5357  -0.0837  -1.8985 H              1 S1                 0.0000
     31 ****         2.9456   1.4552  -1.4159 H              1 S1                 0.0000
     32 ****         2.6488  -0.1617  -3.3501 H              1 S1                 0.0000
     33 ****         4.0990  -0.3877  -2.4058 H              1 S1                 0.0000
     34 ****         1.5509  -2.0748  -2.1586 H              1 S1                 0.0000
     35 ****         3.0916  -2.5844  -2.8165 H              1 S1                 0.0000
     36 ****         1.3905  -1.6411   0.1951 H              1 S1                 0.0000
     37 ****         4.0295  -2.0324   1.6699 H              1 S1                 0.0000
     38 ****         2.5495  -1.5134   2.4259 H              1 S1                 0.0000
     39 ****         2.9038  -4.1950   1.0168 H              1 S1                 0.0000
     40 ****         0.6160  -3.1889   2.7814 H              1 S1                 0.0000
     41 ****         0.7944  -4.8423   2.2038 H              1 S1                 0.0000
     42 ****         0.5193  -3.5467   1.0580 H              1 S1                 0.0000
     43 ****         2.9635  -3.5980   4.0081 H              1 S1                 0.0000
     44 ****         4.3481  -4.0582   3.0205 H              1 S1                 0.0000
     45 ****         3.0337  -5.1973   3.2725 H              1 S1                 0.0000
     46 ****         3.9459   0.0296   0.2385 H              1 S1                 0.0000
     47 ****         2.4131   0.5294   0.9005 H              1 S1                 0.0000
     48 ****        -3.0411  -0.2387  -0.2035 H              1 S1                 0.0000
     49 ****        -3.3667   0.0738  -1.9146 H              1 S1                 0.0000
     50 ****        -4.6831   0.1164  -0.7425 H              1 S1                 0.0000
     51 ****        -5.1744   5.1081   1.0793 LP             1 S1                 0.0000
     52 ****        -5.4805   5.3765  -0.5021 LP             1 S1                 0.0000
     53 ****         0.2422   3.3399   0.0596 LP             1 S1                 0.0000
     54 ****         1.8127   2.6407  -0.1516 LP             1 S1                 0.0000
     55 ****         4.0707  -2.1657  -0.7411 LP             1 S1                 0.0000
     56 ****         2.8724  -3.2707  -0.6436 LP             1 S1                 0.0000
     57 ****        -5.3447   2.1584  -0.2589 LP             1 S1                 0.0000
@<TRIPOS>BOND
    1    1    2 1     
    2    1   24 1     
    3    1   25 1     
    4    1   26 1     
    5    2    3 1     
    6    3   23 ar    
    7    3    4 ar    
    8    4    5 ar    
    9    4   27 1     
   10    5    6 ar    
   11    5   28 1     
   12    6    7 1     
   13    6   21 ar    
   14    7    8 am    
   15    7   29 1     
   16    8    9 2     
   17    8   10 am    
   18   10   11 1     
   19   10   30 1     
   20   11   20 1     
   21   11   12 1     
   22   11   31 1     
   23   12   13 1     
   24   12   32 1     
   25   12   33 1     
   26   13   14 1     
   27   13   34 1     
   28   13   35 1     
   29   14   15 1     
   30   15   16 1     
   31   15   20 1     
   32   15   36 1     
   33   16   17 1     
   34   16   37 1     
   35   16   38 1     
   36   17   18 1     
   37   17   19 1     
   38   17   39 1     
   39   18   40 1     
   40   18   41 1     
   41   18   42 1     
   42   19   43 1     
   43   19   44 1     
   44   19   45 1     
   45   20   46 1     
   46   20   47 1     
   47   21   22 1     
   48   21   23 ar    
   49   22   48 1     
   50   22   49 1     
   51   22   50 1     
   52    2   51 1     
   53    2   52 1     
   54    9   53 1     
   55    9   54 1     
   56   14   55 1     
   57   14   56 1     
   58   23   57 1     
@<TRIPOS>SUBSTRUCTURE
      1 S1             1
@<TRIPOS>SET
LONE_PAIRS      STATIC     ATOMS    <user>   **** ""
7 51 52 53 54 55 56 57
DONOR_HYDROGENS      STATIC     ATOMS    <user>   **** ""
2 29 30
ATOM$BLUE        STATIC     ATOMS    COLORGROUP SYSTEM
7 51 52 53 54 55 56 57
ATOM$RED        STATIC     ATOMS    COLORGROUP SYSTEM
2 29 30
