AV-unprocessed.smi:522|AV-procd|sdf|2801|dock8
  -GOLD-   2262023273D 1   1.00000     0.00000
 Structure written by MMmdl.
 41 42  0  0  0  0  0  0  0  0  1 V2000
  149.4705  139.4019  154.4897 C   0  0  0  0  0  0  0  0  0  0  0  0
  150.4811  140.3415  154.8111 O   0  0  0  0  0  0  0  0  0  0  0  0
  150.1442  141.1224  155.9466 C   0  0  0  0  0  0  0  0  0  0  0  0
  149.8132  140.2119  157.1367 C   0  0  0  0  0  0  0  0  0  0  0  0
  150.9265  140.1048  158.0684 N   0  0  0  0  0  0  0  0  0  0  0  0
  151.5669  138.9859  158.4897 C   0  0  0  0  0  0  0  0  0  0  0  0
  151.1044  137.3785  157.9165 S   0  0  0  0  0  0  0  0  0  0  0  0
  149.4636  137.2267  158.6882 C   0  0  0  0  0  0  0  0  0  0  0  0
  149.0788  135.7610  158.9023 C   0  0  0  0  0  0  0  0  0  0  0  0
  149.4223  134.9504  158.0411 O   0  0  0  0  0  0  0  0  0  0  0  0
  148.3157  135.4198  160.1346 C   0  0  0  0  0  0  0  0  0  0  0  0
  148.0670  136.4021  161.1419 C   0  0  0  0  0  0  0  0  0  0  0  0
  147.8638  137.1851  161.9703 N   0  0  0  0  0  0  0  0  0  0  0  0
  147.8198  134.1734  160.3588 C   0  0  0  0  0  0  0  0  0  0  0  0
  147.0415  133.8298  161.6199 C   0  0  0  0  0  0  0  0  0  0  0  0
  147.9474  133.0877  159.5080 N   0  0  0  0  0  0  0  0  0  0  0  0
  152.5684  139.1874  159.3481 N   0  0  0  0  0  0  0  0  0  0  0  0
  152.5631  140.5578  159.5131 C   0  0  0  0  0  0  0  0  0  0  0  0
  153.3804  141.3911  160.3098 C   0  0  0  0  0  0  0  0  0  0  0  0
  153.1833  142.7875  160.3166 C   0  0  0  0  0  0  0  0  0  0  0  0
  152.1698  143.3694  159.5276 C   0  0  0  0  0  0  0  0  0  0  0  0
  151.3453  142.5566  158.7260 C   0  0  0  0  0  0  0  0  0  0  0  0
  151.5458  141.1633  158.7242 C   0  0  0  0  0  0  0  0  0  0  0  0
  149.7595  138.8351  153.6064 H   0  0  0  0  0  0  0  0  0  0  0  0
  148.5242  139.8984  154.2727 H   0  0  0  0  0  0  0  0  0  0  0  0
  149.3168  138.6946  155.3058 H   0  0  0  0  0  0  0  0  0  0  0  0
  150.9762  141.7781  156.2072 H   0  0  0  0  0  0  0  0  0  0  0  0
  149.2880  141.7596  155.7189 H   0  0  0  0  0  0  0  0  0  0  0  0
  148.9271  140.5725  157.6582 H   0  0  0  0  0  0  0  0  0  0  0  0
  149.5668  139.2117  156.7794 H   0  0  0  0  0  0  0  0  0  0  0  0
  149.4785  137.7378  159.6509 H   0  0  0  0  0  0  0  0  0  0  0  0
  148.7126  137.7292  158.0788 H   0  0  0  0  0  0  0  0  0  0  0  0
  147.6572  133.9974  162.5042 H   0  0  0  0  0  0  0  0  0  0  0  0
  146.7203  132.7871  161.6321 H   0  0  0  0  0  0  0  0  0  0  0  0
  146.1499  134.4530  161.6991 H   0  0  0  0  0  0  0  0  0  0  0  0
  148.4377  133.1513  158.6273 H   0  0  0  0  0  0  0  0  0  0  0  0
  147.5416  132.1890  159.7313 H   0  0  0  0  0  0  0  0  0  0  0  0
  154.1598  140.9552  160.9171 H   0  0  0  0  0  0  0  0  0  0  0  0
  153.8130  143.4152  160.9299 H   0  0  0  0  0  0  0  0  0  0  0  0
  152.0258  144.4399  159.5387 H   0  0  0  0  0  0  0  0  0  0  0  0
  150.5676  142.9985  158.1209 H   0  0  0  0  0  0  0  0  0  0  0  0
  1  2  1  0  0  0  0
  1 24  1  0  0  0  0
  1 25  1  0  0  0  0
  1 26  1  0  0  0  0
  2  3  1  0  0  0  0
  3  4  1  0  0  0  0
  3 27  1  0  0  0  0
  3 28  1  0  0  0  0
  4  5  1  0  0  0  0
  4 29  1  0  0  0  0
  4 30  1  0  0  0  0
  5 23  1  0  0  0  0
  5  6  1  0  0  0  0
  6  7  1  0  0  0  0
  6 17  2  0  0  0  0
  7  8  1  0  0  0  0
  8  9  1  0  0  0  0
  8 31  1  0  0  0  0
  8 32  1  0  0  0  0
  9 10  2  0  0  0  0
  9 11  1  0  0  0  0
 11 12  1  0  0  0  0
 11 14  2  0  0  0  0
 12 13  3  0  0  0  0
 14 15  1  0  0  0  0
 14 16  1  0  0  0  0
 15 33  1  0  0  0  0
 15 34  1  0  0  0  0
 15 35  1  0  0  0  0
 16 36  1  0  0  0  0
 16 37  1  0  0  0  0
 17 18  1  0  0  0  0
 18 23  2  0  0  0  0
 18 19  1  0  0  0  0
 19 20  2  0  0  0  0
 19 38  1  0  0  0  0
 20 21  1  0  0  0  0
 20 39  1  0  0  0  0
 21 22  2  0  0  0  0
 21 40  1  0  0  0  0
 22 23  1  0  0  0  0
 22 41  1  0  0  0  0
M  END
> <s_m_source_file>
AV-unprocessed.smi

> <i_m_source_file_index>
522

> <i_lp_mmshare_version>
43012

> <i_f3d_flags>
0

> <s_epik_input>
W2NIXTFbY0hdW2NIXVtjSF1jKGMxMiluKFtDSDJdW0NIMl1PW0NIM10pYyhuMilTW0NIMl1DKD1PKS9DKEMjTik9QygvW0NIM10pW05IMl0=

> <s_epik_cmdline>
J2VwaWtfcHl0aG9uJywgJy1waCcsICc3LjAnLCAnLXRuJywgJzgnLCAnLW1hJywgJzIwMCcsICctbWV0YWxfYmluZGluZycsICctaW1hZScsICc8aW5maWxlLm1hZT4nLCAnLW9tYWUnLCAnPG91dGZpbGUubWFlPic=

> <r_lp_tautomer_probability>
0.5

> <r_epik_Ionization_Penalty>
0.0129021

> <r_epik_Ionization_Penalty_Charging>
0

> <r_epik_Ionization_Penalty_Neutral>
0.0129021

> <r_epik_State_Penalty>
0.42069

> <r_epik_Charging_Adjusted_Penalty>
0.42069

> <i_epik_Tot_Q>
0

> <i_epik_Tot_abs_Q>
0

> <r_epik_Metal_State_Penalty>
0.41068

> <b_epik_Metal_Only>
0

> <s_lp_Force_Field>
OPLS_2005

> <r_lp_Energy>
14.5632

> <b_lp_Chiralities_Consistent>
1

> <s_lp_Variant>
AV-unprocessed.smi:522-1

> <Gold.Version>
5.8.1

> <Gold.Id.Protein>
6NUR|6NUR_protein|mol2

> <Gold.PLP.Fitness>
50.5536

> <Gold.PLP.PLP>
-42.1085

> <Gold.PLP.part.hbond>
-4.0000

> <Gold.PLP.part.metal>
0.0000

> <Gold.PLP.part.buried>
-4.2752

> <Gold.PLP.part.nonpolar>
-34.1489

> <Gold.PLP.part.repulsive>
0.1372

> <Gold.PLP.ligand.clash>
0.0000

> <Gold.PLP.ligand.torsion>
0.8482

> <Gold.PLP.Chemscore.Hbond>
3.3568

> <Gold.PLP.Chemscore.CHOScore>
0.0000

> <Gold.PLP.Chemscore.Metal>
0.0000

> <Gold.Chemscore.Hbonds>
donor molecule, donor type, donor heavy atom, donor atom, acceptor molecule, acceptor atom, score
      P1  H  6896  6909       L1    10  0.47
      P1  H  6931  6943       L1    13  1.00
      P1  H  6934  6947       L1    13  0.33
      P1  H  7989  7998       L1     2  1.00

> <Gold.PLP.Chemscore.Internal.Correction>
0.0711

> <Gold.Rescore>
     Score         DG    S(hbond)    S(metal)    S(lipo)     H(rot)  DE(clash)    DE(int)     intcor
     18.23     -19.31       2.63        0.00      94.11       2.33       0.08       1.00       ----

> <Gold.Chemscore.Fitness>
18.2309

> <Gold.Chemscore.DG>
-19.3071

> <Gold.Chemscore.ZeroCoef>
-5.4800

> <Gold.Chemscore.Hbond>
2.6276

> <Gold.Chemscore.Metal>
0.0000

> <Gold.Chemscore.Lipo>
94.1093

> <Gold.Chemscore.Internal_Hbond>
0.0000

> <Gold.Chemscore.DEClash>
0.0784

> <Gold.Chemscore.DEInternal>
0.9978

> <Gold.Chemscore.Rot>
2.3280

> <Gold.Chemscore.Internal.Correction>
   9.000000E+99

> <Gold.Chemscore.Hbonds>
donor molecule, donor type, donor heavy atom, donor atom, acceptor molecule, acceptor atom, score
      P1  H  6896  6909       L1    10  0.06
      P1  H  6931  6943       L1    13  0.62
      P1  H  6934  6947       L1    13  0.20
      P1  H  7989  7998       L1     2  0.95

> <Gold.Chemscore.Hbond.Weighted>
-8.7761

> <Gold.Chemscore.Metal.Weighted>
-0.0000

> <Gold.Chemscore.Lipo.Weighted>
-11.0108

> <Gold.Chemscore.Internal_Hbond.Weighted>
0.0000

> <Gold.Chemscore.DEClash.Weighted>
0.0784

> <Gold.Chemscore.DEInternal.Weighted>
0.9978

> <Gold.Chemscore.Rot.Weighted>
5.9598

> <Gold.Chemscore.Internal.Correction.Weighted>
   9.000000E+99

> <Gold.Protein.RotatedTorsions>
[ 6907 6896 6895 6894 ] final    5.03 input  -60.11 | X-H torsion
[ 7974 7965 7964 7962 ] final    1.31 input  175.53 | X-H torsion
[ 8008 7997 7996 7995 ] final   11.36 input   59.86 | X-H torsion
[ 10167 10162 10161 10158 ] final   94.72 input  -65.29 | X-H torsion
[ 10718 10713 10712 10709 ] final   82.20 input   66.30 | X-H torsion
[ 10763 10752 10751 10750 ] final -120.34 input  -60.55 | X-H torsion
[ 11005 11000 10999 10996 ] final  -59.64 input  -57.11 | X-H torsion

> <Gold.Protein.ActiveResidues>
 VAL166  LYS551  ARG553  GLY616  TRP617  ASP618  TYR619  PRO620  LYS621  CYS622 
 ASP623  PHE694  ASN695  SER759  ASP760  ASP761  ALA762  ILE779  LEU786  VAL792 
 PHE793  MET794  SER795  GLU796  ALA797  LYS798  CYS799  TRP800  GLU811  SER814 

> <Gold.Protein.RotatedAtoms>
  151.6509  135.1001  160.0160 H   0  0  0  0  0  0  0  0  0  0  0  0  # atno 6907 bound_to 6896
  152.4001  133.6801  159.6318 H   0  0  0  0  0  0  0  0  0  0  0  0  # atno 6908 bound_to 6896
  150.7902  133.8722  159.3303 H   0  0  0  0  0  0  0  0  0  0  0  0  # atno 6909 bound_to 6896
  146.2439  140.1007  142.8348 H   0  0  0  0  0  0  0  0  0  0  0  0  # atno 7974 bound_to 7965
  154.8059  140.2860  155.5888 H   0  0  0  0  0  0  0  0  0  0  0  0  # atno 8008 bound_to 7997
  156.2982  140.2577  156.2866 H   0  0  0  0  0  0  0  0  0  0  0  0  # atno 8009 bound_to 7997
  154.9504  140.0379  157.2130 H   0  0  0  0  0  0  0  0  0  0  0  0  # atno 8010 bound_to 7997
  139.8057  144.6795  150.9706 H   0  0  0  0  0  0  0  0  0  0  0  0  # atno 10167 bound_to 10162
  157.6851  131.0037  150.2340 H   0  0  0  0  0  0  0  0  0  0  0  0  # atno 10718 bound_to 10713
  154.8642  135.4206  154.2444 H   0  0  0  0  0  0  0  0  0  0  0  0  # atno 10763 bound_to 10752
  153.3403  135.6993  153.6878 H   0  0  0  0  0  0  0  0  0  0  0  0  # atno 10764 bound_to 10752
  153.5859  135.3564  155.2865 H   0  0  0  0  0  0  0  0  0  0  0  0  # atno 10765 bound_to 10752
  141.1256  133.6617  156.5102 H   0  0  0  0  0  0  0  0  0  0  0  0  # atno 11005 bound_to 11000
  145.0571  140.9061  143.4961 LP  0  0  0  0  0  0  0  0  0  0  0  0  # atno 17320 bound_to 7965
  145.1115  139.2754  143.5635 LP  0  0  0  0  0  0  0  0  0  0  0  0  # atno 17321 bound_to 7965
  140.7819  143.4236  151.0803 LP  0  0  0  0  0  0  0  0  0  0  0  0  # atno 17342 bound_to 10162
  139.7906  143.8225  152.3151 LP  0  0  0  0  0  0  0  0  0  0  0  0  # atno 17343 bound_to 10162
  156.2967  130.3753  149.7789 LP  0  0  0  0  0  0  0  0  0  0  0  0  # atno 17370 bound_to 10713
  156.5432  130.8309  151.3276 LP  0  0  0  0  0  0  0  0  0  0  0  0  # atno 17371 bound_to 10713
  140.4375  134.7046  157.4974 LP  0  0  0  0  0  0  0  0  0  0  0  0  # atno 17394 bound_to 11000
  140.0252  134.6488  155.9183 LP  0  0  0  0  0  0  0  0  0  0  0  0  # atno 17395 bound_to 11000

$$$$
