AV-unprocessed.smi:224|AV-procd|sdf|1718|dock9
  -GOLD-   2262020193D 1   1.00000     0.00000
 Structure written by MMmdl.
 56 59  0  0  0  0  0  0  0  0  2 V2000
  144.7829  131.6532  151.1843 C   0  0  0  0  0  0  0  0  0  0  0  0
  145.8968  132.3580  151.9728 C   0  0  1  0  0  0  0  0  0  0  0  0
  146.8746  132.7996  151.0550 O   0  0  0  0  0  0  0  0  0  0  0  0
  145.3920  133.5794  152.7694 C   0  0  0  0  0  0  0  0  0  0  0  0
  145.2730  133.3110  154.2319 N   0  3  1  0  0  0  0  0  0  0  0  0
  146.4289  132.5100  154.7286 C   0  0  0  0  0  0  0  0  0  0  0  0
  146.3187  132.1921  156.2285 C   0  0  0  0  0  0  0  0  0  0  0  0
  146.1029  133.4057  157.0068 N   0  0  0  0  0  0  0  0  0  0  0  0
  147.1722  134.1131  157.4611 C   0  0  0  0  0  0  0  0  0  0  0  0
  147.1711  134.5997  158.7309 N   0  0  0  0  0  0  0  0  0  0  0  0
  148.2158  135.2921  159.1935 C   0  0  0  0  0  0  0  0  0  0  0  0
  149.3456  135.6154  158.5634 N   0  0  0  0  0  0  0  0  0  0  0  0
  149.3506  135.1448  157.2839 C   0  0  0  0  0  0  0  0  0  0  0  0
  148.3175  134.3888  156.6599 C   0  0  0  0  0  0  0  0  0  0  0  0
  148.6762  134.0956  155.3492 N   0  0  0  0  0  0  0  0  0  0  0  0
  149.8538  134.6406  155.2092 C   0  0  0  0  0  0  0  0  0  0  0  0
  150.3309  135.2993  156.3194 N   0  0  0  0  0  0  0  0  0  0  0  0
  151.5992  136.0031  156.4337 C   0  0  0  0  0  0  0  0  0  0  0  0
  151.6724  137.2765  155.5591 C   0  0  1  0  0  0  0  0  0  0  0  0
  151.5451  136.9050  154.1970 O   0  0  0  0  0  0  0  0  0  0  0  0
  150.6041  138.3180  155.8783 C   0  0  0  0  0  0  0  0  0  0  0  0
  151.2996  139.6286  155.5392 C   0  0  0  0  0  0  0  0  0  0  0  0
  152.6190  139.4106  156.0096 O   0  0  0  0  0  0  0  0  0  0  0  0
  152.9874  138.0634  155.7288 C   0  0  0  0  0  0  0  0  0  0  0  0
  144.9455  134.1745  156.5680 C   0  0  0  0  0  0  0  0  0  0  0  0
  145.0261  134.5327  155.0661 C   0  0  2  0  0  0  0  0  0  0  0  0
  143.7276  135.2727  154.6829 C   0  0  0  0  0  0  0  0  0  0  0  0
  144.0187  131.2534  151.8512 H   0  0  0  0  0  0  0  0  0  0  0  0
  145.1797  130.8174  150.6068 H   0  0  0  0  0  0  0  0  0  0  0  0
  144.2930  132.3355  150.4887 H   0  0  0  0  0  0  0  0  0  0  0  0
  146.3876  131.6392  152.6273 H   0  0  0  0  0  0  0  0  0  0  0  0
  147.4893  132.0980  150.9015 H   0  0  0  0  0  0  0  0  0  0  0  0
  146.0524  134.4350  152.6170 H   0  0  0  0  0  0  0  0  0  0  0  0
  144.4377  133.8671  152.3359 H   0  0  0  0  0  0  0  0  0  0  0  0
  146.5061  131.5688  154.1870 H   0  0  0  0  0  0  0  0  0  0  0  0
  147.3522  133.0560  154.5314 H   0  0  0  0  0  0  0  0  0  0  0  0
  145.4732  131.5250  156.3997 H   0  0  0  0  0  0  0  0  0  0  0  0
  147.2019  131.6548  156.5773 H   0  0  0  0  0  0  0  0  0  0  0  0
  148.1350  135.6371  160.2138 H   0  0  0  0  0  0  0  0  0  0  0  0
  150.4069  134.5864  154.2825 H   0  0  0  0  0  0  0  0  0  0  0  0
  151.7559  136.2577  157.4826 H   0  0  0  0  0  0  0  0  0  0  0  0
  152.4004  135.3134  156.1646 H   0  0  0  0  0  0  0  0  0  0  0  0
  150.7486  136.4066  154.0963 H   0  0  0  0  0  0  0  0  0  0  0  0
  149.6675  138.1715  155.3386 H   0  0  0  0  0  0  0  0  0  0  0  0
  150.3774  138.3118  156.9448 H   0  0  0  0  0  0  0  0  0  0  0  0
  151.3147  139.7992  154.4617 H   0  0  0  0  0  0  0  0  0  0  0  0
  150.8370  140.4903  156.0207 H   0  0  0  0  0  0  0  0  0  0  0  0
  153.5917  137.6858  156.5543 H   0  0  0  0  0  0  0  0  0  0  0  0
  153.6068  138.0299  154.8307 H   0  0  0  0  0  0  0  0  0  0  0  0
  144.0540  133.5754  156.7583 H   0  0  0  0  0  0  0  0  0  0  0  0
  144.8243  135.0844  157.1540 H   0  0  0  0  0  0  0  0  0  0  0  0
  145.8676  135.2129  154.9231 H   0  0  0  0  0  0  0  0  0  0  0  0
  143.4903  136.0428  155.4179 H   0  0  0  0  0  0  0  0  0  0  0  0
  142.8783  134.5897  154.6409 H   0  0  0  0  0  0  0  0  0  0  0  0
  143.7989  135.7880  153.7265 H   0  0  0  0  0  0  0  0  0  0  0  0
  144.4523  132.7345  154.3492 H   0  0  0  0  0  0  0  0  0  0  0  0
  1  2  1  0  0  0  0
  1 28  1  0  0  0  0
  1 29  1  0  0  0  0
  1 30  1  0  0  0  0
  2  3  1  0  0  0  0
  2  4  1  0  0  0  0
  2 31  1  0  0  0  0
  3 32  1  0  0  0  0
  4  5  1  0  0  0  0
  4 33  1  0  0  0  0
  4 34  1  0  0  0  0
  5 26  1  0  0  0  0
  5  6  1  0  0  0  0
  5 56  1  0  0  0  0
  6  7  1  0  0  0  0
  6 35  1  0  0  0  0
  6 36  1  0  0  0  0
  7  8  1  0  0  0  0
  7 37  1  0  0  0  0
  7 38  1  0  0  0  0
  8  9  1  0  0  0  0
  8 25  1  0  0  0  0
  9 14  1  0  0  0  0
  9 10  2  0  0  0  0
 10 11  1  0  0  0  0
 11 12  2  0  0  0  0
 11 39  1  0  0  0  0
 12 13  1  0  0  0  0
 13 17  1  0  0  0  0
 13 14  2  0  0  0  0
 14 15  1  0  0  0  0
 15 16  2  0  0  0  0
 16 17  1  0  0  0  0
 16 40  1  0  0  0  0
 17 18  1  0  0  0  0
 18 19  1  0  0  0  0
 18 41  1  0  0  0  0
 18 42  1  0  0  0  0
 19 24  1  0  0  0  0
 19 20  1  0  0  0  0
 19 21  1  0  0  0  0
 20 43  1  0  0  0  0
 21 22  1  0  0  0  0
 21 44  1  0  0  0  0
 21 45  1  0  0  0  0
 22 23  1  0  0  0  0
 22 46  1  0  0  0  0
 22 47  1  0  0  0  0
 23 24  1  0  0  0  0
 24 48  1  0  0  0  0
 24 49  1  0  0  0  0
 25 26  1  0  0  0  0
 25 50  1  0  0  0  0
 25 51  1  0  0  0  0
 26 27  1  0  0  0  0
 26 52  1  0  0  0  0
 27 53  1  0  0  0  0
 27 54  1  0  0  0  0
 27 55  1  0  0  0  0
M  CHG  1   5   1
M  END
> <s_m_source_file>
AV-unprocessed.smi

> <i_m_source_file_index>
224

> <i_lp_mmshare_version>
43012

> <i_f3d_flags>
0

> <s_epik_input>
W0NIM11bQ0BIXShbT0hdKVtDSDJdTjFbQ0gyXVtDSDJdTihbQ0gyXVtDQEhdMVtDSDNdKWMobltjSF1uMiljKGMyMyluW2NIXW4zW0NIMl1bQ0BAXTQoW09IXSlbQ0gyXVtDSDJdT1tDSDJdNA==

> <s_epik_cmdline>
J2VwaWtfcHl0aG9uJywgJy1waCcsICc3LjAnLCAnLXRuJywgJzgnLCAnLW1hJywgJzIwMCcsICctbWV0YWxfYmluZGluZycsICctaW1hZScsICc8aW5maWxlLm1hZT4nLCAnLW9tYWUnLCAnPG91dGZpbGUubWFlPic=

> <r_lp_tautomer_probability>
1

> <r_epik_Ionization_Penalty>
0.00516958

> <r_epik_Ionization_Penalty_Charging>
0.00509693

> <r_epik_Ionization_Penalty_Neutral>
7.26542e-05

> <r_epik_State_Penalty>
-0

> <r_epik_Charging_Adjusted_Penalty>
0.00509693

> <i_epik_Tot_Q>
1

> <i_epik_Tot_abs_Q>
1

> <r_epik_Metal_State_Penalty>
-0

> <b_epik_Metal_Only>
0

> <s_lp_Force_Field>
OPLS_2005

> <r_lp_Energy>
49.0033

> <b_lp_Chiralities_Consistent>
1

> <s_lp_Variant>
AV-unprocessed.smi:224-12

> <Gold.Version>
5.8.1

> <Gold.Id.Protein>
6NUR|6NUR_protein|mol2

> <Gold.PLP.Fitness>
43.8501

> <Gold.PLP.PLP>
-28.1111

> <Gold.PLP.part.hbond>
-6.0000

> <Gold.PLP.part.metal>
0.0000

> <Gold.PLP.part.buried>
-4.9342

> <Gold.PLP.part.nonpolar>
-17.8378

> <Gold.PLP.part.repulsive>
0.0762

> <Gold.PLP.ligand.clash>
0.0000

> <Gold.PLP.ligand.torsion>
1.3090

> <Gold.PLP.Chemscore.Hbond>
5.9500

> <Gold.PLP.Chemscore.CHOScore>
0.0000

> <Gold.PLP.Chemscore.Metal>
0.0000

> <Gold.Chemscore.Hbonds>
donor molecule, donor type, donor heavy atom, donor atom, acceptor molecule, acceptor atom, score
      L1  H     3    32       P1 10747  0.99
      L1  H     5    56       P1 10957  1.82
      P1  H  6896  6907       L1    12  1.00
      P1  H  7997  8010       L1    23  0.95
      P1  H 10752 10763       L1    20  1.00

> <Gold.PLP.Chemscore.Internal.Correction>
0.5071

> <Gold.Rescore>
     Score         DG    S(hbond)    S(metal)    S(lipo)     H(rot)  DE(clash)    DE(int)     intcor
     12.07     -16.07       3.91        0.00      52.38       3.36       0.11       3.89       ----

> <Gold.Chemscore.Fitness>
12.0662

> <Gold.Chemscore.DG>
-16.0665

> <Gold.Chemscore.ZeroCoef>
-5.4800

> <Gold.Chemscore.Hbond>
3.9108

> <Gold.Chemscore.Metal>
0.0000

> <Gold.Chemscore.Lipo>
52.3839

> <Gold.Chemscore.Internal_Hbond>
0.0000

> <Gold.Chemscore.DEClash>
0.1058

> <Gold.Chemscore.DEInternal>
3.8946

> <Gold.Chemscore.Rot>
3.3611

> <Gold.Chemscore.Internal.Correction>
   9.000000E+99

> <Gold.Chemscore.Hbonds>
donor molecule, donor type, donor heavy atom, donor atom, acceptor molecule, acceptor atom, score
      L1  H     3    32       P1 10747  0.92
      L1  H     5    56       P1 10957  0.81
      P1  H  6896  6907       L1    12  0.33
      P1  H  7997  8010       L1    23  0.21
      P1  H 10752 10763       L1    20  0.16

> <Gold.Chemscore.Hbond.Weighted>
-13.0621

> <Gold.Chemscore.Metal.Weighted>
-0.0000

> <Gold.Chemscore.Lipo.Weighted>
-6.1289

> <Gold.Chemscore.Internal_Hbond.Weighted>
0.0000

> <Gold.Chemscore.DEClash.Weighted>
0.1058

> <Gold.Chemscore.DEInternal.Weighted>
3.8946

> <Gold.Chemscore.Rot.Weighted>
8.6045

> <Gold.Chemscore.Internal.Correction.Weighted>
   9.000000E+99

> <Gold.Protein.RotatedTorsions>
[ 6907 6896 6895 6894 ] final  -60.81 input  -60.11 | X-H torsion
[ 7974 7965 7964 7962 ] final  145.77 input  175.53 | X-H torsion
[ 8008 7997 7996 7995 ] final   65.25 input   59.86 | X-H torsion
[ 10167 10162 10161 10158 ] final  168.53 input  -65.29 | X-H torsion
[ 10718 10713 10712 10709 ] final   72.67 input   66.30 | X-H torsion
[ 10763 10752 10751 10750 ] final   25.19 input  -60.55 | X-H torsion
[ 11005 11000 10999 10996 ] final  107.51 input  -57.11 | X-H torsion

> <Gold.Protein.ActiveResidues>
 VAL166  LYS551  ARG553  GLY616  TRP617  ASP618  TYR619  PRO620  LYS621  CYS622 
 ASP623  PHE694  ASN695  SER759  ASP760  ASP761  ALA762  ILE779  LEU786  VAL792 
 PHE793  MET794  SER795  GLU796  ALA797  LYS798  CYS799  TRP800  GLU811  SER814 

> <Gold.Protein.RotatedAtoms>
  150.7829  134.6788  159.6431 H   0  0  0  0  0  0  0  0  0  0  0  0  # atno 6907 bound_to 6896
  152.3918  134.6425  160.0113 H   0  0  0  0  0  0  0  0  0  0  0  0  # atno 6908 bound_to 6896
  151.6723  133.3277  159.3236 H   0  0  0  0  0  0  0  0  0  0  0  0  # atno 6909 bound_to 6896
  144.8725  139.5824  143.5880 H   0  0  0  0  0  0  0  0  0  0  0  0  # atno 7974 bound_to 7965
  155.6588  140.3497  155.4775 H   0  0  0  0  0  0  0  0  0  0  0  0  # atno 8008 bound_to 7997
  155.9786  140.1170  157.0770 H   0  0  0  0  0  0  0  0  0  0  0  0  # atno 8009 bound_to 7997
  154.4185  140.1143  156.5390 H   0  0  0  0  0  0  0  0  0  0  0  0  # atno 8010 bound_to 7997
  139.4970  144.3805  151.9628 H   0  0  0  0  0  0  0  0  0  0  0  0  # atno 10167 bound_to 10162
  157.6512  130.9590  150.0961 H   0  0  0  0  0  0  0  0  0  0  0  0  # atno 10718 bound_to 10713
  153.0710  135.6588  154.0248 H   0  0  0  0  0  0  0  0  0  0  0  0  # atno 10763 bound_to 10752
  153.9894  135.2947  155.3415 H   0  0  0  0  0  0  0  0  0  0  0  0  # atno 10764 bound_to 10752
  154.7084  135.5215  153.8699 H   0  0  0  0  0  0  0  0  0  0  0  0  # atno 10765 bound_to 10752
  139.8829  134.9403  156.5830 H   0  0  0  0  0  0  0  0  0  0  0  0  # atno 11005 bound_to 11000
  146.2940  139.7222  142.9140 LP  0  0  0  0  0  0  0  0  0  0  0  0  # atno 17320 bound_to 7965
  145.4104  141.0396  143.3020 LP  0  0  0  0  0  0  0  0  0  0  0  0  # atno 17321 bound_to 7965
  140.3241  144.3393  150.6002 LP  0  0  0  0  0  0  0  0  0  0  0  0  # atno 17342 bound_to 10162
  140.5699  143.2182  151.7618 LP  0  0  0  0  0  0  0  0  0  0  0  0  # atno 17343 bound_to 10162
  156.1897  130.3654  149.8926 LP  0  0  0  0  0  0  0  0  0  0  0  0  # atno 17370 bound_to 10713
  156.6858  130.8876  151.3582 LP  0  0  0  0  0  0  0  0  0  0  0  0  # atno 17371 bound_to 10713
  140.8013  133.8503  155.8729 LP  0  0  0  0  0  0  0  0  0  0  0  0  # atno 17394 bound_to 11000
  140.9590  134.1680  157.4669 LP  0  0  0  0  0  0  0  0  0  0  0  0  # atno 17395 bound_to 11000

$$$$
