AV-unprocessed.smi:1833|AV-procd|sdf|7466|dock10
  -GOLD-   22720 9163D 1   1.00000     0.00000
 Structure written by MMmdl.
 42 43  0  0  0  0  0  0  0  0  2 V2000
  145.2791  132.7894  152.5038 C   0  0  0  0  0  0  0  0  0  0  0  0
  146.2343  133.8819  152.0051 C   0  0  0  0  0  0  0  0  0  0  0  0
  147.4152  134.0534  152.8880 N   0  3  2  0  0  0  0  0  0  0  0  0
  148.1719  132.7848  153.0567 C   0  0  0  0  0  0  0  0  0  0  0  0
  149.4649  133.0039  153.8601 C   0  0  0  0  0  0  0  0  0  0  0  0
  149.1724  133.6662  155.2158 C   0  0  0  0  0  0  0  0  0  0  0  0
  148.3545  134.9558  155.0301 C   0  0  1  0  0  0  0  0  0  0  0  0
  149.1821  135.9830  154.3986 N   0  0  0  0  0  0  0  0  0  0  0  0
  150.2879  136.5212  154.9306 C   0  0  0  0  0  0  0  0  0  0  0  0
  150.7273  136.2323  156.0434 O   0  0  0  0  0  0  0  0  0  0  0  0
  150.8549  137.4073  154.1003 N   0  0  0  0  0  0  0  0  0  0  0  0
  152.1016  138.1253  154.3489 C   0  0  0  0  0  0  0  0  0  0  0  0
  152.1785  138.7151  155.7687 C   0  0  0  0  0  0  0  0  0  0  0  0
  151.4679  140.0201  155.9287 C   0  0  0  0  0  0  0  0  0  0  0  0
  150.6344  140.5312  155.0170 N   0  0  0  0  0  0  0  0  0  0  0  0
  150.0996  141.7591  155.4151 C   0  0  0  0  0  0  0  0  0  0  0  0
  150.5135  142.1609  156.6591 C   0  0  0  0  0  0  0  0  0  0  0  0
  151.6095  141.0128  157.3755 S   0  0  0  0  0  0  0  0  0  0  0  0
  147.0831  134.6638  154.2041 C   0  0  0  0  0  0  0  0  0  0  0  0
  144.3754  132.7633  151.8950 H   0  0  0  0  0  0  0  0  0  0  0  0
  144.9767  132.9710  153.5356 H   0  0  0  0  0  0  0  0  0  0  0  0
  145.7293  131.7987  152.4522 H   0  0  0  0  0  0  0  0  0  0  0  0
  146.5563  133.6754  150.9836 H   0  0  0  0  0  0  0  0  0  0  0  0
  145.6754  134.8181  151.9696 H   0  0  0  0  0  0  0  0  0  0  0  0
  147.5402  132.0481  153.5557 H   0  0  0  0  0  0  0  0  0  0  0  0
  148.4268  132.3734  152.0794 H   0  0  0  0  0  0  0  0  0  0  0  0
  149.9715  132.0509  154.0152 H   0  0  0  0  0  0  0  0  0  0  0  0
  150.1525  133.6243  153.2841 H   0  0  0  0  0  0  0  0  0  0  0  0
  148.6124  132.9705  155.8422 H   0  0  0  0  0  0  0  0  0  0  0  0
  150.1030  133.8739  155.7455 H   0  0  0  0  0  0  0  0  0  0  0  0
  148.0591  135.3142  156.0180 H   0  0  0  0  0  0  0  0  0  0  0  0
  148.9100  136.2809  153.4731 H   0  0  0  0  0  0  0  0  0  0  0  0
  150.4087  137.5762  153.2108 H   0  0  0  0  0  0  0  0  0  0  0  0
  152.9639  137.4841  154.1583 H   0  0  0  0  0  0  0  0  0  0  0  0
  152.1620  138.9353  153.6221 H   0  0  0  0  0  0  0  0  0  0  0  0
  151.7486  138.0077  156.4782 H   0  0  0  0  0  0  0  0  0  0  0  0
  153.2214  138.8435  156.0615 H   0  0  0  0  0  0  0  0  0  0  0  0
  149.4301  142.2828  154.7498 H   0  0  0  0  0  0  0  0  0  0  0  0
  150.2453  143.0600  157.1938 H   0  0  0  0  0  0  0  0  0  0  0  0
  146.5231  135.5882  154.0668 H   0  0  0  0  0  0  0  0  0  0  0  0
  146.4287  133.9890  154.7583 H   0  0  0  0  0  0  0  0  0  0  0  0
  148.0359  134.6948  152.4152 H   0  0  0  0  0  0  0  0  0  0  0  0
  1  2  1  0  0  0  0
  1 20  1  0  0  0  0
  1 21  1  0  0  0  0
  1 22  1  0  0  0  0
  2  3  1  0  0  0  0
  2 23  1  0  0  0  0
  2 24  1  0  0  0  0
  3 19  1  0  0  0  0
  3  4  1  0  0  0  0
  3 42  1  0  0  0  0
  4  5  1  0  0  0  0
  4 25  1  0  0  0  0
  4 26  1  0  0  0  0
  5  6  1  0  0  0  0
  5 27  1  0  0  0  0
  5 28  1  0  0  0  0
  6  7  1  0  0  0  0
  6 29  1  0  0  0  0
  6 30  1  0  0  0  0
  7  8  1  0  0  0  0
  7 19  1  0  0  0  0
  7 31  1  0  0  0  0
  8  9  1  0  0  0  0
  8 32  1  0  0  0  0
  9 10  2  0  0  0  0
  9 11  1  0  0  0  0
 11 12  1  0  0  0  0
 11 33  1  0  0  0  0
 12 13  1  0  0  0  0
 12 34  1  0  0  0  0
 12 35  1  0  0  0  0
 13 14  1  0  0  0  0
 13 36  1  0  0  0  0
 13 37  1  0  0  0  0
 14 18  1  0  0  0  0
 14 15  2  0  0  0  0
 15 16  1  0  0  0  0
 16 17  2  0  0  0  0
 16 38  1  0  0  0  0
 17 18  1  0  0  0  0
 17 39  1  0  0  0  0
 19 40  1  0  0  0  0
 19 41  1  0  0  0  0
M  CHG  1   3   1
M  END
> <s_m_source_file>
AV-unprocessed.smi

> <i_m_source_file_index>
1833

> <i_lp_mmshare_version>
43012

> <i_f3d_flags>
0

> <s_epik_input>
W0NIM11bQ0gyXU4xW0NIMl1bQ0gyXVtDSDJdW0NASF0oW0NIMl0xKVtOSF1DKD1PKVtOSF1bQ0gyXVtDSDJdYzJuW2NIXVtjSF1zMg==

> <s_epik_cmdline>
J2VwaWtfcHl0aG9uJywgJy1waCcsICc3LjAnLCAnLXRuJywgJzgnLCAnLW1hJywgJzIwMCcsICctbWV0YWxfYmluZGluZycsICctaW1hZScsICc8aW5maWxlLm1hZT4nLCAnLW9tYWUnLCAnPG91dGZpbGUubWFlPic=

> <r_lp_tautomer_probability>
1

> <r_epik_Ionization_Penalty>
0.00269629

> <r_epik_Ionization_Penalty_Charging>
0.00233899

> <r_epik_Ionization_Penalty_Neutral>
0.000357304

> <r_epik_State_Penalty>
-0

> <r_epik_Charging_Adjusted_Penalty>
0.00233899

> <i_epik_Tot_Q>
1

> <i_epik_Tot_abs_Q>
1

> <r_epik_Metal_State_Penalty>
-0

> <b_epik_Metal_Only>
0

> <s_lp_Force_Field>
OPLS_2005

> <r_lp_Energy>
14.5557

> <b_lp_Chiralities_Consistent>
1

> <s_lp_Variant>
AV-unprocessed.smi:1833-2

> <Gold.Version>
5.8.1

> <Gold.Id.Protein>
6NUR|6NUR_protein|mol2

> <Gold.PLP.Fitness>
48.8906

> <Gold.PLP.PLP>
-34.8381

> <Gold.PLP.part.hbond>
-4.7466

> <Gold.PLP.part.metal>
0.0000

> <Gold.PLP.part.buried>
-4.4916

> <Gold.PLP.part.nonpolar>
-25.5338

> <Gold.PLP.part.repulsive>
0.2199

> <Gold.PLP.ligand.clash>
0.0000

> <Gold.PLP.ligand.torsion>
0.3487

> <Gold.PLP.Chemscore.Hbond>
4.1039

> <Gold.PLP.Chemscore.CHOScore>
0.7948

> <Gold.PLP.Chemscore.Metal>
0.0000

> <Gold.Chemscore.Hbonds>
donor molecule, donor type, donor heavy atom, donor atom, acceptor molecule, acceptor atom, score
      L1  H     3    42       P1  7948  2.00
      L1  H     8    32       P1  7948  1.00
      L1  H    11    33       P1  7948  0.10
      P1  H  7989  7998       L1    15  1.00
      L1  C    16    38       P1  8028  0.45
      L1  C    17    39       P1  8028  0.48

> <Gold.PLP.Chemscore.Internal.Correction>
0.0537

> <Gold.Rescore>
     Score         DG    S(hbond)    S(metal)    S(lipo)     H(rot)  DE(clash)    DE(int)     intcor
     16.37     -17.98       2.51        0.00      72.53       1.71       0.02       1.58       ----

> <Gold.Chemscore.Fitness>
16.3697

> <Gold.Chemscore.DG>
-17.9761

> <Gold.Chemscore.ZeroCoef>
-5.4800

> <Gold.Chemscore.Hbond>
2.5147

> <Gold.Chemscore.Metal>
0.0000

> <Gold.Chemscore.Lipo>
72.5338

> <Gold.Chemscore.Internal_Hbond>
0.0000

> <Gold.Chemscore.DEClash>
0.0231

> <Gold.Chemscore.DEInternal>
1.5833

> <Gold.Chemscore.Rot>
1.7147

> <Gold.Chemscore.Internal.Correction>
   9.000000E+99

> <Gold.Chemscore.Hbonds>
donor molecule, donor type, donor heavy atom, donor atom, acceptor molecule, acceptor atom, score
      L1  H     3    42       P1  7948  0.50
      L1  H     8    32       P1  7948  0.95
      L1  H    11    33       P1  7948  0.01
      P1  H  7989  7998       L1    15  0.31

> <Gold.Chemscore.Hbond.Weighted>
-8.3992

> <Gold.Chemscore.Metal.Weighted>
-0.0000

> <Gold.Chemscore.Lipo.Weighted>
-8.4865

> <Gold.Chemscore.Internal_Hbond.Weighted>
0.0000

> <Gold.Chemscore.DEClash.Weighted>
0.0231

> <Gold.Chemscore.DEInternal.Weighted>
1.5833

> <Gold.Chemscore.Rot.Weighted>
4.3896

> <Gold.Chemscore.Internal.Correction.Weighted>
   9.000000E+99

> <Gold.Protein.RotatedTorsions>
[ 6907 6896 6895 6894 ] final  163.20 input  -60.11 | X-H torsion
[ 7974 7965 7964 7962 ] final  -12.72 input  175.53 | X-H torsion
[ 8008 7997 7996 7995 ] final  -23.09 input   59.86 | X-H torsion
[ 10167 10162 10161 10158 ] final   85.39 input  -65.29 | X-H torsion
[ 10718 10713 10712 10709 ] final -106.79 input   66.30 | X-H torsion
[ 10763 10752 10751 10750 ] final   90.95 input  -60.55 | X-H torsion
[ 11005 11000 10999 10996 ] final -136.22 input  -57.11 | X-H torsion

> <Gold.Protein.ActiveResidues>
 VAL166  LYS551  ARG553  GLY616  TRP617  ASP618  TYR619  PRO620  LYS621  CYS622 
 ASP623  PHE694  ASN695  SER759  ASP760  ASP761  ALA762  ILE779  LEU786  VAL792 
 PHE793  MET794  SER795  GLU796  ALA797  LYS798  CYS799  TRP800  GLU811  SER814 

> <Gold.Protein.RotatedAtoms>
  151.9288  133.3605  159.3923 H   0  0  0  0  0  0  0  0  0  0  0  0  # atno 6907 bound_to 6896
  150.7021  134.4559  159.5367 H   0  0  0  0  0  0  0  0  0  0  0  0  # atno 6908 bound_to 6896
  152.2195  134.8426  160.0538 H   0  0  0  0  0  0  0  0  0  0  0  0  # atno 6909 bound_to 6896
  146.2141  140.3098  142.8381 H   0  0  0  0  0  0  0  0  0  0  0  0  # atno 7974 bound_to 7965
  154.4605  140.1990  156.0257 H   0  0  0  0  0  0  0  0  0  0  0  0  # atno 8008 bound_to 7997
  156.0831  140.3269  155.7690 H   0  0  0  0  0  0  0  0  0  0  0  0  # atno 8009 bound_to 7997
  155.5079  140.0559  157.2919 H   0  0  0  0  0  0  0  0  0  0  0  0  # atno 8010 bound_to 7997
  139.8983  144.6345  150.8664 H   0  0  0  0  0  0  0  0  0  0  0  0  # atno 10167 bound_to 10162
  156.0406  130.5630  150.7731 H   0  0  0  0  0  0  0  0  0  0  0  0  # atno 10718 bound_to 10713
  153.2030  135.4415  155.0290 H   0  0  0  0  0  0  0  0  0  0  0  0  # atno 10763 bound_to 10752
  154.8158  135.3314  154.7183 H   0  0  0  0  0  0  0  0  0  0  0  0  # atno 10764 bound_to 10752
  153.7626  135.6990  153.4978 H   0  0  0  0  0  0  0  0  0  0  0  0  # atno 10765 bound_to 10752
  140.8825  134.1914  157.4582 H   0  0  0  0  0  0  0  0  0  0  0  0  # atno 11005 bound_to 11000
  144.8996  140.7626  143.5875 LP  0  0  0  0  0  0  0  0  0  0  0  0  # atno 17320 bound_to 7965
  145.3023  139.1846  143.4683 LP  0  0  0  0  0  0  0  0  0  0  0  0  # atno 17321 bound_to 7965
  140.7712  143.3456  151.2117 LP  0  0  0  0  0  0  0  0  0  0  0  0  # atno 17342 bound_to 10162
  139.7048  143.9473  152.2922 LP  0  0  0  0  0  0  0  0  0  0  0  0  # atno 17343 bound_to 10162
  157.5219  131.0932  151.0067 LP  0  0  0  0  0  0  0  0  0  0  0  0  # atno 17370 bound_to 10713
  157.0395  130.5743  149.5354 LP  0  0  0  0  0  0  0  0  0  0  0  0  # atno 17371 bound_to 10713
  139.8721  134.9823  156.5153 LP  0  0  0  0  0  0  0  0  0  0  0  0  # atno 17394 bound_to 11000
  140.8444  133.8180  155.9106 LP  0  0  0  0  0  0  0  0  0  0  0  0  # atno 17395 bound_to 11000

$$$$
