AV-unprocessed.smi:92|AV-procd|sdf|843|dock5
  -GOLD-   2262017283D 1   1.00000     0.00000
 Structure written by MMmdl.
 61 64  0  0  0  0  0  0  0  0  2 V2000
  152.0128  144.1265  158.0499 C   0  0  0  0  0  0  0  0  0  0  0  0
  151.1788  142.8595  158.2854 C   0  0  0  0  0  0  0  0  0  0  0  0
  150.1603  142.6425  157.2231 N   0  3  2  0  0  0  0  0  0  0  0  0
  148.9102  142.0166  157.7163 C   0  0  0  0  0  0  0  0  0  0  0  0
  149.1230  140.5306  158.0349 C   0  0  0  0  0  0  0  0  0  0  0  0
  149.6340  139.7455  156.8037 C   0  0  2  0  0  0  0  0  0  0  0  0
  149.7952  138.3121  157.1011 N   0  0  0  0  0  0  0  0  0  0  0  0
  150.4332  137.8709  158.3353 C   0  0  0  0  0  0  0  0  0  0  0  0
  148.9208  137.4265  156.5693 C   0  0  0  0  0  0  0  0  0  0  0  0
  147.6053  137.7573  156.5921 N   0  0  0  0  0  0  0  0  0  0  0  0
  146.6950  136.9193  156.0876 C   0  0  0  0  0  0  0  0  0  0  0  0
  146.8827  135.7235  155.5260 N   0  0  0  0  0  0  0  0  0  0  0  0
  148.2054  135.3923  155.4915 C   0  0  0  0  0  0  0  0  0  0  0  0
  149.2841  136.1844  155.9770 C   0  0  0  0  0  0  0  0  0  0  0  0
  150.4884  135.5295  155.7514 N   0  0  0  0  0  0  0  0  0  0  0  0
  150.1429  134.4179  155.1622 C   0  0  0  0  0  0  0  0  0  0  0  0
  148.7880  134.2368  155.0001 N   0  0  0  0  0  0  0  0  0  0  0  0
  148.1406  133.1263  154.3649 C   0  0  0  0  0  0  0  0  0  0  0  0
  148.3992  132.8032  152.8904 C   0  0  0  0  0  0  0  0  0  0  0  0
  146.9225  132.3900  152.7065 C   0  0  0  0  0  0  0  0  0  0  0  0
  146.2341  132.9681  151.4603 C   0  0  0  0  0  0  0  0  0  0  0  0
  146.7535  132.4039  150.2731 O   0  0  0  0  0  0  0  0  0  0  0  0
  146.6059  130.8783  152.7418 C   0  0  0  0  0  0  0  0  0  0  0  0
  146.9191  130.2132  151.5350 O   0  0  0  0  0  0  0  0  0  0  0  0
  146.6512  133.1777  154.0078 C   0  0  0  0  0  0  0  0  0  0  0  0
  150.9026  140.4331  156.2160 C   0  0  1  0  0  0  0  0  0  0  0  0
  151.3624  139.8336  154.8739 C   0  0  0  0  0  0  0  0  0  0  0  0
  150.6598  141.9491  156.0072 C   0  0  0  0  0  0  0  0  0  0  0  0
  152.6800  144.3071  158.8931 H   0  0  0  0  0  0  0  0  0  0  0  0
  151.3750  145.0041  157.9411 H   0  0  0  0  0  0  0  0  0  0  0  0
  152.6350  144.0483  157.1589 H   0  0  0  0  0  0  0  0  0  0  0  0
  151.8294  141.9915  158.3897 H   0  0  0  0  0  0  0  0  0  0  0  0
  150.6698  142.9731  159.2434 H   0  0  0  0  0  0  0  0  0  0  0  0
  148.5410  142.5488  158.5940 H   0  0  0  0  0  0  0  0  0  0  0  0
  148.1403  142.1207  156.9505 H   0  0  0  0  0  0  0  0  0  0  0  0
  149.8228  140.4486  158.8665 H   0  0  0  0  0  0  0  0  0  0  0  0
  148.1837  140.0985  158.3819 H   0  0  0  0  0  0  0  0  0  0  0  0
  148.8512  139.8099  156.0467 H   0  0  0  0  0  0  0  0  0  0  0  0
  149.7108  137.4907  159.0572 H   0  0  0  0  0  0  0  0  0  0  0  0
  150.9842  138.6865  158.8037 H   0  0  0  0  0  0  0  0  0  0  0  0
  151.1427  137.0719  158.1189 H   0  0  0  0  0  0  0  0  0  0  0  0
  145.6691  137.2526  156.1455 H   0  0  0  0  0  0  0  0  0  0  0  0
  150.8728  133.6907  154.8372 H   0  0  0  0  0  0  0  0  0  0  0  0
  148.3572  132.2601  154.9912 H   0  0  0  0  0  0  0  0  0  0  0  0
  148.6648  133.6905  152.3129 H   0  0  0  0  0  0  0  0  0  0  0  0
  149.1218  132.0032  152.7263 H   0  0  0  0  0  0  0  0  0  0  0  0
  145.1569  132.8004  151.4905 H   0  0  0  0  0  0  0  0  0  0  0  0
  146.3761  134.0478  151.4028 H   0  0  0  0  0  0  0  0  0  0  0  0
  147.5140  131.8878  150.4927 H   0  0  0  0  0  0  0  0  0  0  0  0
  147.1577  130.3866  153.5437 H   0  0  0  0  0  0  0  0  0  0  0  0
  145.5479  130.7063  152.9409 H   0  0  0  0  0  0  0  0  0  0  0  0
  147.7848  130.4766  151.2627 H   0  0  0  0  0  0  0  0  0  0  0  0
  146.0007  132.6732  154.7229 H   0  0  0  0  0  0  0  0  0  0  0  0
  146.3045  134.1956  153.8219 H   0  0  0  0  0  0  0  0  0  0  0  0
  151.7221  140.3184  156.9249 H   0  0  0  0  0  0  0  0  0  0  0  0
  150.5609  139.8530  154.1347 H   0  0  0  0  0  0  0  0  0  0  0  0
  151.6995  138.8046  154.9740 H   0  0  0  0  0  0  0  0  0  0  0  0
  152.2027  140.3944  154.4636 H   0  0  0  0  0  0  0  0  0  0  0  0
  149.9168  142.0881  155.2204 H   0  0  0  0  0  0  0  0  0  0  0  0
  151.5651  142.4341  155.6440 H   0  0  0  0  0  0  0  0  0  0  0  0
  149.8944  143.5709  156.9263 H   0  0  0  0  0  0  0  0  0  0  0  0
  1  2  1  0  0  0  0
  1 29  1  0  0  0  0
  1 30  1  0  0  0  0
  1 31  1  0  0  0  0
  2  3  1  0  0  0  0
  2 32  1  0  0  0  0
  2 33  1  0  0  0  0
  3 28  1  0  0  0  0
  3  4  1  0  0  0  0
  3 61  1  0  0  0  0
  4  5  1  0  0  0  0
  4 34  1  0  0  0  0
  4 35  1  0  0  0  0
  5  6  1  0  0  0  0
  5 36  1  0  0  0  0
  5 37  1  0  0  0  0
  6  7  1  0  0  0  0
  6 26  1  0  0  0  0
  6 38  1  0  0  0  0
  7  8  1  0  0  0  0
  7  9  1  0  0  0  0
  8 39  1  0  0  0  0
  8 40  1  0  0  0  0
  8 41  1  0  0  0  0
  9 14  1  0  0  0  0
  9 10  2  0  0  0  0
 10 11  1  0  0  0  0
 11 12  2  0  0  0  0
 11 42  1  0  0  0  0
 12 13  1  0  0  0  0
 13 17  1  0  0  0  0
 13 14  2  0  0  0  0
 14 15  1  0  0  0  0
 15 16  2  0  0  0  0
 16 17  1  0  0  0  0
 16 43  1  0  0  0  0
 17 18  1  0  0  0  0
 18 25  1  0  0  0  0
 18 19  1  0  0  0  0
 18 44  1  0  0  0  0
 19 20  1  0  0  0  0
 19 45  1  0  0  0  0
 19 46  1  0  0  0  0
 20 21  1  0  0  0  0
 20 23  1  0  0  0  0
 20 25  1  0  0  0  0
 21 22  1  0  0  0  0
 21 47  1  0  0  0  0
 21 48  1  0  0  0  0
 22 49  1  0  0  0  0
 23 24  1  0  0  0  0
 23 50  1  0  0  0  0
 23 51  1  0  0  0  0
 24 52  1  0  0  0  0
 25 53  1  0  0  0  0
 25 54  1  0  0  0  0
 26 27  1  0  0  0  0
 26 28  1  0  0  0  0
 26 55  1  0  0  0  0
 27 56  1  0  0  0  0
 27 57  1  0  0  0  0
 27 58  1  0  0  0  0
 28 59  1  0  0  0  0
 28 60  1  0  0  0  0
M  CHG  1   3   1
M  END
> <s_m_source_file>
AV-unprocessed.smi

> <i_m_source_file_index>
92

> <i_lp_mmshare_version>
43012

> <i_f3d_flags>
0

> <s_epik_input>
W0NIM11bQ0gyXU4xW0NIMl1bQ0gyXVtDQEhdKFtDQEBIXShbQ0gzXSlbQ0gyXTEpTihbQ0gzXSljKG5bY0hdbjIpYyhjMjMpbltjSF1uM1tDSF0oW0NIMl00KVtDSDJdQzQoW0NIMl1bT0hdKVtDSDJdW09IXQ==

> <s_epik_cmdline>
J2VwaWtfcHl0aG9uJywgJy1waCcsICc3LjAnLCAnLXRuJywgJzgnLCAnLW1hJywgJzIwMCcsICctbWV0YWxfYmluZGluZycsICctaW1hZScsICc8aW5maWxlLm1hZT4nLCAnLW9tYWUnLCAnPG91dGZpbGUubWFlPic=

> <r_lp_tautomer_probability>
1

> <r_epik_Ionization_Penalty>
0.00235514

> <r_epik_Ionization_Penalty_Charging>
0.00137877

> <r_epik_Ionization_Penalty_Neutral>
0.000976366

> <r_epik_State_Penalty>
-0

> <r_epik_Charging_Adjusted_Penalty>
0.00137877

> <i_epik_Tot_Q>
1

> <i_epik_Tot_abs_Q>
1

> <r_epik_Metal_State_Penalty>
-0

> <b_epik_Metal_Only>
0

> <s_lp_Force_Field>
OPLS_2005

> <r_lp_Energy>
56.5643

> <b_lp_Chiralities_Consistent>
1

> <s_lp_Variant>
AV-unprocessed.smi:92-3

> <Gold.Version>
5.8.1

> <Gold.Id.Protein>
6NUR|6NUR_protein|mol2

> <Gold.PLP.Fitness>
46.9462

> <Gold.PLP.PLP>
-37.6337

> <Gold.PLP.part.hbond>
-2.6595

> <Gold.PLP.part.metal>
0.0000

> <Gold.PLP.part.buried>
-4.0548

> <Gold.PLP.part.nonpolar>
-31.4480

> <Gold.PLP.part.repulsive>
0.1305

> <Gold.PLP.ligand.clash>
0.0000

> <Gold.PLP.ligand.torsion>
1.9705

> <Gold.PLP.Chemscore.Hbond>
4.0000

> <Gold.PLP.Chemscore.CHOScore>
0.0000

> <Gold.PLP.Chemscore.Metal>
0.0000

> <Gold.Chemscore.Hbonds>
donor molecule, donor type, donor heavy atom, donor atom, acceptor molecule, acceptor atom, score
      L1  H     3    61       P1  8028  1.98
      L1  H    22    49       P1 10747  1.00
      L1  H    24    52       P1 10747  1.00

> <Gold.PLP.Chemscore.Internal.Correction>
1.2535

> <Gold.Rescore>
     Score         DG    S(hbond)    S(metal)    S(lipo)     H(rot)  DE(clash)    DE(int)     intcor
     13.27     -17.74       2.91        0.00      92.18       3.22       1.46       3.01       ----

> <Gold.Chemscore.Fitness>
13.2750

> <Gold.Chemscore.DG>
-17.7428

> <Gold.Chemscore.ZeroCoef>
-5.4800

> <Gold.Chemscore.Hbond>
2.9118

> <Gold.Chemscore.Metal>
0.0000

> <Gold.Chemscore.Lipo>
92.1843

> <Gold.Chemscore.Internal_Hbond>
0.0000

> <Gold.Chemscore.DEClash>
1.4592

> <Gold.Chemscore.DEInternal>
3.0086

> <Gold.Chemscore.Rot>
3.2219

> <Gold.Chemscore.Internal.Correction>
   9.000000E+99

> <Gold.Chemscore.Hbonds>
donor molecule, donor type, donor heavy atom, donor atom, acceptor molecule, acceptor atom, score
      L1  H     3    61       P1  8028  0.92
      L1  H    22    49       P1 10747  0.99
      L1  H    24    52       P1 10747  0.97

> <Gold.Chemscore.Hbond.Weighted>
-9.7254

> <Gold.Chemscore.Metal.Weighted>
-0.0000

> <Gold.Chemscore.Lipo.Weighted>
-10.7856

> <Gold.Chemscore.Internal_Hbond.Weighted>
0.0000

> <Gold.Chemscore.DEClash.Weighted>
1.4592

> <Gold.Chemscore.DEInternal.Weighted>
3.0086

> <Gold.Chemscore.Rot.Weighted>
8.2482

> <Gold.Chemscore.Internal.Correction.Weighted>
   9.000000E+99

> <Gold.Protein.RotatedTorsions>
[ 6907 6896 6895 6894 ] final  165.14 input  -60.11 | X-H torsion
[ 7974 7965 7964 7962 ] final  -26.50 input  175.53 | X-H torsion
[ 8008 7997 7996 7995 ] final  101.68 input   59.86 | X-H torsion
[ 10167 10162 10161 10158 ] final  -71.38 input  -65.29 | X-H torsion
[ 10718 10713 10712 10709 ] final -125.28 input   66.30 | X-H torsion
[ 10763 10752 10751 10750 ] final  117.34 input  -60.55 | X-H torsion
[ 11005 11000 10999 10996 ] final   55.79 input  -57.11 | X-H torsion

> <Gold.Protein.ActiveResidues>
 VAL166  LYS551  ARG553  GLY616  TRP617  ASP618  TYR619  PRO620  LYS621  CYS622 
 ASP623  PHE694  ASN695  SER759  ASP760  ASP761  ALA762  ILE779  LEU786  VAL792 
 PHE793  MET794  SER795  GLU796  ALA797  LYS798  CYS799  TRP800  GLU811  SER814 

> <Gold.Protein.RotatedAtoms>
  151.8991  133.3534  159.3824 H   0  0  0  0  0  0  0  0  0  0  0  0  # atno 6907 bound_to 6896
  150.7084  134.4846  159.5496 H   0  0  0  0  0  0  0  0  0  0  0  0  # atno 6908 bound_to 6896
  152.2431  134.8208  160.0508 H   0  0  0  0  0  0  0  0  0  0  0  0  # atno 6909 bound_to 6896
  146.1421  140.5028  142.8647 H   0  0  0  0  0  0  0  0  0  0  0  0  # atno 7974 bound_to 7965
  156.1322  140.3193  155.8366 H   0  0  0  0  0  0  0  0  0  0  0  0  # atno 8008 bound_to 7997
  155.4311  140.0519  157.3035 H   0  0  0  0  0  0  0  0  0  0  0  0  # atno 8009 bound_to 7997
  154.4908  140.2091  155.9565 H   0  0  0  0  0  0  0  0  0  0  0  0  # atno 8010 bound_to 7997
  140.5277  143.2324  151.7317 H   0  0  0  0  0  0  0  0  0  0  0  0  # atno 10167 bound_to 10162
  156.1661  130.6635  151.0117 H   0  0  0  0  0  0  0  0  0  0  0  0  # atno 10718 bound_to 10713
  153.5508  135.3540  155.2759 H   0  0  0  0  0  0  0  0  0  0  0  0  # atno 10763 bound_to 10752
  154.8707  135.4113  154.2939 H   0  0  0  0  0  0  0  0  0  0  0  0  # atno 10764 bound_to 10752
  153.3665  135.7062  153.6740 H   0  0  0  0  0  0  0  0  0  0  0  0  # atno 10765 bound_to 10752
  140.0580  134.5643  155.9185 H   0  0  0  0  0  0  0  0  0  0  0  0  # atno 11005 bound_to 11000
  144.7804  140.5829  143.6609 LP  0  0  0  0  0  0  0  0  0  0  0  0  # atno 17320 bound_to 7965
  145.5022  139.1483  143.3651 LP  0  0  0  0  0  0  0  0  0  0  0  0  # atno 17321 bound_to 7965
  139.4944  144.4160  152.0029 LP  0  0  0  0  0  0  0  0  0  0  0  0  # atno 17342 bound_to 10162
  140.3261  144.3371  150.5998 LP  0  0  0  0  0  0  0  0  0  0  0  0  # atno 17343 bound_to 10162
  157.6769  131.0848  150.7471 LP  0  0  0  0  0  0  0  0  0  0  0  0  # atno 17370 bound_to 10713
  156.7532  130.4775  149.5452 LP  0  0  0  0  0  0  0  0  0  0  0  0  # atno 17371 bound_to 10713
  141.1960  133.6590  156.5672 LP  0  0  0  0  0  0  0  0  0  0  0  0  # atno 17394 bound_to 11000
  140.3815  134.7519  157.4664 LP  0  0  0  0  0  0  0  0  0  0  0  0  # atno 17395 bound_to 11000

$$$$
