AV-unprocessed.smi:2802|AV-procd|sdf|10803|dock5
  -GOLD-   2272015233D 1   1.00000     0.00000
 Structure written by MMmdl.
 47 48  0  0  0  0  0  0  0  0  1 V2000
  146.1320  143.6180  152.8623 C   0  0  0  0  0  0  0  0  0  0  0  0
  146.9561  142.6946  153.7717 C   0  0  2  0  0  0  0  0  0  0  0  0
  146.9033  141.2377  153.2762 C   0  0  0  0  0  0  0  0  0  0  0  0
  147.7112  140.2563  154.1568 C   0  0  0  0  0  0  0  0  0  0  0  0
  147.3663  138.8160  153.7264 C   0  0  0  0  0  0  0  0  0  0  0  0
  149.2300  140.4390  153.9365 C   0  0  0  0  0  0  0  0  0  0  0  0
  147.3036  140.4293  155.6480 C   0  0  0  0  0  0  0  0  0  0  0  0
  147.2782  141.8841  156.2073 C   0  0  1  0  0  0  0  0  0  0  0  0
  146.5745  141.8776  157.5934 C   0  0  0  0  0  0  0  0  0  0  0  0
  145.2542  141.3743  157.5227 O   0  0  0  0  0  0  0  0  0  0  0  0
  148.6334  142.4420  156.3372 N   0  0  0  0  0  0  0  0  0  0  0  0
  149.6475  142.0267  157.1173 C   0  0  0  0  0  0  0  0  0  0  0  0
  149.5763  141.0661  157.8840 O   0  0  0  0  0  0  0  0  0  0  0  0
  150.9466  142.8303  157.0025 C   0  0  0  0  0  0  0  0  0  0  0  0
  151.2218  143.6247  158.2680 C   0  0  0  0  0  0  0  0  0  0  0  0
  151.3312  145.0308  158.2325 C   0  0  0  0  0  0  0  0  0  0  0  0
  151.5886  145.7218  159.4320 C   0  0  0  0  0  0  0  0  0  0  0  0
  151.7237  144.9757  160.6200 C   0  0  0  0  0  0  0  0  0  0  0  0
  151.6200  143.6300  160.6667 N   0  0  0  0  0  0  0  0  0  0  0  0
  151.3758  142.9747  159.5114 C   0  0  0  0  0  0  0  0  0  0  0  0
  146.4722  142.7784  155.2318 C   0  0  0  0  0  0  0  0  0  0  0  0
  145.0793  143.3336  152.8563 H   0  0  0  0  0  0  0  0  0  0  0  0
  146.4926  143.5811  151.8340 H   0  0  0  0  0  0  0  0  0  0  0  0
  146.1945  144.6545  153.1949 H   0  0  0  0  0  0  0  0  0  0  0  0
  147.9865  143.0460  153.7252 H   0  0  0  0  0  0  0  0  0  0  0  0
  145.8591  140.9213  153.2499 H   0  0  0  0  0  0  0  0  0  0  0  0
  147.2556  141.1851  152.2449 H   0  0  0  0  0  0  0  0  0  0  0  0
  147.9131  138.0827  154.3203 H   0  0  0  0  0  0  0  0  0  0  0  0
  147.6166  138.6419  152.6791 H   0  0  0  0  0  0  0  0  0  0  0  0
  146.3030  138.6037  153.8442 H   0  0  0  0  0  0  0  0  0  0  0  0
  149.8053  139.7930  154.6005 H   0  0  0  0  0  0  0  0  0  0  0  0
  149.5662  141.4597  154.1041 H   0  0  0  0  0  0  0  0  0  0  0  0
  149.5115  140.1860  152.9137 H   0  0  0  0  0  0  0  0  0  0  0  0
  146.2936  140.0302  155.7559 H   0  0  0  0  0  0  0  0  0  0  0  0
  147.9197  139.7843  156.2747 H   0  0  0  0  0  0  0  0  0  0  0  0
  147.1289  141.2535  158.2953 H   0  0  0  0  0  0  0  0  0  0  0  0
  146.5459  142.8729  158.0362 H   0  0  0  0  0  0  0  0  0  0  0  0
  144.8430  141.4918  158.3655 H   0  0  0  0  0  0  0  0  0  0  0  0
  148.8196  143.2468  155.7569 H   0  0  0  0  0  0  0  0  0  0  0  0
  151.7888  142.1636  156.8101 H   0  0  0  0  0  0  0  0  0  0  0  0
  150.8731  143.5029  156.1473 H   0  0  0  0  0  0  0  0  0  0  0  0
  151.2222  145.5705  157.3035 H   0  0  0  0  0  0  0  0  0  0  0  0
  151.6806  146.7978  159.4420 H   0  0  0  0  0  0  0  0  0  0  0  0
  151.9191  145.4733  161.5583 H   0  0  0  0  0  0  0  0  0  0  0  0
  151.3018  141.8995  159.5823 H   0  0  0  0  0  0  0  0  0  0  0  0
  146.5071  143.8174  155.5624 H   0  0  0  0  0  0  0  0  0  0  0  0
  145.4203  142.4906  155.2672 H   0  0  0  0  0  0  0  0  0  0  0  0
  1  2  1  0  0  0  0
  1 22  1  0  0  0  0
  1 23  1  0  0  0  0
  1 24  1  0  0  0  0
  2 21  1  0  0  0  0
  2  3  1  0  0  0  0
  2 25  1  0  0  0  0
  3  4  1  0  0  0  0
  3 26  1  0  0  0  0
  3 27  1  0  0  0  0
  4  5  1  0  0  0  0
  4  6  1  0  0  0  0
  4  7  1  0  0  0  0
  5 28  1  0  0  0  0
  5 29  1  0  0  0  0
  5 30  1  0  0  0  0
  6 31  1  0  0  0  0
  6 32  1  0  0  0  0
  6 33  1  0  0  0  0
  7  8  1  0  0  0  0
  7 34  1  0  0  0  0
  7 35  1  0  0  0  0
  8  9  1  0  0  0  0
  8 11  1  0  0  0  0
  8 21  1  0  0  0  0
  9 10  1  0  0  0  0
  9 36  1  0  0  0  0
  9 37  1  0  0  0  0
 10 38  1  0  0  0  0
 11 12  1  0  0  0  0
 11 39  1  0  0  0  0
 12 13  2  0  0  0  0
 12 14  1  0  0  0  0
 14 15  1  0  0  0  0
 14 40  1  0  0  0  0
 14 41  1  0  0  0  0
 15 20  1  0  0  0  0
 15 16  2  0  0  0  0
 16 17  1  0  0  0  0
 16 42  1  0  0  0  0
 17 18  2  0  0  0  0
 17 43  1  0  0  0  0
 18 19  1  0  0  0  0
 18 44  1  0  0  0  0
 19 20  2  0  0  0  0
 20 45  1  0  0  0  0
 21 46  1  0  0  0  0
 21 47  1  0  0  0  0
M  END
> <s_m_source_file>
AV-unprocessed.smi

> <i_m_source_file_index>
2802

> <i_lp_mmshare_version>
43012

> <i_f3d_flags>
0

> <s_epik_input>
W0NIM11DMShbQ0gzXSlbQ0gyXVtDQEBIXShbQ0gzXSlbQ0gyXVtDQF0oW0NIMl0xKShbQ0gyXVtPSF0pW05IXUMoPU8pW0NIMl1jMltjSF1bY0hdW2NIXW5bY0hdMg==

> <s_epik_cmdline>
J2VwaWtfcHl0aG9uJywgJy1waCcsICc3LjAnLCAnLXRuJywgJzgnLCAnLW1hJywgJzIwMCcsICctbWV0YWxfYmluZGluZycsICctaW1hZScsICc8aW5maWxlLm1hZT4nLCAnLW9tYWUnLCAnPG91dGZpbGUubWFlPic=

> <r_epik_Ionization_Penalty>
0.004793

> <r_epik_Ionization_Penalty_Charging>
0

> <r_epik_Ionization_Penalty_Neutral>
0.004793

> <r_epik_State_Penalty>
0.00347421

> <r_epik_Charging_Adjusted_Penalty>
0.00347421

> <i_epik_Tot_Q>
0

> <i_epik_Tot_abs_Q>
0

> <r_epik_Metal_State_Penalty>
-0

> <b_epik_Metal_Only>
0

> <s_lp_Force_Field>
OPLS_2005

> <r_lp_Energy>
18.2871

> <b_lp_Chiralities_Consistent>
1

> <s_lp_Variant>
AV-unprocessed.smi:2802-1

> <Gold.Version>
5.8.1

> <Gold.Id.Protein>
6NUR|6NUR_protein|mol2

> <Gold.PLP.Fitness>
42.0835

> <Gold.PLP.PLP>
-39.2434

> <Gold.PLP.part.hbond>
-1.0000

> <Gold.PLP.part.metal>
0.0000

> <Gold.PLP.part.buried>
-2.9444

> <Gold.PLP.part.nonpolar>
-35.8112

> <Gold.PLP.part.repulsive>
0.0858

> <Gold.PLP.ligand.clash>
0.0000

> <Gold.PLP.ligand.torsion>
0.0943

> <Gold.PLP.Chemscore.Hbond>
1.0000

> <Gold.PLP.Chemscore.CHOScore>
0.0000

> <Gold.PLP.Chemscore.Metal>
0.0000

> <Gold.Chemscore.Hbonds>
donor molecule, donor type, donor heavy atom, donor atom, acceptor molecule, acceptor atom, score
      L1  H    11    39       P1  8028  0.81

> <Gold.PLP.Chemscore.Internal.Correction>
0.0287

> <Gold.Rescore>
     Score         DG    S(hbond)    S(metal)    S(lipo)     H(rot)  DE(clash)    DE(int)     intcor
     16.41     -16.75       0.99        0.00     111.72       2.00       0.07       0.27       ----

> <Gold.Chemscore.Fitness>
16.4059

> <Gold.Chemscore.DG>
-16.7474

> <Gold.Chemscore.ZeroCoef>
-5.4800

> <Gold.Chemscore.Hbond>
0.9947

> <Gold.Chemscore.Metal>
0.0000

> <Gold.Chemscore.Lipo>
111.7245

> <Gold.Chemscore.Internal_Hbond>
0.0000

> <Gold.Chemscore.DEClash>
0.0748

> <Gold.Chemscore.DEInternal>
0.2668

> <Gold.Chemscore.Rot>
2.0026

> <Gold.Chemscore.Internal.Correction>
   9.000000E+99

> <Gold.Chemscore.Hbonds>
donor molecule, donor type, donor heavy atom, donor atom, acceptor molecule, acceptor atom, score
      L1  H    11    39       P1  8028  0.76

> <Gold.Chemscore.Hbond.Weighted>
-3.3223

> <Gold.Chemscore.Metal.Weighted>
-0.0000

> <Gold.Chemscore.Lipo.Weighted>
-13.0718

> <Gold.Chemscore.Internal_Hbond.Weighted>
0.0000

> <Gold.Chemscore.DEClash.Weighted>
0.0748

> <Gold.Chemscore.DEInternal.Weighted>
0.2668

> <Gold.Chemscore.Rot.Weighted>
5.1267

> <Gold.Chemscore.Internal.Correction.Weighted>
   9.000000E+99

> <Gold.Protein.RotatedTorsions>
[ 6907 6896 6895 6894 ] final  -96.81 input  -60.11 | X-H torsion
[ 7974 7965 7964 7962 ] final  -92.61 input  175.53 | X-H torsion
[ 8008 7997 7996 7995 ] final   22.08 input   59.86 | X-H torsion
[ 10167 10162 10161 10158 ] final   -0.97 input  -65.29 | X-H torsion
[ 10718 10713 10712 10709 ] final  -59.62 input   66.30 | X-H torsion
[ 10763 10752 10751 10750 ] final  -67.16 input  -60.55 | X-H torsion
[ 11005 11000 10999 10996 ] final   59.49 input  -57.11 | X-H torsion

> <Gold.Protein.ActiveResidues>
 VAL166  LYS551  ARG553  GLY616  TRP617  ASP618  TYR619  PRO620  LYS621  CYS622 
 ASP623  PHE694  ASN695  SER759  ASP760  ASP761  ALA762  ILE779  LEU786  VAL792 
 PHE793  MET794  SER795  GLU796  ALA797  LYS798  CYS799  TRP800  GLU811  SER814 

> <Gold.Protein.RotatedAtoms>
  150.6999  134.1445  159.4117 H   0  0  0  0  0  0  0  0  0  0  0  0  # atno 6907 bound_to 6896
  151.9429  135.0203  160.0546 H   0  0  0  0  0  0  0  0  0  0  0  0  # atno 6908 bound_to 6896
  152.2078  133.4853  159.5130 H   0  0  0  0  0  0  0  0  0  0  0  0  # atno 6909 bound_to 6896
  145.3976  140.9534  143.2305 H   0  0  0  0  0  0  0  0  0  0  0  0  # atno 7974 bound_to 7965
  154.9603  140.3077  155.5034 H   0  0  0  0  0  0  0  0  0  0  0  0  # atno 8008 bound_to 7997
  156.2978  140.2302  156.4627 H   0  0  0  0  0  0  0  0  0  0  0  0  # atno 8009 bound_to 7997
  154.7971  140.0436  157.1233 H   0  0  0  0  0  0  0  0  0  0  0  0  # atno 8010 bound_to 7997
  140.6790  143.6831  150.8089 H   0  0  0  0  0  0  0  0  0  0  0  0  # atno 10167 bound_to 10162
  156.1049  130.4181  150.0740 H   0  0  0  0  0  0  0  0  0  0  0  0  # atno 10718 bound_to 10713
  154.3705  135.6096  153.5737 H   0  0  0  0  0  0  0  0  0  0  0  0  # atno 10763 bound_to 10752
  152.9790  135.5837  154.4528 H   0  0  0  0  0  0  0  0  0  0  0  0  # atno 10764 bound_to 10752
  154.4280  135.2847  155.1909 H   0  0  0  0  0  0  0  0  0  0  0  0  # atno 10765 bound_to 10752
  140.0300  134.6026  155.9520 H   0  0  0  0  0  0  0  0  0  0  0  0  # atno 11005 bound_to 11000
  144.8396  139.5493  143.6906 LP  0  0  0  0  0  0  0  0  0  0  0  0  # atno 17320 bound_to 7965
  146.2767  139.6772  142.9258 LP  0  0  0  0  0  0  0  0  0  0  0  0  # atno 17321 bound_to 7965
  140.0529  143.5232  152.2665 LP  0  0  0  0  0  0  0  0  0  0  0  0  # atno 17342 bound_to 10162
  139.6100  144.7606  151.2973 LP  0  0  0  0  0  0  0  0  0  0  0  0  # atno 17343 bound_to 10162
  156.8718  130.9527  151.3608 LP  0  0  0  0  0  0  0  0  0  0  0  0  # atno 17370 bound_to 10713
  157.6224  130.8665  149.9132 LP  0  0  0  0  0  0  0  0  0  0  0  0  # atno 17371 bound_to 10713
  141.1825  133.6549  156.5081 LP  0  0  0  0  0  0  0  0  0  0  0  0  # atno 17394 bound_to 11000
  140.4241  134.7161  157.4906 LP  0  0  0  0  0  0  0  0  0  0  0  0  # atno 17395 bound_to 11000

$$$$
