AV-unprocessed.smi:2673|AV-procd|sdf|10356|dock6
  -GOLD-   2272014383D 1   1.00000     0.00000
 Structure written by MMmdl.
 32 33  0  0  0  0  0  0  0  0  1 V2000
  145.7469  135.1238  154.9484 O   0  0  0  0  0  0  0  0  0  0  0  0
  144.8831  134.2638  154.7827 C   0  0  0  0  0  0  0  0  0  0  0  0
  144.1367  133.7228  155.7617 N   0  0  0  0  0  0  0  0  0  0  0  0
  144.1526  134.0213  157.1501 C   0  0  0  0  0  0  0  0  0  0  0  0
  143.1291  133.7648  157.9798 N   0  0  0  0  0  0  0  0  0  0  0  0
  143.4080  134.1519  159.2842 N   0  0  0  0  0  0  0  0  0  0  0  0
  144.6289  134.6845  159.3868 C   0  0  0  0  0  0  0  0  0  0  0  0
  145.5572  134.7666  157.8996 S   0  0  0  0  0  0  0  0  0  0  0  0
  144.5603  133.7339  153.5911 N   0  0  0  0  0  0  0  0  0  0  0  0
  145.0980  134.0374  152.2532 C   0  0  0  0  0  0  0  0  0  0  0  0
  144.9347  135.5546  151.9475 C   0  0  0  0  0  0  0  0  0  0  0  0
  145.2717  135.8151  150.6836 F   0  0  0  0  0  0  0  0  0  0  0  0
  143.6660  135.9281  152.1242 F   0  0  0  0  0  0  0  0  0  0  0  0
  145.7049  136.3071  152.7325 F   0  0  0  0  0  0  0  0  0  0  0  0
  146.5836  133.5981  152.1032 C   0  0  0  0  0  0  0  0  0  0  0  0
  146.7846  132.0807  152.2695 C   0  0  0  0  0  0  0  0  0  0  0  0
  145.9198  131.2970  151.2721 C   0  0  0  0  0  0  0  0  0  0  0  0
  144.4411  131.6922  151.3909 C   0  0  0  0  0  0  0  0  0  0  0  0
  144.2544  133.2149  151.2413 C   0  0  0  0  0  0  0  0  0  0  0  0
  143.4689  133.0208  155.4792 H   0  0  0  0  0  0  0  0  0  0  0  0
  144.9854  135.0313  160.3453 H   0  0  0  0  0  0  0  0  0  0  0  0
  143.8327  133.0346  153.6011 H   0  0  0  0  0  0  0  0  0  0  0  0
  146.9414  133.8837  151.1134 H   0  0  0  0  0  0  0  0  0  0  0  0
  147.2280  134.1313  152.8011 H   0  0  0  0  0  0  0  0  0  0  0  0
  147.8353  131.8299  152.1215 H   0  0  0  0  0  0  0  0  0  0  0  0
  146.5398  131.7795  153.2886 H   0  0  0  0  0  0  0  0  0  0  0  0
  146.2680  131.4916  150.2570 H   0  0  0  0  0  0  0  0  0  0  0  0
  146.0351  130.2256  151.4385 H   0  0  0  0  0  0  0  0  0  0  0  0
  143.8603  131.1739  150.6275 H   0  0  0  0  0  0  0  0  0  0  0  0
  144.0475  131.3574  152.3513 H   0  0  0  0  0  0  0  0  0  0  0  0
  143.1966  133.4606  151.3436 H   0  0  0  0  0  0  0  0  0  0  0  0
  144.5264  133.4931  150.2226 H   0  0  0  0  0  0  0  0  0  0  0  0
  1  2  2  0  0  0  0
  2  3  1  0  0  0  0
  2  9  1  0  0  0  0
  3  4  1  0  0  0  0
  3 20  1  0  0  0  0
  4  8  1  0  0  0  0
  4  5  2  0  0  0  0
  5  6  1  0  0  0  0
  6  7  2  0  0  0  0
  7  8  1  0  0  0  0
  7 21  1  0  0  0  0
  9 10  1  0  0  0  0
  9 22  1  0  0  0  0
 10 19  1  0  0  0  0
 10 11  1  0  0  0  0
 10 15  1  0  0  0  0
 11 12  1  0  0  0  0
 11 13  1  0  0  0  0
 11 14  1  0  0  0  0
 15 16  1  0  0  0  0
 15 23  1  0  0  0  0
 15 24  1  0  0  0  0
 16 17  1  0  0  0  0
 16 25  1  0  0  0  0
 16 26  1  0  0  0  0
 17 18  1  0  0  0  0
 17 27  1  0  0  0  0
 17 28  1  0  0  0  0
 18 19  1  0  0  0  0
 18 29  1  0  0  0  0
 18 30  1  0  0  0  0
 19 31  1  0  0  0  0
 19 32  1  0  0  0  0
M  END
> <s_m_source_file>
AV-unprocessed.smi

> <i_m_source_file_index>
2673

> <i_lp_mmshare_version>
43012

> <i_f3d_flags>
0

> <s_epik_input>
czFbY0hdbm5jMVtOSF1DKD1PKVtOSF1DMihDKEYpKEYpRilbQ0gyXVtDSDJdW0NIMl1bQ0gyXVtDSDJdMg==

> <s_epik_cmdline>
J2VwaWtfcHl0aG9uJywgJy1waCcsICc3LjAnLCAnLXRuJywgJzgnLCAnLW1hJywgJzIwMCcsICctbWV0YWxfYmluZGluZycsICctaW1hZScsICc8aW5maWxlLm1hZT4nLCAnLW9tYWUnLCAnPG91dGZpbGUubWFlPic=

> <r_lp_tautomer_probability>
1

> <r_epik_Ionization_Penalty>
1.40881

> <r_epik_Ionization_Penalty_Charging>
0

> <r_epik_Ionization_Penalty_Neutral>
1.40881

> <r_epik_State_Penalty>
1.51827

> <r_epik_Charging_Adjusted_Penalty>
1.51827

> <i_epik_Tot_Q>
0

> <i_epik_Tot_abs_Q>
0

> <r_epik_Metal_State_Penalty>
1.5692

> <b_epik_Metal_Only>
0

> <s_lp_Force_Field>
OPLS_2005

> <r_lp_Energy>
12.8136

> <b_lp_Chiralities_Consistent>
1

> <s_lp_Variant>
AV-unprocessed.smi:2673-2

> <Gold.Version>
5.8.1

> <Gold.Id.Protein>
6NUR|6NUR_protein|mol2

> <Gold.PLP.Fitness>
31.7904

> <Gold.PLP.PLP>
-23.9925

> <Gold.PLP.part.hbond>
-3.0000

> <Gold.PLP.part.metal>
0.0000

> <Gold.PLP.part.buried>
-3.7323

> <Gold.PLP.part.nonpolar>
-18.7936

> <Gold.PLP.part.repulsive>
0.1038

> <Gold.PLP.ligand.clash>
0.0000

> <Gold.PLP.ligand.torsion>
0.2073

> <Gold.PLP.Chemscore.Hbond>
2.7280

> <Gold.PLP.Chemscore.CHOScore>
0.0000

> <Gold.PLP.Chemscore.Metal>
0.0000

> <Gold.Chemscore.Hbonds>
donor molecule, donor type, donor heavy atom, donor atom, acceptor molecule, acceptor atom, score
      L1  H     3    20       P1 10957  1.00
      L1  H     9    22       P1 10957  0.80
      P1  H 11000 11005       L1     5  0.75

> <Gold.PLP.Chemscore.Internal.Correction>
0.0284

> <Gold.Rescore>
     Score         DG    S(hbond)    S(metal)    S(lipo)     H(rot)  DE(clash)    DE(int)     intcor
     15.25     -17.19       2.94        0.00      38.00       1.00       0.05       1.89       ----

> <Gold.Chemscore.Fitness>
15.2531

> <Gold.Chemscore.DG>
-17.1870

> <Gold.Chemscore.ZeroCoef>
-5.4800

> <Gold.Chemscore.Hbond>
2.9403

> <Gold.Chemscore.Metal>
0.0000

> <Gold.Chemscore.Lipo>
38.0022

> <Gold.Chemscore.Internal_Hbond>
0.0000

> <Gold.Chemscore.DEClash>
0.0458

> <Gold.Chemscore.DEInternal>
1.8881

> <Gold.Chemscore.Rot>
1.0000

> <Gold.Chemscore.Internal.Correction>
   9.000000E+99

> <Gold.Chemscore.Hbonds>
donor molecule, donor type, donor heavy atom, donor atom, acceptor molecule, acceptor atom, score
      L1  H     3    20       P1 10957  0.99
      L1  H     9    22       P1 10957  0.68
      P1  H 11000 11005       L1     5  0.70

> <Gold.Chemscore.Hbond.Weighted>
-9.8208

> <Gold.Chemscore.Metal.Weighted>
-0.0000

> <Gold.Chemscore.Lipo.Weighted>
-4.4463

> <Gold.Chemscore.Internal_Hbond.Weighted>
0.0000

> <Gold.Chemscore.DEClash.Weighted>
0.0458

> <Gold.Chemscore.DEInternal.Weighted>
1.8881

> <Gold.Chemscore.Rot.Weighted>
2.5600

> <Gold.Chemscore.Internal.Correction.Weighted>
   9.000000E+99

> <Gold.Protein.RotatedTorsions>
[ 6907 6896 6895 6894 ] final  118.65 input  -60.11 | X-H torsion
[ 7974 7965 7964 7962 ] final -161.51 input  175.53 | X-H torsion
[ 8008 7997 7996 7995 ] final -124.76 input   59.86 | X-H torsion
[ 10167 10162 10161 10158 ] final  139.38 input  -65.29 | X-H torsion
[ 10718 10713 10712 10709 ] final  -46.42 input   66.30 | X-H torsion
[ 10763 10752 10751 10750 ] final  -38.18 input  -60.55 | X-H torsion
[ 11005 11000 10999 10996 ] final -114.16 input  -57.11 | X-H torsion

> <Gold.Protein.ActiveResidues>
 VAL166  LYS551  ARG553  GLY616  TRP617  ASP618  TYR619  PRO620  LYS621  CYS622 
 ASP623  PHE694  ASN695  SER759  ASP760  ASP761  ALA762  ILE779  LEU786  VAL792 
 PHE793  MET794  SER795  GLU796  ALA797  LYS798  CYS799  TRP800  GLU811  SER814 

> <Gold.Protein.RotatedAtoms>
  152.4528  133.7662  159.6773 H   0  0  0  0  0  0  0  0  0  0  0  0  # atno 6907 bound_to 6896
  150.8444  133.7874  159.3054 H   0  0  0  0  0  0  0  0  0  0  0  0  # atno 6908 bound_to 6896
  151.5489  135.1070  159.9996 H   0  0  0  0  0  0  0  0  0  0  0  0  # atno 6909 bound_to 6896
  144.7389  140.3387  143.6139 H   0  0  0  0  0  0  0  0  0  0  0  0  # atno 7974 bound_to 7965
  155.2021  140.0416  157.2919 H   0  0  0  0  0  0  0  0  0  0  0  0  # atno 8008 bound_to 7997
  154.6068  140.2466  155.7692 H   0  0  0  0  0  0  0  0  0  0  0  0  # atno 8009 bound_to 7997
  156.2355  140.2923  156.0310 H   0  0  0  0  0  0  0  0  0  0  0  0  # atno 8010 bound_to 7997
  139.5081  144.6298  151.5846 H   0  0  0  0  0  0  0  0  0  0  0  0  # atno 10167 bound_to 10162
  156.2185  130.4164  149.9023 H   0  0  0  0  0  0  0  0  0  0  0  0  # atno 10718 bound_to 10713
  153.9086  135.6795  153.4752 H   0  0  0  0  0  0  0  0  0  0  0  0  # atno 10763 bound_to 10752
  153.1090  135.4792  154.9000 H   0  0  0  0  0  0  0  0  0  0  0  0  # atno 10764 bound_to 10752
  154.7538  135.3192  154.8462 H   0  0  0  0  0  0  0  0  0  0  0  0  # atno 10765 bound_to 10752
  141.0569  133.9598  157.2738 H   0  0  0  0  0  0  0  0  0  0  0  0  # atno 11005 bound_to 11000
  145.7396  139.1760  143.2383 LP  0  0  0  0  0  0  0  0  0  0  0  0  # atno 17320 bound_to 7965
  146.1144  140.7388  142.9488 LP  0  0  0  0  0  0  0  0  0  0  0  0  # atno 17321 bound_to 7965
  140.6027  143.9580  150.6397 LP  0  0  0  0  0  0  0  0  0  0  0  0  # atno 17342 bound_to 10162
  140.2797  143.3398  152.1162 LP  0  0  0  0  0  0  0  0  0  0  0  0  # atno 17343 bound_to 10162
  156.6678  130.8808  151.3557 LP  0  0  0  0  0  0  0  0  0  0  0  0  # atno 17370 bound_to 10713
  157.7075  130.9402  150.0979 LP  0  0  0  0  0  0  0  0  0  0  0  0  # atno 17371 bound_to 10713
  139.9398  135.0192  156.8671 LP  0  0  0  0  0  0  0  0  0  0  0  0  # atno 17394 bound_to 11000
  140.5946  134.0229  155.7513 LP  0  0  0  0  0  0  0  0  0  0  0  0  # atno 17395 bound_to 11000

$$$$
