AV-unprocessed.smi:1734|AV-procd|sdf|6987|dock7
  -GOLD-   22720 8203D 1   1.00000     0.00000
 Structure written by MMmdl.
 51 53  0  0  0  0  0  0  0  0  2 V2000
  147.3036  141.3157  155.1258 C   0  0  0  0  0  0  0  0  0  0  0  0
  148.7336  140.9515  155.4912 C   0  0  0  0  0  0  0  0  0  0  0  0
  149.3216  141.5283  156.6369 C   0  0  0  0  0  0  0  0  0  0  0  0
  150.6440  141.1915  156.9723 C   0  0  0  0  0  0  0  0  0  0  0  0
  151.3265  140.2851  156.1430 C   0  0  0  0  0  0  0  0  0  0  0  0
  150.7722  139.7286  155.0465 N   0  0  0  0  0  0  0  0  0  0  0  0
  149.4968  140.0446  154.7079 C   0  0  0  0  0  0  0  0  0  0  0  0
  148.8489  139.4991  153.5640 N   0  0  0  0  0  0  0  0  0  0  0  0
  147.6891  138.8218  153.5037 C   0  0  0  0  0  0  0  0  0  0  0  0
  146.9690  138.5469  154.4640 O   0  0  0  0  0  0  0  0  0  0  0  0
  147.3895  138.4836  152.2414 N   0  0  0  0  0  0  0  0  0  0  0  0
  146.1804  137.7750  151.8378 C   0  0  0  0  0  0  0  0  0  0  0  0
  145.7464  136.6642  152.8373 C   0  0  1  0  0  0  0  0  0  0  0  0
  144.2306  136.3219  152.7742 C   0  0  1  0  0  0  0  0  0  0  0  0
  143.7753  135.3149  153.8186 C   0  0  0  0  0  0  0  0  0  0  0  0
  142.2640  135.5075  153.8172 C   0  0  0  0  0  0  0  0  0  0  0  0
  142.0626  136.8909  153.5596 O   0  0  0  0  0  0  0  0  0  0  0  0
  143.2689  137.4779  153.0822 C   0  0  0  0  0  0  0  0  0  0  0  0
  146.5585  135.4213  152.6711 N   0  3  0  0  0  0  0  0  0  0  0  0
  146.8558  134.6632  153.9130 C   0  0  0  0  0  0  0  0  0  0  0  0
  147.8436  133.5257  153.6056 C   0  0  0  0  0  0  0  0  0  0  0  0
  147.2960  132.6783  152.6023 O   0  0  0  0  0  0  0  0  0  0  0  0
  147.0688  133.3705  151.3798 C   0  0  0  0  0  0  0  0  0  0  0  0
  146.0637  134.5121  151.6083 C   0  0  0  0  0  0  0  0  0  0  0  0
  146.8733  142.0085  155.8496 H   0  0  0  0  0  0  0  0  0  0  0  0
  146.6758  140.4244  155.1015 H   0  0  0  0  0  0  0  0  0  0  0  0
  147.2706  141.7914  154.1452 H   0  0  0  0  0  0  0  0  0  0  0  0
  148.7688  142.2215  157.2538 H   0  0  0  0  0  0  0  0  0  0  0  0
  151.1223  141.6166  157.8422 H   0  0  0  0  0  0  0  0  0  0  0  0
  152.3441  139.9993  156.3649 H   0  0  0  0  0  0  0  0  0  0  0  0
  149.3239  139.6529  152.6869 H   0  0  0  0  0  0  0  0  0  0  0  0
  148.0353  138.7429  151.5097 H   0  0  0  0  0  0  0  0  0  0  0  0
  145.3920  138.5207  151.7362 H   0  0  0  0  0  0  0  0  0  0  0  0
  146.3416  137.3656  150.8400 H   0  0  0  0  0  0  0  0  0  0  0  0
  145.9418  137.0199  153.8500 H   0  0  0  0  0  0  0  0  0  0  0  0
  143.9805  135.9291  151.7877 H   0  0  0  0  0  0  0  0  0  0  0  0
  144.0625  134.2893  153.5845 H   0  0  0  0  0  0  0  0  0  0  0  0
  144.1830  135.5686  154.7984 H   0  0  0  0  0  0  0  0  0  0  0  0
  141.8078  134.9328  153.0103 H   0  0  0  0  0  0  0  0  0  0  0  0
  141.8011  135.2027  154.7562 H   0  0  0  0  0  0  0  0  0  0  0  0
  143.6677  138.1172  153.8709 H   0  0  0  0  0  0  0  0  0  0  0  0
  143.0695  138.1003  152.2098 H   0  0  0  0  0  0  0  0  0  0  0  0
  147.2830  135.3197  154.6703 H   0  0  0  0  0  0  0  0  0  0  0  0
  145.9399  134.2417  154.3287 H   0  0  0  0  0  0  0  0  0  0  0  0
  148.8065  133.9227  153.2795 H   0  0  0  0  0  0  0  0  0  0  0  0
  148.0298  132.9357  154.5032 H   0  0  0  0  0  0  0  0  0  0  0  0
  148.0111  133.7537  150.9847 H   0  0  0  0  0  0  0  0  0  0  0  0
  146.6779  132.6677  150.6436 H   0  0  0  0  0  0  0  0  0  0  0  0
  145.0946  134.0971  151.8868 H   0  0  0  0  0  0  0  0  0  0  0  0
  145.9213  135.0636  150.6782 H   0  0  0  0  0  0  0  0  0  0  0  0
  147.4529  135.7469  152.3331 H   0  0  0  0  0  0  0  0  0  0  0  0
  1  2  1  0  0  0  0
  1 25  1  0  0  0  0
  1 26  1  0  0  0  0
  1 27  1  0  0  0  0
  2  7  1  0  0  0  0
  2  3  2  0  0  0  0
  3  4  1  0  0  0  0
  3 28  1  0  0  0  0
  4  5  2  0  0  0  0
  4 29  1  0  0  0  0
  5  6  1  0  0  0  0
  5 30  1  0  0  0  0
  6  7  2  0  0  0  0
  7  8  1  0  0  0  0
  8  9  1  0  0  0  0
  8 31  1  0  0  0  0
  9 10  2  0  0  0  0
  9 11  1  0  0  0  0
 11 12  1  0  0  0  0
 11 32  1  0  0  0  0
 12 13  1  0  0  0  0
 12 33  1  0  0  0  0
 12 34  1  0  0  0  0
 13 14  1  0  0  0  0
 13 19  1  0  0  0  0
 13 35  1  0  0  0  0
 14 18  1  0  0  0  0
 14 15  1  0  0  0  0
 14 36  1  0  0  0  0
 15 16  1  0  0  0  0
 15 37  1  0  0  0  0
 15 38  1  0  0  0  0
 16 17  1  0  0  0  0
 16 39  1  0  0  0  0
 16 40  1  0  0  0  0
 17 18  1  0  0  0  0
 18 41  1  0  0  0  0
 18 42  1  0  0  0  0
 19 24  1  0  0  0  0
 19 20  1  0  0  0  0
 19 51  1  0  0  0  0
 20 21  1  0  0  0  0
 20 43  1  0  0  0  0
 20 44  1  0  0  0  0
 21 22  1  0  0  0  0
 21 45  1  0  0  0  0
 21 46  1  0  0  0  0
 22 23  1  0  0  0  0
 23 24  1  0  0  0  0
 23 47  1  0  0  0  0
 23 48  1  0  0  0  0
 24 49  1  0  0  0  0
 24 50  1  0  0  0  0
M  CHG  1  19   1
M  END
> <s_m_source_file>
AV-unprocessed.smi

> <i_m_source_file_index>
1734

> <i_lp_mmshare_version>
43012

> <i_f3d_flags>
0

> <s_epik_input>
W0NIM11jMVtjSF1bY0hdW2NIXW5jMVtOSF1DKD1PKVtOSF1bQ0gyXVtDQEhdKFtDQEBIXTJbQ0gyXVtDSDJdT1tDSDJdMilOM1tDSDJdW0NIMl1PW0NIMl1bQ0gyXTM=

> <s_epik_cmdline>
J2VwaWtfcHl0aG9uJywgJy1waCcsICc3LjAnLCAnLXRuJywgJzgnLCAnLW1hJywgJzIwMCcsICctbWV0YWxfYmluZGluZycsICctaW1hZScsICc8aW5maWxlLm1hZT4nLCAnLW9tYWUnLCAnPG91dGZpbGUubWFlPic=

> <r_epik_Ionization_Penalty>
0.983302

> <r_epik_Ionization_Penalty_Charging>
0.98326

> <r_epik_Ionization_Penalty_Neutral>
4.21967e-05

> <r_epik_State_Penalty>
1.0303

> <r_epik_Charging_Adjusted_Penalty>
2.01356

> <i_epik_Tot_Q>
1

> <i_epik_Tot_abs_Q>
1

> <r_epik_Metal_State_Penalty>
1.03031

> <b_epik_Metal_Only>
0

> <s_lp_Force_Field>
OPLS_2005

> <r_lp_Energy>
38.82

> <b_lp_Chiralities_Consistent>
1

> <s_lp_Variant>
AV-unprocessed.smi:1734-8

> <Gold.Version>
5.8.1

> <Gold.Id.Protein>
6NUR|6NUR_protein|mol2

> <Gold.PLP.Fitness>
47.6230

> <Gold.PLP.PLP>
-36.0528

> <Gold.PLP.part.hbond>
-4.9102

> <Gold.PLP.part.metal>
0.0000

> <Gold.PLP.part.buried>
-3.4547

> <Gold.PLP.part.nonpolar>
-29.2154

> <Gold.PLP.part.repulsive>
0.6521

> <Gold.PLP.ligand.clash>
0.0013

> <Gold.PLP.ligand.torsion>
1.5088

> <Gold.PLP.Chemscore.Hbond>
4.7544

> <Gold.PLP.Chemscore.CHOScore>
0.0000

> <Gold.PLP.Chemscore.Metal>
0.0000

> <Gold.Chemscore.Hbonds>
donor molecule, donor type, donor heavy atom, donor atom, acceptor molecule, acceptor atom, score
      L1  H     8    31       P1  7957  1.00
      L1  H    11    32       P1  7957  0.85
      L1  H    19    51       P1  7948  2.00
      P1  H  7989  7998       L1     6  0.57

> <Gold.PLP.Chemscore.Internal.Correction>
0.3261

> <Gold.Rescore>
     Score         DG    S(hbond)    S(metal)    S(lipo)     H(rot)  DE(clash)    DE(int)     intcor
     13.60     -19.47       3.05        0.00      69.63       1.70       0.34       5.53       ----

> <Gold.Chemscore.Fitness>
13.6035

> <Gold.Chemscore.DG>
-19.4746

> <Gold.Chemscore.ZeroCoef>
-5.4800

> <Gold.Chemscore.Hbond>
3.0527

> <Gold.Chemscore.Metal>
0.0000

> <Gold.Chemscore.Lipo>
69.6328

> <Gold.Chemscore.Internal_Hbond>
0.0000

> <Gold.Chemscore.DEClash>
0.3425

> <Gold.Chemscore.DEInternal>
5.5286

> <Gold.Chemscore.Rot>
1.6986

> <Gold.Chemscore.Internal.Correction>
   9.000000E+99

> <Gold.Chemscore.Hbonds>
donor molecule, donor type, donor heavy atom, donor atom, acceptor molecule, acceptor atom, score
      L1  H     8    31       P1  7957  0.98
      L1  H    11    32       P1  7957  0.47
      L1  H    19    51       P1  7948  0.99
      P1  H  7989  7998       L1     6  0.02

> <Gold.Chemscore.Hbond.Weighted>
-10.1961

> <Gold.Chemscore.Metal.Weighted>
-0.0000

> <Gold.Chemscore.Lipo.Weighted>
-8.1470

> <Gold.Chemscore.Internal_Hbond.Weighted>
0.0000

> <Gold.Chemscore.DEClash.Weighted>
0.3425

> <Gold.Chemscore.DEInternal.Weighted>
5.5286

> <Gold.Chemscore.Rot.Weighted>
4.3485

> <Gold.Chemscore.Internal.Correction.Weighted>
   9.000000E+99

> <Gold.Protein.RotatedTorsions>
[ 6907 6896 6895 6894 ] final -128.02 input  -60.11 | X-H torsion
[ 7974 7965 7964 7962 ] final   38.70 input  175.53 | X-H torsion
[ 8008 7997 7996 7995 ] final   51.95 input   59.86 | X-H torsion
[ 10167 10162 10161 10158 ] final -100.08 input  -65.29 | X-H torsion
[ 10718 10713 10712 10709 ] final  -40.16 input   66.30 | X-H torsion
[ 10763 10752 10751 10750 ] final   92.38 input  -60.55 | X-H torsion
[ 11005 11000 10999 10996 ] final -102.89 input  -57.11 | X-H torsion

> <Gold.Protein.ActiveResidues>
 VAL166  LYS551  ARG553  GLY616  TRP617  ASP618  TYR619  PRO620  LYS621  CYS622 
 ASP623  PHE694  ASN695  SER759  ASP760  ASP761  ALA762  ILE779  LEU786  VAL792 
 PHE793  MET794  SER795  GLU796  ALA797  LYS798  CYS799  TRP800  GLU811  SER814 

> <Gold.Protein.RotatedAtoms>
  150.9135  133.6968  159.2848 H   0  0  0  0  0  0  0  0  0  0  0  0  # atno 6907 bound_to 6896
  151.4447  135.1022  159.9690 H   0  0  0  0  0  0  0  0  0  0  0  0  # atno 6908 bound_to 6896
  152.4942  133.8535  159.7269 H   0  0  0  0  0  0  0  0  0  0  0  0  # atno 6909 bound_to 6896
  146.1041  139.5740  142.9395 H   0  0  0  0  0  0  0  0  0  0  0  0  # atno 7974 bound_to 7965
  155.4437  140.3455  155.4293 H   0  0  0  0  0  0  0  0  0  0  0  0  # atno 8008 bound_to 7997
  156.1263  140.1501  156.9161 H   0  0  0  0  0  0  0  0  0  0  0  0  # atno 8009 bound_to 7997
  154.4860  140.0855  156.7468 H   0  0  0  0  0  0  0  0  0  0  0  0  # atno 8010 bound_to 7997
  140.2557  143.3441  152.0673 H   0  0  0  0  0  0  0  0  0  0  0  0  # atno 10167 bound_to 10162
  156.2844  130.4221  149.8303 H   0  0  0  0  0  0  0  0  0  0  0  0  # atno 10718 bound_to 10713
  153.2185  135.4363  155.0462 H   0  0  0  0  0  0  0  0  0  0  0  0  # atno 10763 bound_to 10752
  154.8238  135.3350  154.6962 H   0  0  0  0  0  0  0  0  0  0  0  0  # atno 10764 bound_to 10752
  153.7395  135.7005  153.5026 H   0  0  0  0  0  0  0  0  0  0  0  0  # atno 10765 bound_to 10752
  141.1169  133.8595  157.1417 H   0  0  0  0  0  0  0  0  0  0  0  0  # atno 11005 bound_to 11000
  145.5795  141.0384  143.2130 LP  0  0  0  0  0  0  0  0  0  0  0  0  # atno 17320 bound_to 7965
  144.7457  139.7328  143.7293 LP  0  0  0  0  0  0  0  0  0  0  0  0  # atno 17321 bound_to 7965
  139.5032  144.6751  151.6149 LP  0  0  0  0  0  0  0  0  0  0  0  0  # atno 17342 bound_to 10162
  140.6005  143.9618  150.6383 LP  0  0  0  0  0  0  0  0  0  0  0  0  # atno 17343 bound_to 10162
  156.5739  130.8437  151.3364 LP  0  0  0  0  0  0  0  0  0  0  0  0  # atno 17370 bound_to 10713
  157.7324  130.9714  150.1926 LP  0  0  0  0  0  0  0  0  0  0  0  0  # atno 17371 bound_to 10713
  140.0098  134.9993  157.0371 LP  0  0  0  0  0  0  0  0  0  0  0  0  # atno 17394 bound_to 11000
  140.4618  134.1476  155.7192 LP  0  0  0  0  0  0  0  0  0  0  0  0  # atno 17395 bound_to 11000

$$$$
