AV-unprocessed.smi:1929|AV-procd|sdf|7806|dock6
  -GOLD-   22720 9543D 1   1.00000     0.00000
 Structure written by MMmdl.
 42 43  0  0  0  0  0  0  0  0  3 V2000
  152.8411  138.1436  157.2658 C   0  0  0  0  0  0  0  0  0  0  0  0
  152.5905  139.2586  156.3598 N   0  5  0  0  0  0  0  0  0  0  0  0
  151.3980  139.4695  155.7407 C   0  0  0  0  0  0  0  0  0  0  0  0
  150.9164  140.4936  155.2449 O   0  0  0  0  0  0  0  0  0  0  0  0
  150.5575  138.1877  155.7110 C   0  0  0  0  0  0  0  0  0  0  0  0
  149.1635  138.4918  155.3006 N   0  3  2  0  0  0  0  0  0  0  0  0
  148.2156  137.3763  155.5694 C   0  0  0  0  0  0  0  0  0  0  0  0
  146.7690  137.7828  155.2390 C   0  0  0  0  0  0  0  0  0  0  0  0
  146.6266  138.2709  153.7842 C   0  0  2  0  0  0  0  0  0  0  0  0
  146.7896  137.1768  152.8267 N   0  0  0  0  0  0  0  0  0  0  0  0
  145.8700  136.2386  152.5567 C   0  0  0  0  0  0  0  0  0  0  0  0
  144.7613  136.2057  153.0898 O   0  0  0  0  0  0  0  0  0  0  0  0
  146.3334  135.3501  151.6605 N   0  0  0  0  0  0  0  0  0  0  0  0
  145.6909  134.1954  151.1364 C   0  0  0  0  0  0  0  0  0  0  0  0
  146.5085  133.1251  150.7180 C   0  0  0  0  0  0  0  0  0  0  0  0
  145.8987  131.9734  150.1816 C   0  0  0  0  0  0  0  0  0  0  0  0
  144.5636  131.8402  150.0370 N   0  0  0  0  0  0  0  0  0  0  0  0
  143.7832  132.8710  150.4250 C   0  0  0  0  0  0  0  0  0  0  0  0
  144.2904  134.0660  150.9736 C   0  0  0  0  0  0  0  0  0  0  0  0
  147.6563  139.3814  153.5139 C   0  0  0  0  0  0  0  0  0  0  0  0
  149.0858  138.9493  153.8897 C   0  0  0  0  0  0  0  0  0  0  0  0
  153.8879  138.0934  157.5656 H   0  0  0  0  0  0  0  0  0  0  0  0
  152.6034  137.1787  156.8165 H   0  0  0  0  0  0  0  0  0  0  0  0
  152.2584  138.2167  158.1847 H   0  0  0  0  0  0  0  0  0  0  0  0
  151.0224  137.5236  154.9812 H   0  0  0  0  0  0  0  0  0  0  0  0
  150.5671  137.6519  156.6631 H   0  0  0  0  0  0  0  0  0  0  0  0
  148.5063  136.5005  154.9875 H   0  0  0  0  0  0  0  0  0  0  0  0
  148.2633  137.0829  156.6182 H   0  0  0  0  0  0  0  0  0  0  0  0
  146.0936  136.9495  155.4346 H   0  0  0  0  0  0  0  0  0  0  0  0
  146.4620  138.5815  155.9156 H   0  0  0  0  0  0  0  0  0  0  0  0
  145.6289  138.6923  153.6481 H   0  0  0  0  0  0  0  0  0  0  0  0
  147.6724  137.1264  152.3400 H   0  0  0  0  0  0  0  0  0  0  0  0
  147.2907  135.4775  151.3673 H   0  0  0  0  0  0  0  0  0  0  0  0
  147.5835  133.1779  150.8089 H   0  0  0  0  0  0  0  0  0  0  0  0
  146.5008  131.1370  149.8587 H   0  0  0  0  0  0  0  0  0  0  0  0
  142.7196  132.7428  150.2886 H   0  0  0  0  0  0  0  0  0  0  0  0
  143.6017  134.8515  151.2426 H   0  0  0  0  0  0  0  0  0  0  0  0
  147.6193  139.6858  152.4670 H   0  0  0  0  0  0  0  0  0  0  0  0
  147.3890  140.2651  154.0950 H   0  0  0  0  0  0  0  0  0  0  0  0
  149.7617  139.7923  153.7400 H   0  0  0  0  0  0  0  0  0  0  0  0
  149.4277  138.1507  153.2297 H   0  0  0  0  0  0  0  0  0  0  0  0
  148.8705  139.2714  155.8722 H   0  0  0  0  0  0  0  0  0  0  0  0
  1  2  1  0  0  0  0
  1 22  1  0  0  0  0
  1 23  1  0  0  0  0
  1 24  1  0  0  0  0
  2  3  1  0  0  0  0
  3  4  2  0  0  0  0
  3  5  1  0  0  0  0
  5  6  1  0  0  0  0
  5 25  1  0  0  0  0
  5 26  1  0  0  0  0
  6 21  1  0  0  0  0
  6  7  1  0  0  0  0
  6 42  1  0  0  0  0
  7  8  1  0  0  0  0
  7 27  1  0  0  0  0
  7 28  1  0  0  0  0
  8  9  1  0  0  0  0
  8 29  1  0  0  0  0
  8 30  1  0  0  0  0
  9 10  1  0  0  0  0
  9 20  1  0  0  0  0
  9 31  1  0  0  0  0
 10 11  1  0  0  0  0
 10 32  1  0  0  0  0
 11 12  2  0  0  0  0
 11 13  1  0  0  0  0
 13 14  1  0  0  0  0
 13 33  1  0  0  0  0
 14 19  1  0  0  0  0
 14 15  2  0  0  0  0
 15 16  1  0  0  0  0
 15 34  1  0  0  0  0
 16 17  2  0  0  0  0
 16 35  1  0  0  0  0
 17 18  1  0  0  0  0
 18 19  2  0  0  0  0
 18 36  1  0  0  0  0
 19 37  1  0  0  0  0
 20 21  1  0  0  0  0
 20 38  1  0  0  0  0
 20 39  1  0  0  0  0
 21 40  1  0  0  0  0
 21 41  1  0  0  0  0
M  CHG  1   2  -1
M  CHG  1   6   1
M  END
> <s_m_source_file>
AV-unprocessed.smi

> <i_m_source_file_index>
1929

> <i_lp_mmshare_version>
43012

> <i_f3d_flags>
0

> <s_epik_input>
W0NIM11bTkhdQyg9TylbQ0gyXU4xW0NIMl1bQ0gyXVtDSF0oW0NIMl1bQ0gyXTEpW05IXUMoPU8pW05IXWMyW2NIXVtjSF1uW2NIXVtjSF0y

> <s_epik_cmdline>
J2VwaWtfcHl0aG9uJywgJy1waCcsICc3LjAnLCAnLXRuJywgJzgnLCAnLW1hJywgJzIwMCcsICctbWV0YWxfYmluZGluZycsICctaW1hZScsICc8aW5maWxlLm1hZT4nLCAnLW9tYWUnLCAnPG91dGZpbGUubWFlPic=

> <r_epik_Ionization_Penalty>
6.23856

> <r_epik_Ionization_Penalty_Charging>
6.13946

> <r_epik_Ionization_Penalty_Neutral>
0.0990993

> <r_epik_State_Penalty>
7.04382

> <r_epik_Charging_Adjusted_Penalty>
13.1833

> <i_epik_Tot_Q>
0

> <i_epik_Tot_abs_Q>
2

> <r_epik_Metal_State_Penalty>
3.07449

> <b_epik_Metal_Only>
1

> <s_lp_Force_Field>
OPLS_2005

> <r_lp_Energy>
14.5033

> <b_lp_Chiralities_Consistent>
1

> <s_lp_Variant>
AV-unprocessed.smi:1929-8

> <Gold.Version>
5.8.1

> <Gold.Id.Protein>
6NUR|6NUR_protein|mol2

> <Gold.PLP.Fitness>
47.2790

> <Gold.PLP.PLP>
-28.0619

> <Gold.PLP.part.hbond>
-4.3282

> <Gold.PLP.part.metal>
0.0000

> <Gold.PLP.part.buried>
-2.8707

> <Gold.PLP.part.nonpolar>
-21.6191

> <Gold.PLP.part.repulsive>
0.4040

> <Gold.PLP.ligand.clash>
0.0000

> <Gold.PLP.ligand.torsion>
0.6776

> <Gold.PLP.Chemscore.Hbond>
4.9120

> <Gold.PLP.Chemscore.CHOScore>
1.9302

> <Gold.PLP.Chemscore.Metal>
0.0000

> <Gold.Chemscore.Hbonds>
donor molecule, donor type, donor heavy atom, donor atom, acceptor molecule, acceptor atom, score
      L1  H    10    32       P1  7948  0.99
      L1  H    13    33       P1  7948  0.91
      P1  H  7989  7998       L1     4  0.99
      P1  H  7997  8009       L1     2  1.90
      L1  C    16    35       P1 10747  0.93
      L1  C    18    36       P1 10186  0.99

> <Gold.PLP.Chemscore.Internal.Correction>
0.0457

> <Gold.Rescore>
     Score         DG    S(hbond)    S(metal)    S(lipo)     H(rot)  DE(clash)    DE(int)     intcor
     18.34     -21.02       3.78        0.00      60.73       1.63       0.26       2.42       ----

> <Gold.Chemscore.Fitness>
18.3394

> <Gold.Chemscore.DG>
-21.0180

> <Gold.Chemscore.ZeroCoef>
-5.4800

> <Gold.Chemscore.Hbond>
3.7759

> <Gold.Chemscore.Metal>
0.0000

> <Gold.Chemscore.Lipo>
60.7267

> <Gold.Chemscore.Internal_Hbond>
0.0000

> <Gold.Chemscore.DEClash>
0.2623

> <Gold.Chemscore.DEInternal>
2.4163

> <Gold.Chemscore.Rot>
1.6323

> <Gold.Chemscore.Internal.Correction>
   9.000000E+99

> <Gold.Chemscore.Hbonds>
donor molecule, donor type, donor heavy atom, donor atom, acceptor molecule, acceptor atom, score
      L1  H    10    32       P1  7948  0.94
      L1  H    13    33       P1  7948  0.81
      P1  H  7989  7998       L1     4  0.79
      P1  H  7997  8009       L1     2  0.21

> <Gold.Chemscore.Hbond.Weighted>
-12.6116

> <Gold.Chemscore.Metal.Weighted>
-0.0000

> <Gold.Chemscore.Lipo.Weighted>
-7.1050

> <Gold.Chemscore.Internal_Hbond.Weighted>
0.0000

> <Gold.Chemscore.DEClash.Weighted>
0.2623

> <Gold.Chemscore.DEInternal.Weighted>
2.4163

> <Gold.Chemscore.Rot.Weighted>
4.1786

> <Gold.Chemscore.Internal.Correction.Weighted>
   9.000000E+99

> <Gold.Protein.RotatedTorsions>
[ 6907 6896 6895 6894 ] final -117.86 input  -60.11 | X-H torsion
[ 7974 7965 7964 7962 ] final   87.60 input  175.53 | X-H torsion
[ 8008 7997 7996 7995 ] final -168.52 input   59.86 | X-H torsion
[ 10167 10162 10161 10158 ] final   13.59 input  -65.29 | X-H torsion
[ 10718 10713 10712 10709 ] final   95.82 input   66.30 | X-H torsion
[ 10763 10752 10751 10750 ] final    5.42 input  -60.55 | X-H torsion
[ 11005 11000 10999 10996 ] final   34.03 input  -57.11 | X-H torsion

> <Gold.Protein.ActiveResidues>
 VAL166  LYS551  ARG553  GLY616  TRP617  ASP618  TYR619  PRO620  LYS621  CYS622 
 ASP623  PHE694  ASN695  SER759  ASP760  ASP761  ALA762  ILE779  LEU786  VAL792 
 PHE793  MET794  SER795  GLU796  ALA797  LYS798  CYS799  TRP800  GLU811  SER814 

> <Gold.Protein.RotatedAtoms>
  150.8171  133.8317  159.3155 H   0  0  0  0  0  0  0  0  0  0  0  0  # atno 6907 bound_to 6896
  151.6086  135.1040  160.0085 H   0  0  0  0  0  0  0  0  0  0  0  0  # atno 6908 bound_to 6896
  152.4262  133.7159  159.6562 H   0  0  0  0  0  0  0  0  0  0  0  0  # atno 6909 bound_to 6896
  145.5568  139.2300  143.2482 H   0  0  0  0  0  0  0  0  0  0  0  0  # atno 7974 bound_to 7965
  155.8925  140.1027  157.1408 H   0  0  0  0  0  0  0  0  0  0  0  0  # atno 8008 bound_to 7997
  154.4016  140.1308  156.4398 H   0  0  0  0  0  0  0  0  0  0  0  0  # atno 8009 bound_to 7997
  155.7517  140.3465  155.5156 H   0  0  0  0  0  0  0  0  0  0  0  0  # atno 8010 bound_to 7997
  140.5993  143.8638  150.6949 H   0  0  0  0  0  0  0  0  0  0  0  0  # atno 10167 bound_to 10162
  157.6934  131.0558  150.4398 H   0  0  0  0  0  0  0  0  0  0  0  0  # atno 10718 bound_to 10713
  153.2596  135.6922  153.7592 H   0  0  0  0  0  0  0  0  0  0  0  0  # atno 10763 bound_to 10752
  153.6657  135.3353  155.3140 H   0  0  0  0  0  0  0  0  0  0  0  0  # atno 10764 bound_to 10752
  154.8425  135.4487  154.1582 H   0  0  0  0  0  0  0  0  0  0  0  0  # atno 10765 bound_to 10752
  140.2570  134.3236  155.7870 H   0  0  0  0  0  0  0  0  0  0  0  0  # atno 11005 bound_to 11000
  146.1879  140.6392  142.9159 LP  0  0  0  0  0  0  0  0  0  0  0  0  # atno 17320 bound_to 7965
  144.7502  140.5172  143.6807 LP  0  0  0  0  0  0  0  0  0  0  0  0  # atno 17321 bound_to 7965
  140.2180  143.3831  152.1665 LP  0  0  0  0  0  0  0  0  0  0  0  0  # atno 17342 bound_to 10162
  139.5279  144.7125  151.5160 LP  0  0  0  0  0  0  0  0  0  0  0  0  # atno 17343 bound_to 10162
  156.4757  130.4062  149.6491 LP  0  0  0  0  0  0  0  0  0  0  0  0  # atno 17370 bound_to 10713
  156.3555  130.7454  151.2419 LP  0  0  0  0  0  0  0  0  0  0  0  0  # atno 17371 bound_to 10713
  141.2195  133.7387  156.9127 LP  0  0  0  0  0  0  0  0  0  0  0  0  # atno 17394 bound_to 11000
  140.1502  134.9235  157.2582 LP  0  0  0  0  0  0  0  0  0  0  0  0  # atno 17395 bound_to 11000

$$$$
