AV-unprocessed.smi:1819|AV-procd|sdf|7382|dock4
  -GOLD-   22720 9 53D 1   1.00000     0.00000
 Structure written by MMmdl.
 29 29  0  0  0  0  0  0  0  0  1 V2000
  151.7956  140.5388  155.5077 O   0  0  0  0  0  0  0  0  0  0  0  0
  150.8245  139.7819  155.4681 C   0  0  0  0  0  0  0  0  0  0  0  0
  150.9184  138.4190  154.7669 C   0  0  0  0  0  0  0  0  0  0  0  0
  150.4878  137.3034  155.6220 N   0  0  0  0  0  0  0  0  0  0  0  0
  149.1379  137.0724  155.8463 C   0  0  0  0  0  0  0  0  0  0  0  0
  148.6722  136.0580  156.6130 C   0  0  0  0  0  0  0  0  0  0  0  0
  149.5989  135.1338  157.2578 C   0  0  0  0  0  0  0  0  0  0  0  0
  149.2750  134.1872  157.9716 O   0  0  0  0  0  0  0  0  0  0  0  0
  150.9479  135.3975  157.0061 N   0  0  0  0  0  0  0  0  0  0  0  0
  151.4345  136.4398  156.2153 C   0  0  0  0  0  0  0  0  0  0  0  0
  152.6463  136.5803  156.0547 O   0  0  0  0  0  0  0  0  0  0  0  0
  149.6344  140.0916  156.0016 N   0  0  0  0  0  0  0  0  0  0  0  0
  149.3462  141.3352  156.7019 C   0  0  0  0  0  0  0  0  0  0  0  0
  150.3986  141.6020  157.7833 C   0  0  0  0  0  0  0  0  0  0  0  0
  149.9159  142.9870  158.8501 S   0  0  0  0  0  0  0  0  0  0  0  0
  151.5337  143.7546  159.1347 C   0  0  0  0  0  0  0  0  0  0  0  0
  151.4241  144.7059  160.0605 F   0  0  0  0  0  0  0  0  0  0  0  0
  152.4082  142.8439  159.5598 F   0  0  0  0  0  0  0  0  0  0  0  0
  151.9881  144.3043  158.0095 F   0  0  0  0  0  0  0  0  0  0  0  0
  151.6269  134.7818  157.4295 H   0  0  0  0  0  0  0  0  0  0  0  0
  150.3316  138.4334  153.8460 H   0  0  0  0  0  0  0  0  0  0  0  0
  151.9514  138.2739  154.4471 H   0  0  0  0  0  0  0  0  0  0  0  0
  148.4147  137.7297  155.3847 H   0  0  0  0  0  0  0  0  0  0  0  0
  147.6082  135.9291  156.7491 H   0  0  0  0  0  0  0  0  0  0  0  0
  148.8840  139.4204  155.9232 H   0  0  0  0  0  0  0  0  0  0  0  0
  149.3286  142.1594  155.9868 H   0  0  0  0  0  0  0  0  0  0  0  0
  148.3536  141.2749  157.1511 H   0  0  0  0  0  0  0  0  0  0  0  0
  150.5379  140.7144  158.4013 H   0  0  0  0  0  0  0  0  0  0  0  0
  151.3608  141.8308  157.3242 H   0  0  0  0  0  0  0  0  0  0  0  0
  1  2  2  0  0  0  0
  2  3  1  0  0  0  0
  2 12  1  0  0  0  0
  3  4  1  0  0  0  0
  3 21  1  0  0  0  0
  3 22  1  0  0  0  0
  4 10  1  0  0  0  0
  4  5  1  0  0  0  0
  5  6  2  0  0  0  0
  5 23  1  0  0  0  0
  6  7  1  0  0  0  0
  6 24  1  0  0  0  0
  7  8  2  0  0  0  0
  7  9  1  0  0  0  0
  9 20  1  0  0  0  0
  9 10  1  0  0  0  0
 10 11  2  0  0  0  0
 12 13  1  0  0  0  0
 12 25  1  0  0  0  0
 13 14  1  0  0  0  0
 13 26  1  0  0  0  0
 13 27  1  0  0  0  0
 14 15  1  0  0  0  0
 14 28  1  0  0  0  0
 14 29  1  0  0  0  0
 15 16  1  0  0  0  0
 16 17  1  0  0  0  0
 16 18  1  0  0  0  0
 16 19  1  0  0  0  0
M  END
> <s_m_source_file>
AV-unprocessed.smi

> <i_m_source_file_index>
1819

> <i_lp_mmshare_version>
43012

> <i_f3d_flags>
0

> <s_epik_input>
RkMoRikoRilTW0NIMl1bQ0gyXVtOSF1DKD1PKVtDSDJdbjFbY0hdW2NIXWMoPU8pW25IXWMxPU8=

> <s_epik_cmdline>
J2VwaWtfcHl0aG9uJywgJy1waCcsICc3LjAnLCAnLXRuJywgJzgnLCAnLW1hJywgJzIwMCcsICctbWV0YWxfYmluZGluZycsICctaW1hZScsICc8aW5maWxlLm1hZT4nLCAnLW9tYWUnLCAnPG91dGZpbGUubWFlPic=

> <r_lp_tautomer_probability>
0.999537

> <r_epik_Ionization_Penalty>
0.00347617

> <r_epik_Ionization_Penalty_Charging>
0.00347613

> <r_epik_Ionization_Penalty_Neutral>
4.33222e-08

> <r_epik_State_Penalty>
0.00246522

> <r_epik_Charging_Adjusted_Penalty>
0.00594136

> <i_epik_Tot_Q>
0

> <i_epik_Tot_abs_Q>
0

> <r_epik_Metal_State_Penalty>
0.367629

> <b_epik_Metal_Only>
0

> <s_lp_Force_Field>
OPLS_2005

> <r_lp_Energy>
-0.213216

> <b_lp_Chiralities_Consistent>
1

> <s_lp_Variant>
AV-unprocessed.smi:1819-1

> <Gold.Version>
5.8.1

> <Gold.Id.Protein>
6NUR|6NUR_protein|mol2

> <Gold.PLP.Fitness>
39.2676

> <Gold.PLP.PLP>
-32.1395

> <Gold.PLP.part.hbond>
-2.8609

> <Gold.PLP.part.metal>
0.0000

> <Gold.PLP.part.buried>
-3.9650

> <Gold.PLP.part.nonpolar>
-25.9970

> <Gold.PLP.part.repulsive>
0.2224

> <Gold.PLP.ligand.clash>
0.0000

> <Gold.PLP.ligand.torsion>
0.6269

> <Gold.PLP.Chemscore.Hbond>
2.7680

> <Gold.PLP.Chemscore.CHOScore>
0.0000

> <Gold.PLP.Chemscore.Metal>
0.0000

> <Gold.Chemscore.Hbonds>
donor molecule, donor type, donor heavy atom, donor atom, acceptor molecule, acceptor atom, score
      P1  H  6896  6907       L1     8  1.00
      P1  H  7989  7998       L1     1  0.39
      P1  H 10752 10765       L1    11  0.99

> <Gold.PLP.Chemscore.Internal.Correction>
0.0778

> <Gold.Rescore>
     Score         DG    S(hbond)    S(metal)    S(lipo)     H(rot)  DE(clash)    DE(int)     intcor
     10.59     -11.28       2.82        0.00      33.37       2.93       0.00       0.68       ----

> <Gold.Chemscore.Fitness>
10.5921

> <Gold.Chemscore.DG>
-11.2778

> <Gold.Chemscore.ZeroCoef>
-5.4800

> <Gold.Chemscore.Hbond>
2.8152

> <Gold.Chemscore.Metal>
0.0000

> <Gold.Chemscore.Lipo>
33.3667

> <Gold.Chemscore.Internal_Hbond>
0.0000

> <Gold.Chemscore.DEClash>
0.0017

> <Gold.Chemscore.DEInternal>
0.6840

> <Gold.Chemscore.Rot>
2.9332

> <Gold.Chemscore.Internal.Correction>
   9.000000E+99

> <Gold.Chemscore.Hbonds>
donor molecule, donor type, donor heavy atom, donor atom, acceptor molecule, acceptor atom, score
      P1  H  6896  6907       L1     8  0.59
      P1  H  7989  7998       L1     1  0.02
      P1  H 10752 10765       L1    11  0.67

> <Gold.Chemscore.Hbond.Weighted>
-9.4028

> <Gold.Chemscore.Metal.Weighted>
-0.0000

> <Gold.Chemscore.Lipo.Weighted>
-3.9039

> <Gold.Chemscore.Internal_Hbond.Weighted>
0.0000

> <Gold.Chemscore.DEClash.Weighted>
0.0017

> <Gold.Chemscore.DEInternal.Weighted>
0.6840

> <Gold.Chemscore.Rot.Weighted>
7.5089

> <Gold.Chemscore.Internal.Correction.Weighted>
   9.000000E+99

> <Gold.Protein.RotatedTorsions>
[ 6907 6896 6895 6894 ] final -110.57 input  -60.11 | X-H torsion
[ 7974 7965 7964 7962 ] final -178.82 input  175.53 | X-H torsion
[ 8008 7997 7996 7995 ] final -172.55 input   59.86 | X-H torsion
[ 10167 10162 10161 10158 ] final   56.71 input  -65.29 | X-H torsion
[ 10718 10713 10712 10709 ] final  -95.25 input   66.30 | X-H torsion
[ 10763 10752 10751 10750 ] final -147.82 input  -60.55 | X-H torsion
[ 11005 11000 10999 10996 ] final  -49.54 input  -57.11 | X-H torsion

> <Gold.Protein.ActiveResidues>
 VAL166  LYS551  ARG553  GLY616  TRP617  ASP618  TYR619  PRO620  LYS621  CYS622 
 ASP623  PHE694  ASN695  SER759  ASP760  ASP761  ALA762  ILE779  LEU786  VAL792 
 PHE793  MET794  SER795  GLU796  ALA797  LYS798  CYS799  TRP800  GLU811  SER814 

> <Gold.Protein.RotatedAtoms>
  150.7633  133.9362  159.3441 H   0  0  0  0  0  0  0  0  0  0  0  0  # atno 6907 bound_to 6896
  151.7266  135.0881  160.0302 H   0  0  0  0  0  0  0  0  0  0  0  0  # atno 6908 bound_to 6896
  152.3616  133.6267  159.6055 H   0  0  0  0  0  0  0  0  0  0  0  0  # atno 6909 bound_to 6896
  144.7133  140.0811  143.6425 H   0  0  0  0  0  0  0  0  0  0  0  0  # atno 7974 bound_to 7965
  155.9461  140.1117  157.1016 H   0  0  0  0  0  0  0  0  0  0  0  0  # atno 8008 bound_to 7997
  154.4099  140.1209  156.5057 H   0  0  0  0  0  0  0  0  0  0  0  0  # atno 8009 bound_to 7997
  155.6901  140.3472  155.4892 H   0  0  0  0  0  0  0  0  0  0  0  0  # atno 8010 bound_to 7997
  140.2058  144.3941  150.6509 H   0  0  0  0  0  0  0  0  0  0  0  0  # atno 10167 bound_to 10162
  156.0040  130.5101  150.6048 H   0  0  0  0  0  0  0  0  0  0  0  0  # atno 10718 bound_to 10713
  154.8266  135.3350  154.6878 H   0  0  0  0  0  0  0  0  0  0  0  0  # atno 10763 bound_to 10752
  153.7503  135.6940  153.4951 H   0  0  0  0  0  0  0  0  0  0  0  0  # atno 10764 bound_to 10752
  153.2181  135.4458  155.0408 H   0  0  0  0  0  0  0  0  0  0  0  0  # atno 10765 bound_to 10752
  141.0765  133.6664  156.3601 H   0  0  0  0  0  0  0  0  0  0  0  0  # atno 11005 bound_to 11000
  145.9701  139.2863  143.1104 LP  0  0  0  0  0  0  0  0  0  0  0  0  # atno 17320 bound_to 7965
  145.9126  140.9170  143.0446 LP  0  0  0  0  0  0  0  0  0  0  0  0  # atno 17321 bound_to 7965
  140.6358  143.2195  151.6397 LP  0  0  0  0  0  0  0  0  0  0  0  0  # atno 17342 bound_to 10162
  139.5199  144.3239  152.0886 LP  0  0  0  0  0  0  0  0  0  0  0  0  # atno 17343 bound_to 10162
  157.3890  131.0793  151.1410 LP  0  0  0  0  0  0  0  0  0  0  0  0  # atno 17370 bound_to 10713
  157.2108  130.6437  149.5773 LP  0  0  0  0  0  0  0  0  0  0  0  0  # atno 17371 bound_to 10713
  140.5562  134.5979  157.5421 LP  0  0  0  0  0  0  0  0  0  0  0  0  # atno 17394 bound_to 11000
  139.9577  134.7505  156.0304 LP  0  0  0  0  0  0  0  0  0  0  0  0  # atno 17395 bound_to 11000

$$$$
