#       Name:                AV-unprocessed.smi:40
#       Creating user name   scv26
#       Creation time:       Thu Mar 26 16:23:33 2020


#       File generated by GOLD software.
#

@<TRIPOS>MOLECULE
AV-unprocessed.smi:40
    58    59     1
SMALL
NO_CHARGES


@<TRIPOS>ATOM
      1 ****        -3.8710   1.8619   1.6866 C.3            1 S1                 0.0000
      2 ****        -4.4778   0.8804   0.6781 C.3            1 S1                 0.0000
      3 ****        -3.8690  -0.5242   0.7874 C.3            1 S1                 0.0000
      4 ****        -4.4465  -1.5026  -0.2483 C.3            1 S1                 0.0000
      5 ****        -3.8292  -2.9050  -0.1614 C.3            1 S1                 0.0000
      6 ****        -2.4477  -2.8255  -0.4699 O.3            1 S1                 0.0000
      7 ****        -1.6998  -3.9391  -0.5625 C.2            1 S1                 0.0000
      8 ****        -2.1504  -5.0806  -0.4689 O.2            1 S1                 0.0000
      9 ****        -0.3034  -3.6251  -0.8208 N.am           1 S1                 0.0000
     10 ****         0.7504  -4.4650  -0.9773 C.2            1 S1                 0.0000
     11 ****         0.6162  -5.7132  -1.3933 N.2            1 S1                 0.0000
     12 ****         1.6563  -6.5841  -1.5762 C.2            1 S1                 0.0000
     13 ****         1.4197  -7.7518  -1.8799 O.2            1 S1                 0.0000
     14 ****         2.9743  -6.0830  -1.3885 N.am           1 S1                 0.0000
     15 ****         4.1938  -6.9982  -1.5073 C.3            1 S1                 0.0000
     16 ****         3.9403  -8.0192  -2.4325 O.3            1 S1                 0.0000
     17 ****         4.4358  -7.6606  -3.7116 C.3            1 S1                 0.0000
     18 ****         4.4655  -8.8606  -4.6697 C.3            1 S1                 0.0000
     19 ****         5.7819  -7.0371  -3.3500 C.3            1 S1                 0.0000
     20 ****         6.7541  -8.0422  -3.1111 O.3            1 S1                 0.0000
     21 ****         5.4232  -6.2455  -2.0925 C.3            1 S1                 0.0000
     22 ****         6.5049  -6.1426  -1.1852 O.3            1 S1                 0.0000
     23 ****         3.1235  -4.7917  -0.8941 C.2            1 S1                 0.0000
     24 ****         2.0762  -3.9610  -0.7025 C.2            1 S1                 0.0000
     25 ****         2.2665  -2.7078  -0.2546 F              1 S1                 0.0000
     26 ****         4.3379  -7.4019  -0.5044 H              1 S1                 0.0000
     27 ****         3.7823  -6.8908  -4.1267 H              1 S1                 0.0000
     28 ****         6.1525  -6.3870  -4.1433 H              1 S1                 0.0000
     29 ****         5.1405  -5.2470  -2.4240 H              1 S1                 0.0000
     30 ****        -4.3193   2.8504   1.5849 H              1 S1                 0.0000
     31 ****        -2.7961   1.9670   1.5350 H              1 S1                 0.0000
     32 ****        -4.0347   1.5257   2.7107 H              1 S1                 0.0000
     33 ****        -5.5563   0.8263   0.8306 H              1 S1                 0.0000
     34 ****        -4.3269   1.2666  -0.3308 H              1 S1                 0.0000
     35 ****        -2.7887  -0.4510   0.6596 H              1 S1                 0.0000
     36 ****        -4.0333  -0.9170   1.7913 H              1 S1                 0.0000
     37 ****        -5.5243  -1.5822  -0.1043 H              1 S1                 0.0000
     38 ****        -4.3001  -1.1059  -1.2536 H              1 S1                 0.0000
     39 ****        -3.9646  -3.3216   0.8375 H              1 S1                 0.0000
     40 ****        -4.3271  -3.5719  -0.8669 H              1 S1                 0.0000
     41 ****        -0.1087  -2.6361  -0.8774 H              1 S1                 0.0000
     42 ****         4.9134  -8.5870  -5.6253 H              1 S1                 0.0000
     43 ****         3.4552  -9.2191  -4.8664 H              1 S1                 0.0000
     44 ****         5.0332  -9.6948  -4.2571 H              1 S1                 0.0000
     45 ****         7.5266  -7.6297  -2.7556 H              1 S1                 0.0000
     46 ****         6.2173  -5.6577  -0.4268 H              1 S1                 0.0000
     47 ****         4.1024  -4.4151  -0.6377 H              1 S1                 0.0000
     48 ****        -3.1284  -5.2210  -0.3145 LP             1 S1                 0.0000
     49 ****        -1.5385  -5.8677  -0.5472 LP             1 S1                 0.0000
     50 ****        -0.3076  -6.0431  -1.5875 LP             1 S1                 0.0000
     51 ****         0.4742  -8.0578  -1.9912 LP             1 S1                 0.0000
     52 ****         2.1728  -8.3956  -2.0157 LP             1 S1                 0.0000
     53 ****         2.9539  -8.1725  -2.4922 LP             1 S1                 0.0000
     54 ****         4.3902  -8.8589  -2.1283 LP             1 S1                 0.0000
     55 ****         6.9814  -8.5033  -3.9689 LP             1 S1                 0.0000
     56 ****         6.3966  -8.7101  -2.4583 LP             1 S1                 0.0000
     57 ****         7.2667  -5.6640  -1.6219 LP             1 S1                 0.0000
     58 ****         6.8005  -7.0569  -0.9082 LP             1 S1                 0.0000
@<TRIPOS>BOND
    1    1    2 1     
    2    1   30 1     
    3    1   31 1     
    4    1   32 1     
    5    2    3 1     
    6    2   33 1     
    7    2   34 1     
    8    3    4 1     
    9    3   35 1     
   10    3   36 1     
   11    4    5 1     
   12    4   37 1     
   13    4   38 1     
   14    5    6 1     
   15    5   39 1     
   16    5   40 1     
   17    6    7 1     
   18    7    8 2     
   19    7    9 am    
   20    9   10 1     
   21    9   41 1     
   22   10   24 1     
   23   10   11 2     
   24   11   12 1     
   25   12   13 2     
   26   12   14 am    
   27   14   15 1     
   28   14   23 1     
   29   15   26 1     
   30   15   21 1     
   31   15   16 1     
   32   16   17 1     
   33   17   27 1     
   34   17   18 1     
   35   17   19 1     
   36   18   42 1     
   37   18   43 1     
   38   18   44 1     
   39   19   28 1     
   40   19   20 1     
   41   19   21 1     
   42   20   45 1     
   43   21   29 1     
   44   21   22 1     
   45   22   46 1     
   46   23   24 2     
   47   23   47 1     
   48   24   25 1     
   49    8   48 1     
   50    8   49 1     
   51   11   50 1     
   52   13   51 1     
   53   13   52 1     
   54   16   53 1     
   55   16   54 1     
   56   20   55 1     
   57   20   56 1     
   58   22   57 1     
   59   22   58 1     
@<TRIPOS>SUBSTRUCTURE
      1 S1             1
@<TRIPOS>SET
LONE_PAIRS      STATIC     ATOMS    <user>   **** ""
11 48 49 50 51 52 53 54 55 56 57 58
DONOR_HYDROGENS      STATIC     ATOMS    <user>   **** ""
3 41 45 46
ATOM$BLUE        STATIC     ATOMS    COLORGROUP SYSTEM
11 48 49 50 51 52 53 54 55 56 57 58
ATOM$RED        STATIC     ATOMS    COLORGROUP SYSTEM
3 41 45 46
