AV-unprocessed.smi:2513|AV-procd|sdf|9891|dock5
  -GOLD-   2272013523D 1   1.00000     0.00000
 Structure written by MMmdl.
 35 36  0  0  0  0  0  0  0  0  1 V2000
  151.4989  145.5450  159.8935 C   0  0  0  0  0  0  0  0  0  0  0  0
  151.3258  144.4055  159.0639 O   0  0  0  0  0  0  0  0  0  0  0  0
  152.0723  143.2764  159.3396 C   0  0  0  0  0  0  0  0  0  0  0  0
  152.9846  143.1847  160.4217 C   0  0  0  0  0  0  0  0  0  0  0  0
  153.7017  141.9924  160.6209 C   0  0  0  0  0  0  0  0  0  0  0  0
  153.4815  140.9290  159.7305 C   0  0  0  0  0  0  0  0  0  0  0  0
  152.6173  141.0020  158.6994 N   0  0  0  0  0  0  0  0  0  0  0  0
  151.9189  142.1467  158.4942 C   0  0  0  0  0  0  0  0  0  0  0  0
  150.9896  142.3036  157.4286 N   0  0  0  0  0  0  0  0  0  0  0  0
  150.6628  141.4230  156.4666 C   0  0  0  0  0  0  0  0  0  0  0  0
  151.1333  140.2915  156.3451 O   0  0  0  0  0  0  0  0  0  0  0  0
  149.7415  141.9331  155.6365 N   0  0  0  0  0  0  0  0  0  0  0  0
  149.1698  141.2399  154.4860 C   0  0  2  0  0  0  0  0  0  0  0  0
  147.8566  141.9190  154.0699 C   0  0  0  0  0  0  0  0  0  0  0  0
  147.1817  141.1151  152.9529 C   0  0  0  0  0  0  0  0  0  0  0  0
  147.0324  139.6425  153.3663 C   0  0  0  0  0  0  0  0  0  0  0  0
  148.3066  139.1026  153.7005 O   0  0  0  0  0  0  0  0  0  0  0  0
  148.9149  139.7531  154.8118 C   0  0  0  0  0  0  0  0  0  0  0  0
  150.8424  146.3438  159.5483 H   0  0  0  0  0  0  0  0  0  0  0  0
  152.5230  145.9182  159.8503 H   0  0  0  0  0  0  0  0  0  0  0  0
  151.2360  145.3276  160.9296 H   0  0  0  0  0  0  0  0  0  0  0  0
  153.1502  144.0049  161.1034 H   0  0  0  0  0  0  0  0  0  0  0  0
  154.4035  141.8960  161.4361 H   0  0  0  0  0  0  0  0  0  0  0  0
  154.0125  139.9958  159.8479 H   0  0  0  0  0  0  0  0  0  0  0  0
  150.5185  143.1957  157.3991 H   0  0  0  0  0  0  0  0  0  0  0  0
  149.4106  142.8705  155.8116 H   0  0  0  0  0  0  0  0  0  0  0  0
  149.8666  141.3020  153.6478 H   0  0  0  0  0  0  0  0  0  0  0  0
  147.1828  141.9832  154.9258 H   0  0  0  0  0  0  0  0  0  0  0  0
  148.0422  142.9415  153.7387 H   0  0  0  0  0  0  0  0  0  0  0  0
  146.2066  141.5421  152.7173 H   0  0  0  0  0  0  0  0  0  0  0  0
  147.7799  141.1784  152.0431 H   0  0  0  0  0  0  0  0  0  0  0  0
  146.3499  139.5425  154.2117 H   0  0  0  0  0  0  0  0  0  0  0  0
  146.6088  139.0638  152.5453 H   0  0  0  0  0  0  0  0  0  0  0  0
  149.8540  139.2454  155.0342 H   0  0  0  0  0  0  0  0  0  0  0  0
  148.2815  139.6479  155.6941 H   0  0  0  0  0  0  0  0  0  0  0  0
  1  2  1  0  0  0  0
  1 19  1  0  0  0  0
  1 20  1  0  0  0  0
  1 21  1  0  0  0  0
  2  3  1  0  0  0  0
  3  8  1  0  0  0  0
  3  4  2  0  0  0  0
  4  5  1  0  0  0  0
  4 22  1  0  0  0  0
  5  6  2  0  0  0  0
  5 23  1  0  0  0  0
  6  7  1  0  0  0  0
  6 24  1  0  0  0  0
  7  8  2  0  0  0  0
  8  9  1  0  0  0  0
  9 10  1  0  0  0  0
  9 25  1  0  0  0  0
 10 11  2  0  0  0  0
 10 12  1  0  0  0  0
 12 13  1  0  0  0  0
 12 26  1  0  0  0  0
 13 18  1  0  0  0  0
 13 14  1  0  0  0  0
 13 27  1  0  0  0  0
 14 15  1  0  0  0  0
 14 28  1  0  0  0  0
 14 29  1  0  0  0  0
 15 16  1  0  0  0  0
 15 30  1  0  0  0  0
 15 31  1  0  0  0  0
 16 17  1  0  0  0  0
 16 32  1  0  0  0  0
 16 33  1  0  0  0  0
 17 18  1  0  0  0  0
 18 34  1  0  0  0  0
 18 35  1  0  0  0  0
M  END
> <s_m_source_file>
AV-unprocessed.smi

> <i_m_source_file_index>
2513

> <i_lp_mmshare_version>
43012

> <i_f3d_flags>
0

> <s_epik_input>
W0NIM11PYzFbY0hdW2NIXVtjSF1uYzFbTkhdQyg9TylbTkhdW0NAQEhdMltDSDJdW0NIMl1bQ0gyXU9bQ0gyXTI=

> <s_epik_cmdline>
J2VwaWtfcHl0aG9uJywgJy1waCcsICc3LjAnLCAnLXRuJywgJzgnLCAnLW1hJywgJzIwMCcsICctbWV0YWxfYmluZGluZycsICctaW1hZScsICc8aW5maWxlLm1hZT4nLCAnLW9tYWUnLCAnPG91dGZpbGUubWFlPic=

> <r_lp_tautomer_probability>
1

> <r_epik_Ionization_Penalty>
3.98976e-05

> <r_epik_Ionization_Penalty_Charging>
0

> <r_epik_Ionization_Penalty_Neutral>
3.98976e-05

> <r_epik_State_Penalty>
-0

> <r_epik_Charging_Adjusted_Penalty>
0

> <i_epik_Tot_Q>
0

> <i_epik_Tot_abs_Q>
0

> <r_epik_Metal_State_Penalty>
-0

> <b_epik_Metal_Only>
0

> <s_lp_Force_Field>
OPLS_2005

> <r_lp_Energy>
12.9865

> <b_lp_Chiralities_Consistent>
1

> <s_lp_Variant>
AV-unprocessed.smi:2513-1

> <Gold.Version>
5.8.1

> <Gold.Id.Protein>
6NUR|6NUR_protein|mol2

> <Gold.PLP.Fitness>
40.4262

> <Gold.PLP.PLP>
-37.9777

> <Gold.PLP.part.hbond>
-1.0000

> <Gold.PLP.part.metal>
0.0000

> <Gold.PLP.part.buried>
-6.8510

> <Gold.PLP.part.nonpolar>
-30.6881

> <Gold.PLP.part.repulsive>
0.4544

> <Gold.PLP.ligand.clash>
0.0020

> <Gold.PLP.ligand.torsion>
0.2763

> <Gold.PLP.Chemscore.Hbond>
1.0000

> <Gold.PLP.Chemscore.CHOScore>
0.0000

> <Gold.PLP.Chemscore.Metal>
0.0000

> <Gold.Chemscore.Hbonds>
donor molecule, donor type, donor heavy atom, donor atom, acceptor molecule, acceptor atom, score
      L1  H    12    26       P1  8028  1.00

> <Gold.PLP.Chemscore.Internal.Correction>
0.0032

> <Gold.Rescore>
     Score         DG    S(hbond)    S(metal)    S(lipo)     H(rot)  DE(clash)    DE(int)     intcor
     12.92     -15.88       0.98        0.00      88.41       1.25       0.05       2.91       ----

> <Gold.Chemscore.Fitness>
12.9246

> <Gold.Chemscore.DG>
-15.8804

> <Gold.Chemscore.ZeroCoef>
-5.4800

> <Gold.Chemscore.Hbond>
0.9781

> <Gold.Chemscore.Metal>
0.0000

> <Gold.Chemscore.Lipo>
88.4108

> <Gold.Chemscore.Internal_Hbond>
0.0000

> <Gold.Chemscore.DEClash>
0.0501

> <Gold.Chemscore.DEInternal>
2.9056

> <Gold.Chemscore.Rot>
1.2542

> <Gold.Chemscore.Internal.Correction>
   9.000000E+99

> <Gold.Chemscore.Hbonds>
donor molecule, donor type, donor heavy atom, donor atom, acceptor molecule, acceptor atom, score
      L1  H    12    26       P1  8028  0.99

> <Gold.Chemscore.Hbond.Weighted>
-3.2670

> <Gold.Chemscore.Metal.Weighted>
-0.0000

> <Gold.Chemscore.Lipo.Weighted>
-10.3441

> <Gold.Chemscore.Internal_Hbond.Weighted>
0.0000

> <Gold.Chemscore.DEClash.Weighted>
0.0501

> <Gold.Chemscore.DEInternal.Weighted>
2.9056

> <Gold.Chemscore.Rot.Weighted>
3.2107

> <Gold.Chemscore.Internal.Correction.Weighted>
   9.000000E+99

> <Gold.Protein.RotatedTorsions>
[ 6907 6896 6895 6894 ] final   -0.94 input  -60.11 | X-H torsion
[ 7974 7965 7964 7962 ] final  176.33 input  175.53 | X-H torsion
[ 8008 7997 7996 7995 ] final  119.71 input   59.86 | X-H torsion
[ 10167 10162 10161 10158 ] final   -9.27 input  -65.29 | X-H torsion
[ 10718 10713 10712 10709 ] final -163.92 input   66.30 | X-H torsion
[ 10763 10752 10751 10750 ] final -165.25 input  -60.55 | X-H torsion
[ 11005 11000 10999 10996 ] final  119.72 input  -57.11 | X-H torsion

> <Gold.Protein.ActiveResidues>
 VAL166  LYS551  ARG553  GLY616  TRP617  ASP618  TYR619  PRO620  LYS621  CYS622 
 ASP623  PHE694  ASN695  SER759  ASP760  ASP761  ALA762  ILE779  LEU786  VAL792 
 PHE793  MET794  SER795  GLU796  ALA797  LYS798  CYS799  TRP800  GLU811  SER814 

> <Gold.Protein.RotatedAtoms>
  151.5542  135.1067  159.9956 H   0  0  0  0  0  0  0  0  0  0  0  0  # atno 6907 bound_to 6896
  152.4477  133.7564  159.6733 H   0  0  0  0  0  0  0  0  0  0  0  0  # atno 6908 bound_to 6896
  150.8397  133.7889  159.3090 H   0  0  0  0  0  0  0  0  0  0  0  0  # atno 6909 bound_to 6896
  144.7186  140.0081  143.6440 H   0  0  0  0  0  0  0  0  0  0  0  0  # atno 7974 bound_to 7965
  156.2608  140.2847  156.1034 H   0  0  0  0  0  0  0  0  0  0  0  0  # atno 8008 bound_to 7997
  155.1335  140.0394  157.2798 H   0  0  0  0  0  0  0  0  0  0  0  0  # atno 8009 bound_to 7997
  154.6582  140.2560  155.7144 H   0  0  0  0  0  0  0  0  0  0  0  0  # atno 8010 bound_to 7997
  140.7083  143.5876  150.8927 H   0  0  0  0  0  0  0  0  0  0  0  0  # atno 10167 bound_to 10162
  156.6317  130.8932  151.2978 H   0  0  0  0  0  0  0  0  0  0  0  0  # atno 10718 bound_to 10713
  154.6950  135.2977  154.9425 H   0  0  0  0  0  0  0  0  0  0  0  0  # atno 10763 bound_to 10752
  154.0376  135.6662  153.4791 H   0  0  0  0  0  0  0  0  0  0  0  0  # atno 10764 bound_to 10752
  153.0639  135.5099  154.8062 H   0  0  0  0  0  0  0  0  0  0  0  0  # atno 10765 bound_to 10752
  139.9157  134.9630  156.7698 H   0  0  0  0  0  0  0  0  0  0  0  0  # atno 11005 bound_to 11000
  146.0281  139.3310  143.0772 LP  0  0  0  0  0  0  0  0  0  0  0  0  # atno 17320 bound_to 7965
  145.8486  140.9541  143.0761 LP  0  0  0  0  0  0  0  0  0  0  0  0  # atno 17321 bound_to 7965
  139.9602  143.6173  152.3004 LP  0  0  0  0  0  0  0  0  0  0  0  0  # atno 17342 bound_to 10162
  139.6723  144.7660  151.1761 LP  0  0  0  0  0  0  0  0  0  0  0  0  # atno 17343 bound_to 10162
  157.7198  130.9543  150.1394 LP  0  0  0  0  0  0  0  0  0  0  0  0  # atno 17370 bound_to 10713
  156.2230  130.3675  149.8534 LP  0  0  0  0  0  0  0  0  0  0  0  0  # atno 17371 bound_to 10713
  140.6630  133.9628  155.7815 LP  0  0  0  0  0  0  0  0  0  0  0  0  # atno 17394 bound_to 11000
  141.0630  134.0318  157.3632 LP  0  0  0  0  0  0  0  0  0  0  0  0  # atno 17395 bound_to 11000

$$$$
