AV-unprocessed.smi:2889|AV-procd|sdf|11110|dock1
  -GOLD-   2272015573D 1   1.00000     0.00000
 Structure written by MMmdl.
 36 37  0  0  0  0  0  0  0  0  1 V2000
  150.8873  138.7377  158.6778 C   0  0  0  0  0  0  0  0  0  0  0  0
  151.1076  140.1252  157.5314 S   0  0  0  0  0  0  0  0  0  0  0  0
  151.3004  141.5131  158.6956 C   0  0  2  0  0  0  0  0  0  0  0  0
  151.5479  142.8306  157.9371 C   0  0  0  0  0  0  0  0  0  0  0  0
  151.7059  144.0192  158.8966 C   0  0  0  0  0  0  0  0  0  0  0  0
  152.8398  143.7688  159.8998 C   0  0  0  0  0  0  0  0  0  0  0  0
  152.6143  142.4688  160.6893 C   0  0  0  0  0  0  0  0  0  0  0  0
  152.3866  141.2528  159.7686 C   0  0  2  0  0  0  0  0  0  0  0  0
  153.6519  140.8324  159.1553 N   0  0  0  0  0  0  0  0  0  0  0  0
  154.8100  140.0079  160.1308 S   0  0  0  0  0  0  0  0  0  0  0  0
  155.9266  139.6097  159.2595 O   0  0  0  0  0  0  0  0  0  0  0  0
  155.0647  140.8423  161.3149 O   0  0  0  0  0  0  0  0  0  0  0  0
  153.8947  138.4943  160.6428 C   0  0  0  0  0  0  0  0  0  0  0  0
  154.3011  138.1082  162.0363 C   0  0  0  0  0  0  0  0  0  0  0  0
  153.7214  137.1270  162.8878 C   0  0  0  0  0  0  0  0  0  0  0  0
  154.4808  137.1985  164.0198 C   0  0  0  0  0  0  0  0  0  0  0  0
  155.4445  138.1444  163.8864 O   0  0  0  0  0  0  0  0  0  0  0  0
  155.3209  138.7205  162.6170 N   0  0  0  0  0  0  0  0  0  0  0  0
  150.6982  137.8211  158.1196 H   0  0  0  0  0  0  0  0  0  0  0  0
  150.0406  138.9194  159.3395 H   0  0  0  0  0  0  0  0  0  0  0  0
  151.7796  138.5874  159.2843 H   0  0  0  0  0  0  0  0  0  0  0  0
  150.3440  141.6175  159.2098 H   0  0  0  0  0  0  0  0  0  0  0  0
  152.4434  142.7400  157.3209 H   0  0  0  0  0  0  0  0  0  0  0  0
  150.7222  143.0238  157.2512 H   0  0  0  0  0  0  0  0  0  0  0  0
  151.9067  144.9287  158.3300 H   0  0  0  0  0  0  0  0  0  0  0  0
  150.7706  144.1880  159.4317 H   0  0  0  0  0  0  0  0  0  0  0  0
  153.7910  143.7144  159.3688 H   0  0  0  0  0  0  0  0  0  0  0  0
  152.9201  144.6110  160.5876 H   0  0  0  0  0  0  0  0  0  0  0  0
  153.4515  142.2877  161.3644 H   0  0  0  0  0  0  0  0  0  0  0  0
  151.7377  142.5953  161.3258 H   0  0  0  0  0  0  0  0  0  0  0  0
  152.0401  140.4329  160.3981 H   0  0  0  0  0  0  0  0  0  0  0  0
  153.4798  140.3256  158.2870 H   0  0  0  0  0  0  0  0  0  0  0  0
  152.8260  138.7026  160.5824 H   0  0  0  0  0  0  0  0  0  0  0  0
  154.1195  137.6986  159.9328 H   0  0  0  0  0  0  0  0  0  0  0  0
  152.8848  136.4719  162.6960 H   0  0  0  0  0  0  0  0  0  0  0  0
  154.4611  136.6700  164.9614 H   0  0  0  0  0  0  0  0  0  0  0  0
  1  2  1  0  0  0  0
  1 19  1  0  0  0  0
  1 20  1  0  0  0  0
  1 21  1  0  0  0  0
  2  3  1  0  0  0  0
  3  8  1  0  0  0  0
  3  4  1  0  0  0  0
  3 22  1  0  0  0  0
  4  5  1  0  0  0  0
  4 23  1  0  0  0  0
  4 24  1  0  0  0  0
  5  6  1  0  0  0  0
  5 25  1  0  0  0  0
  5 26  1  0  0  0  0
  6  7  1  0  0  0  0
  6 27  1  0  0  0  0
  6 28  1  0  0  0  0
  7  8  1  0  0  0  0
  7 29  1  0  0  0  0
  7 30  1  0  0  0  0
  8  9  1  0  0  0  0
  8 31  1  0  0  0  0
  9 10  1  0  0  0  0
  9 32  1  0  0  0  0
 10 11  2  0  0  0  0
 10 12  2  0  0  0  0
 10 13  1  0  0  0  0
 13 14  1  0  0  0  0
 13 33  1  0  0  0  0
 13 34  1  0  0  0  0
 14 18  2  0  0  0  0
 14 15  1  0  0  0  0
 15 16  2  0  0  0  0
 15 35  1  0  0  0  0
 16 17  1  0  0  0  0
 16 36  1  0  0  0  0
 17 18  1  0  0  0  0
M  END
> <s_m_source_file>
AV-unprocessed.smi

> <i_m_source_file_index>
2889

> <i_lp_mmshare_version>
43012

> <i_f3d_flags>
0

> <s_epik_input>
W0NIM11TW0NAQEhdMVtDSDJdW0NIMl1bQ0gyXVtDSDJdW0NASF0xW05IXVMoPU8pKD1PKVtDSDJdYzJbY0hdW2NIXW9uMg==

> <s_epik_cmdline>
J2VwaWtfcHl0aG9uJywgJy1waCcsICc3LjAnLCAnLXRuJywgJzgnLCAnLW1hJywgJzIwMCcsICctbWV0YWxfYmluZGluZycsICctaW1hZScsICc8aW5maWxlLm1hZT4nLCAnLW9tYWUnLCAnPG91dGZpbGUubWFlPic=

> <r_lp_tautomer_probability>
1

> <r_epik_Ionization_Penalty>
0.000229547

> <r_epik_Ionization_Penalty_Charging>
0

> <r_epik_Ionization_Penalty_Neutral>
0.000229547

> <r_epik_State_Penalty>
-0

> <r_epik_Charging_Adjusted_Penalty>
0

> <i_epik_Tot_Q>
0

> <i_epik_Tot_abs_Q>
0

> <r_epik_Metal_State_Penalty>
0.145979

> <b_epik_Metal_Only>
0

> <s_lp_Force_Field>
OPLS_2005

> <r_lp_Energy>
4.93405

> <b_lp_Chiralities_Consistent>
1

> <s_lp_Variant>
AV-unprocessed.smi:2889-3

> <Gold.Version>
5.8.1

> <Gold.Id.Protein>
6NUR|6NUR_protein|mol2

> <Gold.PLP.Fitness>
37.7262

> <Gold.PLP.PLP>
-36.0429

> <Gold.PLP.part.hbond>
-2.5731

> <Gold.PLP.part.metal>
0.0000

> <Gold.PLP.part.buried>
-4.5876

> <Gold.PLP.part.nonpolar>
-29.0222

> <Gold.PLP.part.repulsive>
0.0327

> <Gold.PLP.ligand.clash>
0.0000

> <Gold.PLP.ligand.torsion>
0.7662

> <Gold.PLP.Chemscore.Hbond>
1.0000

> <Gold.PLP.Chemscore.CHOScore>
0.0000

> <Gold.PLP.Chemscore.Metal>
0.0000

> <Gold.Chemscore.Hbonds>
donor molecule, donor type, donor heavy atom, donor atom, acceptor molecule, acceptor atom, score
      P1  H  7997  8009       L1    11  1.00

> <Gold.PLP.Chemscore.Internal.Correction>
0.2157

> <Gold.Rescore>
     Score         DG    S(hbond)    S(metal)    S(lipo)     H(rot)  DE(clash)    DE(int)     intcor
     12.95     -15.45       0.99        0.00      96.48       1.81       0.01       2.50       ----

> <Gold.Chemscore.Fitness>
12.9451

> <Gold.Chemscore.DG>
-15.4495

> <Gold.Chemscore.ZeroCoef>
-5.4800

> <Gold.Chemscore.Hbond>
0.9892

> <Gold.Chemscore.Metal>
0.0000

> <Gold.Chemscore.Lipo>
96.4833

> <Gold.Chemscore.Internal_Hbond>
0.0000

> <Gold.Chemscore.DEClash>
0.0079

> <Gold.Chemscore.DEInternal>
2.4966

> <Gold.Chemscore.Rot>
1.8058

> <Gold.Chemscore.Internal.Correction>
   9.000000E+99

> <Gold.Chemscore.Hbonds>
donor molecule, donor type, donor heavy atom, donor atom, acceptor molecule, acceptor atom, score
      P1  H  7997  8009       L1    11  0.52

> <Gold.Chemscore.Hbond.Weighted>
-3.3038

> <Gold.Chemscore.Metal.Weighted>
-0.0000

> <Gold.Chemscore.Lipo.Weighted>
-11.2885

> <Gold.Chemscore.Internal_Hbond.Weighted>
0.0000

> <Gold.Chemscore.DEClash.Weighted>
0.0079

> <Gold.Chemscore.DEInternal.Weighted>
2.4966

> <Gold.Chemscore.Rot.Weighted>
4.6228

> <Gold.Chemscore.Internal.Correction.Weighted>
   9.000000E+99

> <Gold.Protein.RotatedTorsions>
[ 6907 6896 6895 6894 ] final  134.90 input  -60.11 | X-H torsion
[ 7974 7965 7964 7962 ] final -152.00 input  175.53 | X-H torsion
[ 8008 7997 7996 7995 ] final  107.90 input   59.86 | X-H torsion
[ 10167 10162 10161 10158 ] final  -94.48 input  -65.29 | X-H torsion
[ 10718 10713 10712 10709 ] final   25.88 input   66.30 | X-H torsion
[ 10763 10752 10751 10750 ] final   46.29 input  -60.55 | X-H torsion
[ 11005 11000 10999 10996 ] final  -31.00 input  -57.11 | X-H torsion

> <Gold.Protein.ActiveResidues>
 VAL166  LYS551  ARG553  GLY616  TRP617  ASP618  TYR619  PRO620  LYS621  CYS622 
 ASP623  PHE694  ASN695  SER759  ASP760  ASP761  ALA762  ILE779  LEU786  VAL792 
 PHE793  MET794  SER795  GLU796  ALA797  LYS798  CYS799  TRP800  GLU811  SER814 

> <Gold.Protein.RotatedAtoms>
  152.3063  133.5707  159.5651 H   0  0  0  0  0  0  0  0  0  0  0  0  # atno 6907 bound_to 6896
  150.7301  134.0218  159.3713 H   0  0  0  0  0  0  0  0  0  0  0  0  # atno 6908 bound_to 6896
  151.8114  135.0680  160.0464 H   0  0  0  0  0  0  0  0  0  0  0  0  # atno 6909 bound_to 6896
  144.7818  140.4722  143.5833 H   0  0  0  0  0  0  0  0  0  0  0  0  # atno 7974 bound_to 7965
  156.1861  140.3086  155.9241 H   0  0  0  0  0  0  0  0  0  0  0  0  # atno 8008 bound_to 7997
  155.3277  140.0459  157.3058 H   0  0  0  0  0  0  0  0  0  0  0  0  # atno 8009 bound_to 7997
  154.5397  140.2257  155.8671 H   0  0  0  0  0  0  0  0  0  0  0  0  # atno 8010 bound_to 7997
  140.3140  143.3088  152.0118 H   0  0  0  0  0  0  0  0  0  0  0  0  # atno 10167 bound_to 10162
  157.1994  130.6883  149.6182 H   0  0  0  0  0  0  0  0  0  0  0  0  # atno 10718 bound_to 10713
  152.9812  135.6012  154.3576 H   0  0  0  0  0  0  0  0  0  0  0  0  # atno 10763 bound_to 10752
  154.3260  135.2769  155.2497 H   0  0  0  0  0  0  0  0  0  0  0  0  # atno 10764 bound_to 10752
  154.4643  135.5958  153.6332 H   0  0  0  0  0  0  0  0  0  0  0  0  # atno 10765 bound_to 10752
  140.9431  133.7266  156.1106 H   0  0  0  0  0  0  0  0  0  0  0  0  # atno 11005 bound_to 11000
  145.6028  139.1505  143.3119 LP  0  0  0  0  0  0  0  0  0  0  0  0  # atno 17320 bound_to 7965
  146.2031  140.6148  142.9093 LP  0  0  0  0  0  0  0  0  0  0  0  0  # atno 17321 bound_to 7965
  139.4888  144.6362  151.6970 LP  0  0  0  0  0  0  0  0  0  0  0  0  # atno 17342 bound_to 10162
  140.5543  144.0374  150.6140 LP  0  0  0  0  0  0  0  0  0  0  0  0  # atno 17343 bound_to 10162
  155.9702  130.4588  150.6012 LP  0  0  0  0  0  0  0  0  0  0  0  0  # atno 17370 bound_to 10713
  157.3782  131.0776  151.1499 LP  0  0  0  0  0  0  0  0  0  0  0  0  # atno 17371 bound_to 10713
  140.7707  134.3836  157.5508 LP  0  0  0  0  0  0  0  0  0  0  0  0  # atno 17394 bound_to 11000
  139.8826  134.9020  156.2823 LP  0  0  0  0  0  0  0  0  0  0  0  0  # atno 17395 bound_to 11000

$$$$
