#       Name:                AV-unprocessed.smi:211
#       Creating user name   scv26
#       Creation time:       Thu Mar 26 19:54:03 2020


#       File generated by GOLD software.
#

@<TRIPOS>MOLECULE
AV-unprocessed.smi:211
    69    72     1
SMALL
NO_CHARGES


@<TRIPOS>ATOM
      1 ****        -7.5144  -1.7719  -2.5564 C.3            1 S1                 0.0000
      2 ****        -7.1031  -0.6827  -1.5718 C.2            1 S1                 0.0000
      3 ****        -7.6950  -0.5639  -0.4995 O.2            1 S1                 0.0000
      4 ****        -6.0852   0.1041  -1.9527 N.am           1 S1                 0.0000
      5 ****        -5.5154   1.2013  -1.1715 C.3            1 S1                 0.0000
      6 ****        -6.2876   2.4925  -1.5027 C.3            1 S1                 0.0000
      7 ****        -3.9901   1.3085  -1.4374 C.3            1 S1                 0.0000
      8 ****        -3.2524  -0.0251  -1.1679 C.3            1 S1                 0.0000
      9 ****        -1.7407   0.0962  -1.4153 C.3            1 S1                 0.0000
     10 ****        -1.1690   1.1886  -0.6322 N.3            1 S1                 0.0000
     11 ****         0.1848   1.1573  -0.5335 C.ar           1 S1                 0.0000
     12 ****         0.9289   2.1608  -1.0718 N.ar           1 S1                 0.0000
     13 ****         2.2626   2.1272  -0.9986 C.ar           1 S1                 0.0000
     14 ****         3.0440   1.2029  -0.4377 N.ar           1 S1                 0.0000
     15 ****         2.3048   0.1999   0.1164 C.ar           1 S1                 0.0000
     16 ****         0.8847   0.0976   0.1104 C.ar           1 S1                 0.0000
     17 ****         0.4927  -1.0640   0.7657 N.2            1 S1                 0.0000
     18 ****         1.6162  -1.6241   1.1225 C.2            1 S1                 0.0000
     19 ****         2.7529  -0.9189   0.7970 N.pl3          1 S1                 0.0000
     20 ****         4.1093  -1.3191   1.0308 C.3            1 S1                 0.0000
     21 ****         4.4919  -2.1655   2.2482 C.3            1 S1                 0.0000
     22 ****         5.8682  -1.4629   2.2922 C.3            1 S1                 0.0000
     23 ****         6.3686  -1.1319   3.7092 C.3            1 S1                 0.0000
     24 ****         7.2990  -0.0687   3.7073 O.3            1 S1                 0.0000
     25 ****         6.9768  -2.2113   1.5216 C.3            1 S1                 0.0000
     26 ****         8.0266  -1.3531   1.1251 O.3            1 S1                 0.0000
     27 ****         5.1533  -0.3206   1.5340 C.3            1 S1                 0.0000
     28 ****        -1.8024   2.4885  -0.8513 C.3            1 S1                 0.0000
     29 ****        -3.3166   2.4155  -0.5951 C.3            1 S1                 0.0000
     30 ****        -7.6990  -1.3465  -3.5435 H              1 S1                 0.0000
     31 ****        -8.4256  -2.2708  -2.2248 H              1 S1                 0.0000
     32 ****        -6.7266  -2.5207  -2.6435 H              1 S1                 0.0000
     33 ****        -5.6658  -0.0736  -2.8540 H              1 S1                 0.0000
     34 ****        -5.6530   0.9865  -0.1099 H              1 S1                 0.0000
     35 ****        -5.9916   3.3198  -0.8590 H              1 S1                 0.0000
     36 ****        -7.3603   2.3561  -1.3612 H              1 S1                 0.0000
     37 ****        -6.1274   2.7963  -2.5377 H              1 S1                 0.0000
     38 ****        -3.8494   1.5588  -2.4903 H              1 S1                 0.0000
     39 ****        -3.4257  -0.3388  -0.1375 H              1 S1                 0.0000
     40 ****        -3.6425  -0.8219  -1.8012 H              1 S1                 0.0000
     41 ****        -1.2632  -0.8546  -1.1812 H              1 S1                 0.0000
     42 ****        -1.5517   0.2871  -2.4725 H              1 S1                 0.0000
     43 ****         2.7775   2.9598  -1.4551 H              1 S1                 0.0000
     44 ****         1.6442  -2.5709   1.6418 H              1 S1                 0.0000
     45 ****         4.4455  -1.7936   0.1073 H              1 S1                 0.0000
     46 ****         3.8694  -1.9458   3.1178 H              1 S1                 0.0000
     47 ****         4.5280  -3.2387   2.0582 H              1 S1                 0.0000
     48 ****         5.5398  -0.8353   4.3525 H              1 S1                 0.0000
     49 ****         6.8260  -2.0015   4.1820 H              1 S1                 0.0000
     50 ****         7.5670   0.0980   4.5977 H              1 S1                 0.0000
     51 ****         7.3949  -3.0203   2.1213 H              1 S1                 0.0000
     52 ****         6.5821  -2.6799   0.6198 H              1 S1                 0.0000
     53 ****         8.6706  -1.8615   0.6566 H              1 S1                 0.0000
     54 ****         5.7399   0.1523   0.7457 H              1 S1                 0.0000
     55 ****         4.7255   0.4291   2.2024 H              1 S1                 0.0000
     56 ****        -1.3604   3.2349  -0.1897 H              1 S1                 0.0000
     57 ****        -1.6151   2.8135  -1.8758 H              1 S1                 0.0000
     58 ****        -3.7481   3.3904  -0.8189 H              1 S1                 0.0000
     59 ****        -3.4971   2.2318   0.4649 H              1 S1                 0.0000
     60 ****        -8.4473  -1.1823  -0.2724 LP             1 S1                 0.0000
     61 ****        -7.4237   0.1511   0.1449 LP             1 S1                 0.0000
     62 ****        -1.4354   1.0067   0.3144 LP             1 S1                 0.0000
     63 ****         0.4751   2.9281  -1.5249 LP             1 S1                 0.0000
     64 ****         4.0432   1.2407  -0.4251 LP             1 S1                 0.0000
     65 ****        -0.4372  -1.3947   0.9269 LP             1 S1                 0.0000
     66 ****         6.8732   0.7511   3.3244 LP             1 S1                 0.0000
     67 ****         8.0955  -0.3187   3.1568 LP             1 S1                 0.0000
     68 ****         8.4466  -0.9390   1.9327 LP             1 S1                 0.0000
     69 ****         7.6674  -0.6338   0.5305 LP             1 S1                 0.0000
@<TRIPOS>BOND
    1    1    2 1     
    2    1   30 1     
    3    1   31 1     
    4    1   32 1     
    5    2    3 2     
    6    2    4 am    
    7    4    5 1     
    8    4   33 1     
    9    5    6 1     
   10    5    7 1     
   11    5   34 1     
   12    6   35 1     
   13    6   36 1     
   14    6   37 1     
   15    7   29 1     
   16    7    8 1     
   17    7   38 1     
   18    8    9 1     
   19    8   39 1     
   20    8   40 1     
   21    9   10 1     
   22    9   41 1     
   23    9   42 1     
   24   10   11 1     
   25   10   28 1     
   26   11   16 ar    
   27   11   12 ar    
   28   12   13 ar    
   29   13   14 ar    
   30   13   43 1     
   31   14   15 ar    
   32   15   19 1     
   33   15   16 ar    
   34   16   17 1     
   35   17   18 2     
   36   18   19 1     
   37   18   44 1     
   38   19   20 1     
   39   20   27 1     
   40   20   21 1     
   41   20   45 1     
   42   21   22 1     
   43   21   46 1     
   44   21   47 1     
   45   22   23 1     
   46   22   25 1     
   47   22   27 1     
   48   23   24 1     
   49   23   48 1     
   50   23   49 1     
   51   24   50 1     
   52   25   26 1     
   53   25   51 1     
   54   25   52 1     
   55   26   53 1     
   56   27   54 1     
   57   27   55 1     
   58   28   29 1     
   59   28   56 1     
   60   28   57 1     
   61   29   58 1     
   62   29   59 1     
   63    3   60 1     
   64    3   61 1     
   65   10   62 1     
   66   12   63 1     
   67   14   64 1     
   68   17   65 1     
   69   24   66 1     
   70   24   67 1     
   71   26   68 1     
   72   26   69 1     
@<TRIPOS>SUBSTRUCTURE
      1 S1             1
@<TRIPOS>SET
LONE_PAIRS      STATIC     ATOMS    <user>   **** ""
10 60 61 62 63 64 65 66 67 68 69
DONOR_HYDROGENS      STATIC     ATOMS    <user>   **** ""
3 33 50 53
ATOM$BLUE        STATIC     ATOMS    COLORGROUP SYSTEM
10 60 61 62 63 64 65 66 67 68 69
ATOM$RED        STATIC     ATOMS    COLORGROUP SYSTEM
3 33 50 53
