AV-unprocessed.smi:399|AV-procd|sdf|2490|dock1
  -GOLD-   2262022433D 1   1.00000     0.00000
 Structure written by MMmdl.
 46 47  0  0  0  0  0  0  0  0  3 V2000
  150.4256  140.6631  156.1575 C   0  0  0  0  0  0  0  0  0  0  0  0
  150.3605  140.8185  157.6989 C   0  0  0  0  0  0  0  0  0  0  0  0
  148.8849  141.1786  158.0124 C   0  0  0  0  0  0  0  0  0  0  0  0
  150.6968  139.4481  158.3606 C   0  0  0  0  0  0  0  0  0  0  0  0
  149.6039  138.4849  158.2651 N   0  0  0  0  0  0  0  0  0  0  0  0
  149.6043  137.2750  158.8413 C   0  0  0  0  0  0  0  0  0  0  0  0
  150.5413  136.8552  159.5222 O   0  0  0  0  0  0  0  0  0  0  0  0
  148.3433  136.4269  158.6217 C   0  0  0  0  0  0  0  0  0  0  0  0
  148.0786  135.4781  159.7167 N   0  0  0  0  0  0  0  0  0  0  0  0
  148.2303  134.1079  159.4262 C   0  0  0  0  0  0  0  0  0  0  0  0
  148.0068  133.1513  160.3485 C   0  0  0  0  0  0  0  0  0  0  0  0
  148.1606  131.7486  160.0307 N   0  3  0  0  0  0  0  0  0  0  0  0
  148.5156  131.4373  158.8984 O   0  0  0  0  0  0  0  0  0  0  0  0
  147.9313  130.9124  160.8997 O   0  5  0  0  0  0  0  0  0  0  0  0
  147.6005  133.5752  161.6744 C   0  0  0  0  0  0  0  0  0  0  0  0
  147.4490  134.8840  161.9573 C   0  0  0  0  0  0  0  0  0  0  0  0
  147.6872  135.9229  160.9501 C   0  0  0  0  0  0  0  0  0  0  0  0
  147.5432  137.1199  161.1999 O   0  0  0  0  0  0  0  0  0  0  0  0
  151.2662  141.9123  158.1465 N   0  0  0  0  0  0  0  0  0  0  0  0
  150.8850  143.2572  157.6973 C   0  0  0  0  0  0  0  0  0  0  0  0
  151.9311  144.3160  158.0861 C   0  0  0  0  0  0  0  0  0  0  0  0
  152.1297  144.2985  159.4943 O   0  0  0  0  0  0  0  0  0  0  0  0
  152.5595  143.0271  159.9654 C   0  0  0  0  0  0  0  0  0  0  0  0
  151.5194  141.9569  159.5921 C   0  0  0  0  0  0  0  0  0  0  0  0
  149.6347  140.0173  155.7748 H   0  0  0  0  0  0  0  0  0  0  0  0
  151.3652  140.2202  155.8274 H   0  0  0  0  0  0  0  0  0  0  0  0
  150.3175  141.6268  155.6581 H   0  0  0  0  0  0  0  0  0  0  0  0
  148.1833  140.5013  157.5245 H   0  0  0  0  0  0  0  0  0  0  0  0
  148.6430  142.1861  157.6713 H   0  0  0  0  0  0  0  0  0  0  0  0
  148.6646  141.1259  159.0785 H   0  0  0  0  0  0  0  0  0  0  0  0
  151.5723  138.9961  157.8940 H   0  0  0  0  0  0  0  0  0  0  0  0
  150.9378  139.5835  159.4154 H   0  0  0  0  0  0  0  0  0  0  0  0
  148.7975  138.7584  157.7223 H   0  0  0  0  0  0  0  0  0  0  0  0
  147.4970  137.1031  158.4917 H   0  0  0  0  0  0  0  0  0  0  0  0
  148.4301  135.8951  157.6723 H   0  0  0  0  0  0  0  0  0  0  0  0
  148.5281  133.8962  158.4093 H   0  0  0  0  0  0  0  0  0  0  0  0
  147.4143  132.8470  162.4500 H   0  0  0  0  0  0  0  0  0  0  0  0
  147.1449  135.1771  162.9515 H   0  0  0  0  0  0  0  0  0  0  0  0
  150.7680  143.2887  156.6156 H   0  0  0  0  0  0  0  0  0  0  0  0
  149.9256  143.5425  158.1288 H   0  0  0  0  0  0  0  0  0  0  0  0
  152.8771  144.1308  157.5747 H   0  0  0  0  0  0  0  0  0  0  0  0
  151.5941  145.3086  157.7869 H   0  0  0  0  0  0  0  0  0  0  0  0
  153.5347  142.7835  159.5406 H   0  0  0  0  0  0  0  0  0  0  0  0
  152.6839  143.0725  161.0473 H   0  0  0  0  0  0  0  0  0  0  0  0
  150.5959  142.1664  160.1318 H   0  0  0  0  0  0  0  0  0  0  0  0
  151.8868  140.9983  159.9536 H   0  0  0  0  0  0  0  0  0  0  0  0
  1  2  1  0  0  0  0
  1 25  1  0  0  0  0
  1 26  1  0  0  0  0
  1 27  1  0  0  0  0
  2  3  1  0  0  0  0
  2  4  1  0  0  0  0
  2 19  1  0  0  0  0
  3 28  1  0  0  0  0
  3 29  1  0  0  0  0
  3 30  1  0  0  0  0
  4  5  1  0  0  0  0
  4 31  1  0  0  0  0
  4 32  1  0  0  0  0
  5  6  1  0  0  0  0
  5 33  1  0  0  0  0
  6  7  2  0  0  0  0
  6  8  1  0  0  0  0
  8  9  1  0  0  0  0
  8 34  1  0  0  0  0
  8 35  1  0  0  0  0
  9 17  1  0  0  0  0
  9 10  1  0  0  0  0
 10 11  2  0  0  0  0
 10 36  1  0  0  0  0
 11 12  1  0  0  0  0
 11 15  1  0  0  0  0
 12 13  2  0  0  0  0
 12 14  1  0  0  0  0
 15 16  2  0  0  0  0
 15 37  1  0  0  0  0
 16 17  1  0  0  0  0
 16 38  1  0  0  0  0
 17 18  2  0  0  0  0
 19 24  1  0  0  0  0
 19 20  1  0  0  0  0
 20 21  1  0  0  0  0
 20 39  1  0  0  0  0
 20 40  1  0  0  0  0
 21 22  1  0  0  0  0
 21 41  1  0  0  0  0
 21 42  1  0  0  0  0
 22 23  1  0  0  0  0
 23 24  1  0  0  0  0
 23 43  1  0  0  0  0
 23 44  1  0  0  0  0
 24 45  1  0  0  0  0
 24 46  1  0  0  0  0
M  CHG  1  12   1
M  CHG  1  14  -1
M  END
> <s_m_source_file>
AV-unprocessed.smi

> <i_m_source_file_index>
399

> <i_lp_mmshare_version>
43012

> <i_f3d_flags>
0

> <s_epik_input>
W0NIMl0xW0NIMl1PW0NIMl1bQ0gyXU4xQyhbQ0gzXSkoW0NIM10pW0NIMl1bTkhdQyg9TylbQ0gyXW4yW2NIXWMoW04rXSg9TylbTy1dKVtjSF1bY0hdYzI9Tw==

> <s_epik_cmdline>
J2VwaWtfcHl0aG9uJywgJy1waCcsICc3LjAnLCAnLXRuJywgJzgnLCAnLW1hJywgJzIwMCcsICctbWV0YWxfYmluZGluZycsICctaW1hZScsICc8aW5maWxlLm1hZT4nLCAnLW9tYWUnLCAnPG91dGZpbGUubWFlPic=

> <r_lp_tautomer_probability>
1

> <r_epik_Ionization_Penalty>
0.237382

> <r_epik_Ionization_Penalty_Charging>
7.45368e-11

> <r_epik_Ionization_Penalty_Neutral>
0.237382

> <r_epik_State_Penalty>
0.228245

> <r_epik_Charging_Adjusted_Penalty>
0.228245

> <i_epik_Tot_Q>
0

> <i_epik_Tot_abs_Q>
2

> <r_epik_Metal_State_Penalty>
0.22822

> <b_epik_Metal_Only>
0

> <s_lp_Force_Field>
OPLS_2005

> <r_lp_Energy>
50.757

> <b_lp_Chiralities_Consistent>
1

> <s_lp_Variant>
AV-unprocessed.smi:399-1

> <Gold.Version>
5.8.1

> <Gold.Id.Protein>
6NUR|6NUR_protein|mol2

> <Gold.PLP.Fitness>
48.2840

> <Gold.PLP.PLP>
-41.8874

> <Gold.PLP.part.hbond>
-3.0000

> <Gold.PLP.part.metal>
0.0000

> <Gold.PLP.part.buried>
-5.7926

> <Gold.PLP.part.nonpolar>
-34.2176

> <Gold.PLP.part.repulsive>
0.1834

> <Gold.PLP.ligand.clash>
0.0000

> <Gold.PLP.ligand.torsion>
0.9031

> <Gold.PLP.Chemscore.Hbond>
2.6640

> <Gold.PLP.Chemscore.CHOScore>
0.0000

> <Gold.PLP.Chemscore.Metal>
0.0000

> <Gold.Chemscore.Hbonds>
donor molecule, donor type, donor heavy atom, donor atom, acceptor molecule, acceptor atom, score
      P1  H  6896  6909       L1     7  1.00
      P1  H  6931  6943       L1    18  0.94
      P1  H  6934  6947       L1    18  0.94

> <Gold.PLP.Chemscore.Internal.Correction>
0.2109

> <Gold.Rescore>
     Score         DG    S(hbond)    S(metal)    S(lipo)     H(rot)  DE(clash)    DE(int)     intcor
     18.95     -19.82       2.73        0.00      90.66       2.11       0.04       0.84       ----

> <Gold.Chemscore.Fitness>
18.9460

> <Gold.Chemscore.DG>
-19.8224

> <Gold.Chemscore.ZeroCoef>
-5.4800

> <Gold.Chemscore.Hbond>
2.7347

> <Gold.Chemscore.Metal>
0.0000

> <Gold.Chemscore.Lipo>
90.6604

> <Gold.Chemscore.Internal_Hbond>
0.0000

> <Gold.Chemscore.DEClash>
0.0367

> <Gold.Chemscore.DEInternal>
0.8397

> <Gold.Chemscore.Rot>
2.1090

> <Gold.Chemscore.Internal.Correction>
   9.000000E+99

> <Gold.Chemscore.Hbonds>
donor molecule, donor type, donor heavy atom, donor atom, acceptor molecule, acceptor atom, score
      P1  H  6896  6909       L1     7  0.99
      P1  H  6931  6943       L1    18  0.87
      P1  H  6934  6947       L1    18  0.90

> <Gold.Chemscore.Hbond.Weighted>
-9.1340

> <Gold.Chemscore.Metal.Weighted>
-0.0000

> <Gold.Chemscore.Lipo.Weighted>
-10.6073

> <Gold.Chemscore.Internal_Hbond.Weighted>
0.0000

> <Gold.Chemscore.DEClash.Weighted>
0.0367

> <Gold.Chemscore.DEInternal.Weighted>
0.8397

> <Gold.Chemscore.Rot.Weighted>
5.3989

> <Gold.Chemscore.Internal.Correction.Weighted>
   9.000000E+99

> <Gold.Protein.RotatedTorsions>
[ 6907 6896 6895 6894 ] final   80.58 input  -60.11 | X-H torsion
[ 7974 7965 7964 7962 ] final  -96.05 input  175.53 | X-H torsion
[ 8008 7997 7996 7995 ] final  -81.97 input   59.86 | X-H torsion
[ 10167 10162 10161 10158 ] final   66.69 input  -65.29 | X-H torsion
[ 10718 10713 10712 10709 ] final  143.76 input   66.30 | X-H torsion
[ 10763 10752 10751 10750 ] final -155.38 input  -60.55 | X-H torsion
[ 11005 11000 10999 10996 ] final   22.71 input  -57.11 | X-H torsion

> <Gold.Protein.ActiveResidues>
 VAL166  LYS551  ARG553  GLY616  TRP617  ASP618  TYR619  PRO620  LYS621  CYS622 
 ASP623  PHE694  ASN695  SER759  ASP760  ASP761  ALA762  ILE779  LEU786  VAL792 
 PHE793  MET794  SER795  GLU796  ALA797  LYS798  CYS799  TRP800  GLU811  SER814 

> <Gold.Protein.RotatedAtoms>
  152.5240  134.3335  159.9191 H   0  0  0  0  0  0  0  0  0  0  0  0  # atno 6907 bound_to 6896
  151.3284  133.4004  159.2668 H   0  0  0  0  0  0  0  0  0  0  0  0  # atno 6908 bound_to 6896
  150.9900  134.9255  159.7952 H   0  0  0  0  0  0  0  0  0  0  0  0  # atno 6909 bound_to 6896
  145.3520  140.9478  143.2549 H   0  0  0  0  0  0  0  0  0  0  0  0  # atno 7974 bound_to 7965
  154.6038  140.0640  156.9404 H   0  0  0  0  0  0  0  0  0  0  0  0  # atno 8008 bound_to 7997
  155.2087  140.3321  155.4314 H   0  0  0  0  0  0  0  0  0  0  0  0  # atno 8009 bound_to 7997
  156.2335  140.1852  156.7165 H   0  0  0  0  0  0  0  0  0  0  0  0  # atno 8010 bound_to 7997
  140.0977  144.4931  150.7057 H   0  0  0  0  0  0  0  0  0  0  0  0  # atno 10167 bound_to 10162
  157.3651  131.0971  151.0880 H   0  0  0  0  0  0  0  0  0  0  0  0  # atno 10718 bound_to 10713
  154.7791  135.3169  154.8028 H   0  0  0  0  0  0  0  0  0  0  0  0  # atno 10763 bound_to 10752
  153.8744  135.6841  153.4776 H   0  0  0  0  0  0  0  0  0  0  0  0  # atno 10764 bound_to 10752
  153.1422  135.4734  154.9450 H   0  0  0  0  0  0  0  0  0  0  0  0  # atno 10765 bound_to 10752
  140.3775  134.1956  155.7664 H   0  0  0  0  0  0  0  0  0  0  0  0  # atno 11005 bound_to 11000
  144.8711  139.5037  143.6767 LP  0  0  0  0  0  0  0  0  0  0  0  0  # atno 17320 bound_to 7965
  146.2964  139.7291  142.9123 LP  0  0  0  0  0  0  0  0  0  0  0  0  # atno 17321 bound_to 7965
  140.6994  143.2425  151.4906 LP  0  0  0  0  0  0  0  0  0  0  0  0  # atno 17342 bound_to 10162
  139.5689  144.1977  152.1806 LP  0  0  0  0  0  0  0  0  0  0  0  0  # atno 17343 bound_to 10162
  157.2005  130.6392  149.5737 LP  0  0  0  0  0  0  0  0  0  0  0  0  # atno 17370 bound_to 10713
  155.9744  130.4692  150.6388 LP  0  0  0  0  0  0  0  0  0  0  0  0  # atno 17371 bound_to 10713
  141.1934  133.8151  157.0799 LP  0  0  0  0  0  0  0  0  0  0  0  0  # atno 17394 bound_to 11000
  140.0504  134.9808  157.1125 LP  0  0  0  0  0  0  0  0  0  0  0  0  # atno 17395 bound_to 11000

$$$$
