#       Name:                AV-unprocessed.smi:1196
#       Creating user name   scv26
#       Creation time:       Fri Mar 27 04:01:48 2020


#       File generated by GOLD software.
#

@<TRIPOS>MOLECULE
AV-unprocessed.smi:1196
    44    45     1
SMALL
NO_CHARGES


@<TRIPOS>ATOM
      1 ****        -3.0872  -1.8981  -1.5191 C.3            1 S1                 0.0000
      2 ****        -2.5125  -1.0195  -0.3997 C.3            1 S1                 0.0000
      3 ****        -2.9480  -1.5261   0.9912 C.3            1 S1                 0.0000
      4 ****        -2.5478  -0.6318   2.0635 N.pl3          1 S1                 0.0000
      5 ****        -3.0580   0.6102   2.3777 C.2            1 S1                 0.0000
      6 ****        -2.3612   1.0748   3.4561 C.2            1 S1                 0.0000
      7 ****        -1.4369   0.0299   3.7366 C.2            1 S1                 0.0000
      8 ****        -1.5532  -0.9919   2.9038 N.2            1 S1                 0.0000
      9 ****        -1.0546  -0.9968  -0.5155 N.am           1 S1                 0.0000
     10 ****        -0.2727   0.0874  -0.3873 C.2            1 S1                 0.0000
     11 ****        -0.7090   1.2134  -0.1472 O.2            1 S1                 0.0000
     12 ****         1.2330  -0.1402  -0.5398 C.3            1 S1                 0.0000
     13 ****         1.9019   0.9125  -1.4436 C.3            1 S1                 0.0000
     14 ****         3.4013   0.6391  -1.6744 C.3            1 S1                 0.0000
     15 ****         4.1656   0.8583  -0.4654 N.am           1 S1                 0.0000
     16 ****         5.1164   1.7719  -0.6512 C.2            1 S1                 0.0000
     17 ****         5.8932   2.0887   0.2470 O.2            1 S1                 0.0000
     18 ****         5.0641   2.2469  -1.9107 N.pl3          1 S1                -1.0000
     19 ****         4.0727   1.6483  -2.6057 C.2            1 S1                 0.0000
     20 ****         3.7098   1.8063  -3.7704 O.2            1 S1                 0.0000
     21 ****        -4.1767  -1.9157  -1.4829 H              1 S1                 0.0000
     22 ****        -2.7352  -2.9273  -1.4384 H              1 S1                 0.0000
     23 ****        -2.7977  -1.5223  -2.5011 H              1 S1                 0.0000
     24 ****        -2.9125  -0.0143  -0.5454 H              1 S1                 0.0000
     25 ****        -4.0338  -1.6210   1.0298 H              1 S1                 0.0000
     26 ****        -2.5433  -2.5219   1.1810 H              1 S1                 0.0000
     27 ****        -3.8603   1.0573   1.8095 H              1 S1                 0.0000
     28 ****        -2.4915   2.0176   3.9660 H              1 S1                 0.0000
     29 ****        -0.6905  -0.0169   4.5156 H              1 S1                 0.0000
     30 ****        -0.6026  -1.8793  -0.7056 H              1 S1                 0.0000
     31 ****         1.6806  -0.1221   0.4543 H              1 S1                 0.0000
     32 ****         1.4130  -1.1371  -0.9451 H              1 S1                 0.0000
     33 ****         1.3921   0.9207  -2.4086 H              1 S1                 0.0000
     34 ****         1.7689   1.9109  -1.0224 H              1 S1                 0.0000
     35 ****         3.5691  -0.3717  -2.0485 H              1 S1                 0.0000
     36 ****         4.0026   0.3597   0.3967 H              1 S1                 0.0000
     37 ****        -1.0237  -1.8402   2.8978 LP             1 S1                 0.0000
     38 ****        -1.6927   1.3555  -0.0374 LP             1 S1                 0.0000
     39 ****        -0.0796   1.9858  -0.0621 LP             1 S1                 0.0000
     40 ****         5.8208   1.6570   1.1461 LP             1 S1                 0.0000
     41 ****         6.5977   2.7782   0.0787 LP             1 S1                 0.0000
     42 ****         5.6754   2.9467  -2.2804 LP             1 S1                 0.0000
     43 ****         2.9525   1.2651  -4.1360 LP             1 S1                 0.0000
     44 ****         4.1721   2.4759  -4.3517 LP             1 S1                 0.0000
@<TRIPOS>BOND
    1    1    2 1     
    2    1   21 1     
    3    1   22 1     
    4    1   23 1     
    5    2    3 1     
    6    2    9 1     
    7    2   24 1     
    8    3    4 1     
    9    3   25 1     
   10    3   26 1     
   11    4    8 1     
   12    4    5 1     
   13    5    6 2     
   14    5   27 1     
   15    6    7 1     
   16    6   28 1     
   17    7    8 2     
   18    7   29 1     
   19    9   10 am    
   20    9   30 1     
   21   10   11 2     
   22   10   12 1     
   23   12   13 1     
   24   12   31 1     
   25   12   32 1     
   26   13   14 1     
   27   13   33 1     
   28   13   34 1     
   29   14   19 1     
   30   14   15 1     
   31   14   35 1     
   32   15   16 am    
   33   15   36 1     
   34   16   17 2     
   35   16   18 1     
   36   18   19 1     
   37   19   20 2     
   38    8   37 1     
   39   11   38 1     
   40   11   39 1     
   41   17   40 1     
   42   17   41 1     
   43   18   42 1     
   44   20   43 1     
   45   20   44 1     
@<TRIPOS>SUBSTRUCTURE
      1 S1             1
@<TRIPOS>SET
LONE_PAIRS      STATIC     ATOMS    <user>   **** ""
8 37 38 39 40 41 42 43 44
DONOR_HYDROGENS      STATIC     ATOMS    <user>   **** ""
2 30 36
ATOM$BLUE        STATIC     ATOMS    COLORGROUP SYSTEM
8 37 38 39 40 41 42 43 44
ATOM$RED        STATIC     ATOMS    COLORGROUP SYSTEM
2 30 36
