AV-unprocessed.smi:3338|AV-procd|sdf|12869|dock1
  -GOLD-   2272019263D 1   1.00000     0.00000
 Structure written by MMmdl.
 44 45  0  0  0  0  0  0  0  0  2 V2000
  144.2091  136.1847  152.5046 C   0  0  0  0  0  0  0  0  0  0  0  0
  145.4736  135.3928  152.1430 C   0  0  2  0  0  0  0  0  0  0  0  0
  145.1457  134.1919  151.2402 C   0  0  0  0  0  0  0  0  0  0  0  0
  146.4226  133.4069  150.9166 C   0  0  0  0  0  0  0  0  0  0  0  0
  147.1513  132.9872  152.2029 C   0  0  0  0  0  0  0  0  0  0  0  0
  147.4585  134.1659  153.0541 N   0  3  2  0  0  0  0  0  0  0  0  0
  148.2795  133.8028  154.2364 C   0  0  0  0  0  0  0  0  0  0  0  0
  148.5429  135.0054  155.1637 C   0  0  0  0  0  0  0  0  0  0  0  0
  149.2504  136.0692  154.4618 N   0  0  0  0  0  0  0  0  0  0  0  0
  149.7473  137.1746  155.0406 C   0  0  0  0  0  0  0  0  0  0  0  0
  149.6812  137.3790  156.2536 O   0  0  0  0  0  0  0  0  0  0  0  0
  150.4111  138.1970  154.1013 C   0  0  2  0  0  0  0  0  0  0  0  0
  151.9164  138.3845  154.3779 C   0  0  0  0  0  0  0  0  0  0  0  0
  149.6981  139.4694  154.1354 N   0  0  0  0  0  0  0  0  0  0  0  0
  148.3832  139.7159  153.7961 C   0  0  0  0  0  0  0  0  0  0  0  0
  148.1473  141.0446  154.0042 C   0  0  0  0  0  0  0  0  0  0  0  0
  149.3932  141.5383  154.4808 C   0  0  0  0  0  0  0  0  0  0  0  0
  150.3169  140.5950  154.5629 N   0  0  0  0  0  0  0  0  0  0  0  0
  146.2263  134.9227  153.4045 C   0  0  0  0  0  0  0  0  0  0  0  0
  143.5023  135.5712  153.0641 H   0  0  0  0  0  0  0  0  0  0  0  0
  143.7012  136.5438  151.6091 H   0  0  0  0  0  0  0  0  0  0  0  0
  144.4513  137.0547  153.1159 H   0  0  0  0  0  0  0  0  0  0  0  0
  146.1322  136.0628  151.5882 H   0  0  0  0  0  0  0  0  0  0  0  0
  144.4282  133.5366  151.7363 H   0  0  0  0  0  0  0  0  0  0  0  0
  144.6737  134.5291  150.3166 H   0  0  0  0  0  0  0  0  0  0  0  0
  146.1773  132.5259  150.3228 H   0  0  0  0  0  0  0  0  0  0  0  0
  147.0846  134.0192  150.3028 H   0  0  0  0  0  0  0  0  0  0  0  0
  146.5440  132.2774  152.7670 H   0  0  0  0  0  0  0  0  0  0  0  0
  148.0750  132.4724  151.9354 H   0  0  0  0  0  0  0  0  0  0  0  0
  147.8038  132.9869  154.7828 H   0  0  0  0  0  0  0  0  0  0  0  0
  149.2415  133.4194  153.8926 H   0  0  0  0  0  0  0  0  0  0  0  0
  147.6058  135.3869  155.5730 H   0  0  0  0  0  0  0  0  0  0  0  0
  149.1589  134.7158  156.0142 H   0  0  0  0  0  0  0  0  0  0  0  0
  149.3490  135.9727  153.4612 H   0  0  0  0  0  0  0  0  0  0  0  0
  150.3153  137.8006  153.0891 H   0  0  0  0  0  0  0  0  0  0  0  0
  152.4548  137.4403  154.2898 H   0  0  0  0  0  0  0  0  0  0  0  0
  152.1012  138.7801  155.3775 H   0  0  0  0  0  0  0  0  0  0  0  0
  152.3585  139.0784  153.6623 H   0  0  0  0  0  0  0  0  0  0  0  0
  147.7304  138.9334  153.4382 H   0  0  0  0  0  0  0  0  0  0  0  0
  147.2250  141.5824  153.8404 H   0  0  0  0  0  0  0  0  0  0  0  0
  149.6514  142.5464  154.7696 H   0  0  0  0  0  0  0  0  0  0  0  0
  146.4815  135.7942  154.0063 H   0  0  0  0  0  0  0  0  0  0  0  0
  145.5780  134.2957  154.0191 H   0  0  0  0  0  0  0  0  0  0  0  0
  148.0299  134.7767  152.4879 H   0  0  0  0  0  0  0  0  0  0  0  0
  1  2  1  0  0  0  0
  1 20  1  0  0  0  0
  1 21  1  0  0  0  0
  1 22  1  0  0  0  0
  2 19  1  0  0  0  0
  2  3  1  0  0  0  0
  2 23  1  0  0  0  0
  3  4  1  0  0  0  0
  3 24  1  0  0  0  0
  3 25  1  0  0  0  0
  4  5  1  0  0  0  0
  4 26  1  0  0  0  0
  4 27  1  0  0  0  0
  5  6  1  0  0  0  0
  5 28  1  0  0  0  0
  5 29  1  0  0  0  0
  6  7  1  0  0  0  0
  6 19  1  0  0  0  0
  6 44  1  0  0  0  0
  7  8  1  0  0  0  0
  7 30  1  0  0  0  0
  7 31  1  0  0  0  0
  8  9  1  0  0  0  0
  8 32  1  0  0  0  0
  8 33  1  0  0  0  0
  9 10  1  0  0  0  0
  9 34  1  0  0  0  0
 10 11  2  0  0  0  0
 10 12  1  0  0  0  0
 12 13  1  0  0  0  0
 12 14  1  0  0  0  0
 12 35  1  0  0  0  0
 13 36  1  0  0  0  0
 13 37  1  0  0  0  0
 13 38  1  0  0  0  0
 14 18  1  0  0  0  0
 14 15  1  0  0  0  0
 15 16  2  0  0  0  0
 15 39  1  0  0  0  0
 16 17  1  0  0  0  0
 16 40  1  0  0  0  0
 17 18  2  0  0  0  0
 17 41  1  0  0  0  0
 19 42  1  0  0  0  0
 19 43  1  0  0  0  0
M  CHG  1   6   1
M  END
> <s_m_source_file>
AV-unprocessed.smi

> <i_m_source_file_index>
3338

> <i_lp_mmshare_version>
43012

> <i_f3d_flags>
0

> <s_epik_input>
W0NIM11bQ0BASF0xW0NIMl1bQ0gyXVtDSDJdTihbQ0gyXTEpW0NIMl1bQ0gyXVtOSF1DKD1PKVtDQEhdKFtDSDNdKW4yW2NIXVtjSF1bY0hdbjI=

> <s_epik_cmdline>
J2VwaWtfcHl0aG9uJywgJy1waCcsICc3LjAnLCAnLXRuJywgJzgnLCAnLW1hJywgJzIwMCcsICctbWV0YWxfYmluZGluZycsICctaW1hZScsICc8aW5maWxlLm1hZT4nLCAnLW9tYWUnLCAnPG91dGZpbGUubWFlPic=

> <r_lp_tautomer_probability>
1

> <r_epik_Ionization_Penalty>
0.00225707

> <r_epik_Ionization_Penalty_Charging>
0.00223709

> <r_epik_Ionization_Penalty_Neutral>
1.99775e-05

> <r_epik_State_Penalty>
0.00153978

> <r_epik_Charging_Adjusted_Penalty>
0.00377687

> <i_epik_Tot_Q>
1

> <i_epik_Tot_abs_Q>
1

> <r_epik_Metal_State_Penalty>
-0

> <b_epik_Metal_Only>
0

> <s_lp_Force_Field>
OPLS_2005

> <r_lp_Energy>
19.7834

> <b_lp_Chiralities_Consistent>
1

> <s_lp_Variant>
AV-unprocessed.smi:3338-1

> <Gold.Version>
5.8.1

> <Gold.Id.Protein>
6NUR|6NUR_protein|mol2

> <Gold.PLP.Fitness>
49.7970

> <Gold.PLP.PLP>
-34.9503

> <Gold.PLP.part.hbond>
-3.0000

> <Gold.PLP.part.metal>
0.0000

> <Gold.PLP.part.buried>
-3.8943

> <Gold.PLP.part.nonpolar>
-28.8355

> <Gold.PLP.part.repulsive>
0.1180

> <Gold.PLP.ligand.clash>
0.0000

> <Gold.PLP.ligand.torsion>
0.1478

> <Gold.PLP.Chemscore.Hbond>
4.0000

> <Gold.PLP.Chemscore.CHOScore>
1.0000

> <Gold.PLP.Chemscore.Metal>
0.0000

> <Gold.Chemscore.Hbonds>
donor molecule, donor type, donor heavy atom, donor atom, acceptor molecule, acceptor atom, score
      L1  H     6    44       P1  7948  2.00
      L1  H     9    34       P1  7948  1.00
      P1  H  7989  7998       L1    18  0.91
      L1  C    17    41       P1  8028  1.00

> <Gold.PLP.Chemscore.Internal.Correction>
0.1424

> <Gold.Rescore>
     Score         DG    S(hbond)    S(metal)    S(lipo)     H(rot)  DE(clash)    DE(int)     intcor
     17.75     -17.97       2.64        0.00      69.75       1.76       0.02       0.19       ----

> <Gold.Chemscore.Fitness>
17.7532

> <Gold.Chemscore.DG>
-17.9683

> <Gold.Chemscore.ZeroCoef>
-5.4800

> <Gold.Chemscore.Hbond>
2.6423

> <Gold.Chemscore.Metal>
0.0000

> <Gold.Chemscore.Lipo>
69.7505

> <Gold.Chemscore.Internal_Hbond>
0.0000

> <Gold.Chemscore.DEClash>
0.0202

> <Gold.Chemscore.DEInternal>
0.1949

> <Gold.Chemscore.Rot>
1.7570

> <Gold.Chemscore.Internal.Correction>
   9.000000E+99

> <Gold.Chemscore.Hbonds>
donor molecule, donor type, donor heavy atom, donor atom, acceptor molecule, acceptor atom, score
      L1  H     6    44       P1  7948  0.65
      L1  H     9    34       P1  7948  0.60
      P1  H  7989  7998       L1    18  0.42

> <Gold.Chemscore.Hbond.Weighted>
-8.8254

> <Gold.Chemscore.Metal.Weighted>
-0.0000

> <Gold.Chemscore.Lipo.Weighted>
-8.1608

> <Gold.Chemscore.Internal_Hbond.Weighted>
0.0000

> <Gold.Chemscore.DEClash.Weighted>
0.0202

> <Gold.Chemscore.DEInternal.Weighted>
0.1949

> <Gold.Chemscore.Rot.Weighted>
4.4979

> <Gold.Chemscore.Internal.Correction.Weighted>
   9.000000E+99

> <Gold.Protein.RotatedTorsions>
[ 6907 6896 6895 6894 ] final  117.07 input  -60.11 | X-H torsion
[ 7974 7965 7964 7962 ] final -115.24 input  175.53 | X-H torsion
[ 8008 7997 7996 7995 ] final -147.55 input   59.86 | X-H torsion
[ 10167 10162 10161 10158 ] final -151.90 input  -65.29 | X-H torsion
[ 10718 10713 10712 10709 ] final   87.45 input   66.30 | X-H torsion
[ 10763 10752 10751 10750 ] final  -71.52 input  -60.55 | X-H torsion
[ 11005 11000 10999 10996 ] final   75.71 input  -57.11 | X-H torsion

> <Gold.Protein.ActiveResidues>
 VAL166  LYS551  ARG553  GLY616  TRP617  ASP618  TYR619  PRO620  LYS621  CYS622 
 ASP623  PHE694  ASN695  SER759  ASP760  ASP761  ALA762  ILE779  LEU786  VAL792 
 PHE793  MET794  SER795  GLU796  ALA797  LYS798  CYS799  TRP800  GLU811  SER814 

> <Gold.Protein.RotatedAtoms>
  152.4636  133.7875  159.6883 H   0  0  0  0  0  0  0  0  0  0  0  0  # atno 6907 bound_to 6896
  150.8591  133.7661  159.3005 H   0  0  0  0  0  0  0  0  0  0  0  0  # atno 6908 bound_to 6896
  151.5233  135.1070  159.9936 H   0  0  0  0  0  0  0  0  0  0  0  0  # atno 6909 bound_to 6896
  145.1107  140.8609  143.3872 H   0  0  0  0  0  0  0  0  0  0  0  0  # atno 7974 bound_to 7965
  155.5773  140.0640  157.2792 H   0  0  0  0  0  0  0  0  0  0  0  0  # atno 8008 bound_to 7997
  154.4343  140.1858  156.0987 H   0  0  0  0  0  0  0  0  0  0  0  0  # atno 8009 bound_to 7997
  156.0331  140.3304  155.7165 H   0  0  0  0  0  0  0  0  0  0  0  0  # atno 8010 bound_to 7997
  139.7227  143.8931  152.2509 H   0  0  0  0  0  0  0  0  0  0  0  0  # atno 10167 bound_to 10162
  157.6940  131.0256  150.3126 H   0  0  0  0  0  0  0  0  0  0  0  0  # atno 10718 bound_to 10713
  154.4329  135.5959  153.6080 H   0  0  0  0  0  0  0  0  0  0  0  0  # atno 10763 bound_to 10752
  152.9800  135.5979  154.3817 H   0  0  0  0  0  0  0  0  0  0  0  0  # atno 10764 bound_to 10752
  154.3657  135.2841  155.2273 H   0  0  0  0  0  0  0  0  0  0  0  0  # atno 10765 bound_to 10752
  139.9331  134.7540  156.1305 H   0  0  0  0  0  0  0  0  0  0  0  0  # atno 11005 bound_to 11000
  145.0851  139.2931  143.5764 LP  0  0  0  0  0  0  0  0  0  0  0  0  # atno 17320 bound_to 7965
  146.3526  140.0369  142.8646 LP  0  0  0  0  0  0  0  0  0  0  0  0  # atno 17321 bound_to 7965
  139.8832  144.7006  150.8854 LP  0  0  0  0  0  0  0  0  0  0  0  0  # atno 17342 bound_to 10162
  140.7757  143.3645  151.1766 LP  0  0  0  0  0  0  0  0  0  0  0  0  # atno 17343 bound_to 10162
  156.3625  130.3849  149.7240 LP  0  0  0  0  0  0  0  0  0  0  0  0  # atno 17370 bound_to 10713
  156.4681  130.7984  151.3002 LP  0  0  0  0  0  0  0  0  0  0  0  0  # atno 17371 bound_to 10713
  141.0931  133.6706  156.2584 LP  0  0  0  0  0  0  0  0  0  0  0  0  # atno 17394 bound_to 11000
  140.6148  134.5422  157.5539 LP  0  0  0  0  0  0  0  0  0  0  0  0  # atno 17395 bound_to 11000

$$$$
