AV-unprocessed.smi:829|AV-procd|sdf|3869|dock3
  -GOLD-   22720 1323D 1   1.00000     0.00000
 Structure written by MMmdl.
 50 52  0  0  0  0  0  0  0  0  3 V2000
  144.9348  139.1513  155.0661 O   0  0  0  0  0  0  0  0  0  0  0  0
  146.0518  138.7408  155.3781 C   0  0  0  0  0  0  0  0  0  0  0  0
  146.3824  137.4502  155.5603 N   0  0  0  0  0  0  0  0  0  0  0  0
  145.5593  136.2978  155.4279 C   0  0  0  0  0  0  0  0  0  0  0  0
  146.1446  135.0416  155.7035 C   0  0  0  0  0  0  0  0  0  0  0  0
  145.3710  133.8698  155.5752 C   0  0  0  0  0  0  0  0  0  0  0  0
  144.0825  133.9545  155.1810 N   0  3  0  0  0  0  0  0  0  0  0  0
  143.4836  135.1296  154.8922 C   0  0  0  0  0  0  0  0  0  0  0  0
  144.2065  136.3348  155.0025 C   0  0  0  0  0  0  0  0  0  0  0  0
  147.0982  139.5502  155.6014 N   0  0  0  0  0  0  0  0  0  0  0  0
  147.0769  141.0084  155.4802 C   0  0  2  0  0  0  0  0  0  0  0  0
  148.1251  141.4824  154.4579 C   0  0  0  0  0  0  0  0  0  0  0  0
  149.5637  141.3496  154.9923 C   0  0  0  0  0  0  0  0  0  0  0  0
  149.7264  142.0592  156.2876 N   0  3  2  0  0  0  0  0  0  0  0  0
  151.1341  142.0798  156.7640 C   0  0  0  0  0  0  0  0  0  0  0  0
  151.2970  142.9099  158.0522 C   0  0  0  0  0  0  0  0  0  0  0  0
  151.6217  144.3808  157.7802 C   0  0  0  0  0  0  0  0  0  0  0  0
  152.1730  144.9134  159.1053 C   0  0  0  0  0  0  0  0  0  0  0  0
  152.7693  143.7005  159.8340 C   0  0  0  0  0  0  0  0  0  0  0  0
  152.4446  142.4751  158.9709 C   0  0  0  0  0  0  0  0  0  0  0  0
  148.7740  141.5504  157.3086 C   0  0  0  0  0  0  0  0  0  0  0  0
  147.3195  141.7071  156.8338 C   0  0  0  0  0  0  0  0  0  0  0  0
  147.3204  137.2753  155.8897 H   0  0  0  0  0  0  0  0  0  0  0  0
  147.1760  134.9718  156.0176 H   0  0  0  0  0  0  0  0  0  0  0  0
  145.7422  132.8749  155.7737 H   0  0  0  0  0  0  0  0  0  0  0  0
  142.4517  135.0716  154.5780 H   0  0  0  0  0  0  0  0  0  0  0  0
  143.7111  137.2591  154.7476 H   0  0  0  0  0  0  0  0  0  0  0  0
  147.9797  139.1273  155.8528 H   0  0  0  0  0  0  0  0  0  0  0  0
  146.0913  141.2954  155.1090 H   0  0  0  0  0  0  0  0  0  0  0  0
  148.0192  140.9316  153.5225 H   0  0  0  0  0  0  0  0  0  0  0  0
  147.9348  142.5286  154.2144 H   0  0  0  0  0  0  0  0  0  0  0  0
  149.8299  140.2986  155.1153 H   0  0  0  0  0  0  0  0  0  0  0  0
  150.2528  141.7670  154.2568 H   0  0  0  0  0  0  0  0  0  0  0  0
  151.5154  141.0657  156.8954 H   0  0  0  0  0  0  0  0  0  0  0  0
  151.7682  142.5333  156.0005 H   0  0  0  0  0  0  0  0  0  0  0  0
  150.3653  142.8749  158.6196 H   0  0  0  0  0  0  0  0  0  0  0  0
  152.3915  144.4562  157.0107 H   0  0  0  0  0  0  0  0  0  0  0  0
  150.7544  144.9449  157.4355 H   0  0  0  0  0  0  0  0  0  0  0  0
  152.9085  145.7030  158.9488 H   0  0  0  0  0  0  0  0  0  0  0  0
  151.3626  145.3358  159.7009 H   0  0  0  0  0  0  0  0  0  0  0  0
  153.8456  143.8046  159.9753 H   0  0  0  0  0  0  0  0  0  0  0  0
  152.3198  143.6026  160.8230 H   0  0  0  0  0  0  0  0  0  0  0  0
  152.1873  141.6055  159.5764 H   0  0  0  0  0  0  0  0  0  0  0  0
  153.3207  142.2165  158.3744 H   0  0  0  0  0  0  0  0  0  0  0  0
  148.9905  140.5024  157.5219 H   0  0  0  0  0  0  0  0  0  0  0  0
  148.9013  142.0903  158.2458 H   0  0  0  0  0  0  0  0  0  0  0  0
  147.0935  142.7693  156.7318 H   0  0  0  0  0  0  0  0  0  0  0  0
  146.6353  141.3286  157.5938 H   0  0  0  0  0  0  0  0  0  0  0  0
  149.4783  143.0219  156.1085 H   0  0  0  0  0  0  0  0  0  0  0  0
  143.5398  133.0946  155.0932 H   0  0  0  0  0  0  0  0  0  0  0  0
  1  2  2  0  0  0  0
  2  3  1  0  0  0  0
  2 10  1  0  0  0  0
  3  4  1  0  0  0  0
  3 23  1  0  0  0  0
  4  9  1  0  0  0  0
  4  5  2  0  0  0  0
  5  6  1  0  0  0  0
  5 24  1  0  0  0  0
  6  7  2  0  0  0  0
  6 25  1  0  0  0  0
  7  8  1  0  0  0  0
  7 50  1  0  0  0  0
  8  9  2  0  0  0  0
  8 26  1  0  0  0  0
  9 27  1  0  0  0  0
 10 11  1  0  0  0  0
 10 28  1  0  0  0  0
 11 22  1  0  0  0  0
 11 12  1  0  0  0  0
 11 29  1  0  0  0  0
 12 13  1  0  0  0  0
 12 30  1  0  0  0  0
 12 31  1  0  0  0  0
 13 14  1  0  0  0  0
 13 32  1  0  0  0  0
 13 33  1  0  0  0  0
 14 15  1  0  0  0  0
 14 21  1  0  0  0  0
 14 49  1  0  0  0  0
 15 16  1  0  0  0  0
 15 34  1  0  0  0  0
 15 35  1  0  0  0  0
 16 20  1  0  0  0  0
 16 17  1  0  0  0  0
 16 36  1  0  0  0  0
 17 18  1  0  0  0  0
 17 37  1  0  0  0  0
 17 38  1  0  0  0  0
 18 19  1  0  0  0  0
 18 39  1  0  0  0  0
 18 40  1  0  0  0  0
 19 20  1  0  0  0  0
 19 41  1  0  0  0  0
 19 42  1  0  0  0  0
 20 43  1  0  0  0  0
 20 44  1  0  0  0  0
 21 22  1  0  0  0  0
 21 45  1  0  0  0  0
 21 46  1  0  0  0  0
 22 47  1  0  0  0  0
 22 48  1  0  0  0  0
M  CHG  1   7   1
M  CHG  1  14   1
M  END
> <s_m_source_file>
AV-unprocessed.smi

> <i_m_source_file_index>
829

> <i_lp_mmshare_version>
43012

> <i_f3d_flags>
0

> <s_epik_input>
W2NIXTFbY0hdbltjSF1bY0hdYzFbTkhdQyg9TylbTkhdW0NIXTJbQ0gyXVtDSDJdTihbQ0gyXVtDSDJdMilbQ0gyXVtDSF0zW0NIMl1bQ0gyXVtDSDJdW0NIMl0z

> <s_epik_cmdline>
J2VwaWtfcHl0aG9uJywgJy1waCcsICc3LjAnLCAnLXRuJywgJzgnLCAnLW1hJywgJzIwMCcsICctbWV0YWxfYmluZGluZycsICctaW1hZScsICc8aW5maWxlLm1hZT4nLCAnLW9tYWUnLCAnPG91dGZpbGUubWFlPic=

> <r_epik_Ionization_Penalty>
1.10644

> <r_epik_Ionization_Penalty_Charging>
1.10642

> <r_epik_Ionization_Penalty_Neutral>
1.84455e-05

> <r_epik_State_Penalty>
1.14949

> <r_epik_Charging_Adjusted_Penalty>
2.25592

> <i_epik_Tot_Q>
2

> <i_epik_Tot_abs_Q>
2

> <r_epik_Metal_State_Penalty>
1.23448

> <b_epik_Metal_Only>
0

> <s_lp_Force_Field>
OPLS_2005

> <r_lp_Energy>
50.4415

> <b_lp_Chiralities_Consistent>
1

> <s_lp_Variant>
AV-unprocessed.smi:829-4

> <Gold.Version>
5.8.1

> <Gold.Id.Protein>
6NUR|6NUR_protein|mol2

> <Gold.PLP.Fitness>
45.6452

> <Gold.PLP.PLP>
-34.3721

> <Gold.PLP.part.hbond>
-2.0000

> <Gold.PLP.part.metal>
0.0000

> <Gold.PLP.part.buried>
-5.2128

> <Gold.PLP.part.nonpolar>
-27.5116

> <Gold.PLP.part.repulsive>
0.1764

> <Gold.PLP.ligand.clash>
0.0000

> <Gold.PLP.ligand.torsion>
0.3879

> <Gold.PLP.Chemscore.Hbond>
4.0000

> <Gold.PLP.Chemscore.CHOScore>
0.0000

> <Gold.PLP.Chemscore.Metal>
0.0000

> <Gold.Chemscore.Hbonds>
donor molecule, donor type, donor heavy atom, donor atom, acceptor molecule, acceptor atom, score
      L1  H     7    50       P1 10957  2.00
      L1  H    14    49       P1  8028  2.00

> <Gold.PLP.Chemscore.Internal.Correction>
0.0488

> <Gold.Rescore>
     Score         DG    S(hbond)    S(metal)    S(lipo)     H(rot)  DE(clash)    DE(int)     intcor
     18.72     -20.41       2.00        0.00     100.48       1.37       0.09       1.60       ----

> <Gold.Chemscore.Fitness>
18.7150

> <Gold.Chemscore.DG>
-20.4050

> <Gold.Chemscore.ZeroCoef>
-5.4800

> <Gold.Chemscore.Hbond>
1.9992

> <Gold.Chemscore.Metal>
0.0000

> <Gold.Chemscore.Lipo>
100.4833

> <Gold.Chemscore.Internal_Hbond>
0.0000

> <Gold.Chemscore.DEClash>
0.0866

> <Gold.Chemscore.DEInternal>
1.6034

> <Gold.Chemscore.Rot>
1.3707

> <Gold.Chemscore.Internal.Correction>
   9.000000E+99

> <Gold.Chemscore.Hbonds>
donor molecule, donor type, donor heavy atom, donor atom, acceptor molecule, acceptor atom, score
      L1  H     7    50       P1 10957  0.99
      L1  H    14    49       P1  8028  1.00

> <Gold.Chemscore.Hbond.Weighted>
-6.6774

> <Gold.Chemscore.Metal.Weighted>
-0.0000

> <Gold.Chemscore.Lipo.Weighted>
-11.7565

> <Gold.Chemscore.Internal_Hbond.Weighted>
0.0000

> <Gold.Chemscore.DEClash.Weighted>
0.0866

> <Gold.Chemscore.DEInternal.Weighted>
1.6034

> <Gold.Chemscore.Rot.Weighted>
3.5089

> <Gold.Chemscore.Internal.Correction.Weighted>
   9.000000E+99

> <Gold.Protein.RotatedTorsions>
[ 6907 6896 6895 6894 ] final  -10.63 input  -60.11 | X-H torsion
[ 7974 7965 7964 7962 ] final  -46.64 input  175.53 | X-H torsion
[ 8008 7997 7996 7995 ] final  -28.14 input   59.86 | X-H torsion
[ 10167 10162 10161 10158 ] final -122.92 input  -65.29 | X-H torsion
[ 10718 10713 10712 10709 ] final  102.50 input   66.30 | X-H torsion
[ 10763 10752 10751 10750 ] final -172.08 input  -60.55 | X-H torsion
[ 11005 11000 10999 10996 ] final  177.77 input  -57.11 | X-H torsion

> <Gold.Protein.ActiveResidues>
 VAL166  LYS551  ARG553  GLY616  TRP617  ASP618  TYR619  PRO620  LYS621  CYS622 
 ASP623  PHE694  ASN695  SER759  ASP760  ASP761  ALA762  ILE779  LEU786  VAL792 
 PHE793  MET794  SER795  GLU796  ALA797  LYS798  CYS799  TRP800  GLU811  SER814 

> <Gold.Protein.RotatedAtoms>
  151.3989  135.0968  159.9549 H   0  0  0  0  0  0  0  0  0  0  0  0  # atno 6907 bound_to 6896
  152.5056  133.8907  159.7403 H   0  0  0  0  0  0  0  0  0  0  0  0  # atno 6908 bound_to 6896
  150.9377  133.6636  159.2826 H   0  0  0  0  0  0  0  0  0  0  0  0  # atno 6909 bound_to 6896
  145.9699  140.7394  142.9416 H   0  0  0  0  0  0  0  0  0  0  0  0  # atno 7974 bound_to 7965
  154.4345  140.1853  156.1043 H   0  0  0  0  0  0  0  0  0  0  0  0  # atno 8008 bound_to 7997
  156.0267  140.3335  155.7071 H   0  0  0  0  0  0  0  0  0  0  0  0  # atno 8009 bound_to 7997
  155.5898  140.0630  157.2752 H   0  0  0  0  0  0  0  0  0  0  0  0  # atno 8010 bound_to 7997
  140.0091  143.5461  152.2271 H   0  0  0  0  0  0  0  0  0  0  0  0  # atno 10167 bound_to 10162
  157.6800  131.0754  150.5414 H   0  0  0  0  0  0  0  0  0  0  0  0  # atno 10718 bound_to 10713
  154.6233  135.2878  155.0300 H   0  0  0  0  0  0  0  0  0  0  0  0  # atno 10763 bound_to 10752
  154.1487  135.6507  153.4962 H   0  0  0  0  0  0  0  0  0  0  0  0  # atno 10764 bound_to 10752
  153.0246  135.5350  154.7032 H   0  0  0  0  0  0  0  0  0  0  0  0  # atno 10765 bound_to 10752
  140.3877  134.6890  157.4489 H   0  0  0  0  0  0  0  0  0  0  0  0  # atno 11005 bound_to 11000
  144.6834  140.2731  143.7303 LP  0  0  0  0  0  0  0  0  0  0  0  0  # atno 17320 bound_to 7965
  145.7921  139.1931  143.2097 LP  0  0  0  0  0  0  0  0  0  0  0  0  # atno 17321 bound_to 7965
  139.6218  144.7630  151.2724 LP  0  0  0  0  0  0  0  0  0  0  0  0  # atno 17342 bound_to 10162
  140.7389  143.6635  150.8143 LP  0  0  0  0  0  0  0  0  0  0  0  0  # atno 17343 bound_to 10162
  156.5721  130.4282  149.6015 LP  0  0  0  0  0  0  0  0  0  0  0  0  # atno 17370 bound_to 10713
  156.2732  130.7029  151.1832 LP  0  0  0  0  0  0  0  0  0  0  0  0  # atno 17371 bound_to 10713
  140.0430  134.6240  155.8957 LP  0  0  0  0  0  0  0  0  0  0  0  0  # atno 17394 bound_to 11000
  141.1901  133.6567  156.5399 LP  0  0  0  0  0  0  0  0  0  0  0  0  # atno 17395 bound_to 11000

$$$$
