#       Name:                AV-unprocessed.smi:1609
#       Creating user name   scv26
#       Creation time:       Fri Mar 27 07:12:41 2020


#       File generated by GOLD software.
#

@<TRIPOS>MOLECULE
AV-unprocessed.smi:1609
    46    47     1
SMALL
NO_CHARGES


@<TRIPOS>ATOM
      1 ****         0.0239   1.3828   0.7394 O.2            1 S1                 0.0000
      2 ****         0.7116   0.3709   0.5956 C.2            1 S1                 0.0000
      3 ****         2.2450   0.4524   0.5841 C.3            1 S1                 0.0000
      4 ****         2.7613   1.8220   0.4148 N.am           1 S1                 0.0000
      5 ****         3.1280   2.5113   1.5856 C.2            1 S1                 0.0000
      6 ****         3.6091   3.7620   1.5504 C.2            1 S1                 0.0000
      7 ****         3.7551   4.4011   0.2656 C.2            1 S1                 0.0000
      8 ****         3.4052   3.7607  -0.8739 C.2            1 S1                 0.0000
      9 ****         3.5865   4.4566  -2.1277 N.pl3          1 S1                 1.0000
     10 ****         4.0152   3.8344  -3.0948 O.2            1 S1                 0.0000
     11 ****         3.3196   5.6538  -2.1775 O.2            1 S1                -1.0000
     12 ****         2.8580   2.3882  -0.8285 C.2            1 S1                 0.0000
     13 ****         2.4987   1.7773  -1.8370 O.2            1 S1                 0.0000
     14 ****         0.1919  -0.8580   0.4517 N.am           1 S1                 0.0000
     15 ****        -1.2321  -1.1848   0.4275 C.3            1 S1                 0.0000
     16 ****        -1.4210  -2.6087   0.9912 C.3            1 S1                 0.0000
     17 ****        -2.8855  -2.9444   1.3195 C.3            1 S1                 0.0000
     18 ****        -3.7120  -3.5187   0.1555 C.3            1 S1                 0.0000
     19 ****        -3.4965  -2.8729  -1.2243 C.3            1 S1                 0.0000
     20 ****        -3.2510  -1.3556  -1.2104 C.3            1 S1                 0.0000
     21 ****        -1.7693  -0.9945  -1.0066 C.3            1 S1                 0.0000
     22 ****         2.6151   0.0177   1.5138 H              1 S1                 0.0000
     23 ****         2.6325  -0.1952  -0.2048 H              1 S1                 0.0000
     24 ****         2.9836   1.9653   2.5068 H              1 S1                 0.0000
     25 ****         3.8796   4.2779   2.4599 H              1 S1                 0.0000
     26 ****         4.1612   5.4016   0.2272 H              1 S1                 0.0000
     27 ****         0.8335  -1.6302   0.3430 H              1 S1                 0.0000
     28 ****        -1.7544  -0.4917   1.0900 H              1 S1                 0.0000
     29 ****        -0.9909  -3.3572   0.3243 H              1 S1                 0.0000
     30 ****        -0.8558  -2.6803   1.9218 H              1 S1                 0.0000
     31 ****        -2.9066  -3.6720   2.1316 H              1 S1                 0.0000
     32 ****        -3.3809  -2.0586   1.7191 H              1 S1                 0.0000
     33 ****        -3.5121  -4.5871   0.0658 H              1 S1                 0.0000
     34 ****        -4.7666  -3.4415   0.4225 H              1 S1                 0.0000
     35 ****        -2.6688  -3.3682  -1.7334 H              1 S1                 0.0000
     36 ****        -4.3747  -3.0856  -1.8350 H              1 S1                 0.0000
     37 ****        -3.5543  -0.9600  -2.1804 H              1 S1                 0.0000
     38 ****        -3.8853  -0.8582  -0.4757 H              1 S1                 0.0000
     39 ****        -1.6380   0.0516  -1.2867 H              1 S1                 0.0000
     40 ****        -1.1582  -1.5627  -1.7093 H              1 S1                 0.0000
     41 ****         0.4632   2.2742   0.8509 LP             1 S1                 0.0000
     42 ****        -0.9736   1.3128   0.7446 LP             1 S1                 0.0000
     43 ****         4.2328   2.8622  -3.0075 LP             1 S1                 0.0000
     44 ****         4.1469   4.2995  -3.9702 LP             1 S1                 0.0000
     45 ****         2.1289   0.8517  -1.7557 LP             1 S1                 0.0000
     46 ****         2.5770   2.2072  -2.7365 LP             1 S1                 0.0000
@<TRIPOS>BOND
    1    1    2 2     
    2    2    3 1     
    3    2   14 am    
    4    3    4 1     
    5    3   22 1     
    6    3   23 1     
    7    4   12 am    
    8    4    5 1     
    9    5    6 2     
   10    5   24 1     
   11    6    7 1     
   12    6   25 1     
   13    7    8 2     
   14    7   26 1     
   15    8    9 1     
   16    8   12 1     
   17    9   10 2     
   18    9   11 1     
   19   12   13 2     
   20   14   15 1     
   21   14   27 1     
   22   15   21 1     
   23   15   16 1     
   24   15   28 1     
   25   16   17 1     
   26   16   29 1     
   27   16   30 1     
   28   17   18 1     
   29   17   31 1     
   30   17   32 1     
   31   18   19 1     
   32   18   33 1     
   33   18   34 1     
   34   19   20 1     
   35   19   35 1     
   36   19   36 1     
   37   20   21 1     
   38   20   37 1     
   39   20   38 1     
   40   21   39 1     
   41   21   40 1     
   42    1   41 1     
   43    1   42 1     
   44   10   43 1     
   45   10   44 1     
   46   13   45 1     
   47   13   46 1     
@<TRIPOS>SUBSTRUCTURE
      1 S1             1
@<TRIPOS>SET
LONE_PAIRS      STATIC     ATOMS    <user>   **** ""
7 41 42 43 44 11 45 46
DONOR_HYDROGENS      STATIC     ATOMS    <user>   **** ""
1 27
ATOM$BLUE        STATIC     ATOMS    COLORGROUP SYSTEM
7 41 42 43 44 11 45 46
ATOM$RED        STATIC     ATOMS    COLORGROUP SYSTEM
1 27
