#       Name:                AV-unprocessed.smi:155
#       Creating user name   scv26
#       Creation time:       Thu Mar 26 18:56:14 2020


#       File generated by GOLD software.
#

@<TRIPOS>MOLECULE
AV-unprocessed.smi:155
    71    74     1
SMALL
NO_CHARGES


@<TRIPOS>ATOM
      1 ****        -6.7229   0.6679  -0.2961 C.3            1 S1                 0.0000
      2 ****        -5.3367   1.0407   0.0679 N.4            1 S1                 1.0000
      3 ****        -5.0378   2.4437  -0.2961 C.3            1 S1                 0.0000
      4 ****        -4.3196   0.0967  -0.4605 C.3            1 S1                 0.0000
      5 ****        -4.3419  -1.2661   0.2635 C.3            1 S1                 0.0000
      6 ****        -3.1118  -2.0648   0.0167 N.4            1 S1                 1.0000
      7 ****        -2.9120  -3.1517   1.0127 C.3            1 S1                 0.0000
      8 ****        -1.4404  -3.2106   1.4589 C.3            1 S1                 0.0000
      9 ****        -0.4845  -3.7760   0.3937 C.3            1 S1                 0.0000
     10 ****        -0.5755  -3.0697  -0.8828 N.pl3          1 S1                 0.0000
     11 ****         0.1019  -1.9044  -1.1170 C.ar           1 S1                 0.0000
     12 ****        -0.0954  -1.2907  -2.3155 N.ar           1 S1                 0.0000
     13 ****         0.5248  -0.1487  -2.6198 C.ar           1 S1                 0.0000
     14 ****         1.3750   0.5572  -1.8773 N.ar           1 S1                 0.0000
     15 ****         1.5877  -0.0399  -0.6716 C.ar           1 S1                 0.0000
     16 ****         1.0026  -1.2578  -0.2109 C.ar           1 S1                 0.0000
     17 ****         1.4689  -1.5246   1.0737 N.2            1 S1                 0.0000
     18 ****         2.2757  -0.5379   1.3494 C.2            1 S1                 0.0000
     19 ****         2.4057   0.3997   0.3540 N.pl3          1 S1                 0.0000
     20 ****         3.2304   1.5958   0.3938 C.3            1 S1                 0.0000
     21 ****         4.7261   1.2915   0.1624 C.3            1 S1                 0.0000
     22 ****         4.8589   0.6599  -1.0967 O.3            1 S1                 0.0000
     23 ****         5.6074   2.5570   0.1472 C.3            1 S1                 0.0000
     24 ****         5.4204   3.4877   1.3466 C.3            1 S1                 0.0000
     25 ****         6.7282   4.2580   1.4026 C.3            1 S1                 0.0000
     26 ****         7.7062   3.3726   0.6272 C.3            1 S1                 0.0000
     27 ****         6.9732   2.1993   0.3004 O.3            1 S1                 0.0000
     28 ****        -1.7504  -3.3954  -1.6971 C.3            1 S1                 0.0000
     29 ****        -2.9882  -2.5186  -1.3979 C.3            1 S1                 0.0000
     30 ****        -6.8591   0.6743  -1.3783 H              1 S1                 0.0000
     31 ****        -7.4350   1.3701   0.1389 H              1 S1                 0.0000
     32 ****        -6.9787  -0.3239   0.0756 H              1 S1                 0.0000
     33 ****        -5.0609   2.5812  -1.3780 H              1 S1                 0.0000
     34 ****        -4.0519   2.7374   0.0654 H              1 S1                 0.0000
     35 ****        -5.7657   3.1223   0.1502 H              1 S1                 0.0000
     36 ****        -4.4550  -0.0211  -1.5365 H              1 S1                 0.0000
     37 ****        -3.3329   0.5408  -0.3167 H              1 S1                 0.0000
     38 ****        -4.4178  -1.0652   1.3332 H              1 S1                 0.0000
     39 ****        -5.2216  -1.8499  -0.0105 H              1 S1                 0.0000
     40 ****        -3.5123  -2.9651   1.9036 H              1 S1                 0.0000
     41 ****        -3.2546  -4.1121   0.6243 H              1 S1                 0.0000
     42 ****        -1.1167  -2.2174   1.7709 H              1 S1                 0.0000
     43 ****        -1.3665  -3.8382   2.3475 H              1 S1                 0.0000
     44 ****         0.5417  -3.8031   0.7553 H              1 S1                 0.0000
     45 ****        -0.7361  -4.8231   0.2209 H              1 S1                 0.0000
     46 ****         0.3094   0.2568  -3.5976 H              1 S1                 0.0000
     47 ****         2.8011  -0.4662   2.2909 H              1 S1                 0.0000
     48 ****         2.8652   2.3027  -0.3522 H              1 S1                 0.0000
     49 ****         3.0806   2.0665   1.3655 H              1 S1                 0.0000
     50 ****         5.0782   0.6087   0.9367 H              1 S1                 0.0000
     51 ****         4.3478  -0.1347  -1.0904 H              1 S1                 0.0000
     52 ****         5.4717   3.1205  -0.7784 H              1 S1                 0.0000
     53 ****         4.5524   4.1400   1.2470 H              1 S1                 0.0000
     54 ****         5.3022   2.9035   2.2604 H              1 S1                 0.0000
     55 ****         6.6319   5.2301   0.9176 H              1 S1                 0.0000
     56 ****         7.0490   4.4247   2.4313 H              1 S1                 0.0000
     57 ****         8.0289   3.8665  -0.2903 H              1 S1                 0.0000
     58 ****         8.5927   3.1222   1.2096 H              1 S1                 0.0000
     59 ****        -1.5091  -3.3650  -2.7605 H              1 S1                 0.0000
     60 ****        -2.0128  -4.4366  -1.5061 H              1 S1                 0.0000
     61 ****        -3.8899  -3.0528  -1.7004 H              1 S1                 0.0000
     62 ****        -2.9280  -1.6358  -2.0334 H              1 S1                 0.0000
     63 ****        -5.2787   0.9979   1.0755 H              1 S1                 0.0000
     64 ****        -2.3428  -1.4295   0.1756 H              1 S1                 0.0000
     65 ****        -0.7172  -1.7034  -2.9811 LP             1 S1                 0.0000
     66 ****         1.8017   1.4140  -2.1669 LP             1 S1                 0.0000
     67 ****         1.2360  -2.3026   1.6572 LP             1 S1                 0.0000
     68 ****         5.8201   0.4410  -1.2641 LP             1 S1                 0.0000
     69 ****         4.5256   1.2693  -1.8161 LP             1 S1                 0.0000
     70 ****         7.3192   1.8111  -0.5537 LP             1 S1                 0.0000
     71 ****         7.0665   1.5266   1.0344 LP             1 S1                 0.0000
@<TRIPOS>BOND
    1    1    2 1     
    2    1   30 1     
    3    1   31 1     
    4    1   32 1     
    5    2    3 1     
    6    2    4 1     
    7    2   63 1     
    8    3   33 1     
    9    3   34 1     
   10    3   35 1     
   11    4    5 1     
   12    4   36 1     
   13    4   37 1     
   14    5    6 1     
   15    5   38 1     
   16    5   39 1     
   17    6   29 1     
   18    6    7 1     
   19    6   64 1     
   20    7    8 1     
   21    7   40 1     
   22    7   41 1     
   23    8    9 1     
   24    8   42 1     
   25    8   43 1     
   26    9   10 1     
   27    9   44 1     
   28    9   45 1     
   29   10   11 1     
   30   10   28 1     
   31   11   16 ar    
   32   11   12 ar    
   33   12   13 ar    
   34   13   14 ar    
   35   13   46 1     
   36   14   15 ar    
   37   15   19 1     
   38   15   16 ar    
   39   16   17 1     
   40   17   18 2     
   41   18   19 1     
   42   18   47 1     
   43   19   20 1     
   44   20   21 1     
   45   20   48 1     
   46   20   49 1     
   47   21   22 1     
   48   21   23 1     
   49   21   50 1     
   50   22   51 1     
   51   23   27 1     
   52   23   24 1     
   53   23   52 1     
   54   24   25 1     
   55   24   53 1     
   56   24   54 1     
   57   25   26 1     
   58   25   55 1     
   59   25   56 1     
   60   26   27 1     
   61   26   57 1     
   62   26   58 1     
   63   28   29 1     
   64   28   59 1     
   65   28   60 1     
   66   29   61 1     
   67   29   62 1     
   68   12   65 1     
   69   14   66 1     
   70   17   67 1     
   71   22   68 1     
   72   22   69 1     
   73   27   70 1     
   74   27   71 1     
@<TRIPOS>SUBSTRUCTURE
      1 S1             1
@<TRIPOS>SET
LONE_PAIRS      STATIC     ATOMS    <user>   **** ""
7 65 66 67 68 69 70 71
DONOR_HYDROGENS      STATIC     ATOMS    <user>   **** ""
3 63 64 51
ATOM$BLUE        STATIC     ATOMS    COLORGROUP SYSTEM
7 65 66 67 68 69 70 71
ATOM$RED        STATIC     ATOMS    COLORGROUP SYSTEM
3 63 64 51
