AV-unprocessed.smi:703|AV-procd|sdf|3428|dock4
  -GOLD-   22720 0413D 1   1.00000     0.00000
 Structure written by MMmdl.
 38 39  0  0  0  0  0  0  0  0  2 V2000
  146.1354  142.7612  154.7336 C   0  0  0  0  0  0  0  0  0  0  0  0
  146.7170  142.1681  153.4431 C   0  0  0  0  0  0  0  0  0  0  0  0
  146.4518  140.7149  153.3241 N   0  3  1  0  0  0  0  0  0  0  0  0
  146.7004  140.1402  151.9853 C   0  0  0  0  0  0  0  0  0  0  0  0
  146.9743  138.6511  152.2131 C   0  0  2  0  0  0  0  0  0  0  0  0
  145.6765  137.8264  152.2278 C   0  0  0  0  0  0  0  0  0  0  0  0
  147.6894  138.6341  153.5708 C   0  0  1  0  0  0  0  0  0  0  0  0
  149.1405  138.7081  153.3705 N   0  0  0  0  0  0  0  0  0  0  0  0
  150.1590  138.6648  154.7628 S   0  0  0  0  0  0  0  0  0  0  0  0
  151.0337  139.8468  154.7156 O   0  0  0  0  0  0  0  0  0  0  0  0
  149.2951  138.4380  155.9309 O   0  0  0  0  0  0  0  0  0  0  0  0
  151.1841  137.1633  154.4662 C   0  0  0  0  0  0  0  0  0  0  0  0
  150.8157  136.1024  155.4628 C   0  0  0  0  0  0  0  0  0  0  0  0
  149.5372  135.5330  155.7151 C   0  0  0  0  0  0  0  0  0  0  0  0
  149.7821  134.6274  156.7067 C   0  0  0  0  0  0  0  0  0  0  0  0
  151.0962  134.6364  157.0443 O   0  0  0  0  0  0  0  0  0  0  0  0
  151.7477  135.5831  156.2457 N   0  0  0  0  0  0  0  0  0  0  0  0
  147.1750  139.8822  154.3125 C   0  0  0  0  0  0  0  0  0  0  0  0
  146.3949  143.8163  154.8223 H   0  0  0  0  0  0  0  0  0  0  0  0
  146.5259  142.2495  155.6137 H   0  0  0  0  0  0  0  0  0  0  0  0
  145.0478  142.6894  154.7562 H   0  0  0  0  0  0  0  0  0  0  0  0
  146.3222  142.6921  152.5714 H   0  0  0  0  0  0  0  0  0  0  0  0
  147.7962  142.3264  153.4426 H   0  0  0  0  0  0  0  0  0  0  0  0
  145.8662  140.3199  151.3061 H   0  0  0  0  0  0  0  0  0  0  0  0
  147.5867  140.6049  151.5502 H   0  0  0  0  0  0  0  0  0  0  0  0
  147.6109  138.2559  151.4197 H   0  0  0  0  0  0  0  0  0  0  0  0
  144.9882  138.1721  152.9998 H   0  0  0  0  0  0  0  0  0  0  0  0
  145.8858  136.7733  152.4182 H   0  0  0  0  0  0  0  0  0  0  0  0
  145.1606  137.8895  151.2692 H   0  0  0  0  0  0  0  0  0  0  0  0
  147.4644  137.7204  154.1233 H   0  0  0  0  0  0  0  0  0  0  0  0
  149.4476  138.0243  152.6786 H   0  0  0  0  0  0  0  0  0  0  0  0
  151.0178  136.8261  153.4428 H   0  0  0  0  0  0  0  0  0  0  0  0
  152.2343  137.4383  154.5610 H   0  0  0  0  0  0  0  0  0  0  0  0
  148.5919  135.7504  155.2408 H   0  0  0  0  0  0  0  0  0  0  0  0
  149.1570  133.9350  157.2507 H   0  0  0  0  0  0  0  0  0  0  0  0
  147.9892  140.4366  154.7824 H   0  0  0  0  0  0  0  0  0  0  0  0
  146.4791  139.6026  155.1040 H   0  0  0  0  0  0  0  0  0  0  0  0
  145.4701  140.5730  153.5155 H   0  0  0  0  0  0  0  0  0  0  0  0
  1  2  1  0  0  0  0
  1 19  1  0  0  0  0
  1 20  1  0  0  0  0
  1 21  1  0  0  0  0
  2  3  1  0  0  0  0
  2 22  1  0  0  0  0
  2 23  1  0  0  0  0
  3 18  1  0  0  0  0
  3  4  1  0  0  0  0
  3 38  1  0  0  0  0
  4  5  1  0  0  0  0
  4 24  1  0  0  0  0
  4 25  1  0  0  0  0
  5  6  1  0  0  0  0
  5  7  1  0  0  0  0
  5 26  1  0  0  0  0
  6 27  1  0  0  0  0
  6 28  1  0  0  0  0
  6 29  1  0  0  0  0
  7  8  1  0  0  0  0
  7 18  1  0  0  0  0
  7 30  1  0  0  0  0
  8  9  1  0  0  0  0
  8 31  1  0  0  0  0
  9 10  2  0  0  0  0
  9 11  2  0  0  0  0
  9 12  1  0  0  0  0
 12 13  1  0  0  0  0
 12 32  1  0  0  0  0
 12 33  1  0  0  0  0
 13 17  2  0  0  0  0
 13 14  1  0  0  0  0
 14 15  2  0  0  0  0
 14 34  1  0  0  0  0
 15 16  1  0  0  0  0
 15 35  1  0  0  0  0
 16 17  1  0  0  0  0
 18 36  1  0  0  0  0
 18 37  1  0  0  0  0
M  CHG  1   3   1
M  END
> <s_m_source_file>
AV-unprocessed.smi

> <i_m_source_file_index>
703

> <i_lp_mmshare_version>
43012

> <i_f3d_flags>
0

> <s_epik_input>
W0NIM11bQ0gyXU4xW0NIMl1bQ0BASF0oW0NIM10pW0NASF0oW0NIMl0xKVtOSF1TKD1PKSg9TylbQ0gyXWMyW2NIXVtjSF1vbjI=

> <s_epik_cmdline>
J2VwaWtfcHl0aG9uJywgJy1waCcsICc3LjAnLCAnLXRuJywgJzgnLCAnLW1hJywgJzIwMCcsICctbWV0YWxfYmluZGluZycsICctaW1hZScsICc8aW5maWxlLm1hZT4nLCAnLW9tYWUnLCAnPG91dGZpbGUubWFlPic=

> <r_epik_Ionization_Penalty>
0.00324529

> <r_epik_Ionization_Penalty_Charging>
0.0019384

> <r_epik_Ionization_Penalty_Neutral>
0.00130689

> <r_epik_State_Penalty>
0.00218682

> <r_epik_Charging_Adjusted_Penalty>
0.00412522

> <i_epik_Tot_Q>
1

> <i_epik_Tot_abs_Q>
1

> <r_epik_Metal_State_Penalty>
0.310831

> <b_epik_Metal_Only>
0

> <s_lp_Force_Field>
OPLS_2005

> <r_lp_Energy>
19.6453

> <b_lp_Chiralities_Consistent>
1

> <s_lp_Variant>
AV-unprocessed.smi:703-3

> <Gold.Version>
5.8.1

> <Gold.Id.Protein>
6NUR|6NUR_protein|mol2

> <Gold.PLP.Fitness>
39.6436

> <Gold.PLP.PLP>
-26.5575

> <Gold.PLP.part.hbond>
-6.0000

> <Gold.PLP.part.metal>
0.0000

> <Gold.PLP.part.buried>
0.8256

> <Gold.PLP.part.nonpolar>
-22.9877

> <Gold.PLP.part.repulsive>
0.1041

> <Gold.PLP.ligand.clash>
0.0000

> <Gold.PLP.ligand.torsion>
0.2379

> <Gold.PLP.Chemscore.Hbond>
4.4639

> <Gold.PLP.Chemscore.CHOScore>
0.0000

> <Gold.PLP.Chemscore.Metal>
0.0000

> <Gold.Chemscore.Hbonds>
donor molecule, donor type, donor heavy atom, donor atom, acceptor molecule, acceptor atom, score
      L1  H     3    38       P1 10175  1.40
      L1  H     8    31       P1  7948  0.88
      P1  H  6896  6908       L1    16  0.02
      P1  H  7989  7998       L1    10  1.00
      P1  H 10752 10765       L1    17  1.00

> <Gold.PLP.Chemscore.Internal.Correction>
0.1703

> <Gold.Rescore>
     Score         DG    S(hbond)    S(metal)    S(lipo)     H(rot)  DE(clash)    DE(int)     intcor
     16.01     -19.04       3.19        0.00      67.25       1.94       1.19       1.84       ----

> <Gold.Chemscore.Fitness>
16.0061

> <Gold.Chemscore.DG>
-19.0380

> <Gold.Chemscore.ZeroCoef>
-5.4800

> <Gold.Chemscore.Hbond>
3.1906

> <Gold.Chemscore.Metal>
0.0000

> <Gold.Chemscore.Lipo>
67.2464

> <Gold.Chemscore.Internal_Hbond>
0.0000

> <Gold.Chemscore.DEClash>
1.1927

> <Gold.Chemscore.DEInternal>
1.8392

> <Gold.Chemscore.Rot>
1.9400

> <Gold.Chemscore.Internal.Correction>
   9.000000E+99

> <Gold.Chemscore.Hbonds>
donor molecule, donor type, donor heavy atom, donor atom, acceptor molecule, acceptor atom, score
      L1  H     3    38       P1 10175  0.63
      L1  H     8    31       P1  7948  0.69
      P1  H  7989  7998       L1    10  1.00
      P1  H 10752 10765       L1    17  0.30

> <Gold.Chemscore.Hbond.Weighted>
-10.6566

> <Gold.Chemscore.Metal.Weighted>
-0.0000

> <Gold.Chemscore.Lipo.Weighted>
-7.8678

> <Gold.Chemscore.Internal_Hbond.Weighted>
0.0000

> <Gold.Chemscore.DEClash.Weighted>
1.1927

> <Gold.Chemscore.DEInternal.Weighted>
1.8392

> <Gold.Chemscore.Rot.Weighted>
4.9665

> <Gold.Chemscore.Internal.Correction.Weighted>
   9.000000E+99

> <Gold.Protein.RotatedTorsions>
[ 6907 6896 6895 6894 ] final  148.76 input  -60.11 | X-H torsion
[ 7974 7965 7964 7962 ] final  -77.45 input  175.53 | X-H torsion
[ 8008 7997 7996 7995 ] final   11.56 input   59.86 | X-H torsion
[ 10167 10162 10161 10158 ] final  -74.30 input  -65.29 | X-H torsion
[ 10718 10713 10712 10709 ] final  -80.66 input   66.30 | X-H torsion
[ 10763 10752 10751 10750 ] final -147.83 input  -60.55 | X-H torsion
[ 11005 11000 10999 10996 ] final  -29.80 input  -57.11 | X-H torsion

> <Gold.Protein.ActiveResidues>
 VAL166  LYS551  ARG553  GLY616  TRP617  ASP618  TYR619  PRO620  LYS621  CYS622 
 ASP623  PHE694  ASN695  SER759  ASP760  ASP761  ALA762  ILE779  LEU786  VAL792 
 PHE793  MET794  SER795  GLU796  ALA797  LYS798  CYS799  TRP800  GLU811  SER814 

> <Gold.Protein.RotatedAtoms>
  152.1371  133.4442  159.4748 H   0  0  0  0  0  0  0  0  0  0  0  0  # atno 6907 bound_to 6896
  150.6883  134.2350  159.4459 H   0  0  0  0  0  0  0  0  0  0  0  0  # atno 6908 bound_to 6896
  152.0238  134.9807  160.0622 H   0  0  0  0  0  0  0  0  0  0  0  0  # atno 6909 bound_to 6896
  145.5996  140.9412  143.1248 H   0  0  0  0  0  0  0  0  0  0  0  0  # atno 7974 bound_to 7965
  154.8085  140.2864  155.5870 H   0  0  0  0  0  0  0  0  0  0  0  0  # atno 8008 bound_to 7997
  156.2985  140.2573  156.2898 H   0  0  0  0  0  0  0  0  0  0  0  0  # atno 8009 bound_to 7997
  154.9475  140.0380  157.2117 H   0  0  0  0  0  0  0  0  0  0  0  0  # atno 8010 bound_to 7997
  140.5039  143.2356  151.7707 H   0  0  0  0  0  0  0  0  0  0  0  0  # atno 10167 bound_to 10162
  156.0065  130.4581  150.3834 H   0  0  0  0  0  0  0  0  0  0  0  0  # atno 10718 bound_to 10713
  154.8265  135.3350  154.6880 H   0  0  0  0  0  0  0  0  0  0  0  0  # atno 10763 bound_to 10752
  153.7505  135.6939  153.4951 H   0  0  0  0  0  0  0  0  0  0  0  0  # atno 10764 bound_to 10752
  153.2180  135.4459  155.0407 H   0  0  0  0  0  0  0  0  0  0  0  0  # atno 10765 bound_to 10752
  140.9328  133.7327  156.0961 H   0  0  0  0  0  0  0  0  0  0  0  0  # atno 11005 bound_to 11000
  144.7316  139.7710  143.7345 LP  0  0  0  0  0  0  0  0  0  0  0  0  # atno 17320 bound_to 7965
  146.1586  139.4693  143.0002 LP  0  0  0  0  0  0  0  0  0  0  0  0  # atno 17321 bound_to 7965
  139.4879  144.4484  151.9682 LP  0  0  0  0  0  0  0  0  0  0  0  0  # atno 17342 bound_to 10162
  140.3574  144.3014  150.5939 LP  0  0  0  0  0  0  0  0  0  0  0  0  # atno 17343 bound_to 10162
  157.1913  131.0416  151.2699 LP  0  0  0  0  0  0  0  0  0  0  0  0  # atno 17370 bound_to 10713
  157.4059  130.7358  149.6802 LP  0  0  0  0  0  0  0  0  0  0  0  0  # atno 17371 bound_to 10713
  140.7839  134.3694  157.5481 LP  0  0  0  0  0  0  0  0  0  0  0  0  # atno 17394 bound_to 11000
  139.8800  134.9099  156.3001 LP  0  0  0  0  0  0  0  0  0  0  0  0  # atno 17395 bound_to 11000

$$$$
