#       Name:                AV-unprocessed.smi:3202
#       Creating user name   scv26
#       Creation time:       Fri Mar 27 18:08:00 2020


#       File generated by GOLD software.
#

@<TRIPOS>MOLECULE
AV-unprocessed.smi:3202
    44    45     1
SMALL
NO_CHARGES


@<TRIPOS>ATOM
      1 ****        -6.1432  -0.4070   1.4385 C.3            1 S1                 0.0000
      2 ****        -4.7589  -0.9810   1.3658 C.2            1 S1                 0.0000
      3 ****        -3.5239  -0.2867   1.2062 C.2            1 S1                 0.0000
      4 ****        -2.5790  -1.2744   1.2020 C.2            1 S1                 0.0000
      5 ****        -1.0909  -1.2172   1.0699 C.3            1 S1                 0.0000
      6 ****        -0.5997  -0.5904  -0.2489 C.3            1 S1                 0.0000
      7 ****        -1.0957  -1.3563  -1.4863 C.3            1 S1                 0.0000
      8 ****         0.8793  -0.5431  -0.2548 N.4            1 S1                 1.0000
      9 ****         1.4762   0.8110  -0.3078 C.3            1 S1                 0.0000
     10 ****         1.2654   1.5160  -1.6546 C.3            1 S1                 0.0000
     11 ****         2.4157   2.5241  -1.7710 C.3            1 S1                 0.0000
     12 ****         3.3834   2.2132  -0.6189 C.3            1 S1                 0.0000
     13 ****         3.0043   0.8178  -0.0890 C.3            1 S1                 0.0000
     14 ****         3.3683   0.6691   1.4003 C.3            1 S1                 0.0000
     15 ****         3.7338  -0.2708  -0.9106 C.3            1 S1                 0.0000
     16 ****        -3.2622  -2.4590   1.3572 N.pl3          1 S1                 0.0000
     17 ****        -4.5938  -2.2921   1.4546 N.2            1 S1                 0.0000
     18 ****        -2.8408  -3.3763   1.3962 H              1 S1                 0.0000
     19 ****        -6.1183   0.6829   1.4369 H              1 S1                 0.0000
     20 ****        -6.6541  -0.7248   2.3478 H              1 S1                 0.0000
     21 ****        -6.7455  -0.7266   0.5878 H              1 S1                 0.0000
     22 ****        -3.3593   0.7763   1.1087 H              1 S1                 0.0000
     23 ****        -0.6779  -2.2222   1.1698 H              1 S1                 0.0000
     24 ****        -0.6907  -0.6470   1.9092 H              1 S1                 0.0000
     25 ****        -0.9940   0.4255  -0.3061 H              1 S1                 0.0000
     26 ****        -2.1844  -1.3596  -1.5451 H              1 S1                 0.0000
     27 ****        -0.7607  -2.3940  -1.4719 H              1 S1                 0.0000
     28 ****        -0.7251  -0.9000  -2.4047 H              1 S1                 0.0000
     29 ****         1.2033  -0.9894   0.5913 H              1 S1                 0.0000
     30 ****         1.0165   1.4196   0.4736 H              1 S1                 0.0000
     31 ****         1.3274   0.7995  -2.4750 H              1 S1                 0.0000
     32 ****         0.2896   1.9984  -1.7183 H              1 S1                 0.0000
     33 ****         2.9131   2.4177  -2.7358 H              1 S1                 0.0000
     34 ****         2.0546   3.5508  -1.7030 H              1 S1                 0.0000
     35 ****         4.4272   2.2794  -0.9287 H              1 S1                 0.0000
     36 ****         3.2412   2.9602   0.1637 H              1 S1                 0.0000
     37 ****         4.4447   0.7556   1.5530 H              1 S1                 0.0000
     38 ****         3.0573  -0.3010   1.7891 H              1 S1                 0.0000
     39 ****         2.8891   1.4352   2.0109 H              1 S1                 0.0000
     40 ****         4.8158  -0.1722  -0.8159 H              1 S1                 0.0000
     41 ****         3.4969  -0.2120  -1.9730 H              1 S1                 0.0000
     42 ****         3.4755  -1.2740  -0.5705 H              1 S1                 0.0000
     43 ****         1.2202  -1.0745  -1.0433 H              1 S1                 0.0000
     44 ****        -5.2960  -2.9951   1.5678 LP             1 S1                 0.0000
@<TRIPOS>BOND
    1    1   19 1     
    2    1   20 1     
    3    1   21 1     
    4    1    2 1     
    5    2   17 2     
    6    2    3 1     
    7    3    4 2     
    8    3   22 1     
    9    4   16 1     
   10    4    5 1     
   11    5    6 1     
   12    5   23 1     
   13    5   24 1     
   14    6    7 1     
   15    6    8 1     
   16    6   25 1     
   17    7   26 1     
   18    7   27 1     
   19    7   28 1     
   20    8    9 1     
   21    8   29 1     
   22    8   43 1     
   23    9   13 1     
   24    9   10 1     
   25    9   30 1     
   26   10   11 1     
   27   10   31 1     
   28   10   32 1     
   29   11   12 1     
   30   11   33 1     
   31   11   34 1     
   32   12   13 1     
   33   12   35 1     
   34   12   36 1     
   35   13   14 1     
   36   13   15 1     
   37   14   37 1     
   38   14   38 1     
   39   14   39 1     
   40   15   40 1     
   41   15   41 1     
   42   15   42 1     
   43   16   17 1     
   44   16   18 1     
   45   17   44 1     
@<TRIPOS>SUBSTRUCTURE
      1 S1             1
@<TRIPOS>SET
LONE_PAIRS      STATIC     ATOMS    <user>   **** ""
1 44
DONOR_HYDROGENS      STATIC     ATOMS    <user>   **** ""
3 29 43 18
ATOM$BLUE        STATIC     ATOMS    COLORGROUP SYSTEM
1 44
ATOM$RED        STATIC     ATOMS    COLORGROUP SYSTEM
3 29 43 18
