#       Name:                AV-unprocessed.smi:1033
#       Creating user name   scv26
#       Creation time:       Fri Mar 27 02:48:41 2020


#       File generated by GOLD software.
#

@<TRIPOS>MOLECULE
AV-unprocessed.smi:1033
    62    64     1
SMALL
NO_CHARGES


@<TRIPOS>ATOM
      1 ****         0.8679   5.1857   2.8602 C.3            1 S1                 0.0000
      2 ****        -0.1389   4.1178   2.4709 C.ar           1 S1                 0.0000
      3 ****        -0.9462   3.5355   3.4740 C.ar           1 S1                 0.0000
      4 ****        -1.8906   2.5356   3.1543 C.ar           1 S1                 0.0000
      5 ****        -2.7698   1.8386   3.9646 N.2            1 S1                 0.0000
      6 ****        -3.3760   1.0480   3.0839 C.2            1 S1                 0.0000
      7 ****        -2.9883   1.1440   1.7973 N.pl3          1 S1                 0.0000
      8 ****        -3.4980   0.3826   0.6675 C.3            1 S1                 0.0000
      9 ****        -2.9065  -1.0418   0.5571 C.3            1 S1                 0.0000
     10 ****        -3.3798  -1.8251   1.6338 O.3            1 S1                 0.0000
     11 ****        -1.3635  -1.1029   0.5868 C.3            1 S1                 0.0000
     12 ****        -0.6826  -0.3787  -0.4922 N.3            1 S1                 0.0000
     13 ****         0.7576  -0.2567  -0.2709 C.3            1 S1                 0.0000
     14 ****         1.5184  -1.5851  -0.4630 C.3            1 S1                 0.0000
     15 ****         1.2669  -2.1322  -1.8234 N.4            1 S1                 1.0000
     16 ****         2.0097  -3.3858  -2.1119 C.3            1 S1                 0.0000
     17 ****         3.5020  -3.1395  -2.4107 C.3            1 S1                 0.0000
     18 ****         4.2771  -4.4512  -2.5917 C.3            1 S1                 0.0000
     19 ****         3.6223  -2.3898  -3.6031 O.3            1 S1                 0.0000
     20 ****        -0.1919  -2.2687  -2.0709 C.3            1 S1                 0.0000
     21 ****        -0.9049  -0.9227  -1.8333 C.3            1 S1                 0.0000
     22 ****        -2.0076   2.1311   1.7924 C.ar           1 S1                 0.0000
     23 ****        -1.2161   2.7102   0.7847 C.ar           1 S1                 0.0000
     24 ****        -0.2744   3.7042   1.1215 C.ar           1 S1                 0.0000
     25 ****         0.5820   4.3130   0.0258 C.3            1 S1                 0.0000
     26 ****         0.8456   5.3819   3.9324 H              1 S1                 0.0000
     27 ****         0.6517   6.1212   2.3439 H              1 S1                 0.0000
     28 ****         1.8785   4.8708   2.5995 H              1 S1                 0.0000
     29 ****        -0.8452   3.8516   4.5018 H              1 S1                 0.0000
     30 ****        -4.1426   0.3525   3.3927 H              1 S1                 0.0000
     31 ****        -4.5852   0.3373   0.7437 H              1 S1                 0.0000
     32 ****        -3.2838   0.9405  -0.2445 H              1 S1                 0.0000
     33 ****        -3.2831  -1.5122  -0.3504 H              1 S1                 0.0000
     34 ****        -4.3245  -1.8349   1.6069 H              1 S1                 0.0000
     35 ****        -1.0259  -0.7044   1.5445 H              1 S1                 0.0000
     36 ****        -1.0533  -2.1476   0.5878 H              1 S1                 0.0000
     37 ****         1.1610   0.4844  -0.9625 H              1 S1                 0.0000
     38 ****         0.9466   0.1390   0.7279 H              1 S1                 0.0000
     39 ****         2.5825  -1.4026  -0.3200 H              1 S1                 0.0000
     40 ****         1.2231  -2.3133   0.2936 H              1 S1                 0.0000
     41 ****         1.8959  -4.0710  -1.2704 H              1 S1                 0.0000
     42 ****         1.5626  -3.8866  -2.9725 H              1 S1                 0.0000
     43 ****         3.9691  -2.5759  -1.6038 H              1 S1                 0.0000
     44 ****         4.2330  -5.0589  -1.6874 H              1 S1                 0.0000
     45 ****         5.3292  -4.2607  -2.8072 H              1 S1                 0.0000
     46 ****         3.8718  -5.0453  -3.4116 H              1 S1                 0.0000
     47 ****         3.3243  -2.9195  -4.3274 H              1 S1                 0.0000
     48 ****        -0.3579  -2.5821  -3.1022 H              1 S1                 0.0000
     49 ****        -0.6084  -3.0505  -1.4344 H              1 S1                 0.0000
     50 ****        -1.9706  -1.0229  -2.0348 H              1 S1                 0.0000
     51 ****        -0.5407  -0.2029  -2.5677 H              1 S1                 0.0000
     52 ****        -1.3282   2.3875  -0.2395 H              1 S1                 0.0000
     53 ****         0.3484   3.8809  -0.9478 H              1 S1                 0.0000
     54 ****         1.6389   4.1354   0.2251 H              1 S1                 0.0000
     55 ****         0.4156   5.3886  -0.0365 H              1 S1                 0.0000
     56 ****         1.6005  -1.4437  -2.4831 H              1 S1                 0.0000
     57 ****        -2.9117   1.9105   4.9519 LP             1 S1                 0.0000
     58 ****        -3.0714  -1.4299   2.4991 LP             1 S1                 0.0000
     59 ****        -3.0306  -2.7585   1.5505 LP             1 S1                 0.0000
     60 ****        -1.1092   0.5251  -0.4586 LP             1 S1                 0.0000
     61 ****         4.5788  -2.1346  -3.7446 LP             1 S1                 0.0000
     62 ****         3.0629  -1.5635  -3.5385 LP             1 S1                 0.0000
@<TRIPOS>BOND
    1    1    2 1     
    2    1   26 1     
    3    1   27 1     
    4    1   28 1     
    5    2   24 ar    
    6    2    3 ar    
    7    3    4 ar    
    8    3   29 1     
    9    4   22 ar    
   10    4    5 1     
   11    5    6 2     
   12    6    7 1     
   13    6   30 1     
   14    7    8 1     
   15    7   22 1     
   16    8    9 1     
   17    8   31 1     
   18    8   32 1     
   19    9   10 1     
   20    9   11 1     
   21    9   33 1     
   22   10   34 1     
   23   11   12 1     
   24   11   35 1     
   25   11   36 1     
   26   12   21 1     
   27   12   13 1     
   28   13   14 1     
   29   13   37 1     
   30   13   38 1     
   31   14   15 1     
   32   14   39 1     
   33   14   40 1     
   34   15   16 1     
   35   15   20 1     
   36   15   56 1     
   37   16   17 1     
   38   16   41 1     
   39   16   42 1     
   40   17   18 1     
   41   17   19 1     
   42   17   43 1     
   43   18   44 1     
   44   18   45 1     
   45   18   46 1     
   46   19   47 1     
   47   20   21 1     
   48   20   48 1     
   49   20   49 1     
   50   21   50 1     
   51   21   51 1     
   52   22   23 ar    
   53   23   24 ar    
   54   23   52 1     
   55   24   25 1     
   56   25   53 1     
   57   25   54 1     
   58   25   55 1     
   59    5   57 1     
   60   10   58 1     
   61   10   59 1     
   62   12   60 1     
   63   19   61 1     
   64   19   62 1     
@<TRIPOS>SUBSTRUCTURE
      1 S1             1
@<TRIPOS>SET
LONE_PAIRS      STATIC     ATOMS    <user>   **** ""
6 57 58 59 60 61 62
DONOR_HYDROGENS      STATIC     ATOMS    <user>   **** ""
3 34 56 47
ATOM$BLUE        STATIC     ATOMS    COLORGROUP SYSTEM
6 57 58 59 60 61 62
ATOM$RED        STATIC     ATOMS    COLORGROUP SYSTEM
3 34 56 47
