#       Name:                AV-unprocessed.smi:2693
#       Creating user name   scv26
#       Creation time:       Fri Mar 27 14:43:29 2020


#       File generated by GOLD software.
#

@<TRIPOS>MOLECULE
AV-unprocessed.smi:2693
    51    53     1
SMALL
NO_CHARGES


@<TRIPOS>ATOM
      1 ****        -6.7817   2.3965  -0.7460 C.3            1 S1                 0.0000
      2 ****        -6.1262   1.2367  -0.1485 N.pl3          1 S1                 0.0000
      3 ****        -6.9780   0.1879   0.4055 C.3            1 S1                 0.0000
      4 ****        -4.7324   1.1439  -0.0882 C.ar           1 S1                 0.0000
      5 ****        -4.2113   0.0526   0.4871 N.ar           1 S1                 0.0000
      6 ****        -2.8664  -0.0455   0.5505 C.ar           1 S1                 0.0000
      7 ****        -2.0222   0.9629   0.0263 C.ar           1 S1                 0.0000
      8 ****        -0.6013   0.9501   0.0601 N.am           1 S1                 0.0000
      9 ****         0.2237  -0.0696   0.3526 C.2            1 S1                 0.0000
     10 ****        -0.1270  -1.2127   0.6423 O.2            1 S1                 0.0000
     11 ****         1.5062   0.3084   0.2730 N.am           1 S1                 0.0000
     12 ****         2.6412  -0.5732   0.5271 C.3            1 S1                 0.0000
     13 ****         3.9866   0.1668   0.4691 C.3            1 S1                 0.0000
     14 ****         4.8257   0.2954   1.7114 C.3            1 S1                 0.0000
     15 ****         5.8000  -0.8796   1.5890 C.3            1 S1                 0.0000
     16 ****         5.1509  -1.7948   0.7091 O.3            1 S1                 0.0000
     17 ****         4.5121  -1.0294  -0.3098 C.3            1 S1                 0.0000
     18 ****         3.0722  -1.4395  -0.6842 C.3            1 S1                 0.0000
     19 ****         2.7551  -2.9330  -0.5930 C.3            1 S1                 0.0000
     20 ****         2.6313  -0.9782  -2.0807 C.3            1 S1                 0.0000
     21 ****        -2.6779   2.0701  -0.5483 C.ar           1 S1                 0.0000
     22 ****        -4.0234   2.1556  -0.6061 N.ar           1 S1                 0.0000
     23 ****        -6.4598   2.5263  -1.7799 H              1 S1                 0.0000
     24 ****        -6.5306   3.3013  -0.1912 H              1 S1                 0.0000
     25 ****        -7.8670   2.2965  -0.7473 H              1 S1                 0.0000
     26 ****        -6.7769   0.0567   1.4692 H              1 S1                 0.0000
     27 ****        -6.7908  -0.7604  -0.0994 H              1 S1                 0.0000
     28 ****        -8.0370   0.4205   0.2950 H              1 S1                 0.0000
     29 ****        -2.4936  -0.9314   1.0387 H              1 S1                 0.0000
     30 ****        -0.1563   1.8168  -0.2044 H              1 S1                 0.0000
     31 ****         1.7130   1.2642   0.0223 H              1 S1                 0.0000
     32 ****         2.5440  -1.1616   1.4425 H              1 S1                 0.0000
     33 ****         3.9492   1.0637  -0.1522 H              1 S1                 0.0000
     34 ****         5.3522   1.2486   1.7655 H              1 S1                 0.0000
     35 ****         4.2119   0.1990   2.6076 H              1 S1                 0.0000
     36 ****         6.7370  -0.5541   1.1345 H              1 S1                 0.0000
     37 ****         6.0288  -1.3400   2.5503 H              1 S1                 0.0000
     38 ****         5.1710  -0.7677  -1.1390 H              1 S1                 0.0000
     39 ****         3.3170  -3.5069  -1.3304 H              1 S1                 0.0000
     40 ****         1.6950  -3.1274  -0.7588 H              1 S1                 0.0000
     41 ****         3.0035  -3.3377   0.3886 H              1 S1                 0.0000
     42 ****         3.1739  -1.5091  -2.8634 H              1 S1                 0.0000
     43 ****         2.8143   0.0859  -2.2323 H              1 S1                 0.0000
     44 ****         1.5674  -1.1514  -2.2460 H              1 S1                 0.0000
     45 ****        -2.1212   2.8951  -0.9681 H              1 S1                 0.0000
     46 ****        -4.7994  -0.6663   0.8577 LP             1 S1                 0.0000
     47 ****        -1.0993  -1.4445   0.6741 LP             1 S1                 0.0000
     48 ****         0.5601  -1.9100   0.8460 LP             1 S1                 0.0000
     49 ****         4.4710  -2.3283   1.2122 LP             1 S1                 0.0000
     50 ****         5.8237  -2.4120   0.3013 LP             1 S1                 0.0000
     51 ****        -4.4750   2.9458  -1.0206 LP             1 S1                 0.0000
@<TRIPOS>BOND
    1    1    2 1     
    2    1   23 1     
    3    1   24 1     
    4    1   25 1     
    5    2    3 1     
    6    2    4 1     
    7    3   26 1     
    8    3   27 1     
    9    3   28 1     
   10    4   22 ar    
   11    4    5 ar    
   12    5    6 ar    
   13    6    7 ar    
   14    6   29 1     
   15    7    8 1     
   16    7   21 ar    
   17    8    9 am    
   18    8   30 1     
   19    9   10 2     
   20    9   11 am    
   21   11   12 1     
   22   11   31 1     
   23   12   18 1     
   24   12   13 1     
   25   12   32 1     
   26   13   17 1     
   27   13   14 1     
   28   13   33 1     
   29   14   15 1     
   30   14   34 1     
   31   14   35 1     
   32   15   16 1     
   33   15   36 1     
   34   15   37 1     
   35   16   17 1     
   36   17   18 1     
   37   17   38 1     
   38   18   19 1     
   39   18   20 1     
   40   19   39 1     
   41   19   40 1     
   42   19   41 1     
   43   20   42 1     
   44   20   43 1     
   45   20   44 1     
   46   21   22 ar    
   47   21   45 1     
   48    5   46 1     
   49   10   47 1     
   50   10   48 1     
   51   16   49 1     
   52   16   50 1     
   53   22   51 1     
@<TRIPOS>SUBSTRUCTURE
      1 S1             1
@<TRIPOS>SET
LONE_PAIRS      STATIC     ATOMS    <user>   **** ""
6 46 47 48 49 50 51
DONOR_HYDROGENS      STATIC     ATOMS    <user>   **** ""
2 30 31
ATOM$BLUE        STATIC     ATOMS    COLORGROUP SYSTEM
6 46 47 48 49 50 51
ATOM$RED        STATIC     ATOMS    COLORGROUP SYSTEM
2 30 31
