AV-unprocessed.smi:1720|AV-procd|sdf|6934|dock6
  -GOLD-   22720 8143D 1   1.00000     0.00000
 Structure written by MMmdl.
 32 33  0  0  0  0  0  0  0  0  1 V2000
  152.0229  141.9074  157.9739 C   0  0  0  0  0  0  0  0  0  0  0  0
  151.5979  143.1472  157.1720 C   0  0  1  0  0  0  0  0  0  0  0  0
  150.4091  142.8094  156.3918 N   0  0  0  0  0  0  0  0  0  0  0  0
  150.2646  141.7231  155.6189 C   0  0  0  0  0  0  0  0  0  0  0  0
  151.1337  140.8625  155.4788 O   0  0  0  0  0  0  0  0  0  0  0  0
  149.0592  141.7050  155.0269 N   0  0  0  0  0  0  0  0  0  0  0  0
  148.5521  140.7259  154.1354 C   0  0  0  0  0  0  0  0  0  0  0  0
  147.3305  140.8399  153.4178 C   0  0  0  0  0  0  0  0  0  0  0  0
  147.1129  139.7737  152.6610 N   0  0  0  0  0  0  0  0  0  0  0  0
  148.1839  138.9803  152.8891 N   0  0  0  0  0  0  0  0  0  0  0  0
  149.0860  139.5191  153.7797 C   0  0  0  0  0  0  0  0  0  0  0  0
  151.3038  144.3589  158.0809 C   0  0  1  0  0  0  0  0  0  0  0  0
  150.1676  144.1467  159.0824 C   0  0  0  0  0  0  0  0  0  0  0  0
  150.4786  145.1377  160.1925 C   0  0  0  0  0  0  0  0  0  0  0  0
  151.9442  145.5126  159.9576 C   0  0  0  0  0  0  0  0  0  0  0  0
  152.3982  144.6262  158.9446 O   0  0  0  0  0  0  0  0  0  0  0  0
  148.2839  138.0839  152.4344 H   0  0  0  0  0  0  0  0  0  0  0  0
  152.9454  142.0876  158.5260 H   0  0  0  0  0  0  0  0  0  0  0  0
  152.2017  141.0571  157.3150 H   0  0  0  0  0  0  0  0  0  0  0  0
  151.2561  141.6169  158.6927 H   0  0  0  0  0  0  0  0  0  0  0  0
  152.4184  143.4018  156.4987 H   0  0  0  0  0  0  0  0  0  0  0  0
  149.6394  143.4603  156.4393 H   0  0  0  0  0  0  0  0  0  0  0  0
  148.4408  142.4762  155.2306 H   0  0  0  0  0  0  0  0  0  0  0  0
  146.6094  141.6441  153.4204 H   0  0  0  0  0  0  0  0  0  0  0  0
  149.9930  139.0071  154.0654 H   0  0  0  0  0  0  0  0  0  0  0  0
  151.1055  145.2481  157.4790 H   0  0  0  0  0  0  0  0  0  0  0  0
  149.1820  144.3023  158.6425 H   0  0  0  0  0  0  0  0  0  0  0  0
  150.2018  143.1316  159.4807 H   0  0  0  0  0  0  0  0  0  0  0  0
  149.8432  146.0214  160.1262 H   0  0  0  0  0  0  0  0  0  0  0  0
  150.3264  144.6868  161.1736 H   0  0  0  0  0  0  0  0  0  0  0  0
  152.0249  146.5396  159.5988 H   0  0  0  0  0  0  0  0  0  0  0  0
  152.5502  145.4186  160.8589 H   0  0  0  0  0  0  0  0  0  0  0  0
  1  2  1  0  0  0  0
  1 18  1  0  0  0  0
  1 19  1  0  0  0  0
  1 20  1  0  0  0  0
  2  3  1  0  0  0  0
  2 12  1  0  0  0  0
  2 21  1  0  0  0  0
  3  4  1  0  0  0  0
  3 22  1  0  0  0  0
  4  5  2  0  0  0  0
  4  6  1  0  0  0  0
  6  7  1  0  0  0  0
  6 23  1  0  0  0  0
  7 11  2  0  0  0  0
  7  8  1  0  0  0  0
  8  9  2  0  0  0  0
  8 24  1  0  0  0  0
  9 10  1  0  0  0  0
 10 17  1  0  0  0  0
 10 11  1  0  0  0  0
 11 25  1  0  0  0  0
 12 16  1  0  0  0  0
 12 13  1  0  0  0  0
 12 26  1  0  0  0  0
 13 14  1  0  0  0  0
 13 27  1  0  0  0  0
 13 28  1  0  0  0  0
 14 15  1  0  0  0  0
 14 29  1  0  0  0  0
 14 30  1  0  0  0  0
 15 16  1  0  0  0  0
 15 31  1  0  0  0  0
 15 32  1  0  0  0  0
M  END
> <s_m_source_file>
AV-unprocessed.smi

> <i_m_source_file_index>
1720

> <i_lp_mmshare_version>
43012

> <i_f3d_flags>
0

> <s_epik_input>
TzFbQ0gyXVtDSDJdW0NIMl1bQ0BIXTFbQ0BIXShbQ0gzXSlbTkhdQyg9TylbTkhdYzJbY0hdbltuSF1bY0hdMg==

> <s_epik_cmdline>
J2VwaWtfcHl0aG9uJywgJy1waCcsICc3LjAnLCAnLXRuJywgJzgnLCAnLW1hJywgJzIwMCcsICctbWV0YWxfYmluZGluZycsICctaW1hZScsICc8aW5maWxlLm1hZT4nLCAnLW9tYWUnLCAnPG91dGZpbGUubWFlPic=

> <r_lp_tautomer_probability>
1

> <r_epik_Ionization_Penalty>
4.95841e-05

> <r_epik_Ionization_Penalty_Charging>
0

> <r_epik_Ionization_Penalty_Neutral>
4.95841e-05

> <r_epik_State_Penalty>
-0

> <r_epik_Charging_Adjusted_Penalty>
0

> <i_epik_Tot_Q>
0

> <i_epik_Tot_abs_Q>
0

> <r_epik_Metal_State_Penalty>
-0

> <b_epik_Metal_Only>
0

> <s_lp_Force_Field>
OPLS_2005

> <r_lp_Energy>
20.531

> <b_lp_Chiralities_Consistent>
1

> <s_lp_Variant>
AV-unprocessed.smi:1720-4

> <Gold.Version>
5.8.1

> <Gold.Id.Protein>
6NUR|6NUR_protein|mol2

> <Gold.PLP.Fitness>
40.6841

> <Gold.PLP.PLP>
-32.6478

> <Gold.PLP.part.hbond>
-4.8153

> <Gold.PLP.part.metal>
0.0000

> <Gold.PLP.part.buried>
-4.8188

> <Gold.PLP.part.nonpolar>
-23.3836

> <Gold.PLP.part.repulsive>
1.7980

> <Gold.PLP.ligand.clash>
0.0000

> <Gold.PLP.ligand.torsion>
0.1217

> <Gold.PLP.Chemscore.Hbond>
2.7522

> <Gold.PLP.Chemscore.CHOScore>
0.0000

> <Gold.PLP.Chemscore.Metal>
0.0000

> <Gold.Chemscore.Hbonds>
donor molecule, donor type, donor heavy atom, donor atom, acceptor molecule, acceptor atom, score
      L1  H     3    22       P1  8028  0.90
      L1  H     6    23       P1  8028  0.19
      L1  H    10    17       P1  7948  1.00
      P1  H  7989  7998       L1     5  0.74

> <Gold.PLP.Chemscore.Internal.Correction>
0.0229

> <Gold.Rescore>
     Score         DG    S(hbond)    S(metal)    S(lipo)     H(rot)  DE(clash)    DE(int)     intcor
     15.12     -19.69       2.32        0.00      83.69       1.31       2.08       2.49       ----

> <Gold.Chemscore.Fitness>
15.1183

> <Gold.Chemscore.DG>
-19.6851

> <Gold.Chemscore.ZeroCoef>
-5.4800

> <Gold.Chemscore.Hbond>
2.3237

> <Gold.Chemscore.Metal>
0.0000

> <Gold.Chemscore.Lipo>
83.6939

> <Gold.Chemscore.Internal_Hbond>
0.0000

> <Gold.Chemscore.DEClash>
2.0773

> <Gold.Chemscore.DEInternal>
2.4895

> <Gold.Chemscore.Rot>
1.3079

> <Gold.Chemscore.Internal.Correction>
   9.000000E+99

> <Gold.Chemscore.Hbonds>
donor molecule, donor type, donor heavy atom, donor atom, acceptor molecule, acceptor atom, score
      L1  H     3    22       P1  8028  0.88
      L1  H     6    23       P1  8028  0.19
      L1  H    10    17       P1  7948  0.93
      P1  H  7989  7998       L1     5  0.38

> <Gold.Chemscore.Hbond.Weighted>
-7.7612

> <Gold.Chemscore.Metal.Weighted>
-0.0000

> <Gold.Chemscore.Lipo.Weighted>
-9.7922

> <Gold.Chemscore.Internal_Hbond.Weighted>
0.0000

> <Gold.Chemscore.DEClash.Weighted>
2.0773

> <Gold.Chemscore.DEInternal.Weighted>
2.4895

> <Gold.Chemscore.Rot.Weighted>
3.3483

> <Gold.Chemscore.Internal.Correction.Weighted>
   9.000000E+99

> <Gold.Protein.RotatedTorsions>
[ 6907 6896 6895 6894 ] final   -1.63 input  -60.11 | X-H torsion
[ 7974 7965 7964 7962 ] final  -54.04 input  175.53 | X-H torsion
[ 8008 7997 7996 7995 ] final -140.24 input   59.86 | X-H torsion
[ 10167 10162 10161 10158 ] final -159.00 input  -65.29 | X-H torsion
[ 10718 10713 10712 10709 ] final -128.63 input   66.30 | X-H torsion
[ 10763 10752 10751 10750 ] final  152.34 input  -60.55 | X-H torsion
[ 11005 11000 10999 10996 ] final -155.57 input  -57.11 | X-H torsion

> <Gold.Protein.ActiveResidues>
 VAL166  LYS551  ARG553  GLY616  TRP617  ASP618  TYR619  PRO620  LYS621  CYS622 
 ASP623  PHE694  ASN695  SER759  ASP760  ASP761  ALA762  ILE779  LEU786  VAL792 
 PHE793  MET794  SER795  GLU796  ALA797  LYS798  CYS799  TRP800  GLU811  SER814 

> <Gold.Protein.RotatedAtoms>
  151.5429  135.1068  159.9930 H   0  0  0  0  0  0  0  0  0  0  0  0  # atno 6907 bound_to 6896
  152.4527  133.7657  159.6781 H   0  0  0  0  0  0  0  0  0  0  0  0  # atno 6908 bound_to 6896
  150.8460  133.7794  159.3067 H   0  0  0  0  0  0  0  0  0  0  0  0  # atno 6909 bound_to 6896
  145.8900  140.8078  142.9796 H   0  0  0  0  0  0  0  0  0  0  0  0  # atno 7974 bound_to 7965
  155.4580  140.0543  157.2994 H   0  0  0  0  0  0  0  0  0  0  0  0  # atno 8008 bound_to 7997
  154.4749  140.2056  155.9858 H   0  0  0  0  0  0  0  0  0  0  0  0  # atno 8009 bound_to 7997
  156.1116  140.3203  155.8085 H   0  0  0  0  0  0  0  0  0  0  0  0  # atno 8010 bound_to 7997
  139.6649  143.9848  152.2248 H   0  0  0  0  0  0  0  0  0  0  0  0  # atno 10167 bound_to 10162
  156.1969  130.6832  151.0493 H   0  0  0  0  0  0  0  0  0  0  0  0  # atno 10718 bound_to 10713
  154.1185  135.2834  155.3214 H   0  0  0  0  0  0  0  0  0  0  0  0  # atno 10763 bound_to 10752
  154.6440  135.5392  153.7826 H   0  0  0  0  0  0  0  0  0  0  0  0  # atno 10764 bound_to 10752
  153.0321  135.6493  154.1340 H   0  0  0  0  0  0  0  0  0  0  0  0  # atno 10765 bound_to 10752
  140.6850  134.4103  157.5224 H   0  0  0  0  0  0  0  0  0  0  0  0  # atno 11005 bound_to 11000
  144.6730  140.1515  143.7429 LP  0  0  0  0  0  0  0  0  0  0  0  0  # atno 17320 bound_to 7965
  145.8920  139.2381  143.1544 LP  0  0  0  0  0  0  0  0  0  0  0  0  # atno 17321 bound_to 7965
  139.9596  144.6566  150.8092 LP  0  0  0  0  0  0  0  0  0  0  0  0  # atno 17342 bound_to 10162
  140.7595  143.3130  151.2799 LP  0  0  0  0  0  0  0  0  0  0  0  0  # atno 17343 bound_to 10162
  157.6963  131.0793  150.6959 LP  0  0  0  0  0  0  0  0  0  0  0  0  # atno 17370 bound_to 10713
  156.7016  130.4625  149.5571 LP  0  0  0  0  0  0  0  0  0  0  0  0  # atno 17371 bound_to 10713
  139.8940  134.8717  156.2197 LP  0  0  0  0  0  0  0  0  0  0  0  0  # atno 17394 bound_to 11000
  141.0287  133.7001  156.1392 LP  0  0  0  0  0  0  0  0  0  0  0  0  # atno 17395 bound_to 11000

$$$$
