AV-unprocessed.smi:54|AV-procd|sdf|543|dock4
  -GOLD-   2262016433D 1   1.00000     0.00000
 Structure written by MMmdl.
 44 46  0  0  0  0  0  0  0  0  1 V2000
  151.7846  145.5693  159.8609 C   0  0  0  0  0  0  0  0  0  0  0  0
  150.5798  144.8724  159.2086 C   0  0  0  0  0  0  0  0  0  0  0  0
  149.3567  144.8842  160.1400 C   0  0  0  0  0  0  0  0  0  0  0  0
  150.9399  143.4377  158.8065 C   0  0  0  0  0  0  0  0  0  0  0  0
  151.5167  142.6692  159.5771 O   0  0  0  0  0  0  0  0  0  0  0  0
  150.5479  143.0518  157.4622 N   0  0  0  0  0  0  0  0  0  0  0  0
  150.7360  141.8538  156.8612 C   0  0  0  0  0  0  0  0  0  0  0  0
  150.0591  141.4638  155.7907 N   0  0  0  0  0  0  0  0  0  0  0  0
  150.3987  140.2251  155.3213 C   0  0  0  0  0  0  0  0  0  0  0  0
  151.3421  139.3742  155.8570 C   0  0  0  0  0  0  0  0  0  0  0  0
  151.4055  138.2018  155.1142 N   0  0  0  0  0  0  0  0  0  0  0  0
  150.5214  138.3764  154.1716 C   0  0  0  0  0  0  0  0  0  0  0  0
  149.8724  139.5901  154.2160 N   0  0  0  0  0  0  0  0  0  0  0  0
  148.7982  140.1437  153.3223 C   0  0  2  0  0  0  0  0  0  0  0  0
  148.5017  141.4414  153.7365 O   0  0  0  0  0  0  0  0  0  0  0  0
  147.3759  141.4659  154.6237 C   0  0  1  0  0  0  0  0  0  0  0  0
  146.3664  142.4817  154.0626 C   0  0  0  0  0  0  0  0  0  0  0  0
  145.0587  142.1433  154.4727 O   0  0  0  0  0  0  0  0  0  0  0  0
  146.8168  140.0279  154.6457 C   0  0  2  0  0  0  0  0  0  0  0  0
  147.1645  139.3997  155.8671 O   0  0  0  0  0  0  0  0  0  0  0  0
  147.4806  139.3700  153.4425 C   0  0  2  0  0  0  0  0  0  0  0  0
  147.6002  137.9626  153.5518 O   0  0  0  0  0  0  0  0  0  0  0  0
  152.0751  139.7759  157.0227 C   0  0  0  0  0  0  0  0  0  0  0  0
  152.9418  139.1516  157.6308 O   0  0  0  0  0  0  0  0  0  0  0  0
  151.7042  141.0523  157.4661 N   0  0  0  0  0  0  0  0  0  0  0  0
  149.2372  140.1300  152.3239 H   0  0  0  0  0  0  0  0  0  0  0  0
  147.6867  141.7727  155.6238 H   0  0  0  0  0  0  0  0  0  0  0  0
  145.7303  139.9955  154.5583 H   0  0  0  0  0  0  0  0  0  0  0  0
  146.8979  139.5981  152.5492 H   0  0  0  0  0  0  0  0  0  0  0  0
  152.6530  145.5610  159.2008 H   0  0  0  0  0  0  0  0  0  0  0  0
  152.0715  145.0846  160.7952 H   0  0  0  0  0  0  0  0  0  0  0  0
  151.5566  146.6114  160.0867 H   0  0  0  0  0  0  0  0  0  0  0  0
  150.3192  145.4245  158.3042 H   0  0  0  0  0  0  0  0  0  0  0  0
  148.5056  144.3767  159.6845 H   0  0  0  0  0  0  0  0  0  0  0  0
  149.0467  145.9056  160.3625 H   0  0  0  0  0  0  0  0  0  0  0  0
  149.5695  144.3903  161.0893 H   0  0  0  0  0  0  0  0  0  0  0  0
  150.0672  143.7573  156.9237 H   0  0  0  0  0  0  0  0  0  0  0  0
  150.3278  137.6220  153.4243 H   0  0  0  0  0  0  0  0  0  0  0  0
  146.6109  143.4989  154.3701 H   0  0  0  0  0  0  0  0  0  0  0  0
  146.3754  142.4618  152.9726 H   0  0  0  0  0  0  0  0  0  0  0  0
  144.7371  141.4528  153.9135 H   0  0  0  0  0  0  0  0  0  0  0  0
  147.9420  139.8184  156.2047 H   0  0  0  0  0  0  0  0  0  0  0  0
  148.1580  137.6550  152.8532 H   0  0  0  0  0  0  0  0  0  0  0  0
  152.1843  141.4021  158.2823 H   0  0  0  0  0  0  0  0  0  0  0  0
  1  2  1  0  0  0  0
  1 30  1  0  0  0  0
  1 31  1  0  0  0  0
  1 32  1  0  0  0  0
  2  3  1  0  0  0  0
  2  4  1  0  0  0  0
  2 33  1  0  0  0  0
  3 34  1  0  0  0  0
  3 35  1  0  0  0  0
  3 36  1  0  0  0  0
  4  5  2  0  0  0  0
  4  6  1  0  0  0  0
  6 37  1  0  0  0  0
  6  7  1  0  0  0  0
  7 25  1  0  0  0  0
  7  8  2  0  0  0  0
  8  9  1  0  0  0  0
  9 13  1  0  0  0  0
  9 10  2  0  0  0  0
 10 11  1  0  0  0  0
 10 23  1  0  0  0  0
 11 12  2  0  0  0  0
 12 13  1  0  0  0  0
 12 38  1  0  0  0  0
 13 14  1  0  0  0  0
 14 26  1  0  0  0  0
 14 21  1  0  0  0  0
 14 15  1  0  0  0  0
 15 16  1  0  0  0  0
 16 27  1  0  0  0  0
 16 17  1  0  0  0  0
 16 19  1  0  0  0  0
 17 18  1  0  0  0  0
 17 39  1  0  0  0  0
 17 40  1  0  0  0  0
 18 41  1  0  0  0  0
 19 28  1  0  0  0  0
 19 20  1  0  0  0  0
 19 21  1  0  0  0  0
 20 42  1  0  0  0  0
 21 29  1  0  0  0  0
 21 22  1  0  0  0  0
 22 43  1  0  0  0  0
 23 24  2  0  0  0  0
 23 25  1  0  0  0  0
 25 44  1  0  0  0  0
M  END
> <s_m_source_file>
AV-unprocessed.smi

> <i_m_source_file_index>
54

> <i_lp_mmshare_version>
43012

> <i_f3d_flags>
0

> <s_epik_input>
W0NIM11bQ0hdKFtDSDNdKUMoPU8pW05IXWMobjEpW25IXWMoPU8pYyhjMTIpbltjSF1uMltDQEBIXTNPW0NASF0oW0NIMl1bT0hdKVtDQEBIXShbT0hdKVtDQEhdM1tPSF0=

> <s_epik_cmdline>
J2VwaWtfcHl0aG9uJywgJy1waCcsICc3LjAnLCAnLXRuJywgJzgnLCAnLW1hJywgJzIwMCcsICctbWV0YWxfYmluZGluZycsICctaW1hZScsICc8aW5maWxlLm1hZT4nLCAnLW9tYWUnLCAnPG91dGZpbGUubWFlPic=

> <r_lp_tautomer_probability>
0.85571

> <r_epik_Ionization_Penalty>
0.0316551

> <r_epik_Ionization_Penalty_Charging>
0.0316043

> <r_epik_Ionization_Penalty_Neutral>
5.07097e-05

> <r_epik_State_Penalty>
3.15494e-07

> <r_epik_Charging_Adjusted_Penalty>
0.0316047

> <i_epik_Tot_Q>
0

> <i_epik_Tot_abs_Q>
0

> <r_epik_Metal_State_Penalty>
0.421206

> <b_epik_Metal_Only>
0

> <s_epik_Chemistry_Notes>
This compound contains an acetal/aminal-like group ( X-CH(R)-Y where X, Y are N, S, or O) that may be acid/base labile, releasing an aldehyde.

> <s_lp_Force_Field>
OPLS_2005

> <r_lp_Energy>
46.2687

> <b_lp_Chiralities_Consistent>
1

> <s_lp_Variant>
AV-unprocessed.smi:54-15

> <Gold.Version>
5.8.1

> <Gold.Id.Protein>
6NUR|6NUR_protein|mol2

> <Gold.PLP.Fitness>
56.0084

> <Gold.PLP.PLP>
-40.5233

> <Gold.PLP.part.hbond>
-5.0000

> <Gold.PLP.part.metal>
0.0000

> <Gold.PLP.part.buried>
0.4933

> <Gold.PLP.part.nonpolar>
-36.1360

> <Gold.PLP.part.repulsive>
0.7658

> <Gold.PLP.ligand.clash>
0.0000

> <Gold.PLP.ligand.torsion>
0.7750

> <Gold.PLP.Chemscore.Hbond>
4.5717

> <Gold.PLP.Chemscore.CHOScore>
1.0587

> <Gold.PLP.Chemscore.Metal>
0.0000

> <Gold.Chemscore.Hbonds>
donor molecule, donor type, donor heavy atom, donor atom, acceptor molecule, acceptor atom, score
      L1  H     6    37       P1  8028  1.00
      L1  H    18    41       P1 10175  1.00
      L1  H    22    43       P1  7948  1.00
      P1  H  7997  8010       L1    24  0.97
      P1  H  8011  8017       L1    15  0.42
      L1  C    12    38       P1  7948  0.86
      L1  C    12    38       P1  7949  0.25

> <Gold.PLP.Chemscore.Internal.Correction>
0.1439

> <Gold.Rescore>
     Score         DG    S(hbond)    S(metal)    S(lipo)     H(rot)  DE(clash)    DE(int)     intcor
      7.25     -12.56       3.33        0.00      53.99       4.05       1.56       3.75       ----

> <Gold.Chemscore.Fitness>
7.2488

> <Gold.Chemscore.DG>
-12.5565

> <Gold.Chemscore.ZeroCoef>
-5.4800

> <Gold.Chemscore.Hbond>
3.3313

> <Gold.Chemscore.Metal>
0.0000

> <Gold.Chemscore.Lipo>
53.9855

> <Gold.Chemscore.Internal_Hbond>
0.0000

> <Gold.Chemscore.DEClash>
1.5610

> <Gold.Chemscore.DEInternal>
3.7467

> <Gold.Chemscore.Rot>
4.0493

> <Gold.Chemscore.Internal.Correction>
   9.000000E+99

> <Gold.Chemscore.Hbonds>
donor molecule, donor type, donor heavy atom, donor atom, acceptor molecule, acceptor atom, score
      L1  H     6    37       P1  8028  0.98
      L1  H    18    41       P1 10175  0.24
      L1  H    22    43       P1  7948  0.96
      P1  H  7997  8010       L1    24  0.48
      P1  H  8011  8017       L1    15  0.06

> <Gold.Chemscore.Hbond.Weighted>
-11.1264

> <Gold.Chemscore.Metal.Weighted>
-0.0000

> <Gold.Chemscore.Lipo.Weighted>
-6.3163

> <Gold.Chemscore.Internal_Hbond.Weighted>
0.0000

> <Gold.Chemscore.DEClash.Weighted>
1.5610

> <Gold.Chemscore.DEInternal.Weighted>
3.7467

> <Gold.Chemscore.Rot.Weighted>
10.3662

> <Gold.Chemscore.Internal.Correction.Weighted>
   9.000000E+99

> <Gold.Protein.RotatedTorsions>
[ 6907 6896 6895 6894 ] final  100.52 input  -60.11 | X-H torsion
[ 7974 7965 7964 7962 ] final  -82.84 input  175.53 | X-H torsion
[ 8008 7997 7996 7995 ] final   24.14 input   59.86 | X-H torsion
[ 10167 10162 10161 10158 ] final  166.18 input  -65.29 | X-H torsion
[ 10718 10713 10712 10709 ] final   -2.99 input   66.30 | X-H torsion
[ 10763 10752 10751 10750 ] final   78.94 input  -60.55 | X-H torsion
[ 11005 11000 10999 10996 ] final  165.18 input  -57.11 | X-H torsion

> <Gold.Protein.ActiveResidues>
 VAL166  LYS551  ARG553  GLY616  TRP617  ASP618  TYR619  PRO620  LYS621  CYS622 
 ASP623  PHE694  ASN695  SER759  ASP760  ASP761  ALA762  ILE779  LEU786  VAL792 
 PHE793  MET794  SER795  GLU796  ALA797  LYS798  CYS799  TRP800  GLU811  SER814 

> <Gold.Protein.RotatedAtoms>
  152.5370  134.0264  159.8004 H   0  0  0  0  0  0  0  0  0  0  0  0  # atno 6907 bound_to 6896
  151.0442  133.5672  159.2655 H   0  0  0  0  0  0  0  0  0  0  0  0  # atno 6908 bound_to 6896
  151.2630  135.0667  159.9159 H   0  0  0  0  0  0  0  0  0  0  0  0  # atno 6909 bound_to 6896
  145.5280  140.9524  143.1619 H   0  0  0  0  0  0  0  0  0  0  0  0  # atno 7974 bound_to 7965
  154.9917  140.3114  155.4903 H   0  0  0  0  0  0  0  0  0  0  0  0  # atno 8008 bound_to 7997
  156.2939  140.2248  156.4963 H   0  0  0  0  0  0  0  0  0  0  0  0  # atno 8009 bound_to 7997
  154.7697  140.0453  157.1029 H   0  0  0  0  0  0  0  0  0  0  0  0  # atno 8010 bound_to 7997
  139.4920  144.4054  151.9361 H   0  0  0  0  0  0  0  0  0  0  0  0  # atno 10167 bound_to 10162
  156.7826  130.5335  149.5748 H   0  0  0  0  0  0  0  0  0  0  0  0  # atno 10718 bound_to 10713
  153.0913  135.4858  154.8696 H   0  0  0  0  0  0  0  0  0  0  0  0  # atno 10763 bound_to 10752
  154.7273  135.3052  154.8952 H   0  0  0  0  0  0  0  0  0  0  0  0  # atno 10764 bound_to 10752
  153.9599  135.6813  153.4798 H   0  0  0  0  0  0  0  0  0  0  0  0  # atno 10765 bound_to 10752
  140.2535  134.7958  157.3524 H   0  0  0  0  0  0  0  0  0  0  0  0  # atno 11005 bound_to 11000
  144.7641  139.6887  143.7222 LP  0  0  0  0  0  0  0  0  0  0  0  0  # atno 17320 bound_to 7965
  146.2063  139.5389  142.9710 LP  0  0  0  0  0  0  0  0  0  0  0  0  # atno 17321 bound_to 7965
  140.3494  144.3107  150.5952 LP  0  0  0  0  0  0  0  0  0  0  0  0  # atno 17342 bound_to 10162
  140.5498  143.2208  151.7946 LP  0  0  0  0  0  0  0  0  0  0  0  0  # atno 17343 bound_to 10162
  156.1208  130.6109  151.0191 LP  0  0  0  0  0  0  0  0  0  0  0  0  # atno 17370 bound_to 10713
  157.6639  131.0875  150.7774 LP  0  0  0  0  0  0  0  0  0  0  0  0  # atno 17371 bound_to 10713
  140.1534  134.4820  155.7945 LP  0  0  0  0  0  0  0  0  0  0  0  0  # atno 17394 bound_to 11000
  141.2198  133.6872  156.7419 LP  0  0  0  0  0  0  0  0  0  0  0  0  # atno 17395 bound_to 11000

$$$$
