#       Name:                AV-unprocessed.smi:1372
#       Creating user name   scv26
#       Creation time:       Fri Mar 27 05:18:27 2020


#       File generated by GOLD software.
#

@<TRIPOS>MOLECULE
AV-unprocessed.smi:1372
    44    46     1
SMALL
NO_CHARGES


@<TRIPOS>ATOM
      1 ****        -1.7604   4.7402   0.4267 C.3            1 S1                 0.0000
      2 ****        -2.4100   3.0245   0.5533 S.o2           1 S1                 0.0000
      3 ****        -2.0008   2.4631   1.8496 O.2            1 S1                 0.0000
      4 ****        -3.8345   3.0371   0.1862 O.2            1 S1                 0.0000
      5 ****        -1.4731   2.1619  -0.7810 C.3            1 S1                 0.0000
      6 ****        -1.7778   0.6967  -0.7645 C.2            1 S1                 0.0000
      7 ****        -3.0223   0.1382  -0.7688 N.pl3          1 S1                 1.0000
      8 ****        -2.9197  -1.2522  -0.7302 C.ar           1 S1                 0.0000
      9 ****        -3.9010  -2.2383  -0.7093 C.ar           1 S1                 0.0000
     10 ****        -3.4535  -3.5751  -0.6645 C.ar           1 S1                 0.0000
     11 ****        -2.0789  -3.8888  -0.6418 C.ar           1 S1                 0.0000
     12 ****        -1.0933  -2.8799  -0.6645 C.ar           1 S1                 0.0000
     13 ****        -1.5446  -1.5610  -0.7106 C.ar           1 S1                 0.0000
     14 ****        -0.8783  -0.3308  -0.7440 N.pl3          1 S1                 0.0000
     15 ****         0.5935  -0.3184  -0.7401 C.3            1 S1                 0.0000
     16 ****         1.1889  -0.3911   0.6800 C.3            1 S1                 0.0000
     17 ****         0.7153   0.6939   1.4536 O.3            1 S1                 0.0000
     18 ****         2.7073  -0.4453   0.6390 C.ar           1 S1                 0.0000
     19 ****         3.3766  -1.6652   0.8749 C.ar           1 S1                 0.0000
     20 ****         4.7832  -1.7233   0.8295 C.ar           1 S1                 0.0000
     21 ****         5.5282  -0.5628   0.5459 C.ar           1 S1                 0.0000
     22 ****         4.8661   0.6565   0.3072 C.ar           1 S1                 0.0000
     23 ****         3.4597   0.7153   0.3526 C.ar           1 S1                 0.0000
     24 ****        -2.2451   5.3665   1.1755 H              1 S1                 0.0000
     25 ****        -1.9677   5.1388  -0.5663 H              1 S1                 0.0000
     26 ****        -0.6846   4.7377   0.6011 H              1 S1                 0.0000
     27 ****        -1.7485   2.5921  -1.7438 H              1 S1                 0.0000
     28 ****        -0.4107   2.3381  -0.6179 H              1 S1                 0.0000
     29 ****        -4.9545  -1.9999  -0.7242 H              1 S1                 0.0000
     30 ****        -4.1790  -4.3755  -0.6457 H              1 S1                 0.0000
     31 ****        -1.7735  -4.9245  -0.6059 H              1 S1                 0.0000
     32 ****        -0.0432  -3.1312  -0.6443 H              1 S1                 0.0000
     33 ****         0.9483  -1.1492  -1.3509 H              1 S1                 0.0000
     34 ****         0.9233   0.5866  -1.2505 H              1 S1                 0.0000
     35 ****         0.8277  -1.2984   1.1659 H              1 S1                 0.0000
     36 ****         1.0101   0.5785   2.3442 H              1 S1                 0.0000
     37 ****         2.8146  -2.5619   1.0904 H              1 S1                 0.0000
     38 ****         5.2909  -2.6590   1.0118 H              1 S1                 0.0000
     39 ****         6.6068  -0.6078   0.5108 H              1 S1                 0.0000
     40 ****         5.4370   1.5465   0.0882 H              1 S1                 0.0000
     41 ****         2.9600   1.6544   0.1646 H              1 S1                 0.0000
     42 ****        -3.8806   0.6750  -0.7813 H              1 S1                 0.0000
     43 ****        -0.2842   0.7147   1.4291 LP             1 S1                 0.0000
     44 ****         1.0756   1.5518   1.0875 LP             1 S1                 0.0000
@<TRIPOS>BOND
    1    1    2 1     
    2    1   24 1     
    3    1   25 1     
    4    1   26 1     
    5    2    3 2     
    6    2    4 2     
    7    2    5 1     
    8    5    6 1     
    9    5   27 1     
   10    5   28 1     
   11    6   14 1     
   12    6    7 2     
   13    7    8 1     
   14    7   42 1     
   15    8   13 ar    
   16    8    9 ar    
   17    9   10 ar    
   18    9   29 1     
   19   10   11 ar    
   20   10   30 1     
   21   11   12 ar    
   22   11   31 1     
   23   12   13 ar    
   24   12   32 1     
   25   13   14 1     
   26   14   15 1     
   27   15   16 1     
   28   15   33 1     
   29   15   34 1     
   30   16   17 1     
   31   16   18 1     
   32   16   35 1     
   33   17   36 1     
   34   18   23 ar    
   35   18   19 ar    
   36   19   20 ar    
   37   19   37 1     
   38   20   21 ar    
   39   20   38 1     
   40   21   22 ar    
   41   21   39 1     
   42   22   23 ar    
   43   22   40 1     
   44   23   41 1     
   45   17   43 1     
   46   17   44 1     
@<TRIPOS>SUBSTRUCTURE
      1 S1             1
@<TRIPOS>SET
LONE_PAIRS      STATIC     ATOMS    <user>   **** ""
4 3 4 43 44
DONOR_HYDROGENS      STATIC     ATOMS    <user>   **** ""
2 42 36
ATOM$BLUE        STATIC     ATOMS    COLORGROUP SYSTEM
4 3 4 43 44
ATOM$RED        STATIC     ATOMS    COLORGROUP SYSTEM
2 42 36
