#       Name:                AV-unprocessed.smi:240
#       Creating user name   scv26
#       Creation time:       Thu Mar 26 20:44:41 2020


#       File generated by GOLD software.
#

@<TRIPOS>MOLECULE
AV-unprocessed.smi:240
    67    71     1
SMALL
NO_CHARGES


@<TRIPOS>ATOM
      1 ****        -3.4189  -1.7899  -1.6089 O.3            1 S1                 0.0000
      2 ****        -3.1150  -2.4777  -0.4080 C.3            1 S1                 0.0000
      3 ****        -2.2238  -3.6752  -0.7436 C.3            1 S1                 0.0000
      4 ****        -0.7932  -3.1281  -0.7673 C.3            1 S1                 0.0000
      5 ****        -0.8514  -1.7445  -0.1050 C.3            1 S1                 0.0000
      6 ****        -2.2513  -1.6105   0.5317 C.3            1 S1                 0.0000
      7 ****        -2.7861  -0.1610   0.7935 C.3            1 S1                 0.0000
      8 ****        -4.2954  -0.2022   1.1551 C.3            1 S1                 0.0000
      9 ****        -4.7988   1.0992   1.4289 O.3            1 S1                 0.0000
     10 ****        -4.1545   1.6857   2.5484 C.3            1 S1                 0.0000
     11 ****        -2.6662   1.8406   2.2228 C.3            1 S1                 0.0000
     12 ****        -2.0804   0.5488   1.8761 N.3            1 S1                 0.0000
     13 ****        -0.7413   0.6806   1.7659 C.ar           1 S1                 0.0000
     14 ****         0.0130   0.1683   2.7691 N.ar           1 S1                 0.0000
     15 ****         1.3455   0.2521   2.7108 C.ar           1 S1                 0.0000
     16 ****         2.1072   0.7964   1.7592 N.ar           1 S1                 0.0000
     17 ****         1.3479   1.3267   0.7573 C.ar           1 S1                 0.0000
     18 ****        -0.0727   1.3234   0.6856 C.ar           1 S1                 0.0000
     19 ****        -0.4915   1.9628  -0.4749 N.2            1 S1                 0.0000
     20 ****         0.6199   2.3119  -1.0632 C.2            1 S1                 0.0000
     21 ****         1.7725   1.9562  -0.3994 N.pl3          1 S1                 0.0000
     22 ****         3.1402   2.2039  -0.8278 C.3            1 S1                 0.0000
     23 ****         3.6502   1.2125  -1.9047 C.3            1 S1                 0.0000
     24 ****         2.8921   1.3854  -3.0880 O.3            1 S1                 0.0000
     25 ****         3.5921  -0.2574  -1.4839 C.3            1 S1                 0.0000
     26 ****         5.0023  -0.5143  -0.9756 C.3            1 S1                 0.0000
     27 ****         5.7935   0.1884  -1.9178 O.3            1 S1                 0.0000
     28 ****         5.1485   1.4245  -2.2047 C.3            1 S1                 0.0000
     29 ****        -3.9415  -1.0314  -1.3976 H              1 S1                 0.0000
     30 ****        -4.0440  -2.8018   0.0623 H              1 S1                 0.0000
     31 ****        -2.3083  -4.4171   0.0515 H              1 S1                 0.0000
     32 ****        -2.5022  -4.1690  -1.6757 H              1 S1                 0.0000
     33 ****        -0.1173  -3.7972  -0.2334 H              1 S1                 0.0000
     34 ****        -0.4255  -3.0408  -1.7904 H              1 S1                 0.0000
     35 ****        -0.0468  -1.6367   0.6210 H              1 S1                 0.0000
     36 ****        -0.7130  -0.9785  -0.8687 H              1 S1                 0.0000
     37 ****        -2.2205  -2.1279   1.4924 H              1 S1                 0.0000
     38 ****        -2.6823   0.4225  -0.1217 H              1 S1                 0.0000
     39 ****        -4.8871  -0.5991   0.3316 H              1 S1                 0.0000
     40 ****        -4.4720  -0.8540   2.0125 H              1 S1                 0.0000
     41 ****        -4.6009   2.6598   2.7480 H              1 S1                 0.0000
     42 ****        -4.3021   1.0741   3.4398 H              1 S1                 0.0000
     43 ****        -2.5443   2.5378   1.3926 H              1 S1                 0.0000
     44 ****        -2.1478   2.2695   3.0820 H              1 S1                 0.0000
     45 ****         1.8777  -0.1838   3.5433 H              1 S1                 0.0000
     46 ****         0.6298   2.8344  -2.0088 H              1 S1                 0.0000
     47 ****         3.2009   3.2284  -1.1978 H              1 S1                 0.0000
     48 ****         3.7833   2.1616   0.0523 H              1 S1                 0.0000
     49 ****         3.2204   0.7886  -3.7432 H              1 S1                 0.0000
     50 ****         2.8276  -0.4923  -0.7450 H              1 S1                 0.0000
     51 ****         3.4127  -0.8992  -2.3481 H              1 S1                 0.0000
     52 ****         5.1448  -0.0921   0.0204 H              1 S1                 0.0000
     53 ****         5.2551  -1.5744  -0.9456 H              1 S1                 0.0000
     54 ****         5.3428   1.7130  -3.2387 H              1 S1                 0.0000
     55 ****         5.5771   2.1986  -1.5664 H              1 S1                 0.0000
     56 ****        -3.9310  -2.3918  -2.2217 LP             1 S1                 0.0000
     57 ****        -2.5720  -1.5017  -2.0558 LP             1 S1                 0.0000
     58 ****        -5.7791   1.0349   1.6160 LP             1 S1                 0.0000
     59 ****        -4.6497   1.6795   0.6283 LP             1 S1                 0.0000
     60 ****        -2.2253  -0.0989   2.6241 LP             1 S1                 0.0000
     61 ****        -0.4272  -0.2718   3.5518 LP             1 S1                 0.0000
     62 ****         3.1069   0.8133   1.7782 LP             1 S1                 0.0000
     63 ****        -1.4285   2.1194  -0.7872 LP             1 S1                 0.0000
     64 ****         2.9833   2.3268  -3.4128 LP             1 S1                 0.0000
     65 ****         1.9292   1.1882  -2.9039 LP             1 S1                 0.0000
     66 ****         5.8809  -0.3505  -2.7556 LP             1 S1                 0.0000
     67 ****         6.7015   0.3608  -1.5361 LP             1 S1                 0.0000
@<TRIPOS>BOND
    1    1    2 1     
    2    1   29 1     
    3    2    6 1     
    4    2    3 1     
    5    2   30 1     
    6    3    4 1     
    7    3   31 1     
    8    3   32 1     
    9    4    5 1     
   10    4   33 1     
   11    4   34 1     
   12    5    6 1     
   13    5   35 1     
   14    5   36 1     
   15    6    7 1     
   16    6   37 1     
   17    7   12 1     
   18    7    8 1     
   19    7   38 1     
   20    8    9 1     
   21    8   39 1     
   22    8   40 1     
   23    9   10 1     
   24   10   11 1     
   25   10   41 1     
   26   10   42 1     
   27   11   12 1     
   28   11   43 1     
   29   11   44 1     
   30   12   13 1     
   31   13   18 ar    
   32   13   14 ar    
   33   14   15 ar    
   34   15   16 ar    
   35   15   45 1     
   36   16   17 ar    
   37   17   21 1     
   38   17   18 ar    
   39   18   19 1     
   40   19   20 2     
   41   20   21 1     
   42   20   46 1     
   43   21   22 1     
   44   22   23 1     
   45   22   47 1     
   46   22   48 1     
   47   23   28 1     
   48   23   24 1     
   49   23   25 1     
   50   24   49 1     
   51   25   26 1     
   52   25   50 1     
   53   25   51 1     
   54   26   27 1     
   55   26   52 1     
   56   26   53 1     
   57   27   28 1     
   58   28   54 1     
   59   28   55 1     
   60    1   56 1     
   61    1   57 1     
   62    9   58 1     
   63    9   59 1     
   64   12   60 1     
   65   14   61 1     
   66   16   62 1     
   67   19   63 1     
   68   24   64 1     
   69   24   65 1     
   70   27   66 1     
   71   27   67 1     
@<TRIPOS>SUBSTRUCTURE
      1 S1             1
@<TRIPOS>SET
LONE_PAIRS      STATIC     ATOMS    <user>   **** ""
12 56 57 58 59 60 61 62 63 64 65 66 67
DONOR_HYDROGENS      STATIC     ATOMS    <user>   **** ""
2 29 49
ATOM$BLUE        STATIC     ATOMS    COLORGROUP SYSTEM
12 56 57 58 59 60 61 62 63 64 65 66 67
ATOM$RED        STATIC     ATOMS    COLORGROUP SYSTEM
2 29 49
