AV-unprocessed.smi:1809|AV-procd|sdf|7330|dock8
  -GOLD-   22720 8583D 1   1.00000     0.00000
 Structure written by MMmdl.
 38 40  0  0  0  0  0  0  0  0  2 V2000
  152.1777  143.5202  161.0530 C   0  0  0  0  0  0  0  0  0  0  0  0
  152.2585  142.3779  160.0994 C   0  0  0  0  0  0  0  0  0  0  0  0
  151.2390  142.0161  159.3169 N   0  0  0  0  0  0  0  0  0  0  0  0
  151.5541  140.9258  158.5188 N   0  0  0  0  0  0  0  0  0  0  0  0
  152.7994  140.4708  158.7176 C   0  0  0  0  0  0  0  0  0  0  0  0
  153.3001  139.4236  158.0413 N   0  5  0  0  0  0  0  0  0  0  0  0
  152.6352  138.9281  156.9729 C   0  0  0  0  0  0  0  0  0  0  0  0
  153.1138  138.6825  155.8631 O   0  0  0  0  0  0  0  0  0  0  0  0
  151.3347  138.7042  157.2015 N   0  0  0  0  0  0  0  0  0  0  0  0
  150.3919  138.1716  156.2267 C   0  0  0  0  0  0  0  0  0  0  0  0
  150.5574  138.8737  154.8651 C   0  0  1  0  0  0  0  0  0  0  0  0
  149.2414  138.9242  154.0529 C   0  0  0  0  0  0  0  0  0  0  0  0
  148.3399  139.9225  154.5975 N   0  0  0  0  0  0  0  0  0  0  0  0
  147.1066  140.1462  153.8802 C   0  0  0  0  0  0  0  0  0  0  0  0
  146.5867  141.4872  154.4266 C   0  0  0  0  0  0  0  0  0  0  0  0
  147.8343  142.1639  155.0362 C   0  0  0  0  0  0  0  0  0  0  0  0
  148.9660  141.2160  154.6345 C   0  0  1  0  0  0  0  0  0  0  0  0
  150.2160  141.1899  155.5241 C   0  0  0  0  0  0  0  0  0  0  0  0
  151.1076  140.1930  155.0150 O   0  0  0  0  0  0  0  0  0  0  0  0
  153.7014  141.3944  159.9190 S   0  0  0  0  0  0  0  0  0  0  0  0
  151.7042  143.1974  161.9802 H   0  0  0  0  0  0  0  0  0  0  0  0
  151.5918  144.3327  160.6226 H   0  0  0  0  0  0  0  0  0  0  0  0
  153.1762  143.8936  161.2805 H   0  0  0  0  0  0  0  0  0  0  0  0
  150.9767  138.9107  158.1226 H   0  0  0  0  0  0  0  0  0  0  0  0
  150.5707  137.1016  156.1106 H   0  0  0  0  0  0  0  0  0  0  0  0
  149.3749  138.2801  156.6052 H   0  0  0  0  0  0  0  0  0  0  0  0
  151.2810  138.2966  154.2879 H   0  0  0  0  0  0  0  0  0  0  0  0
  149.4714  139.1682  153.0148 H   0  0  0  0  0  0  0  0  0  0  0  0
  148.7597  137.9460  154.0442 H   0  0  0  0  0  0  0  0  0  0  0  0
  147.3037  140.2338  152.8106 H   0  0  0  0  0  0  0  0  0  0  0  0
  146.4005  139.3289  154.0288 H   0  0  0  0  0  0  0  0  0  0  0  0
  146.1408  142.0883  153.6338 H   0  0  0  0  0  0  0  0  0  0  0  0
  145.8287  141.3283  155.1944 H   0  0  0  0  0  0  0  0  0  0  0  0
  147.9914  143.1751  154.6600 H   0  0  0  0  0  0  0  0  0  0  0  0
  147.7408  142.2156  156.1220 H   0  0  0  0  0  0  0  0  0  0  0  0
  149.2786  141.4841  153.6229 H   0  0  0  0  0  0  0  0  0  0  0  0
  150.7168  142.1580  155.5104 H   0  0  0  0  0  0  0  0  0  0  0  0
  149.9593  140.9773  156.5624 H   0  0  0  0  0  0  0  0  0  0  0  0
  1  2  1  0  0  0  0
  1 21  1  0  0  0  0
  1 22  1  0  0  0  0
  1 23  1  0  0  0  0
  2 20  1  0  0  0  0
  2  3  2  0  0  0  0
  3  4  1  0  0  0  0
  4  5  2  0  0  0  0
  5  6  1  0  0  0  0
  5 20  1  0  0  0  0
  6  7  1  0  0  0  0
  7  8  2  0  0  0  0
  7  9  1  0  0  0  0
  9 10  1  0  0  0  0
  9 24  1  0  0  0  0
 10 11  1  0  0  0  0
 10 25  1  0  0  0  0
 10 26  1  0  0  0  0
 11 19  1  0  0  0  0
 11 12  1  0  0  0  0
 11 27  1  0  0  0  0
 12 13  1  0  0  0  0
 12 28  1  0  0  0  0
 12 29  1  0  0  0  0
 13 17  1  0  0  0  0
 13 14  1  0  0  0  0
 14 15  1  0  0  0  0
 14 30  1  0  0  0  0
 14 31  1  0  0  0  0
 15 16  1  0  0  0  0
 15 32  1  0  0  0  0
 15 33  1  0  0  0  0
 16 17  1  0  0  0  0
 16 34  1  0  0  0  0
 16 35  1  0  0  0  0
 17 18  1  0  0  0  0
 17 36  1  0  0  0  0
 18 19  1  0  0  0  0
 18 37  1  0  0  0  0
 18 38  1  0  0  0  0
M  CHG  1   6  -1
M  END
> <s_m_source_file>
AV-unprocessed.smi

> <i_m_source_file_index>
1809

> <i_lp_mmshare_version>
43012

> <i_f3d_flags>
0

> <s_epik_input>
W0NIM11jMW5uYyhzMSlbTkhdQyg9TylbTkhdW0NIMl1bQ0BIXShbQ0gyXTIpT1tDSDJdW0NAQEhdKE4yMylbQ0gyXVtDSDJdW0NIMl0z

> <s_epik_cmdline>
J2VwaWtfcHl0aG9uJywgJy1waCcsICc3LjAnLCAnLXRuJywgJzgnLCAnLW1hJywgJzIwMCcsICctbWV0YWxfYmluZGluZycsICctaW1hZScsICc8aW5maWxlLm1hZT4nLCAnLW9tYWUnLCAnPG91dGZpbGUubWFlPic=

> <r_lp_tautomer_probability>
1

> <r_epik_Ionization_Penalty>
4.48809

> <r_epik_Ionization_Penalty_Charging>
3.27284

> <r_epik_Ionization_Penalty_Neutral>
1.21525

> <r_epik_State_Penalty>
4.69427

> <r_epik_Charging_Adjusted_Penalty>
7.96711

> <i_epik_Tot_Q>
-1

> <i_epik_Tot_abs_Q>
1

> <r_epik_Metal_State_Penalty>
1.91976

> <b_epik_Metal_Only>
1

> <s_lp_Force_Field>
OPLS_2005

> <r_lp_Energy>
48.8238

> <b_lp_Chiralities_Consistent>
1

> <s_lp_Variant>
AV-unprocessed.smi:1809-22

> <Gold.Version>
5.8.1

> <Gold.Id.Protein>
6NUR|6NUR_protein|mol2

> <Gold.PLP.Fitness>
40.5198

> <Gold.PLP.PLP>
-33.2278

> <Gold.PLP.part.hbond>
-3.2230

> <Gold.PLP.part.metal>
0.0000

> <Gold.PLP.part.buried>
-1.0311

> <Gold.PLP.part.nonpolar>
-28.4891

> <Gold.PLP.part.repulsive>
0.1669

> <Gold.PLP.ligand.clash>
0.0000

> <Gold.PLP.ligand.torsion>
0.9582

> <Gold.PLP.Chemscore.Hbond>
3.0663

> <Gold.PLP.Chemscore.CHOScore>
0.0000

> <Gold.PLP.Chemscore.Metal>
0.0000

> <Gold.Chemscore.Hbonds>
donor molecule, donor type, donor heavy atom, donor atom, acceptor molecule, acceptor atom, score
      P1  H  7989  7998       L1    19  1.00
      P1  H  7997  8008       L1     6  2.00
      P1  H  7997  8009       L1     8  0.06

> <Gold.PLP.Chemscore.Internal.Correction>
0.0095

> <Gold.Rescore>
     Score         DG    S(hbond)    S(metal)    S(lipo)     H(rot)  DE(clash)    DE(int)     intcor
     10.45     -15.60       1.15        0.00      82.27       1.31       0.41       4.74       ----

> <Gold.Chemscore.Fitness>
10.4500

> <Gold.Chemscore.DG>
-15.5961

> <Gold.Chemscore.ZeroCoef>
-5.4800

> <Gold.Chemscore.Hbond>
1.1474

> <Gold.Chemscore.Metal>
0.0000

> <Gold.Chemscore.Lipo>
82.2650

> <Gold.Chemscore.Internal_Hbond>
0.0000

> <Gold.Chemscore.DEClash>
0.4056

> <Gold.Chemscore.DEInternal>
4.7406

> <Gold.Chemscore.Rot>
1.3051

> <Gold.Chemscore.Internal.Correction>
   9.000000E+99

> <Gold.Chemscore.Hbonds>
donor molecule, donor type, donor heavy atom, donor atom, acceptor molecule, acceptor atom, score
      P1  H  7989  7998       L1    19  0.34
      P1  H  7997  8008       L1     6  0.15
      P1  H  7997  8009       L1     8  0.03

> <Gold.Chemscore.Hbond.Weighted>
-3.8323

> <Gold.Chemscore.Metal.Weighted>
-0.0000

> <Gold.Chemscore.Lipo.Weighted>
-9.6250

> <Gold.Chemscore.Internal_Hbond.Weighted>
0.0000

> <Gold.Chemscore.DEClash.Weighted>
0.4056

> <Gold.Chemscore.DEInternal.Weighted>
4.7406

> <Gold.Chemscore.Rot.Weighted>
3.3412

> <Gold.Chemscore.Internal.Correction.Weighted>
   9.000000E+99

> <Gold.Protein.RotatedTorsions>
[ 6907 6896 6895 6894 ] final   65.88 input  -60.11 | X-H torsion
[ 7974 7965 7964 7962 ] final  132.83 input  175.53 | X-H torsion
[ 8008 7997 7996 7995 ] final -103.87 input   59.86 | X-H torsion
[ 10167 10162 10161 10158 ] final -103.71 input  -65.29 | X-H torsion
[ 10718 10713 10712 10709 ] final  126.55 input   66.30 | X-H torsion
[ 10763 10752 10751 10750 ] final  -24.94 input  -60.55 | X-H torsion
[ 11005 11000 10999 10996 ] final  -27.94 input  -57.11 | X-H torsion

> <Gold.Protein.ActiveResidues>
 VAL166  LYS551  ARG553  GLY616  TRP617  ASP618  TYR619  PRO620  LYS621  CYS622 
 ASP623  PHE694  ASN695  SER759  ASP760  ASP761  ALA762  ILE779  LEU786  VAL792 
 PHE793  MET794  SER795  GLU796  ALA797  LYS798  CYS799  TRP800  GLU811  SER814 

> <Gold.Protein.RotatedAtoms>
  152.4440  134.5533  159.9872 H   0  0  0  0  0  0  0  0  0  0  0  0  # atno 6907 bound_to 6896
  151.5623  133.3396  159.2981 H   0  0  0  0  0  0  0  0  0  0  0  0  # atno 6908 bound_to 6896
  150.8352  134.7655  159.6950 H   0  0  0  0  0  0  0  0  0  0  0  0  # atno 6909 bound_to 6896
  144.9928  139.4390  143.5331 H   0  0  0  0  0  0  0  0  0  0  0  0  # atno 7974 bound_to 7965
  154.8771  140.0420  157.1760 H   0  0  0  0  0  0  0  0  0  0  0  0  # atno 8008 bound_to 7997
  154.8678  140.2954  155.5479 H   0  0  0  0  0  0  0  0  0  0  0  0  # atno 8009 bound_to 7997
  156.2999  140.2435  156.3662 H   0  0  0  0  0  0  0  0  0  0  0  0  # atno 8010 bound_to 7997
  140.2171  143.3703  152.1001 H   0  0  0  0  0  0  0  0  0  0  0  0  # atno 10167 bound_to 10162
  157.5409  131.1097  150.8860 H   0  0  0  0  0  0  0  0  0  0  0  0  # atno 10718 bound_to 10713
  153.6919  135.6961  153.5087 H   0  0  0  0  0  0  0  0  0  0  0  0  # atno 10763 bound_to 10752
  153.2407  135.4307  155.0693 H   0  0  0  0  0  0  0  0  0  0  0  0  # atno 10764 bound_to 10752
  154.8370  135.3507  154.6460 H   0  0  0  0  0  0  0  0  0  0  0  0  # atno 10765 bound_to 10752
  140.9164  133.7427  156.0741 H   0  0  0  0  0  0  0  0  0  0  0  0  # atno 11005 bound_to 11000
  146.3435  139.9269  142.8759 LP  0  0  0  0  0  0  0  0  0  0  0  0  # atno 17320 bound_to 7965
  145.2262  140.9955  143.4017 LP  0  0  0  0  0  0  0  0  0  0  0  0  # atno 17321 bound_to 7965
  139.5158  144.6968  151.5607 LP  0  0  0  0  0  0  0  0  0  0  0  0  # atno 17342 bound_to 10162
  140.6282  143.9128  150.6582 LP  0  0  0  0  0  0  0  0  0  0  0  0  # atno 17343 bound_to 10162
  156.9413  130.5386  149.5280 LP  0  0  0  0  0  0  0  0  0  0  0  0  # atno 17370 bound_to 10713
  156.0496  130.5567  150.8959 LP  0  0  0  0  0  0  0  0  0  0  0  0  # atno 17371 bound_to 10713
  140.8044  134.3471  157.5430 LP  0  0  0  0  0  0  0  0  0  0  0  0  # atno 17394 bound_to 11000
  139.8767  134.9217  156.3282 LP  0  0  0  0  0  0  0  0  0  0  0  0  # atno 17395 bound_to 11000

$$$$
