AV-unprocessed.smi:377|AV-procd|sdf|2456|dock5
  -GOLD-   2262022393D 1   1.00000     0.00000
 Structure written by MMmdl.
 33 34  0  0  0  0  0  0  0  0  1 V2000
  149.5308  133.6240  154.2918 C   0  0  0  0  0  0  0  0  0  0  0  0
  149.5267  134.7650  155.3177 C   0  0  0  0  0  0  0  0  0  0  0  0
  150.0615  135.9971  154.7506 N   0  0  0  0  0  0  0  0  0  0  0  0
  151.0977  136.6897  155.2466 C   0  0  0  0  0  0  0  0  0  0  0  0
  151.7145  136.3479  156.2572 O   0  0  0  0  0  0  0  0  0  0  0  0
  151.4855  137.9577  154.4698 C   0  0  0  0  0  0  0  0  0  0  0  0
  150.8568  139.1900  154.9945 N   0  0  0  0  0  0  0  0  0  0  0  0
  149.6300  139.6217  154.4282 C   0  0  0  0  0  0  0  0  0  0  0  0
  149.0794  138.9735  153.5365 O   0  0  0  0  0  0  0  0  0  0  0  0
  149.0961  140.8723  154.9627 C   0  0  0  0  0  0  0  0  0  0  0  0
  147.8807  141.3558  154.3967 C   0  0  0  0  0  0  0  0  0  0  0  0
  146.9047  141.7709  153.9333 N   0  0  0  0  0  0  0  0  0  0  0  0
  149.7365  141.5373  155.9461 C   0  0  0  0  0  0  0  0  0  0  0  0
  150.9073  141.0794  156.5103 N   0  0  0  0  0  0  0  0  0  0  0  0
  151.6548  141.8775  157.4406 C   0  0  0  0  0  0  0  0  0  0  0  0
  151.9518  141.3477  158.8300 C   0  0  0  0  0  0  0  0  0  0  0  0
  150.9479  142.4592  158.6458 C   0  0  0  0  0  0  0  0  0  0  0  0
  151.5279  139.9144  156.0095 C   0  0  0  0  0  0  0  0  0  0  0  0
  152.6254  139.5435  156.4340 O   0  0  0  0  0  0  0  0  0  0  0  0
  149.0937  132.7204  154.7169 H   0  0  0  0  0  0  0  0  0  0  0  0
  150.5443  133.3817  153.9701 H   0  0  0  0  0  0  0  0  0  0  0  0
  148.9519  133.8885  153.4064 H   0  0  0  0  0  0  0  0  0  0  0  0
  148.5057  134.9585  155.6473 H   0  0  0  0  0  0  0  0  0  0  0  0
  150.0908  134.4799  156.2071 H   0  0  0  0  0  0  0  0  0  0  0  0
  149.6110  136.3488  153.9182 H   0  0  0  0  0  0  0  0  0  0  0  0
  152.5732  138.0440  154.4713 H   0  0  0  0  0  0  0  0  0  0  0  0
  151.2347  137.8096  153.4181 H   0  0  0  0  0  0  0  0  0  0  0  0
  149.3146  142.4627  156.3116 H   0  0  0  0  0  0  0  0  0  0  0  0
  152.4287  142.5024  156.9981 H   0  0  0  0  0  0  0  0  0  0  0  0
  151.5632  140.3682  159.1019 H   0  0  0  0  0  0  0  0  0  0  0  0
  152.9138  141.6049  159.2682 H   0  0  0  0  0  0  0  0  0  0  0  0
  151.2399  143.4575  158.9654 H   0  0  0  0  0  0  0  0  0  0  0  0
  149.8987  142.2115  158.7949 H   0  0  0  0  0  0  0  0  0  0  0  0
  1  2  1  0  0  0  0
  1 20  1  0  0  0  0
  1 21  1  0  0  0  0
  1 22  1  0  0  0  0
  2  3  1  0  0  0  0
  2 23  1  0  0  0  0
  2 24  1  0  0  0  0
  3  4  1  0  0  0  0
  3 25  1  0  0  0  0
  4  5  2  0  0  0  0
  4  6  1  0  0  0  0
  6  7  1  0  0  0  0
  6 26  1  0  0  0  0
  6 27  1  0  0  0  0
  7 18  1  0  0  0  0
  7  8  1  0  0  0  0
  8  9  2  0  0  0  0
  8 10  1  0  0  0  0
 10 11  1  0  0  0  0
 10 13  2  0  0  0  0
 11 12  3  0  0  0  0
 13 14  1  0  0  0  0
 13 28  1  0  0  0  0
 14 15  1  0  0  0  0
 14 18  1  0  0  0  0
 15 17  1  0  0  0  0
 15 16  1  0  0  0  0
 15 29  1  0  0  0  0
 16 17  1  0  0  0  0
 16 30  1  0  0  0  0
 16 31  1  0  0  0  0
 17 32  1  0  0  0  0
 17 33  1  0  0  0  0
 18 19  2  0  0  0  0
M  END
> <s_m_source_file>
AV-unprocessed.smi

> <i_m_source_file_index>
377

> <i_lp_mmshare_version>
43012

> <i_f3d_flags>
0

> <s_epik_input>
W0NIM11bQ0gyXVtOSF1DKD1PKVtDSDJdbjFjKD1PKWMoQyNOKVtjSF1uKGMxPU8pW0NIXTJbQ0gyXVtDSDJdMg==

> <s_epik_cmdline>
J2VwaWtfcHl0aG9uJywgJy1waCcsICc3LjAnLCAnLXRuJywgJzgnLCAnLW1hJywgJzIwMCcsICctbWV0YWxfYmluZGluZycsICctaW1hZScsICc8aW5maWxlLm1hZT4nLCAnLW9tYWUnLCAnPG91dGZpbGUubWFlPic=

> <r_lp_tautomer_probability>
1

> <r_epik_Ionization_Penalty>
1.81858e-08

> <r_epik_Ionization_Penalty_Charging>
8.22213e-11

> <r_epik_Ionization_Penalty_Neutral>
1.81036e-08

> <r_epik_State_Penalty>
-0

> <r_epik_Charging_Adjusted_Penalty>
8.22213e-11

> <i_epik_Tot_Q>
0

> <i_epik_Tot_abs_Q>
0

> <r_epik_Metal_State_Penalty>
-0

> <b_epik_Metal_Only>
0

> <s_lp_Force_Field>
OPLS_2005

> <r_lp_Energy>
28.0616

> <b_lp_Chiralities_Consistent>
1

> <s_lp_Variant>
AV-unprocessed.smi:377-1

> <Gold.Version>
5.8.1

> <Gold.Id.Protein>
6NUR|6NUR_protein|mol2

> <Gold.PLP.Fitness>
43.9938

> <Gold.PLP.PLP>
-33.6645

> <Gold.PLP.part.hbond>
-3.0962

> <Gold.PLP.part.metal>
0.0000

> <Gold.PLP.part.buried>
-6.1789

> <Gold.PLP.part.nonpolar>
-28.6732

> <Gold.PLP.part.repulsive>
3.7497

> <Gold.PLP.ligand.clash>
0.0000

> <Gold.PLP.ligand.torsion>
0.9287

> <Gold.PLP.Chemscore.Hbond>
2.9920

> <Gold.PLP.Chemscore.CHOScore>
1.0000

> <Gold.PLP.Chemscore.Metal>
0.0000

> <Gold.Chemscore.Hbonds>
donor molecule, donor type, donor heavy atom, donor atom, acceptor molecule, acceptor atom, score
      L1  H     3    25       P1  7948  0.75
      P1  H  7997  8008       L1    19  1.00
      P1  H 10752 10763       L1     5  0.58
      L1  C    13    28       P1  8028  1.00

> <Gold.PLP.Chemscore.Internal.Correction>
0.2107

> <Gold.Rescore>
     Score         DG    S(hbond)    S(metal)    S(lipo)     H(rot)  DE(clash)    DE(int)     intcor
     13.20     -14.45       2.34        0.00      51.35       1.89       0.26       0.99       ----

> <Gold.Chemscore.Fitness>
13.2027

> <Gold.Chemscore.DG>
-14.4482

> <Gold.Chemscore.ZeroCoef>
-5.4800

> <Gold.Chemscore.Hbond>
2.3357

> <Gold.Chemscore.Metal>
0.0000

> <Gold.Chemscore.Lipo>
51.3473

> <Gold.Chemscore.Internal_Hbond>
0.0000

> <Gold.Chemscore.DEClash>
0.2579

> <Gold.Chemscore.DEInternal>
0.9876

> <Gold.Chemscore.Rot>
1.8908

> <Gold.Chemscore.Internal.Correction>
   9.000000E+99

> <Gold.Chemscore.Hbonds>
donor molecule, donor type, donor heavy atom, donor atom, acceptor molecule, acceptor atom, score
      L1  H     3    25       P1  7948  0.47
      P1  H  7997  8008       L1    19  1.00
      P1  H 10752 10763       L1     5  0.06

> <Gold.Chemscore.Hbond.Weighted>
-7.8011

> <Gold.Chemscore.Metal.Weighted>
-0.0000

> <Gold.Chemscore.Lipo.Weighted>
-6.0076

> <Gold.Chemscore.Internal_Hbond.Weighted>
0.0000

> <Gold.Chemscore.DEClash.Weighted>
0.2579

> <Gold.Chemscore.DEInternal.Weighted>
0.9876

> <Gold.Chemscore.Rot.Weighted>
4.8406

> <Gold.Chemscore.Internal.Correction.Weighted>
   9.000000E+99

> <Gold.Protein.RotatedTorsions>
[ 6907 6896 6895 6894 ] final   11.65 input  -60.11 | X-H torsion
[ 7974 7965 7964 7962 ] final -156.99 input  175.53 | X-H torsion
[ 8008 7997 7996 7995 ] final  -46.30 input   59.86 | X-H torsion
[ 10167 10162 10161 10158 ] final  -77.86 input  -65.29 | X-H torsion
[ 10718 10713 10712 10709 ] final  -95.76 input   66.30 | X-H torsion
[ 10763 10752 10751 10750 ] final  100.38 input  -60.55 | X-H torsion
[ 11005 11000 10999 10996 ] final  142.06 input  -57.11 | X-H torsion

> <Gold.Protein.ActiveResidues>
 VAL166  LYS551  ARG553  GLY616  TRP617  ASP618  TYR619  PRO620  LYS621  CYS622 
 ASP623  PHE694  ASN695  SER759  ASP760  ASP761  ALA762  ILE779  LEU786  VAL792 
 PHE793  MET794  SER795  GLU796  ALA797  LYS798  CYS799  TRP800  GLU811  SER814 

> <Gold.Protein.RotatedAtoms>
  151.7577  135.0817  160.0340 H   0  0  0  0  0  0  0  0  0  0  0  0  # atno 6907 bound_to 6896
  152.3374  133.6023  159.5861 H   0  0  0  0  0  0  0  0  0  0  0  0  # atno 6908 bound_to 6896
  150.7458  133.9691  159.3581 H   0  0  0  0  0  0  0  0  0  0  0  0  # atno 6909 bound_to 6896
  144.7568  140.4032  143.6006 H   0  0  0  0  0  0  0  0  0  0  0  0  # atno 7974 bound_to 7965
  154.4006  140.1375  156.3988 H   0  0  0  0  0  0  0  0  0  0  0  0  # atno 8008 bound_to 7997
  155.7844  140.3480  155.5294 H   0  0  0  0  0  0  0  0  0  0  0  0  # atno 8009 bound_to 7997
  155.8642  140.0961  157.1584 H   0  0  0  0  0  0  0  0  0  0  0  0  # atno 8010 bound_to 7997
  140.4733  143.2421  151.8172 H   0  0  0  0  0  0  0  0  0  0  0  0  # atno 10167 bound_to 10162
  156.0049  130.5123  150.6125 H   0  0  0  0  0  0  0  0  0  0  0  0  # atno 10718 bound_to 10713
  153.3132  135.4081  155.1353 H   0  0  0  0  0  0  0  0  0  0  0  0  # atno 10763 bound_to 10752
  154.8581  135.3569  154.5696 H   0  0  0  0  0  0  0  0  0  0  0  0  # atno 10764 bound_to 10752
  153.6126  135.7067  153.5400 H   0  0  0  0  0  0  0  0  0  0  0  0  # atno 10765 bound_to 10752
  140.0448  134.9286  157.0910 H   0  0  0  0  0  0  0  0  0  0  0  0  # atno 11005 bound_to 11000
  145.6752  139.1607  143.2732 LP  0  0  0  0  0  0  0  0  0  0  0  0  # atno 17320 bound_to 7965
  146.1587  140.6819  142.9287 LP  0  0  0  0  0  0  0  0  0  0  0  0  # atno 17321 bound_to 7965
  139.4822  144.4865  151.9240 LP  0  0  0  0  0  0  0  0  0  0  0  0  # atno 17342 bound_to 10162
  140.3950  144.2567  150.5897 LP  0  0  0  0  0  0  0  0  0  0  0  0  # atno 17343 bound_to 10162
  157.3955  131.0802  151.1356 LP  0  0  0  0  0  0  0  0  0  0  0  0  # atno 17370 bound_to 10713
  157.2034  130.6405  149.5747 LP  0  0  0  0  0  0  0  0  0  0  0  0  # atno 17371 bound_to 10713
  140.4011  134.2082  155.7163 LP  0  0  0  0  0  0  0  0  0  0  0  0  # atno 17394 bound_to 11000
  141.1901  133.8223  157.0930 LP  0  0  0  0  0  0  0  0  0  0  0  0  # atno 17395 bound_to 11000

$$$$
