AV-unprocessed.smi:2462|AV-procd|sdf|9718|dock7
  -GOLD-   2272013353D 1   1.00000     0.00000
 Structure written by MMmdl.
 40 41  0  0  0  0  0  0  0  0  1 V2000
  151.6193  144.2175  160.7027 C   0  0  0  0  0  0  0  0  0  0  0  0
  151.7209  143.2264  159.5566 C   0  0  0  0  0  0  0  0  0  0  0  0
  151.0079  143.5627  158.4030 N   0  0  0  0  0  0  0  0  0  0  0  0
  151.0514  142.7869  157.3699 C   0  0  0  0  0  0  0  0  0  0  0  0
  151.8049  141.5990  157.3653 N   0  0  0  0  0  0  0  0  0  0  0  0
  151.7803  140.8027  156.1209 C   0  0  0  0  0  0  0  0  0  0  0  0
  150.3760  140.2667  155.7083 C   0  0  1  0  0  0  0  0  0  0  0  0
  149.7389  139.8082  156.8866 O   0  0  0  0  0  0  0  0  0  0  0  0
  149.5171  141.4383  155.1728 C   0  0  0  0  0  0  0  0  0  0  0  0
  148.1253  141.0013  154.6805 C   0  0  0  0  0  0  0  0  0  0  0  0
  148.2222  139.8883  153.6232 C   0  0  2  0  0  0  0  0  0  0  0  0
  146.8339  139.4613  153.1263 C   0  0  0  0  0  0  0  0  0  0  0  0
  149.0123  138.6943  154.1854 C   0  0  0  0  0  0  0  0  0  0  0  0
  150.4108  139.1145  154.6719 C   0  0  0  0  0  0  0  0  0  0  0  0
  152.4949  141.1779  158.4652 C   0  0  0  0  0  0  0  0  0  0  0  0
  153.1105  140.1107  158.4764 O   0  0  0  0  0  0  0  0  0  0  0  0
  152.4524  142.0811  159.6268 C   0  0  0  0  0  0  0  0  0  0  0  0
  153.2499  141.6644  160.8564 C   0  0  0  0  0  0  0  0  0  0  0  0
  151.2196  143.7331  161.5940 H   0  0  0  0  0  0  0  0  0  0  0  0
  150.9602  145.0496  160.4515 H   0  0  0  0  0  0  0  0  0  0  0  0
  152.6012  144.6286  160.9383 H   0  0  0  0  0  0  0  0  0  0  0  0
  150.5169  143.0091  156.4447 H   0  0  0  0  0  0  0  0  0  0  0  0
  152.2224  141.3701  155.2995 H   0  0  0  0  0  0  0  0  0  0  0  0
  152.4588  139.9547  156.2327 H   0  0  0  0  0  0  0  0  0  0  0  0
  149.2885  139.0013  156.6893 H   0  0  0  0  0  0  0  0  0  0  0  0
  149.4091  142.2081  155.9385 H   0  0  0  0  0  0  0  0  0  0  0  0
  150.0373  141.9152  154.3408 H   0  0  0  0  0  0  0  0  0  0  0  0
  147.5243  140.6601  155.5246 H   0  0  0  0  0  0  0  0  0  0  0  0
  147.6027  141.8634  154.2648 H   0  0  0  0  0  0  0  0  0  0  0  0
  148.7710  140.2827  152.7665 H   0  0  0  0  0  0  0  0  0  0  0  0
  146.2281  139.0579  153.9383 H   0  0  0  0  0  0  0  0  0  0  0  0
  146.9113  138.6936  152.3557 H   0  0  0  0  0  0  0  0  0  0  0  0
  146.2944  140.3055  152.6962 H   0  0  0  0  0  0  0  0  0  0  0  0
  148.4588  138.2372  155.0068 H   0  0  0  0  0  0  0  0  0  0  0  0
  149.1138  137.9233  153.4209 H   0  0  0  0  0  0  0  0  0  0  0  0
  150.9975  139.4271  153.8074 H   0  0  0  0  0  0  0  0  0  0  0  0
  150.9163  138.2412  155.0858 H   0  0  0  0  0  0  0  0  0  0  0  0
  154.3007  141.5312  160.5959 H   0  0  0  0  0  0  0  0  0  0  0  0
  152.8748  140.7165  161.2440 H   0  0  0  0  0  0  0  0  0  0  0  0
  153.2049  142.3919  161.6653 H   0  0  0  0  0  0  0  0  0  0  0  0
  1  2  1  0  0  0  0
  1 19  1  0  0  0  0
  1 20  1  0  0  0  0
  1 21  1  0  0  0  0
  2 17  2  0  0  0  0
  2  3  1  0  0  0  0
  3  4  2  0  0  0  0
  4  5  1  0  0  0  0
  4 22  1  0  0  0  0
  5  6  1  0  0  0  0
  5 15  1  0  0  0  0
  6  7  1  0  0  0  0
  6 23  1  0  0  0  0
  6 24  1  0  0  0  0
  7 14  1  0  0  0  0
  7  8  1  0  0  0  0
  7  9  1  0  0  0  0
  8 25  1  0  0  0  0
  9 10  1  0  0  0  0
  9 26  1  0  0  0  0
  9 27  1  0  0  0  0
 10 11  1  0  0  0  0
 10 28  1  0  0  0  0
 10 29  1  0  0  0  0
 11 12  1  0  0  0  0
 11 13  1  0  0  0  0
 11 30  1  0  0  0  0
 12 31  1  0  0  0  0
 12 32  1  0  0  0  0
 12 33  1  0  0  0  0
 13 14  1  0  0  0  0
 13 34  1  0  0  0  0
 13 35  1  0  0  0  0
 14 36  1  0  0  0  0
 14 37  1  0  0  0  0
 15 16  2  0  0  0  0
 15 17  1  0  0  0  0
 17 18  1  0  0  0  0
 18 38  1  0  0  0  0
 18 39  1  0  0  0  0
 18 40  1  0  0  0  0
M  END
> <s_m_source_file>
AV-unprocessed.smi

> <i_m_source_file_index>
2462

> <i_lp_mmshare_version>
43012

> <i_f3d_flags>
0

> <s_epik_input>
W0NIM11jMW5bY0hdbihjKD1PKWMxW0NIM10pW0NIMl1bQ0BAXTIoW09IXSlbQ0gyXVtDSDJdW0NAQEhdKFtDSDNdKVtDSDJdW0NIMl0y

> <s_epik_cmdline>
J2VwaWtfcHl0aG9uJywgJy1waCcsICc3LjAnLCAnLXRuJywgJzgnLCAnLW1hJywgJzIwMCcsICctbWV0YWxfYmluZGluZycsICctaW1hZScsICc8aW5maWxlLm1hZT4nLCAnLW9tYWUnLCAnPG91dGZpbGUubWFlPic=

> <r_lp_tautomer_probability>
1

> <r_epik_Ionization_Penalty>
0.000179745

> <r_epik_Ionization_Penalty_Charging>
2.35483e-07

> <r_epik_Ionization_Penalty_Neutral>
0.00017951

> <r_epik_State_Penalty>
-0

> <r_epik_Charging_Adjusted_Penalty>
2.35483e-07

> <i_epik_Tot_Q>
0

> <i_epik_Tot_abs_Q>
0

> <r_epik_Metal_State_Penalty>
-0

> <b_epik_Metal_Only>
0

> <s_lp_Force_Field>
OPLS_2005

> <r_lp_Energy>
24.8563

> <b_lp_Chiralities_Consistent>
1

> <s_lp_Variant>
AV-unprocessed.smi:2462-2

> <Gold.Version>
5.8.1

> <Gold.Id.Protein>
6NUR|6NUR_protein|mol2

> <Gold.PLP.Fitness>
40.1936

> <Gold.PLP.PLP>
-34.5322

> <Gold.PLP.part.hbond>
-1.0000

> <Gold.PLP.part.metal>
0.0000

> <Gold.PLP.part.buried>
-2.5133

> <Gold.PLP.part.nonpolar>
-31.6577

> <Gold.PLP.part.repulsive>
0.1234

> <Gold.PLP.ligand.clash>
0.0014

> <Gold.PLP.ligand.torsion>
0.2004

> <Gold.PLP.Chemscore.Hbond>
1.0000

> <Gold.PLP.Chemscore.CHOScore>
1.0000

> <Gold.PLP.Chemscore.Metal>
0.0000

> <Gold.Chemscore.Hbonds>
donor molecule, donor type, donor heavy atom, donor atom, acceptor molecule, acceptor atom, score
      P1  H  7997  8009       L1    16  0.91
      L1  C     4    22       P1  8028  1.00

> <Gold.PLP.Chemscore.Internal.Correction>
0.0636

> <Gold.Rescore>
     Score         DG    S(hbond)    S(metal)    S(lipo)     H(rot)  DE(clash)    DE(int)     intcor
     14.11     -15.03       0.89        0.00      92.80       1.68       0.51       0.42       ----

> <Gold.Chemscore.Fitness>
14.1094

> <Gold.Chemscore.DG>
-15.0297

> <Gold.Chemscore.ZeroCoef>
-5.4800

> <Gold.Chemscore.Hbond>
0.8927

> <Gold.Chemscore.Metal>
0.0000

> <Gold.Chemscore.Lipo>
92.8050

> <Gold.Chemscore.Internal_Hbond>
0.0000

> <Gold.Chemscore.DEClash>
0.5052

> <Gold.Chemscore.DEInternal>
0.4150

> <Gold.Chemscore.Rot>
1.6758

> <Gold.Chemscore.Internal.Correction>
   9.000000E+99

> <Gold.Chemscore.Hbonds>
donor molecule, donor type, donor heavy atom, donor atom, acceptor molecule, acceptor atom, score
      P1  H  7997  8009       L1    16  0.65

> <Gold.Chemscore.Hbond.Weighted>
-2.9815

> <Gold.Chemscore.Metal.Weighted>
-0.0000

> <Gold.Chemscore.Lipo.Weighted>
-10.8582

> <Gold.Chemscore.Internal_Hbond.Weighted>
0.0000

> <Gold.Chemscore.DEClash.Weighted>
0.5052

> <Gold.Chemscore.DEInternal.Weighted>
0.4150

> <Gold.Chemscore.Rot.Weighted>
4.2899

> <Gold.Chemscore.Internal.Correction.Weighted>
   9.000000E+99

> <Gold.Protein.RotatedTorsions>
[ 6907 6896 6895 6894 ] final  -89.78 input  -60.11 | X-H torsion
[ 7974 7965 7964 7962 ] final -156.23 input  175.53 | X-H torsion
[ 8008 7997 7996 7995 ] final  156.78 input   59.86 | X-H torsion
[ 10167 10162 10161 10158 ] final -140.76 input  -65.29 | X-H torsion
[ 10718 10713 10712 10709 ] final -111.77 input   66.30 | X-H torsion
[ 10763 10752 10751 10750 ] final  -69.69 input  -60.55 | X-H torsion
[ 11005 11000 10999 10996 ] final   10.50 input  -57.11 | X-H torsion

> <Gold.Protein.ActiveResidues>
 VAL166  LYS551  ARG553  GLY616  TRP617  ASP618  TYR619  PRO620  LYS621  CYS622 
 ASP623  PHE694  ASN695  SER759  ASP760  ASP761  ALA762  ILE779  LEU786  VAL792 
 PHE793  MET794  SER795  GLU796  ALA797  LYS798  CYS799  TRP800  GLU811  SER814 

> <Gold.Protein.RotatedAtoms>
  150.6876  134.2533  159.4519 H   0  0  0  0  0  0  0  0  0  0  0  0  # atno 6907 bound_to 6896
  152.0469  134.9675  160.0583 H   0  0  0  0  0  0  0  0  0  0  0  0  # atno 6908 bound_to 6896
  152.1154  133.4289  159.4687 H   0  0  0  0  0  0  0  0  0  0  0  0  # atno 6909 bound_to 6896
  144.7603  140.4139  143.5982 H   0  0  0  0  0  0  0  0  0  0  0  0  # atno 7974 bound_to 7965
  156.2403  140.1903  156.7007 H   0  0  0  0  0  0  0  0  0  0  0  0  # atno 8008 bound_to 7997
  154.6184  140.0612  156.9610 H   0  0  0  0  0  0  0  0  0  0  0  0  # atno 8009 bound_to 7997
  155.1902  140.3284  155.4362 H   0  0  0  0  0  0  0  0  0  0  0  0  # atno 8010 bound_to 7997
  139.8250  143.7523  152.2666 H   0  0  0  0  0  0  0  0  0  0  0  0  # atno 10167 bound_to 10162
  156.0666  130.5885  150.8419 H   0  0  0  0  0  0  0  0  0  0  0  0  # atno 10718 bound_to 10713
  154.4070  135.6018  153.5930 H   0  0  0  0  0  0  0  0  0  0  0  0  # atno 10763 bound_to 10752
  152.9789  135.5920  154.4116 H   0  0  0  0  0  0  0  0  0  0  0  0  # atno 10764 bound_to 10752
  154.3923  135.2842  155.2125 H   0  0  0  0  0  0  0  0  0  0  0  0  # atno 10765 bound_to 10752
  140.5138  134.0626  155.7825 H   0  0  0  0  0  0  0  0  0  0  0  0  # atno 11005 bound_to 11000
  145.6642  139.1587  143.2791 LP  0  0  0  0  0  0  0  0  0  0  0  0  # atno 17320 bound_to 7965
  146.1658  140.6720  142.9256 LP  0  0  0  0  0  0  0  0  0  0  0  0  # atno 17321 bound_to 7965
  139.7713  144.7475  151.0221 LP  0  0  0  0  0  0  0  0  0  0  0  0  # atno 17342 bound_to 10162
  140.7811  143.4642  151.0235 LP  0  0  0  0  0  0  0  0  0  0  0  0  # atno 17343 bound_to 10162
  157.5712  131.0946  150.9415 LP  0  0  0  0  0  0  0  0  0  0  0  0  # atno 17370 bound_to 10713
  156.9630  130.5462  149.5287 LP  0  0  0  0  0  0  0  0  0  0  0  0  # atno 17371 bound_to 10713
  141.1371  133.9203  157.2409 LP  0  0  0  0  0  0  0  0  0  0  0  0  # atno 17394 bound_to 11000
  139.9644  135.0146  156.9347 LP  0  0  0  0  0  0  0  0  0  0  0  0  # atno 17395 bound_to 11000

$$$$
