#       Name:                AV-unprocessed.smi:2693
#       Creating user name   scv26
#       Creation time:       Fri Mar 27 14:43:16 2020


#       File generated by GOLD software.
#

@<TRIPOS>MOLECULE
AV-unprocessed.smi:2693
    51    53     1
SMALL
NO_CHARGES


@<TRIPOS>ATOM
      1 ****        -6.8306  -1.8738   0.7920 C.3            1 S1                 0.0000
      2 ****        -6.1333  -1.0163  -0.1617 N.pl3          1 S1                 0.0000
      3 ****        -6.9451  -0.2817  -1.1277 C.3            1 S1                 0.0000
      4 ****        -4.7397  -0.9063  -0.1537 C.ar           1 S1                 0.0000
      5 ****        -4.0665  -1.6560   0.7291 N.ar           1 S1                 0.0000
      6 ****        -2.7209  -1.5545   0.7386 C.ar           1 S1                 0.0000
      7 ****        -2.0307  -0.6908  -0.1350 C.ar           1 S1                 0.0000
      8 ****        -0.6119  -0.6477  -0.0835 N.am           1 S1                 0.0000
      9 ****         0.2116   0.2908  -0.5792 C.2            1 S1                 0.0000
     10 ****        -0.1437   1.3258  -1.1419 O.2            1 S1                 0.0000
     11 ****         1.4939  -0.0269  -0.3600 N.am           1 S1                 0.0000
     12 ****         2.6359   0.8048  -0.7546 C.3            1 S1                 0.0000
     13 ****         3.9661   0.0512  -0.6829 C.3            1 S1                 0.0000
     14 ****         4.3810  -1.3746  -0.6295 C.3            1 S1                 0.0000
     15 ****         5.5004  -1.2095   0.4342 C.3            1 S1                 0.0000
     16 ****         5.3612   0.1374   0.9557 O.3            1 S1                 0.0000
     17 ****         3.9885   0.4291   0.7839 C.3            1 S1                 0.0000
     18 ****         3.2363   1.7190   0.3863 C.3            1 S1                 0.0000
     19 ****         4.0889   2.9237  -0.0512 C.3            1 S1                 0.0000
     20 ****         2.2574   2.2601   1.4344 C.3            1 S1                 0.0000
     21 ****        -2.8371   0.0492  -1.0322 C.ar           1 S1                 0.0000
     22 ****        -4.1825  -0.0634  -1.0330 N.ar           1 S1                 0.0000
     23 ****        -6.5820  -2.9198   0.6120 H              1 S1                 0.0000
     24 ****        -7.9129  -1.7687   0.7178 H              1 S1                 0.0000
     25 ****        -6.5447  -1.6219   1.8136 H              1 S1                 0.0000
     26 ****        -6.6081  -0.4851  -2.1446 H              1 S1                 0.0000
     27 ****        -6.8694   0.7909  -0.9478 H              1 S1                 0.0000
     28 ****        -7.9976  -0.5591  -1.0687 H              1 S1                 0.0000
     29 ****        -2.1924  -2.1685   1.4530 H              1 S1                 0.0000
     30 ****        -0.1734  -1.4017   0.4250 H              1 S1                 0.0000
     31 ****         1.6999  -0.8936   0.1144 H              1 S1                 0.0000
     32 ****         2.4980   1.3284  -1.7022 H              1 S1                 0.0000
     33 ****         4.7021   0.6027  -1.2730 H              1 S1                 0.0000
     34 ****         3.5786  -2.0266  -0.2824 H              1 S1                 0.0000
     35 ****         4.7582  -1.7441  -1.5834 H              1 S1                 0.0000
     36 ****         5.3853  -1.9410   1.2351 H              1 S1                 0.0000
     37 ****         6.4940  -1.3331   0.0028 H              1 S1                 0.0000
     38 ****         3.3801  -0.2203   1.4220 H              1 S1                 0.0000
     39 ****         4.6689   3.3199   0.7829 H              1 S1                 0.0000
     40 ****         3.4632   3.7348  -0.4254 H              1 S1                 0.0000
     41 ****         4.7994   2.6909  -0.8423 H              1 S1                 0.0000
     42 ****         2.7772   2.7866   2.2356 H              1 S1                 0.0000
     43 ****         1.6808   1.4644   1.9063 H              1 S1                 0.0000
     44 ****         1.5442   2.9553   0.9907 H              1 S1                 0.0000
     45 ****        -2.4275   0.7200  -1.7708 H              1 S1                 0.0000
     46 ****        -4.5441  -2.2690   1.3586 LP             1 S1                 0.0000
     47 ****        -1.1172   1.5219  -1.2600 LP             1 S1                 0.0000
     48 ****         0.5410   1.9709  -1.4811 LP             1 S1                 0.0000
     49 ****         5.9285   0.7791   0.4395 LP             1 S1                 0.0000
     50 ****         5.6139   0.1723   1.9226 LP             1 S1                 0.0000
     51 ****        -4.7446   0.4651  -1.6691 LP             1 S1                 0.0000
@<TRIPOS>BOND
    1    1    2 1     
    2    1   23 1     
    3    1   24 1     
    4    1   25 1     
    5    2    3 1     
    6    2    4 1     
    7    3   26 1     
    8    3   27 1     
    9    3   28 1     
   10    4   22 ar    
   11    4    5 ar    
   12    5    6 ar    
   13    6    7 ar    
   14    6   29 1     
   15    7    8 1     
   16    7   21 ar    
   17    8    9 am    
   18    8   30 1     
   19    9   10 2     
   20    9   11 am    
   21   11   12 1     
   22   11   31 1     
   23   12   18 1     
   24   12   13 1     
   25   12   32 1     
   26   13   17 1     
   27   13   14 1     
   28   13   33 1     
   29   14   15 1     
   30   14   34 1     
   31   14   35 1     
   32   15   16 1     
   33   15   36 1     
   34   15   37 1     
   35   16   17 1     
   36   17   18 1     
   37   17   38 1     
   38   18   19 1     
   39   18   20 1     
   40   19   39 1     
   41   19   40 1     
   42   19   41 1     
   43   20   42 1     
   44   20   43 1     
   45   20   44 1     
   46   21   22 ar    
   47   21   45 1     
   48    5   46 1     
   49   10   47 1     
   50   10   48 1     
   51   16   49 1     
   52   16   50 1     
   53   22   51 1     
@<TRIPOS>SUBSTRUCTURE
      1 S1             1
@<TRIPOS>SET
LONE_PAIRS      STATIC     ATOMS    <user>   **** ""
6 46 47 48 49 50 51
DONOR_HYDROGENS      STATIC     ATOMS    <user>   **** ""
2 30 31
ATOM$BLUE        STATIC     ATOMS    COLORGROUP SYSTEM
6 46 47 48 49 50 51
ATOM$RED        STATIC     ATOMS    COLORGROUP SYSTEM
2 30 31
