AV-unprocessed.smi:2556|AV-procd|sdf|10025|dock8
  -GOLD-   2272014 73D 1   1.00000     0.00000
 Structure written by MMmdl.
 34 36  0  0  0  0  0  0  0  0  2 V2000
  152.2164  143.9419  161.2605 C   0  0  0  0  0  0  0  0  0  0  0  0
  152.5352  142.7437  160.4792 N   0  0  0  0  0  0  0  0  0  0  0  0
  153.4228  141.8110  160.9498 C   0  0  0  0  0  0  0  0  0  0  0  0
  153.9488  142.0060  162.0465 O   0  0  0  0  0  0  0  0  0  0  0  0
  153.7047  140.6909  160.1970 N   0  5  0  0  0  0  0  0  0  0  0  0
  153.1707  140.3878  158.9714 C   0  0  0  0  0  0  0  0  0  0  0  0
  153.4074  139.3922  158.2901 O   0  0  0  0  0  0  0  0  0  0  0  0
  152.2251  141.4251  158.5064 C   0  0  0  0  0  0  0  0  0  0  0  0
  151.9147  142.5467  159.2149 C   0  0  0  0  0  0  0  0  0  0  0  0
  150.9950  143.3391  158.5360 N   0  0  0  0  0  0  0  0  0  0  0  0
  150.7912  142.6355  157.4230 C   0  0  0  0  0  0  0  0  0  0  0  0
  151.4829  141.4826  157.3249 N   0  0  0  0  0  0  0  0  0  0  0  0
  151.4223  140.5478  156.2102 C   0  0  0  0  0  0  0  0  0  0  0  0
  150.1853  139.6280  156.2682 C   0  0  2  0  0  0  0  0  0  0  0  0
  150.5653  138.2727  156.1283 O   0  0  0  0  0  0  0  0  0  0  0  0
  149.1458  140.0374  155.2369 C   0  0  0  0  0  0  0  0  0  0  0  0
  148.5811  139.0709  154.3770 C   0  0  0  0  0  0  0  0  0  0  0  0
  147.6147  139.4475  153.4237 C   0  0  0  0  0  0  0  0  0  0  0  0
  147.2063  140.7916  153.3264 C   0  0  0  0  0  0  0  0  0  0  0  0
  147.7633  141.7594  154.1842 C   0  0  0  0  0  0  0  0  0  0  0  0
  148.7292  141.3834  155.1377 C   0  0  0  0  0  0  0  0  0  0  0  0
  151.7884  143.6662  162.2253 H   0  0  0  0  0  0  0  0  0  0  0  0
  151.4997  144.5923  160.7603 H   0  0  0  0  0  0  0  0  0  0  0  0
  153.1170  144.5296  161.4426 H   0  0  0  0  0  0  0  0  0  0  0  0
  150.1129  142.9692  156.6516 H   0  0  0  0  0  0  0  0  0  0  0  0
  151.4014  141.1284  155.2868 H   0  0  0  0  0  0  0  0  0  0  0  0
  152.3428  139.9678  156.1696 H   0  0  0  0  0  0  0  0  0  0  0  0
  149.7365  139.7171  157.2584 H   0  0  0  0  0  0  0  0  0  0  0  0
  150.5954  137.8786  156.9863 H   0  0  0  0  0  0  0  0  0  0  0  0
  148.8858  138.0368  154.4452 H   0  0  0  0  0  0  0  0  0  0  0  0
  147.1858  138.7047  152.7676 H   0  0  0  0  0  0  0  0  0  0  0  0
  146.4652  141.0797  152.5956 H   0  0  0  0  0  0  0  0  0  0  0  0
  147.4495  142.7904  154.1125 H   0  0  0  0  0  0  0  0  0  0  0  0
  149.1488  142.1309  155.7955 H   0  0  0  0  0  0  0  0  0  0  0  0
  1  2  1  0  0  0  0
  1 22  1  0  0  0  0
  1 23  1  0  0  0  0
  1 24  1  0  0  0  0
  2  9  1  0  0  0  0
  2  3  1  0  0  0  0
  3  4  2  0  0  0  0
  3  5  1  0  0  0  0
  5  6  1  0  0  0  0
  6  7  2  0  0  0  0
  6  8  1  0  0  0  0
  8 12  1  0  0  0  0
  8  9  2  0  0  0  0
  9 10  1  0  0  0  0
 10 11  2  0  0  0  0
 11 12  1  0  0  0  0
 11 25  1  0  0  0  0
 12 13  1  0  0  0  0
 13 14  1  0  0  0  0
 13 26  1  0  0  0  0
 13 27  1  0  0  0  0
 14 15  1  0  0  0  0
 14 16  1  0  0  0  0
 14 28  1  0  0  0  0
 15 29  1  0  0  0  0
 16 21  1  0  0  0  0
 16 17  2  0  0  0  0
 17 18  1  0  0  0  0
 17 30  1  0  0  0  0
 18 19  2  0  0  0  0
 18 31  1  0  0  0  0
 19 20  1  0  0  0  0
 19 32  1  0  0  0  0
 20 21  2  0  0  0  0
 20 33  1  0  0  0  0
 21 34  1  0  0  0  0
M  CHG  1   5  -1
M  END
> <s_m_source_file>
AV-unprocessed.smi

> <i_m_source_file_index>
2556

> <i_lp_mmshare_version>
43012

> <i_f3d_flags>
0

> <s_epik_input>
Tz1jMVtuSF1jKD1PKW4oW0NIM10pYyhjMTIpbltjSF1uMltDSDJdW0NASF0oW09IXSljM1tjSF1bY0hdW2NIXVtjSF1bY0hdMw==

> <s_epik_cmdline>
J2VwaWtfcHl0aG9uJywgJy1waCcsICc3LjAnLCAnLXRuJywgJzgnLCAnLW1hJywgJzIwMCcsICctbWV0YWxfYmluZGluZycsICctaW1hZScsICc8aW5maWxlLm1hZT4nLCAnLW9tYWUnLCAnPG91dGZpbGUubWFlPic=

> <r_lp_tautomer_probability>
1

> <r_epik_Ionization_Penalty>
4.84872

> <r_epik_Ionization_Penalty_Charging>
0.03865

> <r_epik_Ionization_Penalty_Neutral>
4.81007

> <r_epik_State_Penalty>
4.80988

> <r_epik_Charging_Adjusted_Penalty>
4.84853

> <i_epik_Tot_Q>
-1

> <i_epik_Tot_abs_Q>
1

> <r_epik_Metal_State_Penalty>
0.994041

> <b_epik_Metal_Only>
1

> <s_lp_Force_Field>
OPLS_2005

> <r_lp_Energy>
33.4055

> <b_lp_Chiralities_Consistent>
1

> <s_lp_Variant>
AV-unprocessed.smi:2556-3

> <Gold.Version>
5.8.1

> <Gold.Id.Protein>
6NUR|6NUR_protein|mol2

> <Gold.PLP.Fitness>
44.6652

> <Gold.PLP.PLP>
-40.8283

> <Gold.PLP.part.hbond>
-1.9088

> <Gold.PLP.part.metal>
0.0000

> <Gold.PLP.part.buried>
-4.1438

> <Gold.PLP.part.nonpolar>
-35.0816

> <Gold.PLP.part.repulsive>
0.1153

> <Gold.PLP.ligand.clash>
0.0000

> <Gold.PLP.ligand.torsion>
1.0957

> <Gold.PLP.Chemscore.Hbond>
1.0000

> <Gold.PLP.Chemscore.CHOScore>
1.0000

> <Gold.PLP.Chemscore.Metal>
0.0000

> <Gold.Chemscore.Hbonds>
donor molecule, donor type, donor heavy atom, donor atom, acceptor molecule, acceptor atom, score
      P1  H  7997  8008       L1     7  1.00
      L1  C    11    25       P1  8028  1.00

> <Gold.PLP.Chemscore.Internal.Correction>
0.0284

> <Gold.Rescore>
     Score         DG    S(hbond)    S(metal)    S(lipo)     H(rot)  DE(clash)    DE(int)     intcor
      9.60     -10.75       0.95        0.00      67.72       2.28       0.06       1.09       ----

> <Gold.Chemscore.Fitness>
9.5965

> <Gold.Chemscore.DG>
-10.7489

> <Gold.Chemscore.ZeroCoef>
-5.4800

> <Gold.Chemscore.Hbond>
0.9546

> <Gold.Chemscore.Metal>
0.0000

> <Gold.Chemscore.Lipo>
67.7234

> <Gold.Chemscore.Internal_Hbond>
0.0000

> <Gold.Chemscore.DEClash>
0.0576

> <Gold.Chemscore.DEInternal>
1.0948

> <Gold.Chemscore.Rot>
2.2824

> <Gold.Chemscore.Internal.Correction>
   9.000000E+99

> <Gold.Chemscore.Hbonds>
donor molecule, donor type, donor heavy atom, donor atom, acceptor molecule, acceptor atom, score
      P1  H  7997  8008       L1     7  0.40

> <Gold.Chemscore.Hbond.Weighted>
-3.1883

> <Gold.Chemscore.Metal.Weighted>
-0.0000

> <Gold.Chemscore.Lipo.Weighted>
-7.9236

> <Gold.Chemscore.Internal_Hbond.Weighted>
0.0000

> <Gold.Chemscore.DEClash.Weighted>
0.0576

> <Gold.Chemscore.DEInternal.Weighted>
1.0948

> <Gold.Chemscore.Rot.Weighted>
5.8431

> <Gold.Chemscore.Internal.Correction.Weighted>
   9.000000E+99

> <Gold.Protein.RotatedTorsions>
[ 6907 6896 6895 6894 ] final  -42.95 input  -60.11 | X-H torsion
[ 7974 7965 7964 7962 ] final   83.52 input  175.53 | X-H torsion
[ 8008 7997 7996 7995 ] final  -86.55 input   59.86 | X-H torsion
[ 10167 10162 10161 10158 ] final  -75.55 input  -65.29 | X-H torsion
[ 10718 10713 10712 10709 ] final  171.05 input   66.30 | X-H torsion
[ 10763 10752 10751 10750 ] final   46.86 input  -60.55 | X-H torsion
[ 11005 11000 10999 10996 ] final  -80.65 input  -57.11 | X-H torsion

> <Gold.Protein.ActiveResidues>
 VAL166  LYS551  ARG553  GLY616  TRP617  ASP618  TYR619  PRO620  LYS621  CYS622 
 ASP623  PHE694  ASN695  SER759  ASP760  ASP761  ALA762  ILE779  LEU786  VAL792 
 PHE793  MET794  SER795  GLU796  ALA797  LYS798  CYS799  TRP800  GLU811  SER814 

> <Gold.Protein.RotatedAtoms>
  150.9494  134.8896  159.7662 H   0  0  0  0  0  0  0  0  0  0  0  0  # atno 6907 bound_to 6896
  152.5113  134.3828  159.9367 H   0  0  0  0  0  0  0  0  0  0  0  0  # atno 6908 bound_to 6896
  151.3845  133.3769  159.2748 H   0  0  0  0  0  0  0  0  0  0  0  0  # atno 6909 bound_to 6896
  145.6108  139.2368  143.2193 H   0  0  0  0  0  0  0  0  0  0  0  0  # atno 7974 bound_to 7965
  154.6531  140.0577  156.9978 H   0  0  0  0  0  0  0  0  0  0  0  0  # atno 8008 bound_to 7997
  155.1341  140.3259  155.4448 H   0  0  0  0  0  0  0  0  0  0  0  0  # atno 8009 bound_to 7997
  156.2585  140.1975  156.6459 H   0  0  0  0  0  0  0  0  0  0  0  0  # atno 8010 bound_to 7997
  140.4933  143.2376  151.7872 H   0  0  0  0  0  0  0  0  0  0  0  0  # atno 10167 bound_to 10162
  156.9992  131.0171  151.2835 H   0  0  0  0  0  0  0  0  0  0  0  0  # atno 10718 bound_to 10713
  152.9806  135.5994  154.3669 H   0  0  0  0  0  0  0  0  0  0  0  0  # atno 10763 bound_to 10752
  154.3345  135.2768  155.2456 H   0  0  0  0  0  0  0  0  0  0  0  0  # atno 10764 bound_to 10752
  154.4565  135.5976  153.6282 H   0  0  0  0  0  0  0  0  0  0  0  0  # atno 10765 bound_to 10752
  141.1667  133.7160  156.8305 H   0  0  0  0  0  0  0  0  0  0  0  0  # atno 11005 bound_to 11000
  146.1506  140.6931  142.9324 LP  0  0  0  0  0  0  0  0  0  0  0  0  # atno 17320 bound_to 7965
  144.7271  140.4557  143.6965 LP  0  0  0  0  0  0  0  0  0  0  0  0  # atno 17321 bound_to 7965
  139.4856  144.4620  151.9529 LP  0  0  0  0  0  0  0  0  0  0  0  0  # atno 17342 bound_to 10162
  140.3708  144.2858  150.5920 LP  0  0  0  0  0  0  0  0  0  0  0  0  # atno 17343 bound_to 10162
  157.5402  130.8115  149.8020 LP  0  0  0  0  0  0  0  0  0  0  0  0  # atno 17370 bound_to 10713
  156.0177  130.3807  150.2058 LP  0  0  0  0  0  0  0  0  0  0  0  0  # atno 17371 bound_to 10713
  140.2054  134.8866  157.3216 LP  0  0  0  0  0  0  0  0  0  0  0  0  # atno 17394 bound_to 11000
  140.2142  134.4101  155.7597 LP  0  0  0  0  0  0  0  0  0  0  0  0  # atno 17395 bound_to 11000

$$$$
