AV-unprocessed.smi:824|AV-procd|sdf|3850|dock10
  -GOLD-   22720 1303D 1   1.00000     0.00000
 Structure written by MMmdl.
 51 52  0  0  0  0  0  0  0  0  2 V2000
  147.6345  139.4442  157.7390 C   0  0  0  0  0  0  0  0  0  0  0  0
  148.3537  138.1349  158.0111 C   0  0  0  0  0  0  0  0  0  0  0  0
  147.8571  137.3891  159.0898 N   0  0  0  0  0  0  0  0  0  0  0  0
  148.4108  136.2603  159.4137 C   0  0  0  0  0  0  0  0  0  0  0  0
  147.9719  135.5066  160.5035 N   0  0  0  0  0  0  0  0  0  0  0  0
  147.2148  136.1402  161.5849 C   0  0  0  0  0  0  0  0  0  0  0  0
  147.2885  135.3122  162.8782 C   0  0  0  0  0  0  0  0  0  0  0  0
  146.8415  133.9865  162.6262 O   0  0  0  0  0  0  0  0  0  0  0  0
  147.6606  133.3393  161.6619 C   0  0  0  0  0  0  0  0  0  0  0  0
  147.5951  134.1041  160.3297 C   0  0  0  0  0  0  0  0  0  0  0  0
  149.4735  135.7225  158.7065 N   0  5  0  0  0  0  0  0  0  0  0  0
  150.0000  136.3864  157.6397 C   0  0  0  0  0  0  0  0  0  0  0  0
  150.9307  135.9241  156.9810 O   0  0  0  0  0  0  0  0  0  0  0  0
  149.4207  137.6942  157.2839 C   0  0  0  0  0  0  0  0  0  0  0  0
  150.0346  138.4714  156.1142 C   0  0  0  0  0  0  0  0  0  0  0  0
  151.3245  139.2455  156.4743 C   0  0  0  0  0  0  0  0  0  0  0  0
  151.0414  140.6515  157.0362 C   0  0  0  0  0  0  0  0  0  0  0  0
  150.4989  141.4631  156.2850 O   0  0  0  0  0  0  0  0  0  0  0  0
  151.3618  140.9601  158.3182 N   0  0  0  0  0  0  0  0  0  0  0  0
  152.1310  140.0734  159.1964 C   0  0  0  0  0  0  0  0  0  0  0  0
  150.9580  142.2464  158.9097 C   0  0  0  0  0  0  0  0  0  0  0  0
  152.1470  143.2209  159.0841 C   0  0  0  0  0  0  0  0  0  0  0  0
  153.0848  142.7407  160.2012 C   0  0  0  0  0  0  0  0  0  0  0  0
  151.6919  144.6667  159.3472 C   0  0  0  0  0  0  0  0  0  0  0  0
  148.3130  140.2888  157.8456 H   0  0  0  0  0  0  0  0  0  0  0  0
  146.8096  139.5930  158.4368 H   0  0  0  0  0  0  0  0  0  0  0  0
  147.2214  139.4519  156.7304 H   0  0  0  0  0  0  0  0  0  0  0  0
  147.5774  137.1480  161.7888 H   0  0  0  0  0  0  0  0  0  0  0  0
  146.1761  136.2416  161.2681 H   0  0  0  0  0  0  0  0  0  0  0  0
  148.3059  135.2984  163.2727 H   0  0  0  0  0  0  0  0  0  0  0  0
  146.6561  135.7589  163.6453 H   0  0  0  0  0  0  0  0  0  0  0  0
  148.6885  133.2753  162.0229 H   0  0  0  0  0  0  0  0  0  0  0  0
  147.3073  132.3174  161.5248 H   0  0  0  0  0  0  0  0  0  0  0  0
  146.5850  134.0569  159.9207 H   0  0  0  0  0  0  0  0  0  0  0  0
  148.2554  133.6217  159.6076 H   0  0  0  0  0  0  0  0  0  0  0  0
  150.2480  137.7709  155.3061 H   0  0  0  0  0  0  0  0  0  0  0  0
  149.3092  139.1669  155.6945 H   0  0  0  0  0  0  0  0  0  0  0  0
  151.9456  138.6428  157.1330 H   0  0  0  0  0  0  0  0  0  0  0  0
  151.9194  139.3705  155.5691 H   0  0  0  0  0  0  0  0  0  0  0  0
  153.1103  139.8598  158.7666 H   0  0  0  0  0  0  0  0  0  0  0  0
  151.6069  139.1313  159.3523 H   0  0  0  0  0  0  0  0  0  0  0  0
  152.2991  140.4997  160.1852 H   0  0  0  0  0  0  0  0  0  0  0  0
  150.1793  142.7226  158.3128 H   0  0  0  0  0  0  0  0  0  0  0  0
  150.4863  142.0657  159.8774 H   0  0  0  0  0  0  0  0  0  0  0  0
  152.7267  143.2245  158.1603 H   0  0  0  0  0  0  0  0  0  0  0  0
  152.5778  142.7279  161.1663 H   0  0  0  0  0  0  0  0  0  0  0  0
  153.9549  143.3915  160.2906 H   0  0  0  0  0  0  0  0  0  0  0  0
  153.4488  141.7323  160.0025 H   0  0  0  0  0  0  0  0  0  0  0  0
  151.1028  144.7375  160.2619 H   0  0  0  0  0  0  0  0  0  0  0  0
  151.0812  145.0490  158.5304 H   0  0  0  0  0  0  0  0  0  0  0  0
  152.5466  145.3363  159.4475 H   0  0  0  0  0  0  0  0  0  0  0  0
  1  2  1  0  0  0  0
  1 25  1  0  0  0  0
  1 26  1  0  0  0  0
  1 27  1  0  0  0  0
  2 14  2  0  0  0  0
  2  3  1  0  0  0  0
  3  4  2  0  0  0  0
  4  5  1  0  0  0  0
  4 11  1  0  0  0  0
  5 10  1  0  0  0  0
  5  6  1  0  0  0  0
  6  7  1  0  0  0  0
  6 28  1  0  0  0  0
  6 29  1  0  0  0  0
  7  8  1  0  0  0  0
  7 30  1  0  0  0  0
  7 31  1  0  0  0  0
  8  9  1  0  0  0  0
  9 10  1  0  0  0  0
  9 32  1  0  0  0  0
  9 33  1  0  0  0  0
 10 34  1  0  0  0  0
 10 35  1  0  0  0  0
 11 12  1  0  0  0  0
 12 13  2  0  0  0  0
 12 14  1  0  0  0  0
 14 15  1  0  0  0  0
 15 16  1  0  0  0  0
 15 36  1  0  0  0  0
 15 37  1  0  0  0  0
 16 17  1  0  0  0  0
 16 38  1  0  0  0  0
 16 39  1  0  0  0  0
 17 18  2  0  0  0  0
 17 19  1  0  0  0  0
 19 20  1  0  0  0  0
 19 21  1  0  0  0  0
 20 40  1  0  0  0  0
 20 41  1  0  0  0  0
 20 42  1  0  0  0  0
 21 22  1  0  0  0  0
 21 43  1  0  0  0  0
 21 44  1  0  0  0  0
 22 23  1  0  0  0  0
 22 24  1  0  0  0  0
 22 45  1  0  0  0  0
 23 46  1  0  0  0  0
 23 47  1  0  0  0  0
 23 48  1  0  0  0  0
 24 49  1  0  0  0  0
 24 50  1  0  0  0  0
 24 51  1  0  0  0  0
M  CHG  1  11  -1
M  END
> <s_m_source_file>
AV-unprocessed.smi

> <i_m_source_file_index>
824

> <i_lp_mmshare_version>
43012

> <i_f3d_flags>
0

> <s_epik_input>
W0NIMl0xW0NIMl1PW0NIMl1bQ0gyXU4xYyhuYzJbQ0gzXSlbbkhdYyg9TyljMltDSDJdW0NIMl1DKD1PKU4oW0NIM10pW0NIMl1bQ0hdKFtDSDNdKVtDSDNd

> <s_epik_cmdline>
J2VwaWtfcHl0aG9uJywgJy1waCcsICc3LjAnLCAnLXRuJywgJzgnLCAnLW1hJywgJzIwMCcsICctbWV0YWxfYmluZGluZycsICctaW1hZScsICc8aW5maWxlLm1hZT4nLCAnLW9tYWUnLCAnPG91dGZpbGUubWFlPic=

> <r_lp_tautomer_probability>
1

> <r_epik_Ionization_Penalty>
5.09891

> <r_epik_Ionization_Penalty_Charging>
4.43024e-08

> <r_epik_Ionization_Penalty_Neutral>
5.09891

> <r_epik_State_Penalty>
2.55975

> <r_epik_Charging_Adjusted_Penalty>
2.55975

> <i_epik_Tot_Q>
-1

> <i_epik_Tot_abs_Q>
1

> <r_epik_Metal_State_Penalty>
0.115808

> <b_epik_Metal_Only>
0

> <s_lp_Force_Field>
OPLS_2005

> <r_lp_Energy>
31.6324

> <b_lp_Chiralities_Consistent>
1

> <s_lp_Variant>
AV-unprocessed.smi:824-3

> <Gold.Version>
5.8.1

> <Gold.Id.Protein>
6NUR|6NUR_protein|mol2

> <Gold.PLP.Fitness>
49.4200

> <Gold.PLP.PLP>
-44.9936

> <Gold.PLP.part.hbond>
-2.5864

> <Gold.PLP.part.metal>
0.0000

> <Gold.PLP.part.buried>
-6.7780

> <Gold.PLP.part.nonpolar>
-36.3087

> <Gold.PLP.part.repulsive>
0.0662

> <Gold.PLP.ligand.clash>
0.0000

> <Gold.PLP.ligand.torsion>
1.2996

> <Gold.PLP.Chemscore.Hbond>
2.2184

> <Gold.PLP.Chemscore.CHOScore>
0.0000

> <Gold.PLP.Chemscore.Metal>
0.0000

> <Gold.Chemscore.Hbonds>
donor molecule, donor type, donor heavy atom, donor atom, acceptor molecule, acceptor atom, score
      P1  H  6896  6909       L1    11  2.00

> <Gold.PLP.Chemscore.Internal.Correction>
0.3703

> <Gold.Rescore>
     Score         DG    S(hbond)    S(metal)    S(lipo)     H(rot)  DE(clash)    DE(int)     intcor
     15.21     -16.74       1.08        0.00     101.80       1.66       0.09       1.44       ----

> <Gold.Chemscore.Fitness>
15.2060

> <Gold.Chemscore.DG>
-16.7392

> <Gold.Chemscore.ZeroCoef>
-5.4800

> <Gold.Chemscore.Hbond>
1.0800

> <Gold.Chemscore.Metal>
0.0000

> <Gold.Chemscore.Lipo>
101.7981

> <Gold.Chemscore.Internal_Hbond>
0.0000

> <Gold.Chemscore.DEClash>
0.0938

> <Gold.Chemscore.DEInternal>
1.4394

> <Gold.Chemscore.Rot>
1.6635

> <Gold.Chemscore.Internal.Correction>
   9.000000E+99

> <Gold.Chemscore.Hbonds>
donor molecule, donor type, donor heavy atom, donor atom, acceptor molecule, acceptor atom, score
      P1  H  6896  6909       L1    11  0.86

> <Gold.Chemscore.Hbond.Weighted>
-3.6073

> <Gold.Chemscore.Metal.Weighted>
-0.0000

> <Gold.Chemscore.Lipo.Weighted>
-11.9104

> <Gold.Chemscore.Internal_Hbond.Weighted>
0.0000

> <Gold.Chemscore.DEClash.Weighted>
0.0938

> <Gold.Chemscore.DEInternal.Weighted>
1.4394

> <Gold.Chemscore.Rot.Weighted>
4.2585

> <Gold.Chemscore.Internal.Correction.Weighted>
   9.000000E+99

> <Gold.Protein.RotatedTorsions>
[ 6907 6896 6895 6894 ] final   43.28 input  -60.11 | X-H torsion
[ 7974 7965 7964 7962 ] final  110.02 input  175.53 | X-H torsion
[ 8008 7997 7996 7995 ] final  132.88 input   59.86 | X-H torsion
[ 10167 10162 10161 10158 ] final  -78.55 input  -65.29 | X-H torsion
[ 10718 10713 10712 10709 ] final  156.04 input   66.30 | X-H torsion
[ 10763 10752 10751 10750 ] final   41.66 input  -60.55 | X-H torsion
[ 11005 11000 10999 10996 ] final  -44.29 input  -57.11 | X-H torsion

> <Gold.Protein.ActiveResidues>
 VAL166  LYS551  ARG553  GLY616  TRP617  ASP618  TYR619  PRO620  LYS621  CYS622 
 ASP623  PHE694  ASN695  SER759  ASP760  ASP761  ALA762  ILE779  LEU786  VAL792 
 PHE793  MET794  SER795  GLU796  ALA797  LYS798  CYS799  TRP800  GLU811  SER814 

> <Gold.Protein.RotatedAtoms>
  152.2183  134.8437  160.0488 H   0  0  0  0  0  0  0  0  0  0  0  0  # atno 6907 bound_to 6896
  151.9230  133.3585  159.3912 H   0  0  0  0  0  0  0  0  0  0  0  0  # atno 6908 bound_to 6896
  150.6993  134.4540  159.5394 H   0  0  0  0  0  0  0  0  0  0  0  0  # atno 6909 bound_to 6896
  145.2604  139.2705  143.4020 H   0  0  0  0  0  0  0  0  0  0  0  0  # atno 7974 bound_to 7965
  156.2987  140.2535  156.3162 H   0  0  0  0  0  0  0  0  0  0  0  0  # atno 8008 bound_to 7997
  154.9279  140.0399  157.2051 H   0  0  0  0  0  0  0  0  0  0  0  0  # atno 8009 bound_to 7997
  154.8247  140.2866  155.5767 H   0  0  0  0  0  0  0  0  0  0  0  0  # atno 8010 bound_to 7997
  140.4672  143.2436  151.8260 H   0  0  0  0  0  0  0  0  0  0  0  0  # atno 10167 bound_to 10162
  157.2103  131.0696  151.1973 H   0  0  0  0  0  0  0  0  0  0  0  0  # atno 10718 bound_to 10713
  152.9902  135.6155  154.2823 H   0  0  0  0  0  0  0  0  0  0  0  0  # atno 10763 bound_to 10752
  154.2552  135.2784  155.2802 H   0  0  0  0  0  0  0  0  0  0  0  0  # atno 10764 bound_to 10752
  154.5254  135.5803  153.6772 H   0  0  0  0  0  0  0  0  0  0  0  0  # atno 10765 bound_to 10752
  141.0441  133.6768  156.2852 H   0  0  0  0  0  0  0  0  0  0  0  0  # atno 11005 bound_to 11000
  146.3277  140.3019  142.8621 LP  0  0  0  0  0  0  0  0  0  0  0  0  # atno 17320 bound_to 7965
  144.9424  140.8092  143.5622 LP  0  0  0  0  0  0  0  0  0  0  0  0  # atno 17321 bound_to 7965
  139.4813  144.4936  151.9153 LP  0  0  0  0  0  0  0  0  0  0  0  0  # atno 17342 bound_to 10162
  140.4021  144.2479  150.5892 LP  0  0  0  0  0  0  0  0  0  0  0  0  # atno 17343 bound_to 10162
  157.3679  130.7165  149.6545 LP  0  0  0  0  0  0  0  0  0  0  0  0  # atno 17370 bound_to 10713
  155.9691  130.4207  150.4435 LP  0  0  0  0  0  0  0  0  0  0  0  0  # atno 17371 bound_to 10713
  140.6180  134.5391  157.5543 LP  0  0  0  0  0  0  0  0  0  0  0  0  # atno 17394 bound_to 11000
  139.9298  134.7986  156.0964 LP  0  0  0  0  0  0  0  0  0  0  0  0  # atno 17395 bound_to 11000

$$$$
