#       Name:                AV-unprocessed.smi:194
#       Creating user name   scv26
#       Creation time:       Thu Mar 26 19:36:16 2020


#       File generated by GOLD software.
#

@<TRIPOS>MOLECULE
AV-unprocessed.smi:194
    61    63     1
SMALL
NO_CHARGES


@<TRIPOS>ATOM
      1 ****        -3.4234  -1.8747   1.5592 C.3            1 S1                 0.0000
      2 ****        -2.9687  -0.5837   2.2849 C.3            1 S1                 0.0000
      3 ****        -3.8464  -0.3376   3.5360 C.3            1 S1                 0.0000
      4 ****        -5.5776   0.0773   3.0069 S.o            1 S1                 0.0000
      5 ****        -6.2738   0.3028   4.7100 C.3            1 S1                 0.0000
      6 ****        -5.5229   1.4636   2.3626 O.2            1 S1                 0.0000
      7 ****        -1.5396  -0.6261   2.6401 N.3            1 S1                 0.0000
      8 ****        -0.9823   0.5244   3.3467 C.3            1 S1                 0.0000
      9 ****        -0.7021  -1.0099   1.6502 C.ar           1 S1                 0.0000
     10 ****         0.0324  -2.1307   1.8556 N.ar           1 S1                 0.0000
     11 ****         0.8708  -2.5601   0.9076 C.ar           1 S1                 0.0000
     12 ****         1.1240  -2.0246  -0.2888 N.ar           1 S1                 0.0000
     13 ****         0.3963  -0.8882  -0.4908 C.ar           1 S1                 0.0000
     14 ****        -0.5373  -0.3165   0.4183 C.ar           1 S1                 0.0000
     15 ****        -1.0972   0.8295  -0.1318 N.2            1 S1                 0.0000
     16 ****        -0.5317   0.9256  -1.3037 C.2            1 S1                 0.0000
     17 ****         0.3934  -0.0526  -1.5951 N.pl3          1 S1                 0.0000
     18 ****         1.1587  -0.1856  -2.8266 C.3            1 S1                 0.0000
     19 ****         2.5760   0.4647  -2.8227 C.3            1 S1                 0.0000
     20 ****         2.4789   2.0133  -2.6760 C.3            1 S1                 0.0000
     21 ****         2.1455   2.4429  -1.3715 O.3            1 S1                 0.0000
     22 ****         3.4763  -0.1626  -1.7271 C.3            1 S1                 0.0000
     23 ****         4.9597   0.2080  -1.8954 C.3            1 S1                 0.0000
     24 ****         5.4168  -0.2110  -3.1746 O.3            1 S1                 0.0000
     25 ****         4.7383   0.4380  -4.2417 C.3            1 S1                 0.0000
     26 ****         3.2306   0.1216  -4.1860 C.3            1 S1                 0.0000
     27 ****        -4.4837  -1.8523   1.3107 H              1 S1                 0.0000
     28 ****        -3.2500  -2.7556   2.1783 H              1 S1                 0.0000
     29 ****        -2.8976  -2.0238   0.6160 H              1 S1                 0.0000
     30 ****        -3.1117   0.2596   1.6083 H              1 S1                 0.0000
     31 ****        -3.8519  -1.2091   4.1913 H              1 S1                 0.0000
     32 ****        -3.4887   0.5088   4.1211 H              1 S1                 0.0000
     33 ****        -6.1508  -0.6078   5.2964 H              1 S1                 0.0000
     34 ****        -7.3366   0.5373   4.6527 H              1 S1                 0.0000
     35 ****        -5.7665   1.1198   5.2230 H              1 S1                 0.0000
     36 ****         0.1057   0.5696   3.2703 H              1 S1                 0.0000
     37 ****        -1.2269   0.4685   4.4074 H              1 S1                 0.0000
     38 ****        -1.3877   1.4554   2.9491 H              1 S1                 0.0000
     39 ****         1.4167  -3.4624   1.1407 H              1 S1                 0.0000
     40 ****        -0.7662   1.7264  -1.9897 H              1 S1                 0.0000
     41 ****         1.2374  -1.2519  -3.0432 H              1 S1                 0.0000
     42 ****         0.5614   0.2344  -3.6371 H              1 S1                 0.0000
     43 ****         3.4209   2.4979  -2.9247 H              1 S1                 0.0000
     44 ****         1.7414   2.4136  -3.3725 H              1 S1                 0.0000
     45 ****         2.1182   3.3875  -1.3625 H              1 S1                 0.0000
     46 ****         3.1392   0.1174  -0.7290 H              1 S1                 0.0000
     47 ****         3.3953  -1.2493  -1.7744 H              1 S1                 0.0000
     48 ****         5.1223   1.2784  -1.7642 H              1 S1                 0.0000
     49 ****         5.5551  -0.2948  -1.1331 H              1 S1                 0.0000
     50 ****         4.9311   1.5103  -4.2121 H              1 S1                 0.0000
     51 ****         5.1542   0.0796  -5.1835 H              1 S1                 0.0000
     52 ****         3.1115  -0.9438  -4.3891 H              1 S1                 0.0000
     53 ****         2.7153   0.6393  -4.9961 H              1 S1                 0.0000
     54 ****        -1.5822  -1.3618   3.3161 LP             1 S1                 0.0000
     55 ****        -0.0530  -2.6352   2.7148 LP             1 S1                 0.0000
     56 ****         1.7658  -2.4079  -0.9530 LP             1 S1                 0.0000
     57 ****        -1.7765   1.4396   0.2760 LP             1 S1                 0.0000
     58 ****         2.8355   2.1197  -0.7238 LP             1 S1                 0.0000
     59 ****         1.2506   2.0776  -1.1150 LP             1 S1                 0.0000
     60 ****         5.2736  -1.1972  -3.2578 LP             1 S1                 0.0000
     61 ****         6.3934  -0.0087  -3.2470 LP             1 S1                 0.0000
@<TRIPOS>BOND
    1    1    2 1     
    2    1   27 1     
    3    1   28 1     
    4    1   29 1     
    5    2    3 1     
    6    2    7 1     
    7    2   30 1     
    8    3    4 1     
    9    3   31 1     
   10    3   32 1     
   11    4    5 1     
   12    4    6 2     
   13    5   33 1     
   14    5   34 1     
   15    5   35 1     
   16    7    8 1     
   17    7    9 1     
   18    8   36 1     
   19    8   37 1     
   20    8   38 1     
   21    9   14 ar    
   22    9   10 ar    
   23   10   11 ar    
   24   11   12 ar    
   25   11   39 1     
   26   12   13 ar    
   27   13   17 1     
   28   13   14 ar    
   29   14   15 1     
   30   15   16 2     
   31   16   17 1     
   32   16   40 1     
   33   17   18 1     
   34   18   19 1     
   35   18   41 1     
   36   18   42 1     
   37   19   26 1     
   38   19   20 1     
   39   19   22 1     
   40   20   21 1     
   41   20   43 1     
   42   20   44 1     
   43   21   45 1     
   44   22   23 1     
   45   22   46 1     
   46   22   47 1     
   47   23   24 1     
   48   23   48 1     
   49   23   49 1     
   50   24   25 1     
   51   25   26 1     
   52   25   50 1     
   53   25   51 1     
   54   26   52 1     
   55   26   53 1     
   56    7   54 1     
   57   10   55 1     
   58   12   56 1     
   59   15   57 1     
   60   21   58 1     
   61   21   59 1     
   62   24   60 1     
   63   24   61 1     
@<TRIPOS>SUBSTRUCTURE
      1 S1             1
@<TRIPOS>SET
LONE_PAIRS      STATIC     ATOMS    <user>   **** ""
9 6 54 55 56 57 58 59 60 61
DONOR_HYDROGENS      STATIC     ATOMS    <user>   **** ""
1 45
ATOM$BLUE        STATIC     ATOMS    COLORGROUP SYSTEM
9 6 54 55 56 57 58 59 60 61
ATOM$RED        STATIC     ATOMS    COLORGROUP SYSTEM
1 45
