#       Name:                AV-unprocessed.smi:1885
#       Creating user name   scv26
#       Creation time:       Fri Mar 27 09:38:05 2020


#       File generated by GOLD software.
#

@<TRIPOS>MOLECULE
AV-unprocessed.smi:1885
    50    52     1
SMALL
NO_CHARGES


@<TRIPOS>ATOM
      1 ****        -6.3985   3.3359   0.8452 C.3            1 S1                 0.0000
      2 ****        -5.6022   2.3464   0.2097 O.3            1 S1                 0.0000
      3 ****        -4.2318   2.4870   0.2587 C.ar           1 S1                 0.0000
      4 ****        -3.5635   3.5608   0.8991 C.ar           1 S1                 0.0000
      5 ****        -2.1565   3.6268   0.8998 C.ar           1 S1                 0.0000
      6 ****        -1.3949   2.6220   0.2701 C.ar           1 S1                 0.0000
      7 ****         0.1197   2.7134   0.2597 C.3            1 S1                 0.0000
      8 ****         0.7327   1.4344   0.2519 O.3            1 S1                 0.0000
      9 ****         2.1486   1.4981   0.2142 C.3            1 S1                 0.0000
     10 ****         2.7080   0.0687   0.1753 C.3            1 S1                 0.0000
     11 ****         4.1103   0.1254   0.3481 O.3            1 S1                 0.0000
     12 ****         2.3738  -0.6594  -1.1412 C.3            1 S1                 0.0000
     13 ****         2.8239  -2.0394  -1.1367 N.pl3          1 S1                 0.0000
     14 ****         3.9396  -2.5375  -1.7039 C.2            1 S1                 0.0000
     15 ****         4.1572  -3.8435  -1.5746 N.2            1 S1                 0.0000
     16 ****         3.0543  -4.2393  -0.8371 C.ar           1 S1                 0.0000
     17 ****         2.6790  -5.5152  -0.3592 C.ar           1 S1                 0.0000
     18 ****         1.4908  -5.6797   0.3832 C.ar           1 S1                 0.0000
     19 ****         1.1462  -6.9094   0.8338 F              1 S1                 0.0000
     20 ****         0.6609  -4.5724   0.6580 C.ar           1 S1                 0.0000
     21 ****        -0.4779  -4.7394   1.3713 F              1 S1                 0.0000
     22 ****         1.0139  -3.2916   0.1918 C.ar           1 S1                 0.0000
     23 ****         2.2001  -3.1330  -0.5477 C.ar           1 S1                 0.0000
     24 ****        -2.0550   1.5566  -0.3758 C.ar           1 S1                 0.0000
     25 ****        -3.4615   1.4916  -0.3766 C.ar           1 S1                 0.0000
     26 ****        -7.4516   3.0837   0.7223 H              1 S1                 0.0000
     27 ****        -6.2415   4.3198   0.4012 H              1 S1                 0.0000
     28 ****        -6.1943   3.3849   1.9156 H              1 S1                 0.0000
     29 ****        -4.1082   4.3491   1.3960 H              1 S1                 0.0000
     30 ****        -1.6629   4.4542   1.3880 H              1 S1                 0.0000
     31 ****         0.4220   3.2773  -0.6240 H              1 S1                 0.0000
     32 ****         0.4538   3.2726   1.1352 H              1 S1                 0.0000
     33 ****         2.4847   2.0644  -0.6561 H              1 S1                 0.0000
     34 ****         2.5076   2.0177   1.1044 H              1 S1                 0.0000
     35 ****         2.2979  -0.4915   1.0168 H              1 S1                 0.0000
     36 ****         4.4810   0.6254  -0.3628 H              1 S1                 0.0000
     37 ****         1.2964  -0.6585  -1.3110 H              1 S1                 0.0000
     38 ****         2.8224  -0.1442  -1.9920 H              1 S1                 0.0000
     39 ****         4.6322  -1.9049  -2.2399 H              1 S1                 0.0000
     40 ****         3.3066  -6.3699  -0.5629 H              1 S1                 0.0000
     41 ****         0.3818  -2.4412   0.4004 H              1 S1                 0.0000
     42 ****        -1.4880   0.7839  -0.8740 H              1 S1                 0.0000
     43 ****        -3.9553   0.6689  -0.8727 H              1 S1                 0.0000
     44 ****        -5.8647   2.3284  -0.7551 LP             1 S1                 0.0000
     45 ****        -5.8261   1.4683   0.6325 LP             1 S1                 0.0000
     46 ****         0.4148   0.9337  -0.5533 LP             1 S1                 0.0000
     47 ****         0.4578   0.9444   1.0791 LP             1 S1                 0.0000
     48 ****         4.4883  -0.8003   0.3421 LP             1 S1                 0.0000
     49 ****         4.3250   0.5675   1.2190 LP             1 S1                 0.0000
     50 ****         4.9172  -4.3943  -1.9194 LP             1 S1                 0.0000
@<TRIPOS>BOND
    1    1    2 1     
    2    1   26 1     
    3    1   27 1     
    4    1   28 1     
    5    2    3 1     
    6    3   25 ar    
    7    3    4 ar    
    8    4    5 ar    
    9    4   29 1     
   10    5    6 ar    
   11    5   30 1     
   12    6    7 1     
   13    6   24 ar    
   14    7    8 1     
   15    7   31 1     
   16    7   32 1     
   17    8    9 1     
   18    9   10 1     
   19    9   33 1     
   20    9   34 1     
   21   10   11 1     
   22   10   12 1     
   23   10   35 1     
   24   11   36 1     
   25   12   13 1     
   26   12   37 1     
   27   12   38 1     
   28   13   23 1     
   29   13   14 1     
   30   14   15 2     
   31   14   39 1     
   32   15   16 1     
   33   16   23 ar    
   34   16   17 ar    
   35   17   18 ar    
   36   17   40 1     
   37   18   19 1     
   38   18   20 ar    
   39   20   21 1     
   40   20   22 ar    
   41   22   23 ar    
   42   22   41 1     
   43   24   25 ar    
   44   24   42 1     
   45   25   43 1     
   46    2   44 1     
   47    2   45 1     
   48    8   46 1     
   49    8   47 1     
   50   11   48 1     
   51   11   49 1     
   52   15   50 1     
@<TRIPOS>SUBSTRUCTURE
      1 S1             1
@<TRIPOS>SET
LONE_PAIRS      STATIC     ATOMS    <user>   **** ""
7 44 45 46 47 48 49 50
DONOR_HYDROGENS      STATIC     ATOMS    <user>   **** ""
1 36
ATOM$BLUE        STATIC     ATOMS    COLORGROUP SYSTEM
7 44 45 46 47 48 49 50
ATOM$RED        STATIC     ATOMS    COLORGROUP SYSTEM
1 36
