AV-unprocessed.smi:2032|AV-procd|sdf|8238|dock2
  -GOLD-   2272010503D 1   1.00000     0.00000
 Structure written by MMmdl.
 43 44  0  0  0  0  0  0  0  0  2 V2000
  148.7897  141.7700  154.2508 C   0  0  0  0  0  0  0  0  0  0  0  0
  149.2341  140.3726  154.6968 C   0  0  1  0  0  0  0  0  0  0  0  0
  148.7098  139.2701  153.7482 C   0  0  0  0  0  0  0  0  0  0  0  0
  149.2381  137.9270  154.1162 N   0  3  2  0  0  0  0  0  0  0  0  0
  148.5558  137.2931  155.2949 C   0  0  2  0  0  0  0  0  0  0  0  0
  149.3592  136.1173  155.9022 C   0  0  0  0  0  0  0  0  0  0  0  0
  147.1291  136.8143  154.9078 C   0  0  0  0  0  0  0  0  0  0  0  0
  147.0758  136.1646  153.6011 N   0  0  0  0  0  0  0  0  0  0  0  0
  146.0619  135.4011  153.1682 C   0  0  0  0  0  0  0  0  0  0  0  0
  145.0505  135.1808  153.8357 O   0  0  0  0  0  0  0  0  0  0  0  0
  146.3034  134.9188  151.9368 N   0  0  0  0  0  0  0  0  0  0  0  0
  145.5041  134.0296  151.1717 C   0  0  0  0  0  0  0  0  0  0  0  0
  144.1661  134.0475  151.1487 N   0  0  0  0  0  0  0  0  0  0  0  0
  143.6432  133.0548  150.3161 C   0  0  0  0  0  0  0  0  0  0  0  0
  144.6040  132.2830  149.7113 C   0  0  0  0  0  0  0  0  0  0  0  0
  146.2136  132.7768  150.1637 S   0  0  0  0  0  0  0  0  0  0  0  0
  150.7236  138.0054  154.1643 C   0  0  0  0  0  0  0  0  0  0  0  0
  151.1898  139.1007  155.1443 C   0  0  1  0  0  0  0  0  0  0  0  0
  152.7169  139.2220  155.1877 C   0  0  0  0  0  0  0  0  0  0  0  0
  150.6580  140.3481  154.7108 O   0  0  0  0  0  0  0  0  0  0  0  0
  147.7024  141.8508  154.2368 H   0  0  0  0  0  0  0  0  0  0  0  0
  149.1554  142.0009  153.2499 H   0  0  0  0  0  0  0  0  0  0  0  0
  149.1698  142.5346  154.9288 H   0  0  0  0  0  0  0  0  0  0  0  0
  148.8659  140.2105  155.7105 H   0  0  0  0  0  0  0  0  0  0  0  0
  147.6230  139.2888  153.7124 H   0  0  0  0  0  0  0  0  0  0  0  0
  149.0366  139.4899  152.7307 H   0  0  0  0  0  0  0  0  0  0  0  0
  148.4695  138.0444  156.0788 H   0  0  0  0  0  0  0  0  0  0  0  0
  148.8204  135.6351  156.7172 H   0  0  0  0  0  0  0  0  0  0  0  0
  150.3031  136.4471  156.3355 H   0  0  0  0  0  0  0  0  0  0  0  0
  149.5723  135.3525  155.1549 H   0  0  0  0  0  0  0  0  0  0  0  0
  146.7148  136.1174  155.6342 H   0  0  0  0  0  0  0  0  0  0  0  0
  146.4484  137.6660  154.8863 H   0  0  0  0  0  0  0  0  0  0  0  0
  147.8679  136.3000  152.9896 H   0  0  0  0  0  0  0  0  0  0  0  0
  147.1703  135.2018  151.5038 H   0  0  0  0  0  0  0  0  0  0  0  0
  142.5717  132.9671  150.2123 H   0  0  0  0  0  0  0  0  0  0  0  0
  144.4624  131.4571  149.0302 H   0  0  0  0  0  0  0  0  0  0  0  0
  151.1848  137.0438  154.3837 H   0  0  0  0  0  0  0  0  0  0  0  0
  151.0769  138.2560  153.1628 H   0  0  0  0  0  0  0  0  0  0  0  0
  150.8332  138.8853  156.1529 H   0  0  0  0  0  0  0  0  0  0  0  0
  153.1746  138.2906  155.5226 H   0  0  0  0  0  0  0  0  0  0  0  0
  153.0254  140.0092  155.8761 H   0  0  0  0  0  0  0  0  0  0  0  0
  153.1236  139.4607  154.2045 H   0  0  0  0  0  0  0  0  0  0  0  0
  149.0288  137.3158  153.3397 H   0  0  0  0  0  0  0  0  0  0  0  0
  1  2  1  0  0  0  0
  1 21  1  0  0  0  0
  1 22  1  0  0  0  0
  1 23  1  0  0  0  0
  2 20  1  0  0  0  0
  2  3  1  0  0  0  0
  2 24  1  0  0  0  0
  3  4  1  0  0  0  0
  3 25  1  0  0  0  0
  3 26  1  0  0  0  0
  4  5  1  0  0  0  0
  4 17  1  0  0  0  0
  4 43  1  0  0  0  0
  5  6  1  0  0  0  0
  5  7  1  0  0  0  0
  5 27  1  0  0  0  0
  6 28  1  0  0  0  0
  6 29  1  0  0  0  0
  6 30  1  0  0  0  0
  7  8  1  0  0  0  0
  7 31  1  0  0  0  0
  7 32  1  0  0  0  0
  8  9  1  0  0  0  0
  8 33  1  0  0  0  0
  9 10  2  0  0  0  0
  9 11  1  0  0  0  0
 11 12  1  0  0  0  0
 11 34  1  0  0  0  0
 12 16  1  0  0  0  0
 12 13  2  0  0  0  0
 13 14  1  0  0  0  0
 14 15  2  0  0  0  0
 14 35  1  0  0  0  0
 15 16  1  0  0  0  0
 15 36  1  0  0  0  0
 17 18  1  0  0  0  0
 17 37  1  0  0  0  0
 17 38  1  0  0  0  0
 18 19  1  0  0  0  0
 18 20  1  0  0  0  0
 18 39  1  0  0  0  0
 19 40  1  0  0  0  0
 19 41  1  0  0  0  0
 19 42  1  0  0  0  0
M  CHG  1   4   1
M  END
> <s_m_source_file>
AV-unprocessed.smi

> <i_m_source_file_index>
2032

> <i_lp_mmshare_version>
43012

> <i_f3d_flags>
0

> <s_epik_input>
W0NIM11bQ0BASF0xW0NIMl1OKFtDSDJdW0NASF0oTzEpW0NIM10pW0NASF0oW0NIM10pW0NIMl1bTkhdQyg9TylbTkhdYzJuW2NIXVtjSF1zMg==

> <s_epik_cmdline>
J2VwaWtfcHl0aG9uJywgJy1waCcsICc3LjAnLCAnLXRuJywgJzgnLCAnLW1hJywgJzIwMCcsICctbWV0YWxfYmluZGluZycsICctaW1hZScsICc8aW5maWxlLm1hZT4nLCAnLW9tYWUnLCAnPG91dGZpbGUubWFlPic=

> <r_lp_tautomer_probability>
0.999

> <r_epik_Ionization_Penalty>
0.695838

> <r_epik_Ionization_Penalty_Charging>
0.695697

> <r_epik_Ionization_Penalty_Neutral>
0.000141198

> <r_epik_State_Penalty>
0.717972

> <r_epik_Charging_Adjusted_Penalty>
1.41367

> <i_epik_Tot_Q>
1

> <i_epik_Tot_abs_Q>
1

> <r_epik_Metal_State_Penalty>
0.756405

> <b_epik_Metal_Only>
0

> <s_lp_Force_Field>
OPLS_2005

> <r_lp_Energy>
19.2739

> <b_lp_Chiralities_Consistent>
1

> <s_lp_Variant>
AV-unprocessed.smi:2032-8

> <Gold.Version>
5.8.1

> <Gold.Id.Protein>
6NUR|6NUR_protein|mol2

> <Gold.PLP.Fitness>
49.4609

> <Gold.PLP.PLP>
-33.8837

> <Gold.PLP.part.hbond>
-4.0000

> <Gold.PLP.part.metal>
0.0000

> <Gold.PLP.part.buried>
0.4839

> <Gold.PLP.part.nonpolar>
-29.3722

> <Gold.PLP.part.repulsive>
0.3245

> <Gold.PLP.ligand.clash>
0.0000

> <Gold.PLP.ligand.torsion>
0.9187

> <Gold.PLP.Chemscore.Hbond>
4.8580

> <Gold.PLP.Chemscore.CHOScore>
0.9173

> <Gold.PLP.Chemscore.Metal>
0.0000

> <Gold.Chemscore.Hbonds>
donor molecule, donor type, donor heavy atom, donor atom, acceptor molecule, acceptor atom, score
      L1  H     4    43       P1  7948  2.00
      L1  H     8    33       P1  7948  1.00
      L1  H    11    34       P1  7948  0.87
      P1  H  7989  7998       L1    20  1.00
      L1  C    14    35       P1 10186  1.00

> <Gold.PLP.Chemscore.Internal.Correction>
0.0886

> <Gold.Rescore>
     Score         DG    S(hbond)    S(metal)    S(lipo)     H(rot)  DE(clash)    DE(int)     intcor
     21.05     -22.70       3.60        0.00      79.57       1.61       0.51       1.14       ----

> <Gold.Chemscore.Fitness>
21.0481

> <Gold.Chemscore.DG>
-22.6976

> <Gold.Chemscore.ZeroCoef>
-5.4800

> <Gold.Chemscore.Hbond>
3.6025

> <Gold.Chemscore.Metal>
0.0000

> <Gold.Chemscore.Lipo>
79.5680

> <Gold.Chemscore.Internal_Hbond>
0.0000

> <Gold.Chemscore.DEClash>
0.5068

> <Gold.Chemscore.DEInternal>
1.1427

> <Gold.Chemscore.Rot>
1.6110

> <Gold.Chemscore.Internal.Correction>
   9.000000E+99

> <Gold.Chemscore.Hbonds>
donor molecule, donor type, donor heavy atom, donor atom, acceptor molecule, acceptor atom, score
      L1  H     4    43       P1  7948  1.00
      L1  H     8    33       P1  7948  0.97
      L1  H    11    34       P1  7948  0.73
      P1  H  7989  7998       L1    20  0.59

> <Gold.Chemscore.Hbond.Weighted>
-12.0323

> <Gold.Chemscore.Metal.Weighted>
-0.0000

> <Gold.Chemscore.Lipo.Weighted>
-9.3095

> <Gold.Chemscore.Internal_Hbond.Weighted>
0.0000

> <Gold.Chemscore.DEClash.Weighted>
0.5068

> <Gold.Chemscore.DEInternal.Weighted>
1.1427

> <Gold.Chemscore.Rot.Weighted>
4.1242

> <Gold.Chemscore.Internal.Correction.Weighted>
   9.000000E+99

> <Gold.Protein.RotatedTorsions>
[ 6907 6896 6895 6894 ] final  -93.02 input  -60.11 | X-H torsion
[ 7974 7965 7964 7962 ] final -158.28 input  175.53 | X-H torsion
[ 8008 7997 7996 7995 ] final -106.98 input   59.86 | X-H torsion
[ 10167 10162 10161 10158 ] final  -78.12 input  -65.29 | X-H torsion
[ 10718 10713 10712 10709 ] final   15.95 input   66.30 | X-H torsion
[ 10763 10752 10751 10750 ] final  -71.04 input  -60.55 | X-H torsion
[ 11005 11000 10999 10996 ] final -152.92 input  -57.11 | X-H torsion

> <Gold.Protein.ActiveResidues>
 VAL166  LYS551  ARG553  GLY616  TRP617  ASP618  TYR619  PRO620  LYS621  CYS622 
 ASP623  PHE694  ASN695  SER759  ASP760  ASP761  ALA762  ILE779  LEU786  VAL792 
 PHE793  MET794  SER795  GLU796  ALA797  LYS798  CYS799  TRP800  GLU811  SER814 

> <Gold.Protein.RotatedAtoms>
  150.6915  134.2032  159.4329 H   0  0  0  0  0  0  0  0  0  0  0  0  # atno 6907 bound_to 6896
  151.9997  134.9932  160.0574 H   0  0  0  0  0  0  0  0  0  0  0  0  # atno 6908 bound_to 6896
  152.1590  133.4535  159.4888 H   0  0  0  0  0  0  0  0  0  0  0  0  # atno 6909 bound_to 6896
  144.7512  140.3850  143.6046 H   0  0  0  0  0  0  0  0  0  0  0  0  # atno 7974 bound_to 7965
  154.9226  140.0407  157.2006 H   0  0  0  0  0  0  0  0  0  0  0  0  # atno 8008 bound_to 7997
  154.8239  140.2888  155.5746 H   0  0  0  0  0  0  0  0  0  0  0  0  # atno 8009 bound_to 7997
  156.2982  140.2513  156.3151 H   0  0  0  0  0  0  0  0  0  0  0  0  # atno 8010 bound_to 7997
  140.4710  143.2426  151.8204 H   0  0  0  0  0  0  0  0  0  0  0  0  # atno 10167 bound_to 10162
  157.0609  130.6308  149.5786 H   0  0  0  0  0  0  0  0  0  0  0  0  # atno 10718 bound_to 10713
  154.4262  135.5975  153.6040 H   0  0  0  0  0  0  0  0  0  0  0  0  # atno 10763 bound_to 10752
  152.9796  135.5964  154.3895 H   0  0  0  0  0  0  0  0  0  0  0  0  # atno 10764 bound_to 10752
  154.3727  135.2841  155.2235 H   0  0  0  0  0  0  0  0  0  0  0  0  # atno 10765 bound_to 10752
  140.7137  134.3804  157.5194 H   0  0  0  0  0  0  0  0  0  0  0  0  # atno 11005 bound_to 11000
  145.6937  139.1645  143.2632 LP  0  0  0  0  0  0  0  0  0  0  0  0  # atno 17320 bound_to 7965
  146.1465  140.6985  142.9342 LP  0  0  0  0  0  0  0  0  0  0  0  0  # atno 17321 bound_to 7965
  139.4818  144.4891  151.9208 LP  0  0  0  0  0  0  0  0  0  0  0  0  # atno 17342 bound_to 10162
  140.3977  144.2534  150.5895 LP  0  0  0  0  0  0  0  0  0  0  0  0  # atno 17343 bound_to 10162
  155.9979  130.5051  150.7550 LP  0  0  0  0  0  0  0  0  0  0  0  0  # atno 17370 bound_to 10713
  157.4956  131.0914  151.0376 LP  0  0  0  0  0  0  0  0  0  0  0  0  # atno 17371 bound_to 10713
  139.8865  134.8908  156.2581 LP  0  0  0  0  0  0  0  0  0  0  0  0  # atno 17394 bound_to 11000
  141.0062  133.7122  156.1039 LP  0  0  0  0  0  0  0  0  0  0  0  0  # atno 17395 bound_to 11000

$$$$
