AV-unprocessed.smi:763|AV-procd|sdf|3634|dock8
  -GOLD-   22720 1 33D 1   1.00000     0.00000
 Structure written by MMmdl.
 44 45  0  0  0  0  0  0  0  0  1 V2000
  144.0611  132.2121  151.6521 C   0  0  0  0  0  0  0  0  0  0  0  0
  145.2392  131.7976  152.3256 O   0  0  0  0  0  0  0  0  0  0  0  0
  146.0675  132.8686  152.7563 C   0  0  0  0  0  0  0  0  0  0  0  0
  147.1986  132.3873  153.6768 C   0  0  0  0  0  0  0  0  0  0  0  0
  147.9078  133.5253  154.1573 O   0  0  0  0  0  0  0  0  0  0  0  0
  148.9347  133.3342  155.0618 C   0  0  0  0  0  0  0  0  0  0  0  0
  149.1615  132.0816  155.5315 N   0  0  0  0  0  0  0  0  0  0  0  0
  150.1679  131.8989  156.4118 C   0  0  0  0  0  0  0  0  0  0  0  0
  150.9945  132.9434  156.8664 C   0  0  0  0  0  0  0  0  0  0  0  0
  150.7584  134.2428  156.3809 C   0  0  0  0  0  0  0  0  0  0  0  0
  149.7078  134.4480  155.4604 C   0  0  0  0  0  0  0  0  0  0  0  0
  149.4208  135.7149  154.9444 N   0  0  0  0  0  0  0  0  0  0  0  0
  150.2154  137.2194  155.2754 S   0  0  0  0  0  0  0  0  0  0  0  0
  149.9947  137.4761  156.7070 O   0  0  0  0  0  0  0  0  0  0  0  0
  151.5737  137.0767  154.7290 O   0  0  0  0  0  0  0  0  0  0  0  0
  149.2393  138.4310  154.2625 C   0  0  2  0  0  0  0  0  0  0  0  0
  149.7179  139.8666  154.5620 C   0  0  0  0  0  0  0  0  0  0  0  0
  148.9191  140.9125  153.7702 C   0  0  0  0  0  0  0  0  0  0  0  0
  147.4133  140.7709  154.0337 C   0  0  0  0  0  0  0  0  0  0  0  0
  146.9286  139.3540  153.6945 C   0  0  0  0  0  0  0  0  0  0  0  0
  147.7125  138.2839  154.4770 C   0  0  1  0  0  0  0  0  0  0  0  0
  147.2633  137.0182  154.0393 O   0  0  0  0  0  0  0  0  0  0  0  0
  143.4590  131.3378  151.4049 H   0  0  0  0  0  0  0  0  0  0  0  0
  144.2879  132.7301  150.7204 H   0  0  0  0  0  0  0  0  0  0  0  0
  143.4564  132.8678  152.2796 H   0  0  0  0  0  0  0  0  0  0  0  0
  146.4591  133.4317  151.9076 H   0  0  0  0  0  0  0  0  0  0  0  0
  145.4295  133.5546  153.3139 H   0  0  0  0  0  0  0  0  0  0  0  0
  146.7731  131.8378  154.5183 H   0  0  0  0  0  0  0  0  0  0  0  0
  147.8695  131.7175  153.1370 H   0  0  0  0  0  0  0  0  0  0  0  0
  150.3185  130.8893  156.7643 H   0  0  0  0  0  0  0  0  0  0  0  0
  151.7899  132.7533  157.5716 H   0  0  0  0  0  0  0  0  0  0  0  0
  151.3786  135.0603  156.7169 H   0  0  0  0  0  0  0  0  0  0  0  0
  148.6410  135.7505  154.3041 H   0  0  0  0  0  0  0  0  0  0  0  0
  149.4693  138.2114  153.2190 H   0  0  0  0  0  0  0  0  0  0  0  0
  149.6179  140.0741  155.6280 H   0  0  0  0  0  0  0  0  0  0  0  0
  150.7780  139.9660  154.3276 H   0  0  0  0  0  0  0  0  0  0  0  0
  149.2509  141.9155  154.0399 H   0  0  0  0  0  0  0  0  0  0  0  0
  149.1189  140.7973  152.7041 H   0  0  0  0  0  0  0  0  0  0  0  0
  147.2007  140.9911  155.0806 H   0  0  0  0  0  0  0  0  0  0  0  0
  146.8623  141.5040  153.4437 H   0  0  0  0  0  0  0  0  0  0  0  0
  145.8628  139.2687  153.9100 H   0  0  0  0  0  0  0  0  0  0  0  0
  147.0405  139.1845  152.6224 H   0  0  0  0  0  0  0  0  0  0  0  0
  147.4767  138.3805  155.5371 H   0  0  0  0  0  0  0  0  0  0  0  0
  147.9712  136.5881  153.5828 H   0  0  0  0  0  0  0  0  0  0  0  0
  1  2  1  0  0  0  0
  1 23  1  0  0  0  0
  1 24  1  0  0  0  0
  1 25  1  0  0  0  0
  2  3  1  0  0  0  0
  3  4  1  0  0  0  0
  3 26  1  0  0  0  0
  3 27  1  0  0  0  0
  4  5  1  0  0  0  0
  4 28  1  0  0  0  0
  4 29  1  0  0  0  0
  5  6  1  0  0  0  0
  6 11  1  0  0  0  0
  6  7  2  0  0  0  0
  7  8  1  0  0  0  0
  8  9  2  0  0  0  0
  8 30  1  0  0  0  0
  9 10  1  0  0  0  0
  9 31  1  0  0  0  0
 10 11  2  0  0  0  0
 10 32  1  0  0  0  0
 11 12  1  0  0  0  0
 12 13  1  0  0  0  0
 12 33  1  0  0  0  0
 13 14  2  0  0  0  0
 13 15  2  0  0  0  0
 13 16  1  0  0  0  0
 16 21  1  0  0  0  0
 16 17  1  0  0  0  0
 16 34  1  0  0  0  0
 17 18  1  0  0  0  0
 17 35  1  0  0  0  0
 17 36  1  0  0  0  0
 18 19  1  0  0  0  0
 18 37  1  0  0  0  0
 18 38  1  0  0  0  0
 19 20  1  0  0  0  0
 19 39  1  0  0  0  0
 19 40  1  0  0  0  0
 20 21  1  0  0  0  0
 20 41  1  0  0  0  0
 20 42  1  0  0  0  0
 21 22  1  0  0  0  0
 21 43  1  0  0  0  0
 22 44  1  0  0  0  0
M  END
> <s_m_source_file>
AV-unprocessed.smi

> <i_m_source_file_index>
763

> <i_lp_mmshare_version>
43012

> <i_f3d_flags>
0

> <s_epik_input>
W0NIM11PW0NIMl1bQ0gyXU9jMW5bY0hdW2NIXVtjSF1jMVtOSF1TKD1PKSg9TylbQ0BASF0yW0NIMl1bQ0gyXVtDSDJdW0NIMl1bQ0BIXTJbT0hd

> <s_epik_cmdline>
J2VwaWtfcHl0aG9uJywgJy1waCcsICc3LjAnLCAnLXRuJywgJzgnLCAnLW1hJywgJzIwMCcsICctbWV0YWxfYmluZGluZycsICctaW1hZScsICc8aW5maWxlLm1hZT4nLCAnLW9tYWUnLCAnPG91dGZpbGUubWFlPic=

> <r_epik_Ionization_Penalty>
0.124685

> <r_epik_Ionization_Penalty_Charging>
0

> <r_epik_Ionization_Penalty_Neutral>
0.124685

> <r_epik_State_Penalty>
0.114154

> <r_epik_Charging_Adjusted_Penalty>
0.114154

> <i_epik_Tot_Q>
0

> <i_epik_Tot_abs_Q>
0

> <r_epik_Metal_State_Penalty>
0.443785

> <b_epik_Metal_Only>
0

> <s_lp_Force_Field>
OPLS_2005

> <r_lp_Energy>
9.05246

> <b_lp_Chiralities_Consistent>
1

> <s_lp_Variant>
AV-unprocessed.smi:763-1

> <Gold.Version>
5.8.1

> <Gold.Id.Protein>
6NUR|6NUR_protein|mol2

> <Gold.PLP.Fitness>
42.0473

> <Gold.PLP.PLP>
-34.9811

> <Gold.PLP.part.hbond>
-2.9379

> <Gold.PLP.part.metal>
0.0000

> <Gold.PLP.part.buried>
-3.5966

> <Gold.PLP.part.nonpolar>
-29.5631

> <Gold.PLP.part.repulsive>
2.5142

> <Gold.PLP.ligand.clash>
0.0000

> <Gold.PLP.ligand.torsion>
0.9695

> <Gold.PLP.Chemscore.Hbond>
2.5600

> <Gold.PLP.Chemscore.CHOScore>
0.0000

> <Gold.PLP.Chemscore.Metal>
0.0000

> <Gold.Chemscore.Hbonds>
donor molecule, donor type, donor heavy atom, donor atom, acceptor molecule, acceptor atom, score
      L1  H    22    44       P1  7948  0.99
      P1  H 10752 10763       L1    15  1.00

> <Gold.PLP.Chemscore.Internal.Correction>
1.3253

> <Gold.Rescore>
     Score         DG    S(hbond)    S(metal)    S(lipo)     H(rot)  DE(clash)    DE(int)     intcor
     12.93     -17.17       2.63        0.00      77.47       2.41       1.32       2.92       ----

> <Gold.Chemscore.Fitness>
12.9300

> <Gold.Chemscore.DG>
-17.1738

> <Gold.Chemscore.ZeroCoef>
-5.4800

> <Gold.Chemscore.Hbond>
2.6308

> <Gold.Chemscore.Metal>
0.0000

> <Gold.Chemscore.Lipo>
77.4734

> <Gold.Chemscore.Internal_Hbond>
0.0000

> <Gold.Chemscore.DEClash>
1.3193

> <Gold.Chemscore.DEInternal>
2.9244

> <Gold.Chemscore.Rot>
2.4052

> <Gold.Chemscore.Internal.Correction>
   9.000000E+99

> <Gold.Chemscore.Hbonds>
donor molecule, donor type, donor heavy atom, donor atom, acceptor molecule, acceptor atom, score
      L1  H    12    33       P1  7948  0.01
      L1  H    22    44       P1  7948  0.89
      P1  H 10752 10763       L1    15  0.93

> <Gold.Chemscore.Hbond.Weighted>
-8.7868

> <Gold.Chemscore.Metal.Weighted>
-0.0000

> <Gold.Chemscore.Lipo.Weighted>
-9.0644

> <Gold.Chemscore.Internal_Hbond.Weighted>
0.0000

> <Gold.Chemscore.DEClash.Weighted>
1.3193

> <Gold.Chemscore.DEInternal.Weighted>
2.9244

> <Gold.Chemscore.Rot.Weighted>
6.1574

> <Gold.Chemscore.Internal.Correction.Weighted>
   9.000000E+99

> <Gold.Protein.RotatedTorsions>
[ 6907 6896 6895 6894 ] final   97.52 input  -60.11 | X-H torsion
[ 7974 7965 7964 7962 ] final   99.95 input  175.53 | X-H torsion
[ 8008 7997 7996 7995 ] final   32.79 input   59.86 | X-H torsion
[ 10167 10162 10161 10158 ] final   91.72 input  -65.29 | X-H torsion
[ 10718 10713 10712 10709 ] final    3.78 input   66.30 | X-H torsion
[ 10763 10752 10751 10750 ] final   59.77 input  -60.55 | X-H torsion
[ 11005 11000 10999 10996 ] final  158.88 input  -57.11 | X-H torsion

> <Gold.Protein.ActiveResidues>
 VAL166  LYS551  ARG553  GLY616  TRP617  ASP618  TYR619  PRO620  LYS621  CYS622 
 ASP623  PHE694  ASN695  SER759  ASP760  ASP761  ALA762  ILE779  LEU786  VAL792 
 PHE793  MET794  SER795  GLU796  ALA797  LYS798  CYS799  TRP800  GLU811  SER814 

> <Gold.Protein.RotatedAtoms>
  152.5422  134.0721  159.8198 H   0  0  0  0  0  0  0  0  0  0  0  0  # atno 6907 bound_to 6896
  151.0834  133.5364  159.2626 H   0  0  0  0  0  0  0  0  0  0  0  0  # atno 6908 bound_to 6896
  151.2183  135.0517  159.8993 H   0  0  0  0  0  0  0  0  0  0  0  0  # atno 6909 bound_to 6896
  145.3921  139.2361  143.3346 H   0  0  0  0  0  0  0  0  0  0  0  0  # atno 7974 bound_to 7965
  155.1281  140.3254  155.4481 H   0  0  0  0  0  0  0  0  0  0  0  0  # atno 8008 bound_to 7997
  156.2642  140.2015  156.6350 H   0  0  0  0  0  0  0  0  0  0  0  0  # atno 8009 bound_to 7997
  154.6633  140.0545  157.0073 H   0  0  0  0  0  0  0  0  0  0  0  0  # atno 8010 bound_to 7997
  139.8347  144.6670  150.9356 H   0  0  0  0  0  0  0  0  0  0  0  0  # atno 10167 bound_to 10162
  156.8829  130.5660  149.5652 H   0  0  0  0  0  0  0  0  0  0  0  0  # atno 10718 bound_to 10713
  152.9903  135.5560  154.5766 H   0  0  0  0  0  0  0  0  0  0  0  0  # atno 10763 bound_to 10752
  154.5155  135.2804  155.1308 H   0  0  0  0  0  0  0  0  0  0  0  0  # atno 10764 bound_to 10752
  154.2683  135.6368  153.5353 H   0  0  0  0  0  0  0  0  0  0  0  0  # atno 10765 bound_to 10752
  140.1908  134.8409  157.2909 H   0  0  0  0  0  0  0  0  0  0  0  0  # atno 11005 bound_to 11000
  146.2792  140.4605  142.8783 LP  0  0  0  0  0  0  0  0  0  0  0  0  # atno 17320 bound_to 7965
  144.8433  140.6890  143.6215 LP  0  0  0  0  0  0  0  0  0  0  0  0  # atno 17321 bound_to 7965
  140.7803  143.3968  151.1216 LP  0  0  0  0  0  0  0  0  0  0  0  0  # atno 17342 bound_to 10162
  139.7619  143.8623  152.3102 LP  0  0  0  0  0  0  0  0  0  0  0  0  # atno 17343 bound_to 10162
  156.0668  130.5709  150.9304 LP  0  0  0  0  0  0  0  0  0  0  0  0  # atno 17370 bound_to 10713
  157.6129  131.0935  150.8762 LP  0  0  0  0  0  0  0  0  0  0  0  0  # atno 17371 bound_to 10713
  140.2162  134.4078  155.7588 LP  0  0  0  0  0  0  0  0  0  0  0  0  # atno 17394 bound_to 11000
  141.2226  133.7143  156.8418 LP  0  0  0  0  0  0  0  0  0  0  0  0  # atno 17395 bound_to 11000

$$$$
