AV-unprocessed.smi:2074|AV-procd|sdf|8454|dock9
  -GOLD-   2272011153D 1   1.00000     0.00000
 Structure written by MMmdl.
 44 45  0  0  0  0  0  0  0  0  2 V2000
  152.7914  141.1140  159.2356 C   0  0  0  0  0  0  0  0  0  0  0  0
  152.2132  140.5251  157.9806 C   0  0  0  0  0  0  0  0  0  0  0  0
  152.7793  139.4541  157.4509 N   0  0  0  0  0  0  0  0  0  0  0  0
  152.0300  139.1479  156.3110 O   0  0  0  0  0  0  0  0  0  0  0  0
  151.0290  140.0570  156.1982 C   0  0  0  0  0  0  0  0  0  0  0  0
  150.1110  139.8954  155.0341 C   0  0  0  0  0  0  0  0  0  0  0  0
  151.0859  140.9601  157.2246 C   0  0  0  0  0  0  0  0  0  0  0  0
  150.1758  142.1314  157.4946 C   0  0  0  0  0  0  0  0  0  0  0  0
  148.7188  141.6702  157.4541 C   0  0  0  0  0  0  0  0  0  0  0  0
  148.3626  140.6886  158.1049 O   0  0  0  0  0  0  0  0  0  0  0  0
  147.8845  142.3922  156.6922 N   0  0  0  0  0  0  0  0  0  0  0  0
  146.4548  142.1401  156.5595 C   0  0  0  0  0  0  0  0  0  0  0  0
  146.1011  141.4744  155.2027 C   0  0  2  0  0  0  0  0  0  0  0  0
  146.5041  142.4024  154.0314 C   0  0  0  0  0  0  0  0  0  0  0  0
  144.6556  141.0851  155.0905 N   0  3  0  0  0  0  0  0  0  0  0  0
  144.3061  139.9140  155.9419 C   0  0  0  0  0  0  0  0  0  0  0  0
  142.8376  139.5013  155.7501 C   0  0  0  0  0  0  0  0  0  0  0  0
  141.9939  140.6002  156.0567 O   0  0  0  0  0  0  0  0  0  0  0  0
  142.2299  141.6925  155.1818 C   0  0  0  0  0  0  0  0  0  0  0  0
  143.6800  142.1846  155.3345 C   0  0  0  0  0  0  0  0  0  0  0  0
  152.0711  141.7534  159.7453 H   0  0  0  0  0  0  0  0  0  0  0  0
  153.6710  141.7183  159.0131 H   0  0  0  0  0  0  0  0  0  0  0  0
  153.0903  140.3346  159.9373 H   0  0  0  0  0  0  0  0  0  0  0  0
  149.1832  140.4469  155.1874 H   0  0  0  0  0  0  0  0  0  0  0  0
  149.8566  138.8462  154.8831 H   0  0  0  0  0  0  0  0  0  0  0  0
  150.5775  140.2664  154.1215 H   0  0  0  0  0  0  0  0  0  0  0  0
  150.3803  142.5858  158.4645 H   0  0  0  0  0  0  0  0  0  0  0  0
  150.3205  142.9220  156.7572 H   0  0  0  0  0  0  0  0  0  0  0  0
  148.2626  143.1824  156.1900 H   0  0  0  0  0  0  0  0  0  0  0  0
  146.1834  141.4973  157.3971 H   0  0  0  0  0  0  0  0  0  0  0  0
  145.9036  143.0759  156.6701 H   0  0  0  0  0  0  0  0  0  0  0  0
  146.6937  140.5605  155.1338 H   0  0  0  0  0  0  0  0  0  0  0  0
  147.5478  142.7097  154.0908 H   0  0  0  0  0  0  0  0  0  0  0  0
  145.8981  143.3089  154.0234 H   0  0  0  0  0  0  0  0  0  0  0  0
  146.3988  141.9232  153.0600 H   0  0  0  0  0  0  0  0  0  0  0  0
  144.9294  139.0539  155.7068 H   0  0  0  0  0  0  0  0  0  0  0  0
  144.4855  140.1590  156.9901 H   0  0  0  0  0  0  0  0  0  0  0  0
  142.6571  139.1558  154.7306 H   0  0  0  0  0  0  0  0  0  0  0  0
  142.5911  138.6731  156.4147 H   0  0  0  0  0  0  0  0  0  0  0  0
  142.0246  141.3996  154.1508 H   0  0  0  0  0  0  0  0  0  0  0  0
  141.5341  142.4952  155.4267 H   0  0  0  0  0  0  0  0  0  0  0  0
  143.8334  142.5959  156.3335 H   0  0  0  0  0  0  0  0  0  0  0  0
  143.8196  142.9950  154.6200 H   0  0  0  0  0  0  0  0  0  0  0  0
  144.5138  140.8014  154.1314 H   0  0  0  0  0  0  0  0  0  0  0  0
  1  2  1  0  0  0  0
  1 21  1  0  0  0  0
  1 22  1  0  0  0  0
  1 23  1  0  0  0  0
  2  7  1  0  0  0  0
  2  3  2  0  0  0  0
  3  4  1  0  0  0  0
  4  5  1  0  0  0  0
  5  6  1  0  0  0  0
  5  7  2  0  0  0  0
  6 24  1  0  0  0  0
  6 25  1  0  0  0  0
  6 26  1  0  0  0  0
  7  8  1  0  0  0  0
  8  9  1  0  0  0  0
  8 27  1  0  0  0  0
  8 28  1  0  0  0  0
  9 10  2  0  0  0  0
  9 11  1  0  0  0  0
 11 12  1  0  0  0  0
 11 29  1  0  0  0  0
 12 13  1  0  0  0  0
 12 30  1  0  0  0  0
 12 31  1  0  0  0  0
 13 14  1  0  0  0  0
 13 15  1  0  0  0  0
 13 32  1  0  0  0  0
 14 33  1  0  0  0  0
 14 34  1  0  0  0  0
 14 35  1  0  0  0  0
 15 20  1  0  0  0  0
 15 16  1  0  0  0  0
 15 44  1  0  0  0  0
 16 17  1  0  0  0  0
 16 36  1  0  0  0  0
 16 37  1  0  0  0  0
 17 18  1  0  0  0  0
 17 38  1  0  0  0  0
 17 39  1  0  0  0  0
 18 19  1  0  0  0  0
 19 20  1  0  0  0  0
 19 40  1  0  0  0  0
 19 41  1  0  0  0  0
 20 42  1  0  0  0  0
 20 43  1  0  0  0  0
M  CHG  1  15   1
M  END
> <s_m_source_file>
AV-unprocessed.smi

> <i_m_source_file_index>
2074

> <i_lp_mmshare_version>
43012

> <i_f3d_flags>
0

> <s_epik_input>
W0NIM11jMW5vYyhbQ0gzXSljMVtDSDJdQyg9TylbTkhdW0NIMl1bQ0BIXShbQ0gzXSlOMltDSDJdW0NIMl1PW0NIMl1bQ0gyXTI=

> <s_epik_cmdline>
J2VwaWtfcHl0aG9uJywgJy1waCcsICc3LjAnLCAnLXRuJywgJzgnLCAnLW1hJywgJzIwMCcsICctbWV0YWxfYmluZGluZycsICctaW1hZScsICc8aW5maWxlLm1hZT4nLCAnLW9tYWUnLCAnPG91dGZpbGUubWFlPic=

> <r_epik_Ionization_Penalty>
0.663207

> <r_epik_Ionization_Penalty_Charging>
0.663207

> <r_epik_Ionization_Penalty_Neutral>
1.0751e-07

> <r_epik_State_Penalty>
0.682743

> <r_epik_Charging_Adjusted_Penalty>
1.34595

> <i_epik_Tot_Q>
1

> <i_epik_Tot_abs_Q>
1

> <r_epik_Metal_State_Penalty>
0.682743

> <b_epik_Metal_Only>
0

> <s_lp_Force_Field>
OPLS_2005

> <r_lp_Energy>
15.5823

> <b_lp_Chiralities_Consistent>
1

> <s_lp_Variant>
AV-unprocessed.smi:2074-3

> <Gold.Version>
5.8.1

> <Gold.Id.Protein>
6NUR|6NUR_protein|mol2

> <Gold.PLP.Fitness>
37.6086

> <Gold.PLP.PLP>
-26.3786

> <Gold.PLP.part.hbond>
-3.5565

> <Gold.PLP.part.metal>
0.0000

> <Gold.PLP.part.buried>
-3.2848

> <Gold.PLP.part.nonpolar>
-19.6897

> <Gold.PLP.part.repulsive>
0.0979

> <Gold.PLP.ligand.clash>
0.0000

> <Gold.PLP.ligand.torsion>
0.4060

> <Gold.PLP.Chemscore.Hbond>
4.0000

> <Gold.PLP.Chemscore.CHOScore>
0.0000

> <Gold.PLP.Chemscore.Metal>
0.0000

> <Gold.Chemscore.Hbonds>
donor molecule, donor type, donor heavy atom, donor atom, acceptor molecule, acceptor atom, score
      L1  H    11    29       P1  8028  1.00
      L1  H    15    44       P1 10175  2.00
      P1  H  7997  8008       L1     3  1.00

> <Gold.PLP.Chemscore.Internal.Correction>
0.0421

> <Gold.Rescore>
     Score         DG    S(hbond)    S(metal)    S(lipo)     H(rot)  DE(clash)    DE(int)     intcor
     13.23     -13.80       1.92        0.00      55.47       1.80       0.09       0.47       ----

> <Gold.Chemscore.Fitness>
13.2313

> <Gold.Chemscore.DG>
-13.7964

> <Gold.Chemscore.ZeroCoef>
-5.4800

> <Gold.Chemscore.Hbond>
1.9236

> <Gold.Chemscore.Metal>
0.0000

> <Gold.Chemscore.Lipo>
55.4674

> <Gold.Chemscore.Internal_Hbond>
0.0000

> <Gold.Chemscore.DEClash>
0.0926

> <Gold.Chemscore.DEInternal>
0.4724

> <Gold.Chemscore.Rot>
1.7961

> <Gold.Chemscore.Internal.Correction>
   9.000000E+99

> <Gold.Chemscore.Hbonds>
donor molecule, donor type, donor heavy atom, donor atom, acceptor molecule, acceptor atom, score
      L1  H    11    29       P1  8028  0.65
      L1  H    15    44       P1 10175  0.97
      P1  H  7997  8008       L1     3  0.22

> <Gold.Chemscore.Hbond.Weighted>
-6.4247

> <Gold.Chemscore.Metal.Weighted>
-0.0000

> <Gold.Chemscore.Lipo.Weighted>
-6.4897

> <Gold.Chemscore.Internal_Hbond.Weighted>
0.0000

> <Gold.Chemscore.DEClash.Weighted>
0.0926

> <Gold.Chemscore.DEInternal.Weighted>
0.4724

> <Gold.Chemscore.Rot.Weighted>
4.5980

> <Gold.Chemscore.Internal.Correction.Weighted>
   9.000000E+99

> <Gold.Protein.RotatedTorsions>
[ 6907 6896 6895 6894 ] final   -8.61 input  -60.11 | X-H torsion
[ 7974 7965 7964 7962 ] final  109.76 input  175.53 | X-H torsion
[ 8008 7997 7996 7995 ] final  -67.56 input   59.86 | X-H torsion
[ 10167 10162 10161 10158 ] final -168.02 input  -65.29 | X-H torsion
[ 10718 10713 10712 10709 ] final  179.07 input   66.30 | X-H torsion
[ 10763 10752 10751 10750 ] final   -6.21 input  -60.55 | X-H torsion
[ 11005 11000 10999 10996 ] final  -59.42 input  -57.11 | X-H torsion

> <Gold.Protein.ActiveResidues>
 VAL166  LYS551  ARG553  GLY616  TRP617  ASP618  TYR619  PRO620  LYS621  CYS622 
 ASP623  PHE694  ASN695  SER759  ASP760  ASP761  ALA762  ILE779  LEU786  VAL792 
 PHE793  MET794  SER795  GLU796  ALA797  LYS798  CYS799  TRP800  GLU811  SER814 

> <Gold.Protein.RotatedAtoms>
  151.4308  135.1009  159.9641 H   0  0  0  0  0  0  0  0  0  0  0  0  # atno 6907 bound_to 6896
  152.4956  133.8619  159.7265 H   0  0  0  0  0  0  0  0  0  0  0  0  # atno 6908 bound_to 6896
  150.9156  133.6885  159.2872 H   0  0  0  0  0  0  0  0  0  0  0  0  # atno 6909 bound_to 6896
  145.2637  139.2692  143.4003 H   0  0  0  0  0  0  0  0  0  0  0  0  # atno 7974 bound_to 7965
  154.4808  140.0890  156.7372 H   0  0  0  0  0  0  0  0  0  0  0  0  # atno 8008 bound_to 7997
  155.4476  140.3456  155.4279 H   0  0  0  0  0  0  0  0  0  0  0  0  # atno 8009 bound_to 7997
  156.1188  140.1468  156.9223 H   0  0  0  0  0  0  0  0  0  0  0  0  # atno 8010 bound_to 7997
  139.6012  144.1007  152.1744 H   0  0  0  0  0  0  0  0  0  0  0  0  # atno 10167 bound_to 10162
  156.8813  130.9816  151.3061 H   0  0  0  0  0  0  0  0  0  0  0  0  # atno 10718 bound_to 10713
  153.4092  135.7007  153.6371 H   0  0  0  0  0  0  0  0  0  0  0  0  # atno 10763 bound_to 10752
  153.4872  135.3680  155.2473 H   0  0  0  0  0  0  0  0  0  0  0  0  # atno 10764 bound_to 10752
  154.8716  135.4080  154.3441 H   0  0  0  0  0  0  0  0  0  0  0  0  # atno 10765 bound_to 10752
  141.1247  133.6616  156.5068 H   0  0  0  0  0  0  0  0  0  0  0  0  # atno 11005 bound_to 11000
  146.3267  140.3061  142.8624 LP  0  0  0  0  0  0  0  0  0  0  0  0  # atno 17320 bound_to 7965
  144.9396  140.8064  143.5639 LP  0  0  0  0  0  0  0  0  0  0  0  0  # atno 17321 bound_to 7965
  140.0604  144.5861  150.7268 LP  0  0  0  0  0  0  0  0  0  0  0  0  # atno 17342 bound_to 10162
  140.7251  143.2628  151.4148 LP  0  0  0  0  0  0  0  0  0  0  0  0  # atno 17343 bound_to 10162
  157.6139  130.8603  149.8996 LP  0  0  0  0  0  0  0  0  0  0  0  0  # atno 17370 bound_to 10713
  156.0676  130.3690  150.0845 LP  0  0  0  0  0  0  0  0  0  0  0  0  # atno 17371 bound_to 10713
  140.4401  134.7023  157.4987 LP  0  0  0  0  0  0  0  0  0  0  0  0  # atno 17394 bound_to 11000
  140.0235  134.6512  155.9206 LP  0  0  0  0  0  0  0  0  0  0  0  0  # atno 17395 bound_to 11000

$$$$
