#       Name:                AV-unprocessed.smi:2906
#       Creating user name   scv26
#       Creation time:       Fri Mar 27 16:05:13 2020


#       File generated by GOLD software.
#

@<TRIPOS>MOLECULE
AV-unprocessed.smi:2906
    45    46     1
SMALL
NO_CHARGES


@<TRIPOS>ATOM
      1 ****        -4.5645  -2.7757  -4.4839 C.3            1 S1                 0.0000
      2 ****        -3.6303  -2.0775  -3.4821 C.3            1 S1                 0.0000
      3 ****        -3.6124  -2.7332  -2.0909 C.2            1 S1                 0.0000
      4 ****        -4.3496  -3.6923  -1.8557 O.2            1 S1                 0.0000
      5 ****        -2.7749  -2.2303  -1.1599 N.am           1 S1                 0.0000
      6 ****        -2.6500  -2.7777   0.1883 C.3            1 S1                 0.0000
      7 ****        -1.4521  -2.0706   0.8208 C.3            1 S1                 0.0000
      8 ****        -1.3228  -0.7587   0.0473 C.3            1 S1                 0.0000
      9 ****         0.0572  -0.2881  -0.0326 N.am           1 S1                 0.0000
     10 ****         0.7404   0.2985   0.9608 C.2            1 S1                 0.0000
     11 ****         0.1979   0.4847   2.0527 O.2            1 S1                 0.0000
     12 ****         2.0100   0.6288   0.6302 N.pl3          1 S1                -1.0000
     13 ****         2.8119   1.2022   1.5423 C.2            1 S1                 0.0000
     14 ****         3.0452   2.5186   1.5852 N.2            1 S1                 0.0000
     15 ****         3.9080   2.9010   2.6159 C.2            1 S1                 0.0000
     16 ****         4.2629   4.3453   2.7989 C.3            1 S1                 0.0000
     17 ****         5.3490   4.8060   1.8203 C.3            1 S1                 0.0000
     18 ****         4.3520   1.8426   3.3654 C.2            1 S1                 0.0000
     19 ****         3.6949   0.3337   2.7999 S.3            1 S1                 0.0000
     20 ****        -1.8835  -1.0854  -1.3416 C.3            1 S1                 0.0000
     21 ****        -4.5292  -2.2781  -5.4532 H              1 S1                 0.0000
     22 ****        -5.6005  -2.7562  -4.1431 H              1 S1                 0.0000
     23 ****        -4.2784  -3.8167  -4.6381 H              1 S1                 0.0000
     24 ****        -2.6166  -2.0741  -3.8841 H              1 S1                 0.0000
     25 ****        -3.9362  -1.0362  -3.3779 H              1 S1                 0.0000
     26 ****        -3.5613  -2.5576   0.7460 H              1 S1                 0.0000
     27 ****        -2.5105  -3.8597   0.1795 H              1 S1                 0.0000
     28 ****        -1.5731  -1.9159   1.8936 H              1 S1                 0.0000
     29 ****        -0.5598  -2.6817   0.6748 H              1 S1                 0.0000
     30 ****        -1.9568  -0.0007   0.5116 H              1 S1                 0.0000
     31 ****         0.5374  -0.4210  -0.9105 H              1 S1                 0.0000
     32 ****         3.3756   4.9659   2.6687 H              1 S1                 0.0000
     33 ****         4.6024   4.5204   3.8203 H              1 S1                 0.0000
     34 ****         5.5913   5.8575   1.9749 H              1 S1                 0.0000
     35 ****         5.0235   4.6880   0.7864 H              1 S1                 0.0000
     36 ****         6.2654   4.2295   1.9505 H              1 S1                 0.0000
     37 ****         5.0239   1.8573   4.2100 H              1 S1                 0.0000
     38 ****        -1.0871  -1.3713  -2.0311 H              1 S1                 0.0000
     39 ****        -2.4009  -0.2219  -1.7615 H              1 S1                 0.0000
     40 ****        -4.9574  -4.0423  -2.5684 LP             1 S1                 0.0000
     41 ****        -4.3400  -4.1205  -0.9520 LP             1 S1                 0.0000
     42 ****        -0.7495   0.1984   2.1957 LP             1 S1                 0.0000
     43 ****         0.7055   0.9220   2.7951 LP             1 S1                 0.0000
     44 ****         2.3509   0.4463  -0.2920 LP             1 S1                 0.0000
     45 ****         2.6407   3.1676   0.9409 LP             1 S1                 0.0000
@<TRIPOS>BOND
    1    1    2 1     
    2    1   21 1     
    3    1   22 1     
    4    1   23 1     
    5    2    3 1     
    6    2   24 1     
    7    2   25 1     
    8    3    4 2     
    9    3    5 am    
   10    5   20 1     
   11    5    6 1     
   12    6    7 1     
   13    6   26 1     
   14    6   27 1     
   15    7    8 1     
   16    7   28 1     
   17    7   29 1     
   18    8    9 1     
   19    8   20 1     
   20    8   30 1     
   21    9   10 am    
   22    9   31 1     
   23   10   11 2     
   24   10   12 1     
   25   12   13 1     
   26   13   19 1     
   27   13   14 2     
   28   14   15 1     
   29   15   16 1     
   30   15   18 2     
   31   16   17 1     
   32   16   32 1     
   33   16   33 1     
   34   17   34 1     
   35   17   35 1     
   36   17   36 1     
   37   18   19 1     
   38   18   37 1     
   39   20   38 1     
   40   20   39 1     
   41    4   40 1     
   42    4   41 1     
   43   11   42 1     
   44   11   43 1     
   45   12   44 1     
   46   14   45 1     
@<TRIPOS>SUBSTRUCTURE
      1 S1             1
@<TRIPOS>SET
LONE_PAIRS      STATIC     ATOMS    <user>   **** ""
6 40 41 42 43 44 45
DONOR_HYDROGENS      STATIC     ATOMS    <user>   **** ""
1 31
ATOM$BLUE        STATIC     ATOMS    COLORGROUP SYSTEM
6 40 41 42 43 44 45
ATOM$RED        STATIC     ATOMS    COLORGROUP SYSTEM
1 31
