AV-unprocessed.smi:3245|AV-procd|sdf|12405|dock1
  -GOLD-   2272018283D 1   1.00000     0.00000
 Structure written by MMmdl.
 35 36  0  0  0  0  0  0  0  0  1 V2000
  144.0981  137.1925  153.0178 C   0  0  0  0  0  0  0  0  0  0  0  0
  145.3341  136.5566  152.3494 C   0  0  1  0  0  0  0  0  0  0  0  0
  145.0088  135.9173  150.9832 C   0  0  0  0  0  0  0  0  0  0  0  0
  145.1634  134.4735  150.9804 N   0  0  0  0  0  0  0  0  0  0  0  0
  144.2062  133.5093  150.7433 C   0  0  0  0  0  0  0  0  0  0  0  0
  144.8208  132.2939  150.8405 C   0  0  0  0  0  0  0  0  0  0  0  0
  146.1730  132.6220  151.1382 C   0  0  0  0  0  0  0  0  0  0  0  0
  146.3761  133.9272  151.2170 N   0  0  0  0  0  0  0  0  0  0  0  0
  146.3633  137.5644  152.1251 N   0  0  0  0  0  0  0  0  0  0  0  0
  146.5417  138.4373  153.2775 C   0  0  0  0  0  0  0  0  0  0  0  0
  146.9125  139.8578  152.8147 C   0  0  0  0  0  0  0  0  0  0  0  0
  147.5981  140.6189  153.8658 N   0  0  0  0  0  0  0  0  0  0  0  0
  148.7298  140.2289  154.4679 C   0  0  0  0  0  0  0  0  0  0  0  0
  149.3688  139.1961  154.2691 O   0  0  0  0  0  0  0  0  0  0  0  0
  149.1309  141.2905  155.4688 C   0  0  0  0  0  0  0  0  0  0  0  0
  148.0487  142.2284  155.2626 N   0  0  0  0  0  0  0  0  0  0  0  0
  147.1829  141.8122  154.3294 C   0  0  0  0  0  0  0  0  0  0  0  0
  146.1829  142.4297  153.9661 O   0  0  0  0  0  0  0  0  0  0  0  0
  143.3166  136.4525  153.1900 H   0  0  0  0  0  0  0  0  0  0  0  0
  143.6743  137.9811  152.3950 H   0  0  0  0  0  0  0  0  0  0  0  0
  144.3341  137.6268  153.9885 H   0  0  0  0  0  0  0  0  0  0  0  0
  145.7363  135.7783  153.0000 H   0  0  0  0  0  0  0  0  0  0  0  0
  143.9839  136.1509  150.6906 H   0  0  0  0  0  0  0  0  0  0  0  0
  145.6556  136.3286  150.2068 H   0  0  0  0  0  0  0  0  0  0  0  0
  143.1786  133.7652  150.5307 H   0  0  0  0  0  0  0  0  0  0  0  0
  144.3729  131.3191  150.7167 H   0  0  0  0  0  0  0  0  0  0  0  0
  147.0076  131.9552  151.2970 H   0  0  0  0  0  0  0  0  0  0  0  0
  147.2420  137.1063  151.9288 H   0  0  0  0  0  0  0  0  0  0  0  0
  145.6445  138.4659  153.8950 H   0  0  0  0  0  0  0  0  0  0  0  0
  147.3448  138.0382  153.8980 H   0  0  0  0  0  0  0  0  0  0  0  0
  147.5706  139.7899  151.9471 H   0  0  0  0  0  0  0  0  0  0  0  0
  146.0249  140.3869  152.4630 H   0  0  0  0  0  0  0  0  0  0  0  0
  149.1391  140.9026  156.4879 H   0  0  0  0  0  0  0  0  0  0  0  0
  150.0979  141.7307  155.2231 H   0  0  0  0  0  0  0  0  0  0  0  0
  147.9704  143.0986  155.7690 H   0  0  0  0  0  0  0  0  0  0  0  0
  1  2  1  0  0  0  0
  1 19  1  0  0  0  0
  1 20  1  0  0  0  0
  1 21  1  0  0  0  0
  2  3  1  0  0  0  0
  2  9  1  0  0  0  0
  2 22  1  0  0  0  0
  3  4  1  0  0  0  0
  3 23  1  0  0  0  0
  3 24  1  0  0  0  0
  4  8  1  0  0  0  0
  4  5  1  0  0  0  0
  5  6  2  0  0  0  0
  5 25  1  0  0  0  0
  6  7  1  0  0  0  0
  6 26  1  0  0  0  0
  7  8  2  0  0  0  0
  7 27  1  0  0  0  0
  9 10  1  0  0  0  0
  9 28  1  0  0  0  0
 10 11  1  0  0  0  0
 10 29  1  0  0  0  0
 10 30  1  0  0  0  0
 11 12  1  0  0  0  0
 11 31  1  0  0  0  0
 11 32  1  0  0  0  0
 12 17  1  0  0  0  0
 12 13  1  0  0  0  0
 13 14  2  0  0  0  0
 13 15  1  0  0  0  0
 15 16  1  0  0  0  0
 15 33  1  0  0  0  0
 15 34  1  0  0  0  0
 16 17  1  0  0  0  0
 16 35  1  0  0  0  0
 17 18  2  0  0  0  0
M  END
> <s_m_source_file>
AV-unprocessed.smi

> <i_m_source_file_index>
3245

> <i_lp_mmshare_version>
43012

> <i_f3d_flags>
0

> <s_epik_input>
bjFbY0hdW2NIXVtjSF1uMVtDSDJdW0NAQEhdKFtDSDNdKVtOSF1bQ0gyXVtDSDJdTjJDKD1PKVtDSDJdW05IXUMyPU8=

> <s_epik_cmdline>
J2VwaWtfcHl0aG9uJywgJy1waCcsICc3LjAnLCAnLXRuJywgJzgnLCAnLW1hJywgJzIwMCcsICctbWV0YWxfYmluZGluZycsICctaW1hZScsICc8aW5maWxlLm1hZT4nLCAnLW9tYWUnLCAnPG91dGZpbGUubWFlPic=

> <r_lp_tautomer_probability>
1

> <r_epik_Ionization_Penalty>
2.14948

> <r_epik_Ionization_Penalty_Charging>
0

> <r_epik_Ionization_Penalty_Neutral>
2.14948

> <r_epik_State_Penalty>
2.28912

> <r_epik_Charging_Adjusted_Penalty>
2.28912

> <i_epik_Tot_Q>
0

> <i_epik_Tot_abs_Q>
0

> <r_epik_Metal_State_Penalty>
2.36471

> <b_epik_Metal_Only>
0

> <s_lp_Force_Field>
OPLS_2005

> <r_lp_Energy>
25.1449

> <b_lp_Chiralities_Consistent>
1

> <s_lp_Variant>
AV-unprocessed.smi:3245-4

> <Gold.Version>
5.8.1

> <Gold.Id.Protein>
6NUR|6NUR_protein|mol2

> <Gold.PLP.Fitness>
43.5010

> <Gold.PLP.PLP>
-33.9930

> <Gold.PLP.part.hbond>
-2.0000

> <Gold.PLP.part.metal>
0.0000

> <Gold.PLP.part.buried>
-3.0697

> <Gold.PLP.part.nonpolar>
-29.6804

> <Gold.PLP.part.repulsive>
1.2594

> <Gold.PLP.ligand.clash>
0.0000

> <Gold.PLP.ligand.torsion>
1.1891

> <Gold.PLP.Chemscore.Hbond>
1.9280

> <Gold.PLP.Chemscore.CHOScore>
2.0000

> <Gold.PLP.Chemscore.Metal>
0.0000

> <Gold.Chemscore.Hbonds>
donor molecule, donor type, donor heavy atom, donor atom, acceptor molecule, acceptor atom, score
      L1  H     9    28       P1  7948  1.00
      L1  H    16    35       P1  8028  0.67
      L1  C     5    25       P1 10186  1.00
      L1  C     7    27       P1 10747  1.00

> <Gold.PLP.Chemscore.Internal.Correction>
0.1023

> <Gold.Rescore>
     Score         DG    S(hbond)    S(metal)    S(lipo)     H(rot)  DE(clash)    DE(int)     intcor
     10.31     -11.79       1.94        0.00      56.87       2.66       0.28       1.20       ----

> <Gold.Chemscore.Fitness>
10.3116

> <Gold.Chemscore.DG>
-11.7884

> <Gold.Chemscore.ZeroCoef>
-5.4800

> <Gold.Chemscore.Hbond>
1.9361

> <Gold.Chemscore.Metal>
0.0000

> <Gold.Chemscore.Lipo>
56.8686

> <Gold.Chemscore.Internal_Hbond>
0.0000

> <Gold.Chemscore.DEClash>
0.2795

> <Gold.Chemscore.DEInternal>
1.1974

> <Gold.Chemscore.Rot>
2.6609

> <Gold.Chemscore.Internal.Correction>
   9.000000E+99

> <Gold.Chemscore.Hbonds>
donor molecule, donor type, donor heavy atom, donor atom, acceptor molecule, acceptor atom, score
      L1  H     9    28       P1  7948  1.00
      L1  H    16    35       P1  8028  0.41

> <Gold.Chemscore.Hbond.Weighted>
-6.4667

> <Gold.Chemscore.Metal.Weighted>
-0.0000

> <Gold.Chemscore.Lipo.Weighted>
-6.6536

> <Gold.Chemscore.Internal_Hbond.Weighted>
0.0000

> <Gold.Chemscore.DEClash.Weighted>
0.2795

> <Gold.Chemscore.DEInternal.Weighted>
1.1974

> <Gold.Chemscore.Rot.Weighted>
6.8118

> <Gold.Chemscore.Internal.Correction.Weighted>
   9.000000E+99

> <Gold.Protein.RotatedTorsions>
[ 6907 6896 6895 6894 ] final -120.76 input  -60.11 | X-H torsion
[ 7974 7965 7964 7962 ] final  -43.67 input  175.53 | X-H torsion
[ 8008 7997 7996 7995 ] final   40.81 input   59.86 | X-H torsion
[ 10167 10162 10161 10158 ] final  150.49 input  -65.29 | X-H torsion
[ 10718 10713 10712 10709 ] final   47.24 input   66.30 | X-H torsion
[ 10763 10752 10751 10750 ] final -138.89 input  -60.55 | X-H torsion
[ 11005 11000 10999 10996 ] final   72.38 input  -57.11 | X-H torsion

> <Gold.Protein.ActiveResidues>
 VAL166  LYS551  ARG553  GLY616  TRP617  ASP618  TYR619  PRO620  LYS621  CYS622 
 ASP623  PHE694  ASN695  SER759  ASP760  ASP761  ALA762  ILE779  LEU786  VAL792 
 PHE793  MET794  SER795  GLU796  ALA797  LYS798  CYS799  TRP800  GLU811  SER814 

> <Gold.Protein.RotatedAtoms>
  150.8422  133.7917  159.3056 H   0  0  0  0  0  0  0  0  0  0  0  0  # atno 6907 bound_to 6896
  151.5615  135.1063  159.9983 H   0  0  0  0  0  0  0  0  0  0  0  0  # atno 6908 bound_to 6896
  152.4484  133.7538  159.6765 H   0  0  0  0  0  0  0  0  0  0  0  0  # atno 6909 bound_to 6896
  145.9996  140.7090  142.9277 H   0  0  0  0  0  0  0  0  0  0  0  0  # atno 7974 bound_to 7965
  155.2592  140.3358  155.4275 H   0  0  0  0  0  0  0  0  0  0  0  0  # atno 8008 bound_to 7997
  156.2182  140.1798  156.7583 H   0  0  0  0  0  0  0  0  0  0  0  0  # atno 8009 bound_to 7997
  154.5785  140.0658  156.9054 H   0  0  0  0  0  0  0  0  0  0  0  0  # atno 8010 bound_to 7997
  139.4849  144.5518  151.7387 H   0  0  0  0  0  0  0  0  0  0  0  0  # atno 10167 bound_to 10162
  157.4564  130.8169  149.7841 H   0  0  0  0  0  0  0  0  0  0  0  0  # atno 10718 bound_to 10713
  154.8624  135.3599  154.5458 H   0  0  0  0  0  0  0  0  0  0  0  0  # atno 10763 bound_to 10752
  153.6078  135.7010  153.5364 H   0  0  0  0  0  0  0  0  0  0  0  0  # atno 10764 bound_to 10752
  153.3236  135.4144  155.1398 H   0  0  0  0  0  0  0  0  0  0  0  0  # atno 10765 bound_to 10752
  139.9494  134.7254  156.0899 H   0  0  0  0  0  0  0  0  0  0  0  0  # atno 11005 bound_to 11000
  144.6915  140.3210  143.7232 LP  0  0  0  0  0  0  0  0  0  0  0  0  # atno 17320 bound_to 7965
  145.7508  139.1793  143.2322 LP  0  0  0  0  0  0  0  0  0  0  0  0  # atno 17321 bound_to 7965
  140.5073  144.1078  150.5986 LP  0  0  0  0  0  0  0  0  0  0  0  0  # atno 17342 bound_to 10162
  140.3992  143.2712  151.9968 LP  0  0  0  0  0  0  0  0  0  0  0  0  # atno 17343 bound_to 10162
  156.0009  130.3881  150.2610 LP  0  0  0  0  0  0  0  0  0  0  0  0  # atno 17370 bound_to 10713
  157.0785  131.0136  151.3165 LP  0  0  0  0  0  0  0  0  0  0  0  0  # atno 17371 bound_to 10713
  141.1153  133.6630  156.3079 LP  0  0  0  0  0  0  0  0  0  0  0  0  # atno 17394 bound_to 11000
  140.5755  134.5797  157.5468 LP  0  0  0  0  0  0  0  0  0  0  0  0  # atno 17395 bound_to 11000

$$$$
