AV-unprocessed.smi:2126|AV-procd|sdf|8677|dock2
  -GOLD-   2272011433D 1   1.00000     0.00000
 Structure written by MMmdl.
 41 43  0  0  0  0  0  0  0  0  2 V2000
  145.6603  132.5159  161.9517 C   0  0  0  0  0  0  0  0  0  0  0  0
  146.7638  133.1223  162.6079 O   0  0  0  0  0  0  0  0  0  0  0  0
  147.4389  134.1263  161.9477 C   0  0  0  0  0  0  0  0  0  0  0  0
  148.1335  135.1787  162.5930 C   0  0  0  0  0  0  0  0  0  0  0  0
  148.7967  136.1635  161.8358 C   0  0  0  0  0  0  0  0  0  0  0  0
  148.7860  136.1252  160.4275 C   0  0  0  0  0  0  0  0  0  0  0  0
  149.4619  137.1290  159.7676 O   0  0  0  0  0  0  0  0  0  0  0  0
  149.5290  137.0759  158.3486 C   0  0  0  0  0  0  0  0  0  0  0  0
  149.5548  138.5089  157.7962 C   0  0  2  0  0  0  0  0  0  0  0  0
  149.2122  138.4665  156.4250 O   0  0  0  0  0  0  0  0  0  0  0  0
  150.9284  139.1855  157.9781 C   0  0  0  0  0  0  0  0  0  0  0  0
  150.8570  140.6510  157.8886 N   0  0  0  0  0  0  0  0  0  0  0  0
  150.1139  141.4329  157.0595 C   0  0  0  0  0  0  0  0  0  0  0  0
  150.3920  142.7320  157.3587 N   0  3  0  0  0  0  0  0  0  0  0  0
  151.3269  142.7819  158.3947 C   0  0  0  0  0  0  0  0  0  0  0  0
  151.9148  143.8662  159.0389 C   0  0  0  0  0  0  0  0  0  0  0  0
  152.8385  143.5699  160.0627 C   0  0  0  0  0  0  0  0  0  0  0  0
  153.1489  142.2388  160.4088 C   0  0  0  0  0  0  0  0  0  0  0  0
  152.5481  141.1472  159.7478 C   0  0  0  0  0  0  0  0  0  0  0  0
  151.6323  141.4480  158.7397 C   0  0  0  0  0  0  0  0  0  0  0  0
  148.0908  135.0732  159.7825 C   0  0  0  0  0  0  0  0  0  0  0  0
  147.4270  134.0889  160.5395 C   0  0  0  0  0  0  0  0  0  0  0  0
  145.2375  131.7465  162.5973 H   0  0  0  0  0  0  0  0  0  0  0  0
  145.9645  132.0346  161.0213 H   0  0  0  0  0  0  0  0  0  0  0  0
  144.8726  133.2411  161.7432 H   0  0  0  0  0  0  0  0  0  0  0  0
  148.1731  135.2537  163.6690 H   0  0  0  0  0  0  0  0  0  0  0  0
  149.3211  136.9591  162.3443 H   0  0  0  0  0  0  0  0  0  0  0  0
  150.4172  136.5323  158.0220 H   0  0  0  0  0  0  0  0  0  0  0  0
  148.6511  136.5521  157.9661 H   0  0  0  0  0  0  0  0  0  0  0  0
  148.7902  139.0980  158.3044 H   0  0  0  0  0  0  0  0  0  0  0  0
  148.5682  137.7864  156.2977 H   0  0  0  0  0  0  0  0  0  0  0  0
  151.3321  138.9476  158.9630 H   0  0  0  0  0  0  0  0  0  0  0  0
  151.6545  138.8129  157.2554 H   0  0  0  0  0  0  0  0  0  0  0  0
  149.4270  141.0852  156.3012 H   0  0  0  0  0  0  0  0  0  0  0  0
  151.6811  144.8869  158.7735 H   0  0  0  0  0  0  0  0  0  0  0  0
  153.3198  144.3798  160.5919 H   0  0  0  0  0  0  0  0  0  0  0  0
  153.8641  142.0505  161.1965 H   0  0  0  0  0  0  0  0  0  0  0  0
  152.7990  140.1319  160.0167 H   0  0  0  0  0  0  0  0  0  0  0  0
  148.0500  134.9974  158.7067 H   0  0  0  0  0  0  0  0  0  0  0  0
  146.9012  133.2938  160.0313 H   0  0  0  0  0  0  0  0  0  0  0  0
  149.9723  143.5240  156.8889 H   0  0  0  0  0  0  0  0  0  0  0  0
  1  2  1  0  0  0  0
  1 23  1  0  0  0  0
  1 24  1  0  0  0  0
  1 25  1  0  0  0  0
  2  3  1  0  0  0  0
  3 22  1  0  0  0  0
  3  4  2  0  0  0  0
  4  5  1  0  0  0  0
  4 26  1  0  0  0  0
  5  6  2  0  0  0  0
  5 27  1  0  0  0  0
  6  7  1  0  0  0  0
  6 21  1  0  0  0  0
  7  8  1  0  0  0  0
  8  9  1  0  0  0  0
  8 28  1  0  0  0  0
  8 29  1  0  0  0  0
  9 10  1  0  0  0  0
  9 11  1  0  0  0  0
  9 30  1  0  0  0  0
 10 31  1  0  0  0  0
 11 12  1  0  0  0  0
 11 32  1  0  0  0  0
 11 33  1  0  0  0  0
 12 20  1  0  0  0  0
 12 13  1  0  0  0  0
 13 14  2  0  0  0  0
 13 34  1  0  0  0  0
 14 15  1  0  0  0  0
 14 41  1  0  0  0  0
 15 20  2  0  0  0  0
 15 16  1  0  0  0  0
 16 17  2  0  0  0  0
 16 35  1  0  0  0  0
 17 18  1  0  0  0  0
 17 36  1  0  0  0  0
 18 19  2  0  0  0  0
 18 37  1  0  0  0  0
 19 20  1  0  0  0  0
 19 38  1  0  0  0  0
 21 22  2  0  0  0  0
 21 39  1  0  0  0  0
 22 40  1  0  0  0  0
M  CHG  1  14   1
M  END
> <s_m_source_file>
AV-unprocessed.smi

> <i_m_source_file_index>
2126

> <i_lp_mmshare_version>
43012

> <i_f3d_flags>
0

> <s_epik_input>
W0NIM11PYzFbY0hdW2NIXWMoW2NIXVtjSF0xKU9bQ0gyXVtDQEhdKFtPSF0pW0NIMl1uKFtjSF1uMiljKGMyMylbY0hdW2NIXVtjSF1bY0hdMw==

> <s_epik_cmdline>
J2VwaWtfcHl0aG9uJywgJy1waCcsICc3LjAnLCAnLXRuJywgJzgnLCAnLW1hJywgJzIwMCcsICctbWV0YWxfYmluZGluZycsICctaW1hZScsICc8aW5maWxlLm1hZT4nLCAnLW9tYWUnLCAnPG91dGZpbGUubWFlPic=

> <r_lp_tautomer_probability>
1

> <r_epik_Ionization_Penalty>
1.37822

> <r_epik_Ionization_Penalty_Charging>
1.37822

> <r_epik_Ionization_Penalty_Neutral>
2.3993e-06

> <r_epik_State_Penalty>
1.45852

> <r_epik_Charging_Adjusted_Penalty>
2.83674

> <i_epik_Tot_Q>
1

> <i_epik_Tot_abs_Q>
1

> <r_epik_Metal_State_Penalty>
5.4985

> <b_epik_Metal_Only>
0

> <s_lp_Force_Field>
OPLS_2005

> <r_lp_Energy>
23.2038

> <b_lp_Chiralities_Consistent>
1

> <s_lp_Variant>
AV-unprocessed.smi:2126-3

> <Gold.Version>
5.8.1

> <Gold.Id.Protein>
6NUR|6NUR_protein|mol2

> <Gold.PLP.Fitness>
50.4982

> <Gold.PLP.PLP>
-46.6762

> <Gold.PLP.part.hbond>
-3.2970

> <Gold.PLP.part.metal>
0.0000

> <Gold.PLP.part.buried>
-1.5578

> <Gold.PLP.part.nonpolar>
-41.7807

> <Gold.PLP.part.repulsive>
0.0758

> <Gold.PLP.ligand.clash>
0.0000

> <Gold.PLP.ligand.torsion>
1.1899

> <Gold.PLP.Chemscore.Hbond>
2.0000

> <Gold.PLP.Chemscore.CHOScore>
0.0000

> <Gold.PLP.Chemscore.Metal>
0.0000

> <Gold.Chemscore.Hbonds>
donor molecule, donor type, donor heavy atom, donor atom, acceptor molecule, acceptor atom, score
      L1  H    14    41       P1  8028  2.00

> <Gold.PLP.Chemscore.Internal.Correction>
0.2018

> <Gold.Rescore>
     Score         DG    S(hbond)    S(metal)    S(lipo)     H(rot)  DE(clash)    DE(int)     intcor
     14.64     -16.03       1.00        0.00     118.64       2.60       0.09       1.30       ----

> <Gold.Chemscore.Fitness>
14.6423

> <Gold.Chemscore.DG>
-16.0300

> <Gold.Chemscore.ZeroCoef>
-5.4800

> <Gold.Chemscore.Hbond>
0.9989

> <Gold.Chemscore.Metal>
0.0000

> <Gold.Chemscore.Lipo>
118.6387

> <Gold.Chemscore.Internal_Hbond>
0.0000

> <Gold.Chemscore.DEClash>
0.0901

> <Gold.Chemscore.DEInternal>
1.2977

> <Gold.Chemscore.Rot>
2.6043

> <Gold.Chemscore.Internal.Correction>
   9.000000E+99

> <Gold.Chemscore.Hbonds>
donor molecule, donor type, donor heavy atom, donor atom, acceptor molecule, acceptor atom, score
      L1  H    14    41       P1  8028  0.94

> <Gold.Chemscore.Hbond.Weighted>
-3.3363

> <Gold.Chemscore.Metal.Weighted>
-0.0000

> <Gold.Chemscore.Lipo.Weighted>
-13.8807

> <Gold.Chemscore.Internal_Hbond.Weighted>
0.0000

> <Gold.Chemscore.DEClash.Weighted>
0.0901

> <Gold.Chemscore.DEInternal.Weighted>
1.2977

> <Gold.Chemscore.Rot.Weighted>
6.6670

> <Gold.Chemscore.Internal.Correction.Weighted>
   9.000000E+99

> <Gold.Protein.RotatedTorsions>
[ 6907 6896 6895 6894 ] final  107.32 input  -60.11 | X-H torsion
[ 7974 7965 7964 7962 ] final  108.89 input  175.53 | X-H torsion
[ 8008 7997 7996 7995 ] final -158.60 input   59.86 | X-H torsion
[ 10167 10162 10161 10158 ] final -132.63 input  -65.29 | X-H torsion
[ 10718 10713 10712 10709 ] final  -47.05 input   66.30 | X-H torsion
[ 10763 10752 10751 10750 ] final  -79.53 input  -60.55 | X-H torsion
[ 11005 11000 10999 10996 ] final   -2.75 input  -57.11 | X-H torsion

> <Gold.Protein.ActiveResidues>
 VAL166  LYS551  ARG553  GLY616  TRP617  ASP618  TYR619  PRO620  LYS621  CYS622 
 ASP623  PHE694  ASN695  SER759  ASP760  ASP761  ALA762  ILE779  LEU786  VAL792 
 PHE793  MET794  SER795  GLU796  ALA797  LYS798  CYS799  TRP800  GLU811  SER814 

> <Gold.Protein.RotatedAtoms>
  152.5159  133.9252  159.7553 H   0  0  0  0  0  0  0  0  0  0  0  0  # atno 6907 bound_to 6896
  150.9614  133.6432  159.2760 H   0  0  0  0  0  0  0  0  0  0  0  0  # atno 6908 bound_to 6896
  151.3676  135.0921  159.9507 H   0  0  0  0  0  0  0  0  0  0  0  0  # atno 6909 bound_to 6896
  145.2748  139.2653  143.3947 H   0  0  0  0  0  0  0  0  0  0  0  0  # atno 7974 bound_to 7965
  155.7500  140.0825  157.2206 H   0  0  0  0  0  0  0  0  0  0  0  0  # atno 8008 bound_to 7997
  154.4013  140.1562  156.2769 H   0  0  0  0  0  0  0  0  0  0  0  0  # atno 8009 bound_to 7997
  155.8940  140.3413  155.5979 H   0  0  0  0  0  0  0  0  0  0  0  0  # atno 8010 bound_to 7997
  139.9066  143.6544  152.2584 H   0  0  0  0  0  0  0  0  0  0  0  0  # atno 10167 bound_to 10162
  156.2122  130.4161  149.9100 H   0  0  0  0  0  0  0  0  0  0  0  0  # atno 10718 bound_to 10713
  154.5398  135.5692  153.6829 H   0  0  0  0  0  0  0  0  0  0  0  0  # atno 10763 bound_to 10752
  152.9960  135.6225  154.2518 H   0  0  0  0  0  0  0  0  0  0  0  0  # atno 10764 bound_to 10752
  154.2448  135.2861  155.2819 H   0  0  0  0  0  0  0  0  0  0  0  0  # atno 10765 bound_to 10752
  140.6618  133.9314  155.8440 H   0  0  0  0  0  0  0  0  0  0  0  0  # atno 11005 bound_to 11000
  146.3235  140.3200  142.8632 LP  0  0  0  0  0  0  0  0  0  0  0  0  # atno 17320 bound_to 7965
  144.9304  140.7968  143.5693 LP  0  0  0  0  0  0  0  0  0  0  0  0  # atno 17321 bound_to 7965
  139.6979  144.7639  151.1324 LP  0  0  0  0  0  0  0  0  0  0  0  0  # atno 17342 bound_to 10162
  140.7695  143.5498  150.9217 LP  0  0  0  0  0  0  0  0  0  0  0  0  # atno 17343 bound_to 10162
  156.6774  130.8844  151.3571 LP  0  0  0  0  0  0  0  0  0  0  0  0  # atno 17370 bound_to 10713
  157.7044  130.9369  150.0886 LP  0  0  0  0  0  0  0  0  0  0  0  0  # atno 17371 bound_to 10713
  141.0460  134.0554  157.3844 LP  0  0  0  0  0  0  0  0  0  0  0  0  # atno 17394 bound_to 11000
  139.9010  135.0164  156.7270 LP  0  0  0  0  0  0  0  0  0  0  0  0  # atno 17395 bound_to 11000

$$$$
