AV-unprocessed.smi:1664|AV-procd|sdf|6668|dock2
  -GOLD-   22720 7383D 1   1.00000     0.00000
 Structure written by MMmdl.
 35 36  0  0  0  0  0  0  0  0  3 V2000
  148.8762  139.9362  157.1455 C   0  0  0  0  0  0  0  0  0  0  0  0
  149.4088  140.9078  156.0736 C   0  0  2  0  0  0  0  0  0  0  0  0
  150.0483  140.1318  154.9906 C   0  0  0  0  0  0  0  0  0  0  0  0
  150.5489  139.5243  154.1417 N   0  0  0  0  0  0  0  0  0  0  0  0
  150.3707  141.8250  156.6869 N   0  0  0  0  0  0  0  0  0  0  0  0
  150.2671  142.4610  157.8687 C   0  0  0  0  0  0  0  0  0  0  0  0
  149.2921  142.3441  158.6091 O   0  0  0  0  0  0  0  0  0  0  0  0
  151.4270  143.3722  158.3065 C   0  0  0  0  0  0  0  0  0  0  0  0
  152.1031  142.9651  159.5522 N   0  0  0  0  0  0  0  0  0  0  0  0
  152.9708  141.8578  159.4739 C   0  0  0  0  0  0  0  0  0  0  0  0
  153.6464  141.3999  160.5461 C   0  0  0  0  0  0  0  0  0  0  0  0
  154.5429  140.2695  160.4445 N   0  3  0  0  0  0  0  0  0  0  0  0
  154.6876  139.7299  159.3523 O   0  0  0  0  0  0  0  0  0  0  0  0
  155.1299  139.8828  161.4506 O   0  5  0  0  0  0  0  0  0  0  0  0
  153.4509  142.0856  161.8089 C   0  0  0  0  0  0  0  0  0  0  0  0
  152.6272  143.1493  161.8890 C   0  0  0  0  0  0  0  0  0  0  0  0
  151.9016  143.6523  160.7182 C   0  0  0  0  0  0  0  0  0  0  0  0
  151.1641  144.6358  160.7797 O   0  0  0  0  0  0  0  0  0  0  0  0
  148.2307  141.6988  155.5093 C   0  0  0  0  0  0  0  0  0  0  0  0
  147.1211  141.0509  154.7113 C   0  0  0  0  0  0  0  0  0  0  0  0
  148.0820  142.0049  154.0358 C   0  0  0  0  0  0  0  0  0  0  0  0
  148.1112  139.2787  156.7314 H   0  0  0  0  0  0  0  0  0  0  0  0
  148.4297  140.4734  157.9834 H   0  0  0  0  0  0  0  0  0  0  0  0
  149.6641  139.2970  157.5443 H   0  0  0  0  0  0  0  0  0  0  0  0
  151.2144  141.9872  156.1570 H   0  0  0  0  0  0  0  0  0  0  0  0
  152.1445  143.4345  157.4864 H   0  0  0  0  0  0  0  0  0  0  0  0
  151.0361  144.3856  158.4102 H   0  0  0  0  0  0  0  0  0  0  0  0
  153.0520  141.4222  158.4881 H   0  0  0  0  0  0  0  0  0  0  0  0
  153.9629  141.7513  162.6993 H   0  0  0  0  0  0  0  0  0  0  0  0
  152.4967  143.6452  162.8397 H   0  0  0  0  0  0  0  0  0  0  0  0
  147.9061  142.4957  156.1767 H   0  0  0  0  0  0  0  0  0  0  0  0
  147.2079  139.9941  154.4682 H   0  0  0  0  0  0  0  0  0  0  0  0
  146.1066  141.4025  154.8882 H   0  0  0  0  0  0  0  0  0  0  0  0
  147.7046  142.9890  153.7658 H   0  0  0  0  0  0  0  0  0  0  0  0
  148.8077  141.5831  153.3437 H   0  0  0  0  0  0  0  0  0  0  0  0
  1  2  1  0  0  0  0
  1 22  1  0  0  0  0
  1 23  1  0  0  0  0
  1 24  1  0  0  0  0
  2  3  1  0  0  0  0
  2  5  1  0  0  0  0
  2 19  1  0  0  0  0
  3  4  3  0  0  0  0
  5  6  1  0  0  0  0
  5 25  1  0  0  0  0
  6  7  2  0  0  0  0
  6  8  1  0  0  0  0
  8  9  1  0  0  0  0
  8 26  1  0  0  0  0
  8 27  1  0  0  0  0
  9 17  1  0  0  0  0
  9 10  1  0  0  0  0
 10 11  2  0  0  0  0
 10 28  1  0  0  0  0
 11 12  1  0  0  0  0
 11 15  1  0  0  0  0
 12 13  2  0  0  0  0
 12 14  1  0  0  0  0
 15 16  2  0  0  0  0
 15 29  1  0  0  0  0
 16 17  1  0  0  0  0
 16 30  1  0  0  0  0
 17 18  2  0  0  0  0
 19 21  1  0  0  0  0
 19 20  1  0  0  0  0
 19 31  1  0  0  0  0
 20 21  1  0  0  0  0
 20 32  1  0  0  0  0
 20 33  1  0  0  0  0
 21 34  1  0  0  0  0
 21 35  1  0  0  0  0
M  CHG  1  12   1
M  CHG  1  14  -1
M  END
> <s_m_source_file>
AV-unprocessed.smi

> <i_m_source_file_index>
1664

> <i_lp_mmshare_version>
43012

> <i_f3d_flags>
0

> <s_epik_input>
W0NIMl0xW0NIMl1bQ0hdMVtDQF0oW0NIM10pKEMjTilbTkhdQyg9TylbQ0gyXW4yW2NIXWMoW04rXSg9TylbTy1dKVtjSF1bY0hdYzI9Tw==

> <s_epik_cmdline>
J2VwaWtfcHl0aG9uJywgJy1waCcsICc3LjAnLCAnLXRuJywgJzgnLCAnLW1hJywgJzIwMCcsICctbWV0YWxfYmluZGluZycsICctaW1hZScsICc8aW5maWxlLm1hZT4nLCAnLW9tYWUnLCAnPG91dGZpbGUubWFlPic=

> <r_lp_tautomer_probability>
1

> <r_epik_Ionization_Penalty>
4.65324e-07

> <r_epik_Ionization_Penalty_Charging>
6.17383e-11

> <r_epik_Ionization_Penalty_Neutral>
4.65262e-07

> <r_epik_State_Penalty>
-0

> <r_epik_Charging_Adjusted_Penalty>
6.17383e-11

> <i_epik_Tot_Q>
0

> <i_epik_Tot_abs_Q>
2

> <r_epik_Metal_State_Penalty>
-0

> <b_epik_Metal_Only>
0

> <s_lp_Force_Field>
OPLS_2005

> <r_lp_Energy>
24.1204

> <b_lp_Chiralities_Consistent>
1

> <s_lp_Variant>
AV-unprocessed.smi:1664-2

> <Gold.Version>
5.8.1

> <Gold.Id.Protein>
6NUR|6NUR_protein|mol2

> <Gold.PLP.Fitness>
47.8485

> <Gold.PLP.PLP>
-43.1108

> <Gold.PLP.part.hbond>
-2.5091

> <Gold.PLP.part.metal>
0.0000

> <Gold.PLP.part.buried>
-2.8684

> <Gold.PLP.part.nonpolar>
-35.5062

> <Gold.PLP.part.repulsive>
0.6407

> <Gold.PLP.ligand.clash>
0.0000

> <Gold.PLP.ligand.torsion>
1.3976

> <Gold.PLP.Chemscore.Hbond>
2.0000

> <Gold.PLP.Chemscore.CHOScore>
0.0000

> <Gold.PLP.Chemscore.Metal>
0.0000

> <Gold.Chemscore.Hbonds>
donor molecule, donor type, donor heavy atom, donor atom, acceptor molecule, acceptor atom, score
      P1  H  7989  7998       L1     4  0.90
      P1  H  7997  8009       L1    13  0.89

> <Gold.PLP.Chemscore.Internal.Correction>
1.5329

> <Gold.Rescore>
     Score         DG    S(hbond)    S(metal)    S(lipo)     H(rot)  DE(clash)    DE(int)     intcor
     11.83     -14.55       1.49        0.00      77.51       1.94       0.03       2.70       ----

> <Gold.Chemscore.Fitness>
11.8261

> <Gold.Chemscore.DG>
-14.5481

> <Gold.Chemscore.ZeroCoef>
-5.4800

> <Gold.Chemscore.Hbond>
1.4857

> <Gold.Chemscore.Metal>
0.0000

> <Gold.Chemscore.Lipo>
77.5101

> <Gold.Chemscore.Internal_Hbond>
0.0000

> <Gold.Chemscore.DEClash>
0.0253

> <Gold.Chemscore.DEInternal>
2.6967

> <Gold.Chemscore.Rot>
1.9386

> <Gold.Chemscore.Internal.Correction>
   9.000000E+99

> <Gold.Chemscore.Hbonds>
donor molecule, donor type, donor heavy atom, donor atom, acceptor molecule, acceptor atom, score
      P1  H  7989  7998       L1     4  0.18
      P1  H  7997  8009       L1    13  0.85

> <Gold.Chemscore.Hbond.Weighted>
-4.9621

> <Gold.Chemscore.Metal.Weighted>
-0.0000

> <Gold.Chemscore.Lipo.Weighted>
-9.0687

> <Gold.Chemscore.Internal_Hbond.Weighted>
0.0000

> <Gold.Chemscore.DEClash.Weighted>
0.0253

> <Gold.Chemscore.DEInternal.Weighted>
2.6967

> <Gold.Chemscore.Rot.Weighted>
4.9627

> <Gold.Chemscore.Internal.Correction.Weighted>
   9.000000E+99

> <Gold.Protein.RotatedTorsions>
[ 6907 6896 6895 6894 ] final    4.55 input  -60.11 | X-H torsion
[ 7974 7965 7964 7962 ] final -164.58 input  175.53 | X-H torsion
[ 8008 7997 7996 7995 ] final  121.46 input   59.86 | X-H torsion
[ 10167 10162 10161 10158 ] final  132.33 input  -65.29 | X-H torsion
[ 10718 10713 10712 10709 ] final  168.93 input   66.30 | X-H torsion
[ 10763 10752 10751 10750 ] final   47.41 input  -60.55 | X-H torsion
[ 11005 11000 10999 10996 ] final -111.17 input  -57.11 | X-H torsion

> <Gold.Protein.ActiveResidues>
 VAL166  LYS551  ARG553  GLY616  TRP617  ASP618  TYR619  PRO620  LYS621  CYS622 
 ASP623  PHE694  ASN695  SER759  ASP760  ASP761  ALA762  ILE779  LEU786  VAL792 
 PHE793  MET794  SER795  GLU796  ALA797  LYS798  CYS799  TRP800  GLU811  SER814 

> <Gold.Protein.RotatedAtoms>
  151.6431  135.1010  160.0145 H   0  0  0  0  0  0  0  0  0  0  0  0  # atno 6907 bound_to 6896
  152.4043  133.6861  159.6351 H   0  0  0  0  0  0  0  0  0  0  0  0  # atno 6908 bound_to 6896
  150.7939  133.8654  159.3284 H   0  0  0  0  0  0  0  0  0  0  0  0  # atno 6909 bound_to 6896
  144.7293  140.2940  143.6216 H   0  0  0  0  0  0  0  0  0  0  0  0  # atno 7974 bound_to 7965
  156.2687  140.2808  156.1312 H   0  0  0  0  0  0  0  0  0  0  0  0  # atno 8008 bound_to 7997
  155.1053  140.0390  157.2726 H   0  0  0  0  0  0  0  0  0  0  0  0  # atno 8009 bound_to 7997
  154.6784  140.2603  155.6940 H   0  0  0  0  0  0  0  0  0  0  0  0  # atno 8010 bound_to 7997
  139.5344  144.6667  151.4836 H   0  0  0  0  0  0  0  0  0  0  0  0  # atno 10167 bound_to 10162
  157.0300  131.0256  151.2747 H   0  0  0  0  0  0  0  0  0  0  0  0  # atno 10718 bound_to 10713
  152.9800  135.5977  154.3758 H   0  0  0  0  0  0  0  0  0  0  0  0  # atno 10763 bound_to 10752
  154.3427  135.2767  155.2416 H   0  0  0  0  0  0  0  0  0  0  0  0  # atno 10764 bound_to 10752
  154.4490  135.5994  153.6234 H   0  0  0  0  0  0  0  0  0  0  0  0  # atno 10765 bound_to 10752
  141.0750  133.9317  157.2408 H   0  0  0  0  0  0  0  0  0  0  0  0  # atno 11005 bound_to 11000
  145.7827  139.1897  143.2148 LP  0  0  0  0  0  0  0  0  0  0  0  0  # atno 17320 bound_to 7965
  146.0821  140.7752  142.9636 LP  0  0  0  0  0  0  0  0  0  0  0  0  # atno 17321 bound_to 7965
  140.6542  143.8633  150.6818 LP  0  0  0  0  0  0  0  0  0  0  0  0  # atno 17342 bound_to 10162
  140.2007  143.3961  152.1793 LP  0  0  0  0  0  0  0  0  0  0  0  0  # atno 17343 bound_to 10162
  157.5185  130.7983  149.7782 LP  0  0  0  0  0  0  0  0  0  0  0  0  # atno 17370 bound_to 10713
  156.0073  130.3849  150.2387 LP  0  0  0  0  0  0  0  0  0  0  0  0  # atno 17371 bound_to 10713
  139.9562  135.0165  156.9135 LP  0  0  0  0  0  0  0  0  0  0  0  0  # atno 17394 bound_to 11000
  140.5593  134.0550  155.7393 LP  0  0  0  0  0  0  0  0  0  0  0  0  # atno 17395 bound_to 11000

$$$$
