AV-unprocessed.smi:1047|AV-procd|sdf|4587|dock2
  -GOLD-   22720 3 63D 1   1.00000     0.00000
 Structure written by MMmdl.
 58 60  0  0  0  0  0  0  0  0  4 V2000
  144.6077  134.6329  150.4653 C   0  0  0  0  0  0  0  0  0  0  0  0
  143.7425  135.0059  151.6772 C   0  0  0  0  0  0  0  0  0  0  0  0
  144.5109  135.7183  152.7289 N   0  3  2  0  0  0  0  0  0  0  0  0
  143.6785  136.1612  153.8744 C   0  0  0  0  0  0  0  0  0  0  0  0
  144.5455  136.8717  154.9269 C   0  0  0  0  0  0  0  0  0  0  0  0
  145.2369  137.9597  154.3246 O   0  0  0  0  0  0  0  0  0  0  0  0
  146.1194  137.5341  153.2914 C   0  0  2  0  0  0  0  0  0  0  0  0
  146.8750  138.7653  152.7674 C   0  0  0  0  0  0  0  0  0  0  0  0
  148.3285  138.6439  152.9986 N   0  3  0  0  0  0  0  0  0  0  0  0
  148.7177  138.6813  154.4229 C   0  0  0  0  0  0  0  0  0  0  0  0
  150.2347  138.4729  154.5927 C   0  0  1  0  0  0  0  0  0  0  0  0
  150.9066  139.1314  153.5384 O   0  0  0  0  0  0  0  0  0  0  0  0
  150.8036  139.0171  155.9185 C   0  0  0  0  0  0  0  0  0  0  0  0
  150.6179  140.4668  156.0740 N   0  0  0  0  0  0  0  0  0  0  0  0
  149.8960  141.3320  155.3106 C   0  0  0  0  0  0  0  0  0  0  0  0
  150.0215  142.5705  155.8620 N   0  3  0  0  0  0  0  0  0  0  0  0
  150.8306  142.4958  156.9972 C   0  0  0  0  0  0  0  0  0  0  0  0
  151.2432  143.4816  157.8854 C   0  0  0  0  0  0  0  0  0  0  0  0
  152.0752  143.0798  158.9543 C   0  0  0  0  0  0  0  0  0  0  0  0
  152.5424  144.1326  159.9449 C   0  0  0  0  0  0  0  0  0  0  0  0
  152.4673  141.7245  159.1043 C   0  0  0  0  0  0  0  0  0  0  0  0
  153.3634  141.3039  160.2571 C   0  0  0  0  0  0  0  0  0  0  0  0
  152.0364  140.7361  158.1904 C   0  0  0  0  0  0  0  0  0  0  0  0
  151.2158  141.1482  157.1422 C   0  0  0  0  0  0  0  0  0  0  0  0
  145.2862  136.8586  152.1838 C   0  0  0  0  0  0  0  0  0  0  0  0
  143.9931  134.1995  149.6760 H   0  0  0  0  0  0  0  0  0  0  0  0
  145.3713  133.8981  150.7179 H   0  0  0  0  0  0  0  0  0  0  0  0
  145.1056  135.5097  150.0505 H   0  0  0  0  0  0  0  0  0  0  0  0
  142.9378  135.6527  151.3255 H   0  0  0  0  0  0  0  0  0  0  0  0
  143.2652  134.1189  152.0962 H   0  0  0  0  0  0  0  0  0  0  0  0
  142.8965  136.8351  153.5207 H   0  0  0  0  0  0  0  0  0  0  0  0
  143.1811  135.3091  154.3368 H   0  0  0  0  0  0  0  0  0  0  0  0
  143.9183  137.2545  155.7322 H   0  0  0  0  0  0  0  0  0  0  0  0
  145.2560  136.1782  155.3796 H   0  0  0  0  0  0  0  0  0  0  0  0
  146.8382  136.8169  153.6931 H   0  0  0  0  0  0  0  0  0  0  0  0
  146.7049  138.8730  151.6952 H   0  0  0  0  0  0  0  0  0  0  0  0
  146.4997  139.6720  153.2443 H   0  0  0  0  0  0  0  0  0  0  0  0
  148.6473  137.7713  152.6015 H   0  0  0  0  0  0  0  0  0  0  0  0
  148.4112  139.6293  154.8673 H   0  0  0  0  0  0  0  0  0  0  0  0
  148.1681  137.8931  154.9380 H   0  0  0  0  0  0  0  0  0  0  0  0
  150.4617  137.4080  154.5228 H   0  0  0  0  0  0  0  0  0  0  0  0
  150.3565  139.1176  152.7694 H   0  0  0  0  0  0  0  0  0  0  0  0
  150.2963  138.5434  156.7602 H   0  0  0  0  0  0  0  0  0  0  0  0
  151.8603  138.7725  156.0274 H   0  0  0  0  0  0  0  0  0  0  0  0
  149.3243  141.0815  154.4284 H   0  0  0  0  0  0  0  0  0  0  0  0
  150.9401  144.5118  157.7649 H   0  0  0  0  0  0  0  0  0  0  0  0
  152.1956  143.8930  160.9503 H   0  0  0  0  0  0  0  0  0  0  0  0
  152.1593  145.1207  159.6876 H   0  0  0  0  0  0  0  0  0  0  0  0
  153.6310  144.1907  159.9580 H   0  0  0  0  0  0  0  0  0  0  0  0
  153.5684  140.2330  160.2339 H   0  0  0  0  0  0  0  0  0  0  0  0
  152.8905  141.5312  161.2129 H   0  0  0  0  0  0  0  0  0  0  0  0
  154.3191  141.8268  160.2103 H   0  0  0  0  0  0  0  0  0  0  0  0
  152.3377  139.7062  158.3099 H   0  0  0  0  0  0  0  0  0  0  0  0
  145.9479  136.5045  151.3919 H   0  0  0  0  0  0  0  0  0  0  0  0
  144.6033  137.5801  151.7319 H   0  0  0  0  0  0  0  0  0  0  0  0
  148.7988  139.4022  152.5244 H   0  0  0  0  0  0  0  0  0  0  0  0
  145.1860  135.0587  153.0889 H   0  0  0  0  0  0  0  0  0  0  0  0
  149.5811  143.4034  155.4919 H   0  0  0  0  0  0  0  0  0  0  0  0
  1  2  1  0  0  0  0
  1 26  1  0  0  0  0
  1 27  1  0  0  0  0
  1 28  1  0  0  0  0
  2  3  1  0  0  0  0
  2 29  1  0  0  0  0
  2 30  1  0  0  0  0
  3 25  1  0  0  0  0
  3  4  1  0  0  0  0
  3 57  1  0  0  0  0
  4  5  1  0  0  0  0
  4 31  1  0  0  0  0
  4 32  1  0  0  0  0
  5  6  1  0  0  0  0
  5 33  1  0  0  0  0
  5 34  1  0  0  0  0
  6  7  1  0  0  0  0
  7  8  1  0  0  0  0
  7 25  1  0  0  0  0
  7 35  1  0  0  0  0
  8  9  1  0  0  0  0
  8 36  1  0  0  0  0
  8 37  1  0  0  0  0
  9 10  1  0  0  0  0
  9 38  1  0  0  0  0
  9 56  1  0  0  0  0
 10 11  1  0  0  0  0
 10 39  1  0  0  0  0
 10 40  1  0  0  0  0
 11 12  1  0  0  0  0
 11 13  1  0  0  0  0
 11 41  1  0  0  0  0
 12 42  1  0  0  0  0
 13 14  1  0  0  0  0
 13 43  1  0  0  0  0
 13 44  1  0  0  0  0
 14 24  1  0  0  0  0
 14 15  1  0  0  0  0
 15 16  2  0  0  0  0
 15 45  1  0  0  0  0
 16 17  1  0  0  0  0
 16 58  1  0  0  0  0
 17 24  2  0  0  0  0
 17 18  1  0  0  0  0
 18 19  2  0  0  0  0
 18 46  1  0  0  0  0
 19 20  1  0  0  0  0
 19 21  1  0  0  0  0
 20 47  1  0  0  0  0
 20 48  1  0  0  0  0
 20 49  1  0  0  0  0
 21 22  1  0  0  0  0
 21 23  2  0  0  0  0
 22 50  1  0  0  0  0
 22 51  1  0  0  0  0
 22 52  1  0  0  0  0
 23 24  1  0  0  0  0
 23 53  1  0  0  0  0
 25 54  1  0  0  0  0
 25 55  1  0  0  0  0
M  CHG  1   3   1
M  CHG  1   9   1
M  CHG  1  16   1
M  END
> <s_m_source_file>
AV-unprocessed.smi

> <i_m_source_file_index>
1047

> <i_lp_mmshare_version>
43012

> <i_f3d_flags>
0

> <s_epik_input>
W0NIM11bQ0gyXU4xW0NIMl1bQ0gyXU9bQ0BIXShbQ0gyXTEpW0NIMl1bTkhdW0NIMl1bQ0BIXShbT0hdKVtDSDJdbihbY0hdbjIpYyhjMjMpW2NIXWMoW0NIM10pYyhbY0hdMylbQ0gzXQ==

> <s_epik_cmdline>
J2VwaWtfcHl0aG9uJywgJy1waCcsICc3LjAnLCAnLXRuJywgJzgnLCAnLW1hJywgJzIwMCcsICctbWV0YWxfYmluZGluZycsICctaW1hZScsICc8aW5maWxlLm1hZT4nLCAnLW9tYWUnLCAnPG91dGZpbGUubWFlPic=

> <r_epik_Ionization_Penalty>
1.6114

> <r_epik_Ionization_Penalty_Charging>
1.61139

> <r_epik_Ionization_Penalty_Neutral>
5.04732e-06

> <r_epik_State_Penalty>
1.63724

> <r_epik_Charging_Adjusted_Penalty>
3.24864

> <i_epik_Tot_Q>
3

> <i_epik_Tot_abs_Q>
3

> <r_epik_Metal_State_Penalty>
5.64594

> <b_epik_Metal_Only>
0

> <s_lp_Force_Field>
OPLS_2005

> <r_lp_Energy>
41.4775

> <b_lp_Chiralities_Consistent>
1

> <s_lp_Variant>
AV-unprocessed.smi:1047-28

> <Gold.Version>
5.8.1

> <Gold.Id.Protein>
6NUR|6NUR_protein|mol2

> <Gold.PLP.Fitness>
62.4310

> <Gold.PLP.PLP>
-43.8275

> <Gold.PLP.part.hbond>
-4.8112

> <Gold.PLP.part.metal>
0.0000

> <Gold.PLP.part.buried>
-1.3030

> <Gold.PLP.part.nonpolar>
-38.1025

> <Gold.PLP.part.repulsive>
0.3186

> <Gold.PLP.ligand.clash>
0.0000

> <Gold.PLP.ligand.torsion>
1.0812

> <Gold.PLP.Chemscore.Hbond>
6.8640

> <Gold.PLP.Chemscore.CHOScore>
0.0000

> <Gold.PLP.Chemscore.Metal>
0.0000

> <Gold.Chemscore.Hbonds>
donor molecule, donor type, donor heavy atom, donor atom, acceptor molecule, acceptor atom, score
      L1  H     9    38       P1  7948  2.00
      L1  H     9    56       P1  7957  1.00
      L1  H    12    42       P1  7957  1.00
      L1  H    16    58       P1  8028  1.82
      P1  H  7989  7998       L1    12  0.85

> <Gold.PLP.Chemscore.Internal.Correction>
0.1739

> <Gold.Rescore>
     Score         DG    S(hbond)    S(metal)    S(lipo)     H(rot)  DE(clash)    DE(int)     intcor
     21.60     -25.68       3.87        0.00     123.17       2.78       1.74       2.34       ----

> <Gold.Chemscore.Fitness>
21.6041

> <Gold.Chemscore.DG>
-25.6833

> <Gold.Chemscore.ZeroCoef>
-5.4800

> <Gold.Chemscore.Hbond>
3.8686

> <Gold.Chemscore.Metal>
0.0000

> <Gold.Chemscore.Lipo>
123.1737

> <Gold.Chemscore.Internal_Hbond>
0.0000

> <Gold.Chemscore.DEClash>
1.7366

> <Gold.Chemscore.DEInternal>
2.3426

> <Gold.Chemscore.Rot>
2.7848

> <Gold.Chemscore.Internal.Correction>
   9.000000E+99

> <Gold.Chemscore.Hbonds>
donor molecule, donor type, donor heavy atom, donor atom, acceptor molecule, acceptor atom, score
      L1  H     9    38       P1  7948  1.00
      L1  H     9    56       P1  7957  0.94
      L1  H    12    42       P1  7957  0.51
      L1  H    16    58       P1  8028  0.84
      P1  H  7989  7998       L1    12  0.29

> <Gold.Chemscore.Hbond.Weighted>
-12.9210

> <Gold.Chemscore.Metal.Weighted>
-0.0000

> <Gold.Chemscore.Lipo.Weighted>
-14.4113

> <Gold.Chemscore.Internal_Hbond.Weighted>
0.0000

> <Gold.Chemscore.DEClash.Weighted>
1.7366

> <Gold.Chemscore.DEInternal.Weighted>
2.3426

> <Gold.Chemscore.Rot.Weighted>
7.1291

> <Gold.Chemscore.Internal.Correction.Weighted>
   9.000000E+99

> <Gold.Protein.RotatedTorsions>
[ 6907 6896 6895 6894 ] final -106.59 input  -60.11 | X-H torsion
[ 7974 7965 7964 7962 ] final -138.83 input  175.53 | X-H torsion
[ 8008 7997 7996 7995 ] final   90.34 input   59.86 | X-H torsion
[ 10167 10162 10161 10158 ] final   97.80 input  -65.29 | X-H torsion
[ 10718 10713 10712 10709 ] final  134.62 input   66.30 | X-H torsion
[ 10763 10752 10751 10750 ] final  140.00 input  -60.55 | X-H torsion
[ 11005 11000 10999 10996 ] final   25.94 input  -57.11 | X-H torsion

> <Gold.Protein.ActiveResidues>
 VAL166  LYS551  ARG553  GLY616  TRP617  ASP618  TYR619  PRO620  LYS621  CYS622 
 ASP623  PHE694  ASN695  SER759  ASP760  ASP761  ALA762  ILE779  LEU786  VAL792 
 PHE793  MET794  SER795  GLU796  ALA797  LYS798  CYS799  TRP800  GLU811  SER814 

> <Gold.Protein.RotatedAtoms>
  150.7397  133.9953  159.3620 H   0  0  0  0  0  0  0  0  0  0  0  0  # atno 6907 bound_to 6896
  151.7903  135.0735  160.0395 H   0  0  0  0  0  0  0  0  0  0  0  0  # atno 6908 bound_to 6896
  152.3212  133.5819  159.5782 H   0  0  0  0  0  0  0  0  0  0  0  0  # atno 6909 bound_to 6896
  144.8726  140.6389  143.5257 H   0  0  0  0  0  0  0  0  0  0  0  0  # atno 7974 bound_to 7965
  156.0108  140.3350  155.6939 H   0  0  0  0  0  0  0  0  0  0  0  0  # atno 8008 bound_to 7997
  155.6160  140.0670  157.2710 H   0  0  0  0  0  0  0  0  0  0  0  0  # atno 8009 bound_to 7997
  154.4281  140.1785  156.1310 H   0  0  0  0  0  0  0  0  0  0  0  0  # atno 8010 bound_to 7997
  139.7767  144.6903  151.0079 H   0  0  0  0  0  0  0  0  0  0  0  0  # atno 10167 bound_to 10162
  157.4654  131.1076  150.9869 H   0  0  0  0  0  0  0  0  0  0  0  0  # atno 10718 bound_to 10713
  153.9154  135.3006  155.3448 H   0  0  0  0  0  0  0  0  0  0  0  0  # atno 10763 bound_to 10752
  154.7602  135.4937  153.9453 H   0  0  0  0  0  0  0  0  0  0  0  0  # atno 10764 bound_to 10752
  153.1170  135.6773  153.9503 H   0  0  0  0  0  0  0  0  0  0  0  0  # atno 10765 bound_to 10752
  140.3424  134.2318  155.7688 H   0  0  0  0  0  0  0  0  0  0  0  0  # atno 11005 bound_to 11000
  145.4102  139.1581  143.4130 LP  0  0  0  0  0  0  0  0  0  0  0  0  # atno 17320 bound_to 7965
  146.2941  140.4205  142.8728 LP  0  0  0  0  0  0  0  0  0  0  0  0  # atno 17321 bound_to 7965
  140.7816  143.4528  151.0389 LP  0  0  0  0  0  0  0  0  0  0  0  0  # atno 17342 bound_to 10162
  139.8210  143.7820  152.3177 LP  0  0  0  0  0  0  0  0  0  0  0  0  # atno 17343 bound_to 10162
  157.0652  130.5841  149.5392 LP  0  0  0  0  0  0  0  0  0  0  0  0  # atno 17370 bound_to 10713
  156.0048  130.5133  150.7791 LP  0  0  0  0  0  0  0  0  0  0  0  0  # atno 17371 bound_to 10713
  141.2035  133.7911  157.0337 LP  0  0  0  0  0  0  0  0  0  0  0  0  # atno 17394 bound_to 11000
  140.0770  134.9670  157.1562 LP  0  0  0  0  0  0  0  0  0  0  0  0  # atno 17395 bound_to 11000

$$$$
