AV-unprocessed.smi:213|AV-procd|sdf|1642|dock7
  -GOLD-   2262020 13D 1   1.00000     0.00000
 Structure written by MMmdl.
 58 61  0  0  0  0  0  0  0  0  1 V2000
  151.7778  140.3158  155.5218 C   0  0  0  0  0  0  0  0  0  0  0  0
  150.6808  140.5470  156.5772 C   0  0  1  0  0  0  0  0  0  0  0  0
  150.5620  142.0013  157.0955 C   0  0  0  0  0  0  0  0  0  0  0  0
  151.6403  142.4721  157.9695 N   0  0  0  0  0  0  0  0  0  0  0  0
  151.8943  141.5135  159.0419 C   0  0  0  0  0  0  0  0  0  0  0  0
  153.0257  141.9754  159.9766 C   0  0  0  0  0  0  0  0  0  0  0  0
  152.7022  143.2495  160.5218 O   0  0  0  0  0  0  0  0  0  0  0  0
  152.4817  144.2324  159.5165 C   0  0  0  0  0  0  0  0  0  0  0  0
  151.3517  143.7698  158.5798 C   0  0  0  0  0  0  0  0  0  0  0  0
  149.3901  140.1004  156.0468 N   0  0  0  0  0  0  0  0  0  0  0  0
  148.7614  140.7724  154.9127 C   0  0  0  0  0  0  0  0  0  0  0  0
  148.7995  138.9836  156.5436 C   0  0  0  0  0  0  0  0  0  0  0  0
  147.4493  138.8666  156.4385 N   0  0  0  0  0  0  0  0  0  0  0  0
  146.8255  137.7804  156.9030 C   0  0  0  0  0  0  0  0  0  0  0  0
  147.3486  136.7128  157.5081 N   0  0  0  0  0  0  0  0  0  0  0  0
  148.7008  136.8311  157.6348 C   0  0  0  0  0  0  0  0  0  0  0  0
  149.5007  137.9205  157.1854 C   0  0  0  0  0  0  0  0  0  0  0  0
  150.8332  137.6870  157.5107 N   0  0  0  0  0  0  0  0  0  0  0  0
  150.8216  136.5265  158.1072 C   0  0  0  0  0  0  0  0  0  0  0  0
  149.5814  135.9428  158.2250 N   0  0  0  0  0  0  0  0  0  0  0  0
  149.2727  134.6663  158.8446 C   0  0  0  0  0  0  0  0  0  0  0  0
  148.1499  134.7809  159.8941 C   0  0  2  0  0  0  0  0  0  0  0  0
  148.4952  135.7222  160.8929 O   0  0  0  0  0  0  0  0  0  0  0  0
  147.7868  133.4253  160.5322 C   0  0  2  0  0  0  0  0  0  0  0  0
  147.6537  132.2371  159.5753 C   0  0  0  0  0  0  0  0  0  0  0  0
  146.7450  131.3214  160.3640 C   0  0  0  0  0  0  0  0  0  0  0  0
  145.7916  132.3188  161.0170 C   0  0  0  0  0  0  0  0  0  0  0  0
  146.5631  133.4918  161.2617 O   0  0  0  0  0  0  0  0  0  0  0  0
  152.7722  140.3216  155.9626 H   0  0  0  0  0  0  0  0  0  0  0  0
  151.7453  141.0661  154.7316 H   0  0  0  0  0  0  0  0  0  0  0  0
  151.6636  139.3370  155.0545 H   0  0  0  0  0  0  0  0  0  0  0  0
  150.9413  139.9102  157.4220 H   0  0  0  0  0  0  0  0  0  0  0  0
  150.4132  142.6968  156.2688 H   0  0  0  0  0  0  0  0  0  0  0  0
  149.6321  142.0395  157.6651 H   0  0  0  0  0  0  0  0  0  0  0  0
  150.9844  141.3584  159.6240 H   0  0  0  0  0  0  0  0  0  0  0  0
  152.1610  140.5449  158.6172 H   0  0  0  0  0  0  0  0  0  0  0  0
  153.1609  141.2633  160.7908 H   0  0  0  0  0  0  0  0  0  0  0  0
  153.9729  142.0318  159.4380 H   0  0  0  0  0  0  0  0  0  0  0  0
  152.2162  145.1762  159.9934 H   0  0  0  0  0  0  0  0  0  0  0  0
  153.4022  144.4035  158.9561 H   0  0  0  0  0  0  0  0  0  0  0  0
  151.2054  144.5333  157.8230 H   0  0  0  0  0  0  0  0  0  0  0  0
  150.4200  143.7137  159.1451 H   0  0  0  0  0  0  0  0  0  0  0  0
  147.6777  140.8032  155.0319 H   0  0  0  0  0  0  0  0  0  0  0  0
  148.9921  140.2498  153.9840 H   0  0  0  0  0  0  0  0  0  0  0  0
  149.1143  141.7993  154.8195 H   0  0  0  0  0  0  0  0  0  0  0  0
  145.7537  137.7648  156.7703 H   0  0  0  0  0  0  0  0  0  0  0  0
  151.7221  136.0652  158.4856 H   0  0  0  0  0  0  0  0  0  0  0  0
  148.9841  133.9680  158.0581 H   0  0  0  0  0  0  0  0  0  0  0  0
  150.1828  134.2696  159.2962 H   0  0  0  0  0  0  0  0  0  0  0  0
  147.2558  135.1661  159.4027 H   0  0  0  0  0  0  0  0  0  0  0  0
  148.4931  135.2816  161.7290 H   0  0  0  0  0  0  0  0  0  0  0  0
  148.5558  133.1753  161.2649 H   0  0  0  0  0  0  0  0  0  0  0  0
  147.1637  132.5218  158.6438 H   0  0  0  0  0  0  0  0  0  0  0  0
  148.6129  131.7810  159.3291 H   0  0  0  0  0  0  0  0  0  0  0  0
  146.2335  130.5849  159.7438 H   0  0  0  0  0  0  0  0  0  0  0  0
  147.3164  130.7907  161.1268 H   0  0  0  0  0  0  0  0  0  0  0  0
  144.9834  132.5747  160.3307 H   0  0  0  0  0  0  0  0  0  0  0  0
  145.3468  131.9340  161.9348 H   0  0  0  0  0  0  0  0  0  0  0  0
  1  2  1  0  0  0  0
  1 29  1  0  0  0  0
  1 30  1  0  0  0  0
  1 31  1  0  0  0  0
  2  3  1  0  0  0  0
  2 10  1  0  0  0  0
  2 32  1  0  0  0  0
  3  4  1  0  0  0  0
  3 33  1  0  0  0  0
  3 34  1  0  0  0  0
  4  9  1  0  0  0  0
  4  5  1  0  0  0  0
  5  6  1  0  0  0  0
  5 35  1  0  0  0  0
  5 36  1  0  0  0  0
  6  7  1  0  0  0  0
  6 37  1  0  0  0  0
  6 38  1  0  0  0  0
  7  8  1  0  0  0  0
  8  9  1  0  0  0  0
  8 39  1  0  0  0  0
  8 40  1  0  0  0  0
  9 41  1  0  0  0  0
  9 42  1  0  0  0  0
 10 11  1  0  0  0  0
 10 12  1  0  0  0  0
 11 43  1  0  0  0  0
 11 44  1  0  0  0  0
 11 45  1  0  0  0  0
 12 17  1  0  0  0  0
 12 13  2  0  0  0  0
 13 14  1  0  0  0  0
 14 15  2  0  0  0  0
 14 46  1  0  0  0  0
 15 16  1  0  0  0  0
 16 20  1  0  0  0  0
 16 17  2  0  0  0  0
 17 18  1  0  0  0  0
 18 19  2  0  0  0  0
 19 20  1  0  0  0  0
 19 47  1  0  0  0  0
 20 21  1  0  0  0  0
 21 22  1  0  0  0  0
 21 48  1  0  0  0  0
 21 49  1  0  0  0  0
 22 23  1  0  0  0  0
 22 24  1  0  0  0  0
 22 50  1  0  0  0  0
 23 51  1  0  0  0  0
 24 28  1  0  0  0  0
 24 25  1  0  0  0  0
 24 52  1  0  0  0  0
 25 26  1  0  0  0  0
 25 53  1  0  0  0  0
 25 54  1  0  0  0  0
 26 27  1  0  0  0  0
 26 55  1  0  0  0  0
 26 56  1  0  0  0  0
 27 28  1  0  0  0  0
 27 57  1  0  0  0  0
 27 58  1  0  0  0  0
M  END
> <s_m_source_file>
AV-unprocessed.smi

> <i_m_source_file_index>
213

> <i_lp_mmshare_version>
43012

> <i_f3d_flags>
0

> <s_epik_input>
W0NIMl0xW0NIMl1PW0NIMl1bQ0gyXU4xW0NIMl1bQ0BASF0oW0NIM10pTihbQ0gzXSljKG5bY0hdbjIpYyhjMjMpbltjSF1uM1tDSDJdW0NASF0oW09IXSlbQ0BASF00W0NIMl1bQ0gyXVtDSDJdTzQ=

> <s_epik_cmdline>
J2VwaWtfcHl0aG9uJywgJy1waCcsICc3LjAnLCAnLXRuJywgJzgnLCAnLW1hJywgJzIwMCcsICctbWV0YWxfYmluZGluZycsICctaW1hZScsICc8aW5maWxlLm1hZT4nLCAnLW9tYWUnLCAnPG91dGZpbGUubWFlPic=

> <r_lp_tautomer_probability>
1

> <r_epik_Ionization_Penalty>
0.423322

> <r_epik_Ionization_Penalty_Charging>
0

> <r_epik_Ionization_Penalty_Neutral>
0.423322

> <r_epik_State_Penalty>
0.569486

> <r_epik_Charging_Adjusted_Penalty>
0.569486

> <i_epik_Tot_Q>
0

> <i_epik_Tot_abs_Q>
0

> <r_epik_Metal_State_Penalty>
0.568671

> <b_epik_Metal_Only>
0

> <s_lp_Force_Field>
OPLS_2005

> <r_lp_Energy>
55.7593

> <b_lp_Chiralities_Consistent>
1

> <s_lp_Variant>
AV-unprocessed.smi:213-10

> <Gold.Version>
5.8.1

> <Gold.Id.Protein>
6NUR|6NUR_protein|mol2

> <Gold.PLP.Fitness>
51.0154

> <Gold.PLP.PLP>
-47.2427

> <Gold.PLP.part.hbond>
-2.0000

> <Gold.PLP.part.metal>
0.0000

> <Gold.PLP.part.buried>
-4.6437

> <Gold.PLP.part.nonpolar>
-39.6061

> <Gold.PLP.part.repulsive>
0.0988

> <Gold.PLP.ligand.clash>
0.0000

> <Gold.PLP.ligand.torsion>
0.7449

> <Gold.PLP.Chemscore.Hbond>
1.6472

> <Gold.PLP.Chemscore.CHOScore>
0.0000

> <Gold.PLP.Chemscore.Metal>
0.0000

> <Gold.PLP.Chemscore.Internal.Correction>
0.3209

> <Gold.Rescore>
     Score         DG    S(hbond)    S(metal)    S(lipo)     H(rot)  DE(clash)    DE(int)     intcor
     11.99     -15.18       0.95        0.00     115.60       2.74       0.05       3.14       ----

> <Gold.Chemscore.Fitness>
11.9916

> <Gold.Chemscore.DG>
-15.1794

> <Gold.Chemscore.ZeroCoef>
-5.4800

> <Gold.Chemscore.Hbond>
0.9530

> <Gold.Chemscore.Metal>
0.0000

> <Gold.Chemscore.Lipo>
115.5973

> <Gold.Chemscore.Internal_Hbond>
0.0000

> <Gold.Chemscore.DEClash>
0.0456

> <Gold.Chemscore.DEInternal>
3.1421

> <Gold.Chemscore.Rot>
2.7378

> <Gold.Chemscore.Internal.Correction>
   9.000000E+99

> <Gold.Chemscore.Hbond.Weighted>
-3.1832

> <Gold.Chemscore.Metal.Weighted>
-0.0000

> <Gold.Chemscore.Lipo.Weighted>
-13.5249

> <Gold.Chemscore.Internal_Hbond.Weighted>
0.0000

> <Gold.Chemscore.DEClash.Weighted>
0.0456

> <Gold.Chemscore.DEInternal.Weighted>
3.1421

> <Gold.Chemscore.Rot.Weighted>
7.0087

> <Gold.Chemscore.Internal.Correction.Weighted>
   9.000000E+99

> <Gold.Protein.RotatedTorsions>
[ 6907 6896 6895 6894 ] final  -12.14 input  -60.11 | X-H torsion
[ 7974 7965 7964 7962 ] final -173.33 input  175.53 | X-H torsion
[ 8008 7997 7996 7995 ] final  -92.89 input   59.86 | X-H torsion
[ 10167 10162 10161 10158 ] final  116.12 input  -65.29 | X-H torsion
[ 10718 10713 10712 10709 ] final  146.88 input   66.30 | X-H torsion
[ 10763 10752 10751 10750 ] final   -1.48 input  -60.55 | X-H torsion
[ 11005 11000 10999 10996 ] final -127.79 input  -57.11 | X-H torsion

> <Gold.Protein.ActiveResidues>
 VAL166  LYS551  ARG553  GLY616  TRP617  ASP618  TYR619  PRO620  LYS621  CYS622 
 ASP623  PHE694  ASN695  SER759  ASP760  ASP761  ALA762  ILE779  LEU786  VAL792 
 PHE793  MET794  SER795  GLU796  ALA797  LYS798  CYS799  TRP800  GLU811  SER814 

> <Gold.Protein.RotatedAtoms>
  151.3752  135.0930  159.9477 H   0  0  0  0  0  0  0  0  0  0  0  0  # atno 6907 bound_to 6896
  152.5124  133.9126  159.7505 H   0  0  0  0  0  0  0  0  0  0  0  0  # atno 6908 bound_to 6896
  150.9548  133.6455  159.2794 H   0  0  0  0  0  0  0  0  0  0  0  0  # atno 6909 bound_to 6896
  144.7139  140.1638  143.6373 H   0  0  0  0  0  0  0  0  0  0  0  0  # atno 7974 bound_to 7965
  154.7288  140.0504  157.0707 H   0  0  0  0  0  0  0  0  0  0  0  0  # atno 8008 bound_to 7997
  155.0330  140.3160  155.4732 H   0  0  0  0  0  0  0  0  0  0  0  0  # atno 8009 bound_to 7997
  156.2836  140.2146  156.5451 H   0  0  0  0  0  0  0  0  0  0  0  0  # atno 8010 bound_to 7997
  139.6269  144.7109  151.2514 H   0  0  0  0  0  0  0  0  0  0  0  0  # atno 10167 bound_to 10162
  157.3278  131.0915  151.1187 H   0  0  0  0  0  0  0  0  0  0  0  0  # atno 10718 bound_to 10713
  153.3454  135.6983  153.6832 H   0  0  0  0  0  0  0  0  0  0  0  0  # atno 10763 bound_to 10752
  153.5580  135.3540  155.2788 H   0  0  0  0  0  0  0  0  0  0  0  0  # atno 10764 bound_to 10752
  154.8644  135.4242  154.2677 H   0  0  0  0  0  0  0  0  0  0  0  0  # atno 10765 bound_to 10752
  140.9570  134.0988  157.4006 H   0  0  0  0  0  0  0  0  0  0  0  0  # atno 11005 bound_to 11000
  145.9006  139.2428  143.1496 LP  0  0  0  0  0  0  0  0  0  0  0  0  # atno 17320 bound_to 7965
  145.9814  140.8679  143.0112 LP  0  0  0  0  0  0  0  0  0  0  0  0  # atno 17321 bound_to 7965
  140.7416  143.6551  150.8213 LP  0  0  0  0  0  0  0  0  0  0  0  0  # atno 17342 bound_to 10162
  140.0171  143.5582  152.2816 LP  0  0  0  0  0  0  0  0  0  0  0  0  # atno 17343 bound_to 10162
  157.2447  130.6586  149.5905 LP  0  0  0  0  0  0  0  0  0  0  0  0  # atno 17370 bound_to 10713
  155.9692  130.4557  150.5898 LP  0  0  0  0  0  0  0  0  0  0  0  0  # atno 17371 bound_to 10713
  139.8865  135.0082  156.6505 LP  0  0  0  0  0  0  0  0  0  0  0  0  # atno 17394 bound_to 11000
  140.7522  133.8888  155.8355 LP  0  0  0  0  0  0  0  0  0  0  0  0  # atno 17395 bound_to 11000

$$$$
