AV-unprocessed.smi:2928|AV-procd|sdf|11236|dock5
  -GOLD-   2272016133D 1   1.00000     0.00000
 Structure written by MMmdl.
 56 59  0  0  0  0  0  0  0  0  3 V2000
  156.3956  136.3051  161.2661 C   0  0  0  0  0  0  0  0  0  0  0  0
  156.0237  136.8749  162.5831 N   0  3  2  0  0  0  0  0  0  0  0  0
  154.5728  136.8444  162.8885 C   0  0  1  0  0  0  0  0  0  0  0  0
  154.3777  137.0429  164.4100 C   0  0  0  0  0  0  0  0  0  0  0  0
  155.0766  138.2988  164.9691 C   0  0  0  0  0  0  0  0  0  0  0  0
  156.4869  138.5009  164.3774 C   0  0  0  0  0  0  0  0  0  0  0  0
  156.5745  138.2243  162.8578 C   0  0  2  0  0  0  0  0  0  0  0  0
  155.9064  139.2979  161.9622 C   0  0  0  0  0  0  0  0  0  0  0  0
  154.3607  139.2805  161.9804 C   0  0  1  0  0  0  0  0  0  0  0  0
  153.8598  140.0082  160.8159 N   0  0  0  0  0  0  0  0  0  0  0  0
  153.2945  141.2240  160.8487 C   0  0  0  0  0  0  0  0  0  0  0  0
  153.1175  141.8658  161.8839 O   0  0  0  0  0  0  0  0  0  0  0  0
  152.9333  141.6300  159.6201 N   0  0  0  0  0  0  0  0  0  0  0  0
  152.2888  142.8479  159.2626 C   0  0  0  0  0  0  0  0  0  0  0  0
  152.3956  143.9990  160.0848 C   0  0  0  0  0  0  0  0  0  0  0  0
  151.8124  145.2125  159.6744 C   0  0  0  0  0  0  0  0  0  0  0  0
  151.1448  145.2625  158.4389 C   0  0  0  0  0  0  0  0  0  0  0  0
  151.0705  144.1539  157.6739 N   0  3  0  0  0  0  0  0  0  0  0  0
  151.5976  142.9529  158.0206 C   0  0  0  0  0  0  0  0  0  0  0  0
  151.4280  141.8730  157.1245 N   0  0  0  0  0  0  0  0  0  0  0  0
  150.8933  142.1004  155.7869 C   0  0  0  0  0  0  0  0  0  0  0  0
  150.5175  140.7143  155.2704 C   0  0  0  0  0  0  0  0  0  0  0  0
  150.0395  140.0103  156.5367 C   0  0  0  0  0  0  0  0  0  0  0  0
  150.9231  140.6035  157.6391 C   0  0  0  0  0  0  0  0  0  0  0  0
  153.7887  137.8411  161.9982 C   0  0  0  0  0  0  0  0  0  0  0  0
  155.9868  136.8797  160.4355 H   0  0  0  0  0  0  0  0  0  0  0  0
  156.0310  135.2812  161.1791 H   0  0  0  0  0  0  0  0  0  0  0  0
  157.4799  136.2784  161.1563 H   0  0  0  0  0  0  0  0  0  0  0  0
  154.2046  135.8435  162.6588 H   0  0  0  0  0  0  0  0  0  0  0  0
  153.3164  137.0631  164.6596 H   0  0  0  0  0  0  0  0  0  0  0  0
  154.7866  136.1709  164.9221 H   0  0  0  0  0  0  0  0  0  0  0  0
  154.4635  139.1800  164.8006 H   0  0  0  0  0  0  0  0  0  0  0  0
  155.1466  138.2211  166.0545 H   0  0  0  0  0  0  0  0  0  0  0  0
  156.8476  139.5047  164.6042 H   0  0  0  0  0  0  0  0  0  0  0  0
  157.1688  137.8183  164.8863 H   0  0  0  0  0  0  0  0  0  0  0  0
  157.6364  138.2083  162.6080 H   0  0  0  0  0  0  0  0  0  0  0  0
  156.2671  140.2895  162.2382 H   0  0  0  0  0  0  0  0  0  0  0  0
  156.2505  139.1435  160.9387 H   0  0  0  0  0  0  0  0  0  0  0  0
  154.0217  139.8157  162.8641 H   0  0  0  0  0  0  0  0  0  0  0  0
  153.9629  139.5564  159.9189 H   0  0  0  0  0  0  0  0  0  0  0  0
  153.0433  140.9580  158.8747 H   0  0  0  0  0  0  0  0  0  0  0  0
  152.9382  143.9749  161.0179 H   0  0  0  0  0  0  0  0  0  0  0  0
  151.8884  146.0946  160.2934 H   0  0  0  0  0  0  0  0  0  0  0  0
  150.6742  146.1494  158.0394 H   0  0  0  0  0  0  0  0  0  0  0  0
  150.0021  142.7281  155.8319 H   0  0  0  0  0  0  0  0  0  0  0  0
  151.6266  142.5867  155.1426 H   0  0  0  0  0  0  0  0  0  0  0  0
  149.7619  140.7432  154.4848 H   0  0  0  0  0  0  0  0  0  0  0  0
  151.4007  140.2105  154.8752 H   0  0  0  0  0  0  0  0  0  0  0  0
  148.9959  140.2660  156.7250 H   0  0  0  0  0  0  0  0  0  0  0  0
  150.1126  138.9243  156.4740 H   0  0  0  0  0  0  0  0  0  0  0  0
  151.7681  139.9429  157.8347 H   0  0  0  0  0  0  0  0  0  0  0  0
  150.3658  140.7283  158.5687 H   0  0  0  0  0  0  0  0  0  0  0  0
  153.7833  137.4515  160.9793 H   0  0  0  0  0  0  0  0  0  0  0  0
  152.7412  137.8616  162.3011 H   0  0  0  0  0  0  0  0  0  0  0  0
  156.4570  136.2615  163.2590 H   0  0  0  0  0  0  0  0  0  0  0  0
  150.5798  144.2225  156.7823 H   0  0  0  0  0  0  0  0  0  0  0  0
  1  2  1  0  0  0  0
  1 26  1  0  0  0  0
  1 27  1  0  0  0  0
  1 28  1  0  0  0  0
  2  7  1  0  0  0  0
  2  3  1  0  0  0  0
  2 55  1  0  0  0  0
  3 25  1  0  0  0  0
  3  4  1  0  0  0  0
  3 29  1  0  0  0  0
  4  5  1  0  0  0  0
  4 30  1  0  0  0  0
  4 31  1  0  0  0  0
  5  6  1  0  0  0  0
  5 32  1  0  0  0  0
  5 33  1  0  0  0  0
  6  7  1  0  0  0  0
  6 34  1  0  0  0  0
  6 35  1  0  0  0  0
  7  8  1  0  0  0  0
  7 36  1  0  0  0  0
  8  9  1  0  0  0  0
  8 37  1  0  0  0  0
  8 38  1  0  0  0  0
  9 10  1  0  0  0  0
  9 25  1  0  0  0  0
  9 39  1  0  0  0  0
 10 11  1  0  0  0  0
 10 40  1  0  0  0  0
 11 12  2  0  0  0  0
 11 13  1  0  0  0  0
 13 14  1  0  0  0  0
 13 41  1  0  0  0  0
 14 19  1  0  0  0  0
 14 15  2  0  0  0  0
 15 16  1  0  0  0  0
 15 42  1  0  0  0  0
 16 17  2  0  0  0  0
 16 43  1  0  0  0  0
 17 18  1  0  0  0  0
 17 44  1  0  0  0  0
 18 19  2  0  0  0  0
 18 56  1  0  0  0  0
 19 20  1  0  0  0  0
 20 24  1  0  0  0  0
 20 21  1  0  0  0  0
 21 22  1  0  0  0  0
 21 45  1  0  0  0  0
 21 46  1  0  0  0  0
 22 23  1  0  0  0  0
 22 47  1  0  0  0  0
 22 48  1  0  0  0  0
 23 24  1  0  0  0  0
 23 49  1  0  0  0  0
 23 50  1  0  0  0  0
 24 51  1  0  0  0  0
 24 52  1  0  0  0  0
 25 53  1  0  0  0  0
 25 54  1  0  0  0  0
M  CHG  1   2   1
M  CHG  1  18   1
M  END
> <s_m_source_file>
AV-unprocessed.smi

> <i_m_source_file_index>
2928

> <i_lp_mmshare_version>
43012

> <i_f3d_flags>
0

> <s_epik_input>
W0NIMl0xW0NIMl1bQ0gyXVtDQEhdKE4oW0NIM10pW0NIXTEyKVtDSDJdW0NASF0oW0NIMl0yKVtOSF1DKD1PKVtOSF1jM1tjSF1bY0hdW2NIXW5jM040W0NIMl1bQ0gyXVtDSDJdW0NIMl00

> <s_epik_cmdline>
J2VwaWtfcHl0aG9uJywgJy1waCcsICc3LjAnLCAnLXRuJywgJzgnLCAnLW1hJywgJzIwMCcsICctbWV0YWxfYmluZGluZycsICctaW1hZScsICc8aW5maWxlLm1hZT4nLCAnLW9tYWUnLCAnPG91dGZpbGUubWFlPic=

> <r_lp_tautomer_probability>
0.999994

> <r_epik_Ionization_Penalty>
1.2404

> <r_epik_Ionization_Penalty_Charging>
1.24038

> <r_epik_Ionization_Penalty_Neutral>
1.86539e-05

> <r_epik_State_Penalty>
1.30821

> <r_epik_Charging_Adjusted_Penalty>
2.54859

> <i_epik_Tot_Q>
2

> <i_epik_Tot_abs_Q>
2

> <r_epik_Metal_State_Penalty>
1.3782

> <b_epik_Metal_Only>
0

> <s_lp_Force_Field>
OPLS_2005

> <r_lp_Energy>
72.136

> <b_lp_Chiralities_Consistent>
1

> <s_lp_Variant>
AV-unprocessed.smi:2928-6

> <Gold.Version>
5.8.1

> <Gold.Id.Protein>
6NUR|6NUR_protein|mol2

> <Gold.PLP.Fitness>
49.9684

> <Gold.PLP.PLP>
-44.4149

> <Gold.PLP.part.hbond>
-1.0000

> <Gold.PLP.part.metal>
0.0000

> <Gold.PLP.part.buried>
-7.5766

> <Gold.PLP.part.nonpolar>
-35.1311

> <Gold.PLP.part.repulsive>
0.2227

> <Gold.PLP.ligand.clash>
0.0000

> <Gold.PLP.ligand.torsion>
0.4115

> <Gold.PLP.Chemscore.Hbond>
2.0000

> <Gold.PLP.Chemscore.CHOScore>
0.0000

> <Gold.PLP.Chemscore.Metal>
0.0000

> <Gold.Chemscore.Hbonds>
donor molecule, donor type, donor heavy atom, donor atom, acceptor molecule, acceptor atom, score
      L1  H    18    56       P1  8028  1.82

> <Gold.PLP.Chemscore.Internal.Correction>
0.3766

> <Gold.Rescore>
     Score         DG    S(hbond)    S(metal)    S(lipo)     H(rot)  DE(clash)    DE(int)     intcor
     17.38     -19.16       0.96        0.00     115.53       1.19       0.16       1.63       ----

> <Gold.Chemscore.Fitness>
17.3756

> <Gold.Chemscore.DG>
-19.1567

> <Gold.Chemscore.ZeroCoef>
-5.4800

> <Gold.Chemscore.Hbond>
0.9583

> <Gold.Chemscore.Metal>
0.0000

> <Gold.Chemscore.Lipo>
115.5298

> <Gold.Chemscore.Internal_Hbond>
0.0000

> <Gold.Chemscore.DEClash>
0.1552

> <Gold.Chemscore.DEInternal>
1.6260

> <Gold.Chemscore.Rot>
1.1879

> <Gold.Chemscore.Internal.Correction>
   9.000000E+99

> <Gold.Chemscore.Hbonds>
donor molecule, donor type, donor heavy atom, donor atom, acceptor molecule, acceptor atom, score
      L1  H    18    56       P1  8028  0.82

> <Gold.Chemscore.Hbond.Weighted>
-3.2008

> <Gold.Chemscore.Metal.Weighted>
-0.0000

> <Gold.Chemscore.Lipo.Weighted>
-13.5170

> <Gold.Chemscore.Internal_Hbond.Weighted>
0.0000

> <Gold.Chemscore.DEClash.Weighted>
0.1552

> <Gold.Chemscore.DEInternal.Weighted>
1.6260

> <Gold.Chemscore.Rot.Weighted>
3.0410

> <Gold.Chemscore.Internal.Correction.Weighted>
   9.000000E+99

> <Gold.Protein.RotatedTorsions>
[ 6907 6896 6895 6894 ] final  126.56 input  -60.11 | X-H torsion
[ 7974 7965 7964 7962 ] final  132.91 input  175.53 | X-H torsion
[ 8008 7997 7996 7995 ] final  -61.44 input   59.86 | X-H torsion
[ 10167 10162 10161 10158 ] final -160.19 input  -65.29 | X-H torsion
[ 10718 10713 10712 10709 ] final  157.63 input   66.30 | X-H torsion
[ 10763 10752 10751 10750 ] final  165.34 input  -60.55 | X-H torsion
[ 11005 11000 10999 10996 ] final  -97.57 input  -57.11 | X-H torsion

> <Gold.Protein.ActiveResidues>
 VAL166  LYS551  ARG553  GLY616  TRP617  ASP618  TYR619  PRO620  LYS621  CYS622 
 ASP623  PHE694  ASN695  SER759  ASP760  ASP761  ALA762  ILE779  LEU786  VAL792 
 PHE793  MET794  SER795  GLU796  ALA797  LYS798  CYS799  TRP800  GLU811  SER814 

> <Gold.Protein.RotatedAtoms>
  152.3893  133.6655  159.6223 H   0  0  0  0  0  0  0  0  0  0  0  0  # atno 6907 bound_to 6896
  150.7804  133.8982  159.3342 H   0  0  0  0  0  0  0  0  0  0  0  0  # atno 6908 bound_to 6896
  151.6772  135.0968  160.0260 H   0  0  0  0  0  0  0  0  0  0  0  0  # atno 6909 bound_to 6896
  144.9919  139.4398  143.5335 H   0  0  0  0  0  0  0  0  0  0  0  0  # atno 7974 bound_to 7965
  154.4448  140.1017  156.6431 H   0  0  0  0  0  0  0  0  0  0  0  0  # atno 8008 bound_to 7997
  155.5479  140.3485  155.4443 H   0  0  0  0  0  0  0  0  0  0  0  0  # atno 8009 bound_to 7997
  156.0550  140.1313  156.9996 H   0  0  0  0  0  0  0  0  0  0  0  0  # atno 8010 bound_to 7997
  139.6558  144.0001  152.2193 H   0  0  0  0  0  0  0  0  0  0  0  0  # atno 10167 bound_to 10162
  157.1888  131.0650  151.2091 H   0  0  0  0  0  0  0  0  0  0  0  0  # atno 10718 bound_to 10713
  154.3225  135.2755  155.2512 H   0  0  0  0  0  0  0  0  0  0  0  0  # atno 10763 bound_to 10752
  154.4860  135.5846  153.6427 H   0  0  0  0  0  0  0  0  0  0  0  0  # atno 10764 bound_to 10752
  152.9875  135.6123  154.3411 H   0  0  0  0  0  0  0  0  0  0  0  0  # atno 10765 bound_to 10752
  141.1374  133.8180  157.0723 H   0  0  0  0  0  0  0  0  0  0  0  0  # atno 11005 bound_to 11000
  146.3433  139.9256  142.8760 LP  0  0  0  0  0  0  0  0  0  0  0  0  # atno 17320 bound_to 7965
  145.2274  140.9959  143.4010 LP  0  0  0  0  0  0  0  0  0  0  0  0  # atno 17321 bound_to 7965
  139.9727  144.6482  150.7974 LP  0  0  0  0  0  0  0  0  0  0  0  0  # atno 17342 bound_to 10162
  140.7558  143.3054  151.2975 LP  0  0  0  0  0  0  0  0  0  0  0  0  # atno 17343 bound_to 10162
  157.3881  130.7267  149.6677 LP  0  0  0  0  0  0  0  0  0  0  0  0  # atno 17370 bound_to 10713
  155.9714  130.4154  150.4180 LP  0  0  0  0  0  0  0  0  0  0  0  0  # atno 17371 bound_to 10713
  140.0503  134.9809  157.1124 LP  0  0  0  0  0  0  0  0  0  0  0  0  # atno 17394 bound_to 11000
  140.4000  134.2093  155.7164 LP  0  0  0  0  0  0  0  0  0  0  0  0  # atno 17395 bound_to 11000

$$$$
