AV-unprocessed.smi:200|AV-procd|sdf|1577|dock7
  -GOLD-   2262019463D 1   1.00000     0.00000
 Structure written by MMmdl.
 56 59  0  0  0  0  0  0  0  0  1 V2000
  154.6827  137.5138  161.2080 C   0  0  0  0  0  0  0  0  0  0  0  0
  153.9609  136.9200  160.1439 O   0  0  0  0  0  0  0  0  0  0  0  0
  153.0246  137.8093  159.5583 C   0  0  0  0  0  0  0  0  0  0  0  0
  153.7865  138.9015  158.7954 C   0  0  0  0  0  0  0  0  0  0  0  0
  152.8932  139.8281  158.0986 N   0  0  0  0  0  0  0  0  0  0  0  0
  152.1969  139.2539  157.0903 C   0  0  0  0  0  0  0  0  0  0  0  0
  152.7514  139.1544  155.8538 N   0  0  0  0  0  0  0  0  0  0  0  0
  152.0627  138.5870  154.8589 C   0  0  0  0  0  0  0  0  0  0  0  0
  150.8325  138.0687  154.8838 N   0  0  0  0  0  0  0  0  0  0  0  0
  150.2730  138.1747  156.1233 C   0  0  0  0  0  0  0  0  0  0  0  0
  150.8805  138.7544  157.2715 C   0  0  0  0  0  0  0  0  0  0  0  0
  150.0126  138.6973  158.3538 N   0  0  0  0  0  0  0  0  0  0  0  0
  148.9486  138.1149  157.8724 C   0  0  0  0  0  0  0  0  0  0  0  0
  149.0229  137.7553  156.5445 N   0  0  0  0  0  0  0  0  0  0  0  0
  147.9864  137.0909  155.7690 C   0  0  0  0  0  0  0  0  0  0  0  0
  146.6455  137.8536  155.7179 C   0  0  0  0  0  0  0  0  0  0  0  0
  146.6916  138.9799  154.6698 C   0  0  0  0  0  0  0  0  0  0  0  0
  146.6500  138.4648  153.3543 O   0  0  0  0  0  0  0  0  0  0  0  0
  145.3845  136.9798  155.6668 C   0  0  0  0  0  0  0  0  0  0  0  0
  144.7798  137.6894  156.7683 O   0  0  0  0  0  0  0  0  0  0  0  0
  146.0619  138.2768  157.0735 C   0  0  0  0  0  0  0  0  0  0  0  0
  152.2143  140.8725  158.8803 C   0  0  1  0  0  0  0  0  0  0  0  0
  153.0910  141.6849  159.8460 C   0  0  0  0  0  0  0  0  0  0  0  0
  152.2639  142.9373  160.1683 C   0  0  0  0  0  0  0  0  0  0  0  0
  151.1600  143.0256  159.0954 C   0  0  1  0  0  0  0  0  0  0  0  0
  150.9880  144.4267  158.4941 C   0  0  0  0  0  0  0  0  0  0  0  0
  151.5067  141.9521  158.0564 C   0  0  0  0  0  0  0  0  0  0  0  0
  155.3835  136.7892  161.6228 H   0  0  0  0  0  0  0  0  0  0  0  0
  154.0144  137.8333  162.0087 H   0  0  0  0  0  0  0  0  0  0  0  0
  155.2548  138.3759  160.8630 H   0  0  0  0  0  0  0  0  0  0  0  0
  152.3935  137.2574  158.8606 H   0  0  0  0  0  0  0  0  0  0  0  0
  152.3653  138.2362  160.3143 H   0  0  0  0  0  0  0  0  0  0  0  0
  154.4259  139.4390  159.4981 H   0  0  0  0  0  0  0  0  0  0  0  0
  154.4537  138.4394  158.0677 H   0  0  0  0  0  0  0  0  0  0  0  0
  152.5701  138.5407  153.9066 H   0  0  0  0  0  0  0  0  0  0  0  0
  148.0763  137.9213  158.4797 H   0  0  0  0  0  0  0  0  0  0  0  0
  148.3690  136.9289  154.7606 H   0  0  0  0  0  0  0  0  0  0  0  0
  147.8452  136.0939  156.1881 H   0  0  0  0  0  0  0  0  0  0  0  0
  145.8396  139.6497  154.7916 H   0  0  0  0  0  0  0  0  0  0  0  0
  147.5795  139.6021  154.7843 H   0  0  0  0  0  0  0  0  0  0  0  0
  147.3306  138.8813  152.8478 H   0  0  0  0  0  0  0  0  0  0  0  0
  144.8131  137.0733  154.7426 H   0  0  0  0  0  0  0  0  0  0  0  0
  145.5625  135.9308  155.9095 H   0  0  0  0  0  0  0  0  0  0  0  0
  146.5261  137.7916  157.9330 H   0  0  0  0  0  0  0  0  0  0  0  0
  146.0084  139.3564  157.2183 H   0  0  0  0  0  0  0  0  0  0  0  0
  151.4575  140.3796  159.4900 H   0  0  0  0  0  0  0  0  0  0  0  0
  153.3602  141.1186  160.7382 H   0  0  0  0  0  0  0  0  0  0  0  0
  154.0163  142.0099  159.3704 H   0  0  0  0  0  0  0  0  0  0  0  0
  151.8163  142.8608  161.1599 H   0  0  0  0  0  0  0  0  0  0  0  0
  152.9028  143.8215  160.1724 H   0  0  0  0  0  0  0  0  0  0  0  0
  150.2185  142.7372  159.5654 H   0  0  0  0  0  0  0  0  0  0  0  0
  151.9044  144.7667  158.0109 H   0  0  0  0  0  0  0  0  0  0  0  0
  150.7277  145.1530  159.2643 H   0  0  0  0  0  0  0  0  0  0  0  0
  150.1938  144.4357  157.7472 H   0  0  0  0  0  0  0  0  0  0  0  0
  152.1801  142.3662  157.3057 H   0  0  0  0  0  0  0  0  0  0  0  0
  150.6219  141.5776  157.5413 H   0  0  0  0  0  0  0  0  0  0  0  0
  1  2  1  0  0  0  0
  1 28  1  0  0  0  0
  1 29  1  0  0  0  0
  1 30  1  0  0  0  0
  2  3  1  0  0  0  0
  3  4  1  0  0  0  0
  3 31  1  0  0  0  0
  3 32  1  0  0  0  0
  4  5  1  0  0  0  0
  4 33  1  0  0  0  0
  4 34  1  0  0  0  0
  5  6  1  0  0  0  0
  5 22  1  0  0  0  0
  6 11  1  0  0  0  0
  6  7  2  0  0  0  0
  7  8  1  0  0  0  0
  8  9  2  0  0  0  0
  8 35  1  0  0  0  0
  9 10  1  0  0  0  0
 10 14  1  0  0  0  0
 10 11  2  0  0  0  0
 11 12  1  0  0  0  0
 12 13  2  0  0  0  0
 13 14  1  0  0  0  0
 13 36  1  0  0  0  0
 14 15  1  0  0  0  0
 15 16  1  0  0  0  0
 15 37  1  0  0  0  0
 15 38  1  0  0  0  0
 16 21  1  0  0  0  0
 16 17  1  0  0  0  0
 16 19  1  0  0  0  0
 17 18  1  0  0  0  0
 17 39  1  0  0  0  0
 17 40  1  0  0  0  0
 18 41  1  0  0  0  0
 19 20  1  0  0  0  0
 19 42  1  0  0  0  0
 19 43  1  0  0  0  0
 20 21  1  0  0  0  0
 21 44  1  0  0  0  0
 21 45  1  0  0  0  0
 22 27  1  0  0  0  0
 22 23  1  0  0  0  0
 22 46  1  0  0  0  0
 23 24  1  0  0  0  0
 23 47  1  0  0  0  0
 23 48  1  0  0  0  0
 24 25  1  0  0  0  0
 24 49  1  0  0  0  0
 24 50  1  0  0  0  0
 25 26  1  0  0  0  0
 25 27  1  0  0  0  0
 25 51  1  0  0  0  0
 26 52  1  0  0  0  0
 26 53  1  0  0  0  0
 26 54  1  0  0  0  0
 27 55  1  0  0  0  0
 27 56  1  0  0  0  0
M  END
> <s_m_source_file>
AV-unprocessed.smi

> <i_m_source_file_index>
200

> <i_lp_mmshare_version>
43012

> <i_f3d_flags>
0

> <s_epik_input>
W0NIM11bQ0BASF0oW0NIMl0xKVtDSDJdW0NIMl1bQ0BIXTFOKFtDSDJdW0NIMl1PW0NIM10pYyhuW2NIXW4yKWMoYzIzKW5bY0hdbjNbQ0gyXUM0KFtDSDJdW09IXSlbQ0gyXU9bQ0gyXTQ=

> <s_epik_cmdline>
J2VwaWtfcHl0aG9uJywgJy1waCcsICc3LjAnLCAnLXRuJywgJzgnLCAnLW1hJywgJzIwMCcsICctbWV0YWxfYmluZGluZycsICctaW1hZScsICc8aW5maWxlLm1hZT4nLCAnLW9tYWUnLCAnPG91dGZpbGUubWFlPic=

> <r_lp_tautomer_probability>
1

> <r_epik_Ionization_Penalty>
0.00363087

> <r_epik_Ionization_Penalty_Charging>
0

> <r_epik_Ionization_Penalty_Neutral>
0.00363087

> <r_epik_State_Penalty>
0.0024341

> <r_epik_Charging_Adjusted_Penalty>
0.0024341

> <i_epik_Tot_Q>
0

> <i_epik_Tot_abs_Q>
0

> <r_epik_Metal_State_Penalty>
-0

> <b_epik_Metal_Only>
0

> <s_lp_Force_Field>
OPLS_2005

> <r_lp_Energy>
50.9431

> <b_lp_Chiralities_Consistent>
1

> <s_lp_Variant>
AV-unprocessed.smi:200-2

> <Gold.Version>
5.8.1

> <Gold.Id.Protein>
6NUR|6NUR_protein|mol2

> <Gold.PLP.Fitness>
47.3173

> <Gold.PLP.PLP>
-39.3765

> <Gold.PLP.part.hbond>
-4.0000

> <Gold.PLP.part.metal>
0.0000

> <Gold.PLP.part.buried>
-7.6435

> <Gold.PLP.part.nonpolar>
-28.4569

> <Gold.PLP.part.repulsive>
0.2381

> <Gold.PLP.ligand.clash>
0.0128

> <Gold.PLP.ligand.torsion>
1.2227

> <Gold.PLP.Chemscore.Hbond>
3.0000

> <Gold.PLP.Chemscore.CHOScore>
0.0000

> <Gold.PLP.Chemscore.Metal>
0.0000

> <Gold.Chemscore.Hbonds>
donor molecule, donor type, donor heavy atom, donor atom, acceptor molecule, acceptor atom, score
      P1  H  7997  8009       L1     7  1.00

> <Gold.PLP.Chemscore.Internal.Correction>
1.3991

> <Gold.Rescore>
     Score         DG    S(hbond)    S(metal)    S(lipo)     H(rot)  DE(clash)    DE(int)     intcor
     15.47     -17.71       2.76        0.00      97.34       3.28       0.02       2.22       ----

> <Gold.Chemscore.Fitness>
15.4693

> <Gold.Chemscore.DG>
-17.7100

> <Gold.Chemscore.ZeroCoef>
-5.4800

> <Gold.Chemscore.Hbond>
2.7630

> <Gold.Chemscore.Metal>
0.0000

> <Gold.Chemscore.Lipo>
97.3367

> <Gold.Chemscore.Internal_Hbond>
0.0000

> <Gold.Chemscore.DEClash>
0.0189

> <Gold.Chemscore.DEInternal>
2.2218

> <Gold.Chemscore.Rot>
3.2761

> <Gold.Chemscore.Internal.Correction>
   9.000000E+99

> <Gold.Chemscore.Hbonds>
donor molecule, donor type, donor heavy atom, donor atom, acceptor molecule, acceptor atom, score
      P1  H  7997  8009       L1     7  0.26

> <Gold.Chemscore.Hbond.Weighted>
-9.2284

> <Gold.Chemscore.Metal.Weighted>
-0.0000

> <Gold.Chemscore.Lipo.Weighted>
-11.3884

> <Gold.Chemscore.Internal_Hbond.Weighted>
0.0000

> <Gold.Chemscore.DEClash.Weighted>
0.0189

> <Gold.Chemscore.DEInternal.Weighted>
2.2218

> <Gold.Chemscore.Rot.Weighted>
8.3868

> <Gold.Chemscore.Internal.Correction.Weighted>
   9.000000E+99

> <Gold.Protein.RotatedTorsions>
[ 6907 6896 6895 6894 ] final  -90.45 input  -60.11 | X-H torsion
[ 7974 7965 7964 7962 ] final  -45.53 input  175.53 | X-H torsion
[ 8008 7997 7996 7995 ] final -150.21 input   59.86 | X-H torsion
[ 10167 10162 10161 10158 ] final  -29.21 input  -65.29 | X-H torsion
[ 10718 10713 10712 10709 ] final  152.60 input   66.30 | X-H torsion
[ 10763 10752 10751 10750 ] final  107.72 input  -60.55 | X-H torsion
[ 11005 11000 10999 10996 ] final   27.30 input  -57.11 | X-H torsion

> <Gold.Protein.ActiveResidues>
 VAL166  LYS551  ARG553  GLY616  TRP617  ASP618  TYR619  PRO620  LYS621  CYS622 
 ASP623  PHE694  ASN695  SER759  ASP760  ASP761  ALA762  ILE779  LEU786  VAL792 
 PHE793  MET794  SER795  GLU796  ALA797  LYS798  CYS799  TRP800  GLU811  SER814 

> <Gold.Protein.RotatedAtoms>
  150.6882  134.2430  159.4479 H   0  0  0  0  0  0  0  0  0  0  0  0  # atno 6907 bound_to 6896
  152.0373  134.9730  160.0582 H   0  0  0  0  0  0  0  0  0  0  0  0  # atno 6908 bound_to 6896
  152.1246  133.4338  159.4728 H   0  0  0  0  0  0  0  0  0  0  0  0  # atno 6909 bound_to 6896
  145.9811  140.7283  142.9363 H   0  0  0  0  0  0  0  0  0  0  0  0  # atno 7974 bound_to 7965
  155.6199  140.0680  157.2681 H   0  0  0  0  0  0  0  0  0  0  0  0  # atno 8008 bound_to 7997
  154.4232  140.1786  156.1409 H   0  0  0  0  0  0  0  0  0  0  0  0  # atno 8009 bound_to 7997
  156.0018  140.3335  155.6856 H   0  0  0  0  0  0  0  0  0  0  0  0  # atno 8010 bound_to 7997
  140.7263  143.3947  151.1369 H   0  0  0  0  0  0  0  0  0  0  0  0  # atno 10167 bound_to 10162
  157.2557  131.0788  151.1700 H   0  0  0  0  0  0  0  0  0  0  0  0  # atno 10718 bound_to 10713
  153.4106  135.3835  155.2048 H   0  0  0  0  0  0  0  0  0  0  0  0  # atno 10763 bound_to 10752
  154.8737  135.3793  154.4505 H   0  0  0  0  0  0  0  0  0  0  0  0  # atno 10764 bound_to 10752
  153.5013  135.7088  153.5892 H   0  0  0  0  0  0  0  0  0  0  0  0  # atno 10765 bound_to 10752
  140.3278  134.2471  155.7707 H   0  0  0  0  0  0  0  0  0  0  0  0  # atno 11005 bound_to 11000
  144.6862  140.2909  143.7278 LP  0  0  0  0  0  0  0  0  0  0  0  0  # atno 17320 bound_to 7965
  145.7768  139.1877  143.2180 LP  0  0  0  0  0  0  0  0  0  0  0  0  # atno 17321 bound_to 7965
  139.7557  143.8710  152.3088 LP  0  0  0  0  0  0  0  0  0  0  0  0  # atno 17342 bound_to 10162
  139.8579  144.7132  150.9134 LP  0  0  0  0  0  0  0  0  0  0  0  0  # atno 17343 bound_to 10162
  157.3230  130.6946  149.6280 LP  0  0  0  0  0  0  0  0  0  0  0  0  # atno 17370 bound_to 10713
  155.9665  130.4330  150.4987 LP  0  0  0  0  0  0  0  0  0  0  0  0  # atno 17371 bound_to 10713
  141.2071  133.7815  157.0139 LP  0  0  0  0  0  0  0  0  0  0  0  0  # atno 17394 bound_to 11000
  140.0886  134.9606  157.1741 LP  0  0  0  0  0  0  0  0  0  0  0  0  # atno 17395 bound_to 11000

$$$$
