#       Name:                AV-unprocessed.smi:1677
#       Creating user name   scv26
#       Creation time:       Fri Mar 27 07:46:53 2020


#       File generated by GOLD software.
#

@<TRIPOS>MOLECULE
AV-unprocessed.smi:1677
    39    40     1
SMALL
NO_CHARGES


@<TRIPOS>ATOM
      1 ****         1.0372  -2.8403   2.2365 C.3            1 S1                 0.0000
      2 ****         0.9066  -2.1669   0.8636 C.3            1 S1                 0.0000
      3 ****         2.2816  -2.0081   0.1816 C.3            1 S1                 0.0000
      4 ****         2.1776  -1.4984  -1.1738 N.pl3          1 S1                 0.0000
      5 ****         1.7862  -2.2013  -2.3054 C.2            1 S1                 0.0000
      6 ****         1.8241  -1.3103  -3.3539 C.2            1 S1                 0.0000
      7 ****         2.2388  -0.0623  -2.8946 N.2            1 S1                 0.0000
      8 ****         2.4322  -0.2521  -1.5960 C.2            1 S1                 0.0000
      9 ****         0.2580  -0.8667   1.0303 N.am           1 S1                 0.0000
     10 ****        -0.6943  -0.3578   0.2317 C.2            1 S1                 0.0000
     11 ****        -1.1640  -0.9627  -0.7326 O.2            1 S1                 0.0000
     12 ****        -1.1722   1.0625   0.5577 C.3            1 S1                 0.0000
     13 ****        -2.6808   1.0853   0.8951 C.3            1 S1                 0.0000
     14 ****        -3.2304   2.4991   0.9643 C.2            1 S1                 0.0000
     15 ****        -2.5880   3.5674   0.4617 C.2            1 S1                 0.0000
     16 ****        -1.2417   3.4817  -0.2355 C.3            1 S1                 0.0000
     17 ****        -0.8647   2.0334  -0.6003 C.3            1 S1                 0.0000
     18 ****         1.4880  -3.8290   2.1468 H              1 S1                 0.0000
     19 ****         0.0609  -2.9666   2.7060 H              1 S1                 0.0000
     20 ****         1.6592  -2.2514   2.9117 H              1 S1                 0.0000
     21 ****         0.2843  -2.8171   0.2459 H              1 S1                 0.0000
     22 ****         2.9236  -1.3424   0.7607 H              1 S1                 0.0000
     23 ****         2.7909  -2.9716   0.1366 H              1 S1                 0.0000
     24 ****         1.5136  -3.2456  -2.2700 H              1 S1                 0.0000
     25 ****         1.5863  -1.4702  -4.3951 H              1 S1                 0.0000
     26 ****         2.7565   0.5375  -0.9339 H              1 S1                 0.0000
     27 ****         0.5797  -0.2958   1.7983 H              1 S1                 0.0000
     28 ****        -0.6252   1.4133   1.4351 H              1 S1                 0.0000
     29 ****        -3.2624   0.5370   0.1528 H              1 S1                 0.0000
     30 ****        -2.8516   0.5981   1.8557 H              1 S1                 0.0000
     31 ****        -4.1948   2.6243   1.4341 H              1 S1                 0.0000
     32 ****        -3.0270   4.5500   0.5538 H              1 S1                 0.0000
     33 ****        -1.2615   4.0977  -1.1348 H              1 S1                 0.0000
     34 ****        -0.4900   3.9111   0.4277 H              1 S1                 0.0000
     35 ****         0.1897   1.9868  -0.8777 H              1 S1                 0.0000
     36 ****        -1.4271   1.7319  -1.4857 H              1 S1                 0.0000
     37 ****         2.3619   0.7793  -3.4204 LP             1 S1                 0.0000
     38 ****        -0.8369  -1.8814  -0.9541 LP             1 S1                 0.0000
     39 ****        -1.8724  -0.5353  -1.2941 LP             1 S1                 0.0000
@<TRIPOS>BOND
    1    1    2 1     
    2    1   18 1     
    3    1   19 1     
    4    1   20 1     
    5    2    3 1     
    6    2    9 1     
    7    2   21 1     
    8    3    4 1     
    9    3   22 1     
   10    3   23 1     
   11    4    8 1     
   12    4    5 1     
   13    5    6 2     
   14    5   24 1     
   15    6    7 1     
   16    6   25 1     
   17    7    8 2     
   18    8   26 1     
   19    9   10 am    
   20    9   27 1     
   21   10   11 2     
   22   10   12 1     
   23   12   17 1     
   24   12   13 1     
   25   12   28 1     
   26   13   14 1     
   27   13   29 1     
   28   13   30 1     
   29   14   15 2     
   30   14   31 1     
   31   15   16 1     
   32   15   32 1     
   33   16   17 1     
   34   16   33 1     
   35   16   34 1     
   36   17   35 1     
   37   17   36 1     
   38    7   37 1     
   39   11   38 1     
   40   11   39 1     
@<TRIPOS>SUBSTRUCTURE
      1 S1             1
@<TRIPOS>SET
LONE_PAIRS      STATIC     ATOMS    <user>   **** ""
3 37 38 39
DONOR_HYDROGENS      STATIC     ATOMS    <user>   **** ""
1 27
ATOM$BLUE        STATIC     ATOMS    COLORGROUP SYSTEM
3 37 38 39
ATOM$RED        STATIC     ATOMS    COLORGROUP SYSTEM
1 27
