AV-unprocessed.smi:1430|AV-procd|sdf|5825|dock4
  -GOLD-   22720 5483D 1   1.00000     0.00000
 Structure written by MMmdl.
 47 48  0  0  0  0  0  0  0  0  2 V2000
  151.5360  142.9683  158.9861 C   0  0  0  0  0  0  0  0  0  0  0  0
  150.1888  142.5601  158.7754 O   0  0  0  0  0  0  0  0  0  0  0  0
  149.8639  141.9680  157.5722 C   0  0  0  0  0  0  0  0  0  0  0  0
  150.9032  141.4563  156.7700 C   0  0  0  0  0  0  0  0  0  0  0  0
  150.5807  140.8502  155.5407 C   0  0  0  0  0  0  0  0  0  0  0  0
  149.2214  140.7688  155.1538 C   0  0  0  0  0  0  0  0  0  0  0  0
  148.7648  140.2025  153.9327 N   0  0  0  0  0  0  0  0  0  0  0  0
  147.6255  139.5319  153.6918 C   0  0  0  0  0  0  0  0  0  0  0  0
  146.7276  139.3322  154.5086 O   0  0  0  0  0  0  0  0  0  0  0  0
  147.5767  139.1003  152.4234 N   0  0  0  0  0  0  0  0  0  0  0  0
  146.4746  138.3446  151.8310 C   0  0  0  0  0  0  0  0  0  0  0  0
  145.9132  137.2453  152.7601 C   0  0  0  0  0  0  0  0  0  0  0  0
  146.1485  135.8704  152.2512 N   0  3  1  0  0  0  0  0  0  0  0  0
  146.2922  134.8755  153.3391 C   0  0  0  0  0  0  0  0  0  0  0  0
  146.6143  133.4866  152.7563 C   0  0  1  0  0  0  0  0  0  0  0  0
  146.6961  132.4087  153.8426 C   0  0  0  0  0  0  0  0  0  0  0  0
  145.5895  133.1185  151.8388 O   0  0  0  0  0  0  0  0  0  0  0  0
  145.4883  134.0173  150.7391 C   0  0  1  0  0  0  0  0  0  0  0  0
  144.4253  133.4783  149.7756 C   0  0  0  0  0  0  0  0  0  0  0  0
  145.1356  135.4206  151.2669 C   0  0  0  0  0  0  0  0  0  0  0  0
  148.2586  141.3224  156.0231 C   0  0  0  0  0  0  0  0  0  0  0  0
  148.5610  141.9044  157.2022 N   0  0  0  0  0  0  0  0  0  0  0  0
  151.6256  143.4184  159.9747 H   0  0  0  0  0  0  0  0  0  0  0  0
  151.8453  143.7154  158.2536 H   0  0  0  0  0  0  0  0  0  0  0  0
  152.2216  142.1210  158.9448 H   0  0  0  0  0  0  0  0  0  0  0  0
  151.9320  141.5314  157.0903 H   0  0  0  0  0  0  0  0  0  0  0  0
  151.3806  140.4780  154.9202 H   0  0  0  0  0  0  0  0  0  0  0  0
  149.3656  140.3585  153.1365 H   0  0  0  0  0  0  0  0  0  0  0  0
  148.3522  139.3240  151.8167 H   0  0  0  0  0  0  0  0  0  0  0  0
  145.6773  139.0276  151.5342 H   0  0  0  0  0  0  0  0  0  0  0  0
  146.8436  137.8960  150.9087 H   0  0  0  0  0  0  0  0  0  0  0  0
  146.3984  137.3430  153.7319 H   0  0  0  0  0  0  0  0  0  0  0  0
  144.8488  137.4032  152.9394 H   0  0  0  0  0  0  0  0  0  0  0  0
  147.0905  135.1842  154.0154 H   0  0  0  0  0  0  0  0  0  0  0  0
  145.3712  134.8392  153.9234 H   0  0  0  0  0  0  0  0  0  0  0  0
  147.5703  133.5214  152.2307 H   0  0  0  0  0  0  0  0  0  0  0  0
  147.4768  132.6405  154.5674 H   0  0  0  0  0  0  0  0  0  0  0  0
  146.9250  131.4349  153.4089 H   0  0  0  0  0  0  0  0  0  0  0  0
  145.7533  132.3190  154.3828 H   0  0  0  0  0  0  0  0  0  0  0  0
  146.4450  134.0521  150.2147 H   0  0  0  0  0  0  0  0  0  0  0  0
  144.3129  134.1306  148.9092 H   0  0  0  0  0  0  0  0  0  0  0  0
  143.4533  133.3998  150.2636 H   0  0  0  0  0  0  0  0  0  0  0  0
  144.6954  132.4868  149.4111 H   0  0  0  0  0  0  0  0  0  0  0  0
  144.1503  135.4116  151.7360 H   0  0  0  0  0  0  0  0  0  0  0  0
  145.0875  136.1205  150.4328 H   0  0  0  0  0  0  0  0  0  0  0  0
  147.2095  141.2964  155.7668 H   0  0  0  0  0  0  0  0  0  0  0  0
  147.0373  135.8930  151.7718 H   0  0  0  0  0  0  0  0  0  0  0  0
  1  2  1  0  0  0  0
  1 23  1  0  0  0  0
  1 24  1  0  0  0  0
  1 25  1  0  0  0  0
  2  3  1  0  0  0  0
  3 22  1  0  0  0  0
  3  4  2  0  0  0  0
  4  5  1  0  0  0  0
  4 26  1  0  0  0  0
  5  6  2  0  0  0  0
  5 27  1  0  0  0  0
  6  7  1  0  0  0  0
  6 21  1  0  0  0  0
  7  8  1  0  0  0  0
  7 28  1  0  0  0  0
  8  9  2  0  0  0  0
  8 10  1  0  0  0  0
 10 11  1  0  0  0  0
 10 29  1  0  0  0  0
 11 12  1  0  0  0  0
 11 30  1  0  0  0  0
 11 31  1  0  0  0  0
 12 13  1  0  0  0  0
 12 32  1  0  0  0  0
 12 33  1  0  0  0  0
 13 20  1  0  0  0  0
 13 14  1  0  0  0  0
 13 47  1  0  0  0  0
 14 15  1  0  0  0  0
 14 34  1  0  0  0  0
 14 35  1  0  0  0  0
 15 16  1  0  0  0  0
 15 17  1  0  0  0  0
 15 36  1  0  0  0  0
 16 37  1  0  0  0  0
 16 38  1  0  0  0  0
 16 39  1  0  0  0  0
 17 18  1  0  0  0  0
 18 19  1  0  0  0  0
 18 20  1  0  0  0  0
 18 40  1  0  0  0  0
 19 41  1  0  0  0  0
 19 42  1  0  0  0  0
 19 43  1  0  0  0  0
 20 44  1  0  0  0  0
 20 45  1  0  0  0  0
 21 22  2  0  0  0  0
 21 46  1  0  0  0  0
M  CHG  1  13   1
M  END
> <s_m_source_file>
AV-unprocessed.smi

> <i_m_source_file_index>
1430

> <i_lp_mmshare_version>
43012

> <i_f3d_flags>
0

> <s_epik_input>
W0NIM11PYzFbY0hdW2NIXWMoW2NIXW4xKVtOSF1DKD1PKVtOSF1bQ0gyXVtDSDJdTjJbQ0gyXVtDQEBIXShbQ0gzXSlPW0NAQEhdKFtDSDNdKVtDSDJdMg==

> <s_epik_cmdline>
J2VwaWtfcHl0aG9uJywgJy1waCcsICc3LjAnLCAnLXRuJywgJzgnLCAnLW1hJywgJzIwMCcsICctbWV0YWxfYmluZGluZycsICctaW1hZScsICc8aW5maWxlLm1hZT4nLCAnLW9tYWUnLCAnPG91dGZpbGUubWFlPic=

> <r_lp_tautomer_probability>
1

> <r_epik_Ionization_Penalty>
0.602607

> <r_epik_Ionization_Penalty_Charging>
0.602531

> <r_epik_Ionization_Penalty_Neutral>
7.66983e-05

> <r_epik_State_Penalty>
0.617039

> <r_epik_Charging_Adjusted_Penalty>
1.21957

> <i_epik_Tot_Q>
1

> <i_epik_Tot_abs_Q>
1

> <r_epik_Metal_State_Penalty>
0.617043

> <b_epik_Metal_Only>
0

> <s_lp_Force_Field>
OPLS_2005

> <r_lp_Energy>
23.5338

> <b_lp_Chiralities_Consistent>
1

> <s_lp_Variant>
AV-unprocessed.smi:1430-4

> <Gold.Version>
5.8.1

> <Gold.Id.Protein>
6NUR|6NUR_protein|mol2

> <Gold.PLP.Fitness>
42.8455

> <Gold.PLP.PLP>
-33.6795

> <Gold.PLP.part.hbond>
-3.5095

> <Gold.PLP.part.metal>
0.0000

> <Gold.PLP.part.buried>
-3.7091

> <Gold.PLP.part.nonpolar>
-27.5530

> <Gold.PLP.part.repulsive>
0.6710

> <Gold.PLP.ligand.clash>
0.0000

> <Gold.PLP.ligand.torsion>
1.2814

> <Gold.PLP.Chemscore.Hbond>
3.8960

> <Gold.PLP.Chemscore.CHOScore>
0.0000

> <Gold.PLP.Chemscore.Metal>
0.0000

> <Gold.Chemscore.Hbonds>
donor molecule, donor type, donor heavy atom, donor atom, acceptor molecule, acceptor atom, score
      L1  H     7    28       P1  7957  0.91
      L1  H    10    29       P1  7957  1.00
      L1  H    13    47       P1  7948  1.98

> <Gold.PLP.Chemscore.Internal.Correction>
0.0407

> <Gold.Rescore>
     Score         DG    S(hbond)    S(metal)    S(lipo)     H(rot)  DE(clash)    DE(int)     intcor
     15.99     -19.98       2.91        0.00      79.36       1.76       0.03       3.95       ----

> <Gold.Chemscore.Fitness>
15.9894

> <Gold.Chemscore.DG>
-19.9778

> <Gold.Chemscore.ZeroCoef>
-5.4800

> <Gold.Chemscore.Hbond>
2.9102

> <Gold.Chemscore.Metal>
0.0000

> <Gold.Chemscore.Lipo>
79.3588

> <Gold.Chemscore.Internal_Hbond>
0.0000

> <Gold.Chemscore.DEClash>
0.0335

> <Gold.Chemscore.DEInternal>
3.9549

> <Gold.Chemscore.Rot>
1.7606

> <Gold.Chemscore.Internal.Correction>
   9.000000E+99

> <Gold.Chemscore.Hbonds>
donor molecule, donor type, donor heavy atom, donor atom, acceptor molecule, acceptor atom, score
      L1  H     7    28       P1  7957  0.83
      L1  H    10    29       P1  7957  0.96
      L1  H    13    47       P1  7948  0.94

> <Gold.Chemscore.Hbond.Weighted>
-9.7200

> <Gold.Chemscore.Metal.Weighted>
-0.0000

> <Gold.Chemscore.Lipo.Weighted>
-9.2850

> <Gold.Chemscore.Internal_Hbond.Weighted>
0.0000

> <Gold.Chemscore.DEClash.Weighted>
0.0335

> <Gold.Chemscore.DEInternal.Weighted>
3.9549

> <Gold.Chemscore.Rot.Weighted>
4.5072

> <Gold.Chemscore.Internal.Correction.Weighted>
   9.000000E+99

> <Gold.Protein.RotatedTorsions>
[ 6907 6896 6895 6894 ] final  -32.73 input  -60.11 | X-H torsion
[ 7974 7965 7964 7962 ] final  -33.03 input  175.53 | X-H torsion
[ 8008 7997 7996 7995 ] final  135.59 input   59.86 | X-H torsion
[ 10167 10162 10161 10158 ] final  -66.24 input  -65.29 | X-H torsion
[ 10718 10713 10712 10709 ] final    7.84 input   66.30 | X-H torsion
[ 10763 10752 10751 10750 ] final  -42.71 input  -60.55 | X-H torsion
[ 11005 11000 10999 10996 ] final  149.44 input  -57.11 | X-H torsion

> <Gold.Protein.ActiveResidues>
 VAL166  LYS551  ARG553  GLY616  TRP617  ASP618  TYR619  PRO620  LYS621  CYS622 
 ASP623  PHE694  ASN695  SER759  ASP760  ASP761  ALA762  ILE779  LEU786  VAL792 
 PHE793  MET794  SER795  GLU796  ALA797  LYS798  CYS799  TRP800  GLU811  SER814 

> <Gold.Protein.RotatedAtoms>
  151.0748  134.9821  159.8326 H   0  0  0  0  0  0  0  0  0  0  0  0  # atno 6907 bound_to 6896
  152.5413  134.2254  159.8814 H   0  0  0  0  0  0  0  0  0  0  0  0  # atno 6908 bound_to 6896
  151.2281  133.4422  159.2636 H   0  0  0  0  0  0  0  0  0  0  0  0  # atno 6909 bound_to 6896
  146.0943  140.5866  142.8850 H   0  0  0  0  0  0  0  0  0  0  0  0  # atno 7974 bound_to 7965
  156.3003  140.2467  156.3606 H   0  0  0  0  0  0  0  0  0  0  0  0  # atno 8008 bound_to 7997
  154.8880  140.0410  157.1841 H   0  0  0  0  0  0  0  0  0  0  0  0  # atno 8009 bound_to 7997
  154.8627  140.2923  155.5533 H   0  0  0  0  0  0  0  0  0  0  0  0  # atno 8010 bound_to 7997
  140.5671  143.2315  151.6613 H   0  0  0  0  0  0  0  0  0  0  0  0  # atno 10167 bound_to 10162
  156.9428  130.5867  149.5653 H   0  0  0  0  0  0  0  0  0  0  0  0  # atno 10718 bound_to 10713
  153.9835  135.6714  153.4751 H   0  0  0  0  0  0  0  0  0  0  0  0  # atno 10763 bound_to 10752
  153.0737  135.4960  154.8356 H   0  0  0  0  0  0  0  0  0  0  0  0  # atno 10764 bound_to 10752
  154.7151  135.3105  154.9099 H   0  0  0  0  0  0  0  0  0  0  0  0  # atno 10765 bound_to 10752
  140.1045  134.8963  157.1845 H   0  0  0  0  0  0  0  0  0  0  0  0  # atno 11005 bound_to 11000
  144.7383  140.4872  143.6887 LP  0  0  0  0  0  0  0  0  0  0  0  0  # atno 17320 bound_to 7965
  145.5979  139.1501  143.3146 LP  0  0  0  0  0  0  0  0  0  0  0  0  # atno 17321 bound_to 7965
  139.5098  144.3563  152.0605 LP  0  0  0  0  0  0  0  0  0  0  0  0  # atno 17342 bound_to 10162
  140.2696  144.3979  150.6156 LP  0  0  0  0  0  0  0  0  0  0  0  0  # atno 17343 bound_to 10162
  156.0397  130.5481  150.8740 LP  0  0  0  0  0  0  0  0  0  0  0  0  # atno 17370 bound_to 10713
  157.5774  131.0946  150.9325 LP  0  0  0  0  0  0  0  0  0  0  0  0  # atno 17371 bound_to 10713
  140.3175  134.2954  155.7253 LP  0  0  0  0  0  0  0  0  0  0  0  0  # atno 17394 bound_to 11000
  141.2114  133.7689  156.9863 LP  0  0  0  0  0  0  0  0  0  0  0  0  # atno 17395 bound_to 11000

$$$$
