AV-unprocessed.smi:3134|AV-procd|sdf|11943|dock2
  -GOLD-   2272017333D 1   1.00000     0.00000
 Structure written by MMmdl.
 36 36  0  0  0  0  0  0  0  0  1 V2000
  147.1091  143.2370  154.0205 C   0  0  0  0  0  0  0  0  0  0  0  0
  147.9211  141.9535  154.2374 C   0  0  0  0  0  0  0  0  0  0  0  0
  147.0398  140.8035  154.7503 C   0  0  0  0  0  0  0  0  0  0  0  0
  149.0045  142.2187  155.1784 N   0  0  0  0  0  0  0  0  0  0  0  0
  149.9024  141.3178  155.6082 C   0  0  0  0  0  0  0  0  0  0  0  0
  149.9131  140.1432  155.2384 O   0  0  0  0  0  0  0  0  0  0  0  0
  150.9246  141.8122  156.6458 C   0  0  2  0  0  0  0  0  0  0  0  0
  151.0837  140.7927  157.7855 C   0  0  0  0  0  0  0  0  0  0  0  0
  150.5960  143.1362  157.2053 N   0  0  0  0  0  0  0  0  0  0  0  0
  151.7177  143.8209  157.8386 C   0  0  0  0  0  0  0  0  0  0  0  0
  151.2439  144.4724  159.1453 C   0  0  0  0  0  0  0  0  0  0  0  0
  151.6018  143.6732  160.3012 N   0  0  0  0  0  0  0  0  0  0  0  0
  152.4575  142.5939  160.3654 C   0  0  0  0  0  0  0  0  0  0  0  0
  152.4789  142.1695  161.6630 C   0  0  0  0  0  0  0  0  0  0  0  0
  151.5920  143.0635  162.3256 C   0  0  0  0  0  0  0  0  0  0  0  0
  151.0679  143.9621  161.5077 N   0  0  0  0  0  0  0  0  0  0  0  0
  146.3052  143.0747  153.3021 H   0  0  0  0  0  0  0  0  0  0  0  0
  147.7384  144.0393  153.6338 H   0  0  0  0  0  0  0  0  0  0  0  0
  146.6586  143.5850  154.9507 H   0  0  0  0  0  0  0  0  0  0  0  0
  148.3471  141.6635  153.2752 H   0  0  0  0  0  0  0  0  0  0  0  0
  146.2290  140.5914  154.0531 H   0  0  0  0  0  0  0  0  0  0  0  0
  146.5939  141.0451  155.7158 H   0  0  0  0  0  0  0  0  0  0  0  0
  147.6164  139.8858  154.8707 H   0  0  0  0  0  0  0  0  0  0  0  0
  149.0676  143.1571  155.5457 H   0  0  0  0  0  0  0  0  0  0  0  0
  151.8935  141.8939  156.1494 H   0  0  0  0  0  0  0  0  0  0  0  0
  151.3412  139.8049  157.4011 H   0  0  0  0  0  0  0  0  0  0  0  0
  150.1677  140.6942  158.3698 H   0  0  0  0  0  0  0  0  0  0  0  0
  151.8789  141.0928  158.4687 H   0  0  0  0  0  0  0  0  0  0  0  0
  150.1768  143.7387  156.5112 H   0  0  0  0  0  0  0  0  0  0  0  0
  152.5163  143.1070  158.0466 H   0  0  0  0  0  0  0  0  0  0  0  0
  152.1232  144.5867  157.1761 H   0  0  0  0  0  0  0  0  0  0  0  0
  151.6803  145.4658  159.2613 H   0  0  0  0  0  0  0  0  0  0  0  0
  150.1606  144.6010  159.1361 H   0  0  0  0  0  0  0  0  0  0  0  0
  152.9745  142.2228  159.4925 H   0  0  0  0  0  0  0  0  0  0  0  0
  153.0419  141.3459  162.0761 H   0  0  0  0  0  0  0  0  0  0  0  0
  151.3149  143.0857  163.3693 H   0  0  0  0  0  0  0  0  0  0  0  0
  1  2  1  0  0  0  0
  1 17  1  0  0  0  0
  1 18  1  0  0  0  0
  1 19  1  0  0  0  0
  2  3  1  0  0  0  0
  2  4  1  0  0  0  0
  2 20  1  0  0  0  0
  3 21  1  0  0  0  0
  3 22  1  0  0  0  0
  3 23  1  0  0  0  0
  4  5  1  0  0  0  0
  4 24  1  0  0  0  0
  5  6  2  0  0  0  0
  5  7  1  0  0  0  0
  7  8  1  0  0  0  0
  7  9  1  0  0  0  0
  7 25  1  0  0  0  0
  8 26  1  0  0  0  0
  8 27  1  0  0  0  0
  8 28  1  0  0  0  0
  9 10  1  0  0  0  0
  9 29  1  0  0  0  0
 10 11  1  0  0  0  0
 10 30  1  0  0  0  0
 10 31  1  0  0  0  0
 11 12  1  0  0  0  0
 11 32  1  0  0  0  0
 11 33  1  0  0  0  0
 12 16  1  0  0  0  0
 12 13  1  0  0  0  0
 13 14  2  0  0  0  0
 13 34  1  0  0  0  0
 14 15  1  0  0  0  0
 14 35  1  0  0  0  0
 15 16  2  0  0  0  0
 15 36  1  0  0  0  0
M  END
> <s_m_source_file>
AV-unprocessed.smi

> <i_m_source_file_index>
3134

> <i_lp_mmshare_version>
43012

> <i_f3d_flags>
0

> <s_epik_input>
W0NIM11bQ0hdKFtDSDNdKVtOSF1DKD1PKVtDQEhdKFtDSDNdKVtOSF1bQ0gyXVtDSDJdbjFbY0hdW2NIXVtjSF1uMQ==

> <s_epik_cmdline>
J2VwaWtfcHl0aG9uJywgJy1waCcsICc3LjAnLCAnLXRuJywgJzgnLCAnLW1hJywgJzIwMCcsICctbWV0YWxfYmluZGluZycsICctaW1hZScsICc8aW5maWxlLm1hZT4nLCAnLW9tYWUnLCAnPG91dGZpbGUubWFlPic=

> <r_lp_tautomer_probability>
1

> <r_epik_Ionization_Penalty>
0.731872

> <r_epik_Ionization_Penalty_Charging>
0

> <r_epik_Ionization_Penalty_Neutral>
0.731872

> <r_epik_State_Penalty>
0.75611

> <r_epik_Charging_Adjusted_Penalty>
0.75611

> <i_epik_Tot_Q>
0

> <i_epik_Tot_abs_Q>
0

> <r_epik_Metal_State_Penalty>
0.755373

> <b_epik_Metal_Only>
0

> <s_lp_Force_Field>
OPLS_2005

> <r_lp_Energy>
3.66061

> <b_lp_Chiralities_Consistent>
1

> <s_lp_Variant>
AV-unprocessed.smi:3134-3

> <Gold.Version>
5.8.1

> <Gold.Id.Protein>
6NUR|6NUR_protein|mol2

> <Gold.PLP.Fitness>
49.6550

> <Gold.PLP.PLP>
-43.0567

> <Gold.PLP.part.hbond>
-3.4725

> <Gold.PLP.part.metal>
0.0000

> <Gold.PLP.part.buried>
-6.2457

> <Gold.PLP.part.nonpolar>
-33.0197

> <Gold.PLP.part.repulsive>
0.4174

> <Gold.PLP.ligand.clash>
0.0000

> <Gold.PLP.ligand.torsion>
1.1871

> <Gold.PLP.Chemscore.Hbond>
2.9520

> <Gold.PLP.Chemscore.CHOScore>
0.0000

> <Gold.PLP.Chemscore.Metal>
0.0000

> <Gold.Chemscore.Hbonds>
donor molecule, donor type, donor heavy atom, donor atom, acceptor molecule, acceptor atom, score
      L1  H     4    24       P1  8028  1.00
      L1  H     9    29       P1  8028  1.00

> <Gold.PLP.Chemscore.Internal.Correction>
0.1164

> <Gold.Rescore>
     Score         DG    S(hbond)    S(metal)    S(lipo)     H(rot)  DE(clash)    DE(int)     intcor
     16.04     -17.48       2.01        0.00      90.12       2.05       0.02       1.42       ----

> <Gold.Chemscore.Fitness>
16.0367

> <Gold.Chemscore.DG>
-17.4812

> <Gold.Chemscore.ZeroCoef>
-5.4800

> <Gold.Chemscore.Hbond>
2.0098

> <Gold.Chemscore.Metal>
0.0000

> <Gold.Chemscore.Lipo>
90.1189

> <Gold.Chemscore.Internal_Hbond>
0.0000

> <Gold.Chemscore.DEClash>
0.0218

> <Gold.Chemscore.DEInternal>
1.4228

> <Gold.Chemscore.Rot>
2.0529

> <Gold.Chemscore.Internal.Correction>
   9.000000E+99

> <Gold.Chemscore.Hbonds>
donor molecule, donor type, donor heavy atom, donor atom, acceptor molecule, acceptor atom, score
      L1  H     4    24       P1  8028  0.97
      L1  H     9    29       P1  8028  0.99

> <Gold.Chemscore.Hbond.Weighted>
-6.7127

> <Gold.Chemscore.Metal.Weighted>
-0.0000

> <Gold.Chemscore.Lipo.Weighted>
-10.5439

> <Gold.Chemscore.Internal_Hbond.Weighted>
0.0000

> <Gold.Chemscore.DEClash.Weighted>
0.0218

> <Gold.Chemscore.DEInternal.Weighted>
1.4228

> <Gold.Chemscore.Rot.Weighted>
5.2554

> <Gold.Chemscore.Internal.Correction.Weighted>
   9.000000E+99

> <Gold.Protein.RotatedTorsions>
[ 6907 6896 6895 6894 ] final   39.14 input  -60.11 | X-H torsion
[ 7974 7965 7964 7962 ] final   77.62 input  175.53 | X-H torsion
[ 8008 7997 7996 7995 ] final -170.25 input   59.86 | X-H torsion
[ 10167 10162 10161 10158 ] final   21.13 input  -65.29 | X-H torsion
[ 10718 10713 10712 10709 ] final   69.89 input   66.30 | X-H torsion
[ 10763 10752 10751 10750 ] final  -68.11 input  -60.55 | X-H torsion
[ 11005 11000 10999 10996 ] final   97.09 input  -57.11 | X-H torsion

> <Gold.Protein.ActiveResidues>
 VAL166  LYS551  ARG553  GLY616  TRP617  ASP618  TYR619  PRO620  LYS621  CYS622 
 ASP623  PHE694  ASN695  SER759  ASP760  ASP761  ALA762  ILE779  LEU786  VAL792 
 PHE793  MET794  SER795  GLU796  ALA797  LYS798  CYS799  TRP800  GLU811  SER814 

> <Gold.Protein.RotatedAtoms>
  152.1656  134.8876  160.0538 H   0  0  0  0  0  0  0  0  0  0  0  0  # atno 6907 bound_to 6896
  151.9855  133.3767  159.4132 H   0  0  0  0  0  0  0  0  0  0  0  0  # atno 6908 bound_to 6896
  150.6894  134.3915  159.5122 H   0  0  0  0  0  0  0  0  0  0  0  0  # atno 6909 bound_to 6896
  145.6877  139.2543  143.1778 H   0  0  0  0  0  0  0  0  0  0  0  0  # atno 7974 bound_to 7965
  155.9158  140.1065  157.1245 H   0  0  0  0  0  0  0  0  0  0  0  0  # atno 8008 bound_to 7997
  154.4046  140.1265  156.4681 H   0  0  0  0  0  0  0  0  0  0  0  0  # atno 8009 bound_to 7997
  155.7255  140.3469  155.5038 H   0  0  0  0  0  0  0  0  0  0  0  0  # atno 8010 bound_to 7997
  140.5451  143.9609  150.6542 H   0  0  0  0  0  0  0  0  0  0  0  0  # atno 10167 bound_to 10162
  157.6370  130.9449  150.0575 H   0  0  0  0  0  0  0  0  0  0  0  0  # atno 10718 bound_to 10713
  154.3842  135.6067  153.5808 H   0  0  0  0  0  0  0  0  0  0  0  0  # atno 10763 bound_to 10752
  152.9788  135.5868  154.4374 H   0  0  0  0  0  0  0  0  0  0  0  0  # atno 10764 bound_to 10752
  154.4148  135.2845  155.1992 H   0  0  0  0  0  0  0  0  0  0  0  0  # atno 10765 bound_to 10752
  139.8778  134.8984  156.4256 H   0  0  0  0  0  0  0  0  0  0  0  0  # atno 11005 bound_to 11000
  146.0909  140.7657  142.9596 LP  0  0  0  0  0  0  0  0  0  0  0  0  # atno 17320 bound_to 7965
  144.7006  140.3636  143.7159 LP  0  0  0  0  0  0  0  0  0  0  0  0  # atno 17321 bound_to 7965
  140.3020  143.3254  152.0962 LP  0  0  0  0  0  0  0  0  0  0  0  0  # atno 17342 bound_to 10162
  139.5004  144.6691  151.6286 LP  0  0  0  0  0  0  0  0  0  0  0  0  # atno 17343 bound_to 10162
  156.1618  130.3644  149.9289 LP  0  0  0  0  0  0  0  0  0  0  0  0  # atno 17370 bound_to 10713
  156.7285  130.9034  151.3624 LP  0  0  0  0  0  0  0  0  0  0  0  0  # atno 17371 bound_to 10713
  140.9103  133.7716  155.9784 LP  0  0  0  0  0  0  0  0  0  0  0  0  # atno 17394 bound_to 11000
  140.8554  134.2905  157.5258 LP  0  0  0  0  0  0  0  0  0  0  0  0  # atno 17395 bound_to 11000

$$$$
