AV-unprocessed.smi:1645|AV-procd|sdf|6607|dock2
  -GOLD-   22720 7313D 1   1.00000     0.00000
 Structure written by MMmdl.
 55 58  0  0  0  0  0  0  0  0  2 V2000
  146.4225  137.2598  155.4050 O   0  0  0  0  0  0  0  0  0  0  0  0
  147.1839  137.0610  154.4589 C   0  0  0  0  0  0  0  0  0  0  0  0
  148.3865  137.6367  154.2901 N   0  0  0  0  0  0  0  0  0  0  0  0
  149.0674  138.5453  155.1456 C   0  0  0  0  0  0  0  0  0  0  0  0
  148.9508  138.5624  156.5552 C   0  0  0  0  0  0  0  0  0  0  0  0
  149.6966  139.5038  157.2900 C   0  0  0  0  0  0  0  0  0  0  0  0
  150.5482  140.4018  156.6046 C   0  0  0  0  0  0  0  0  0  0  0  0
  151.3061  141.3505  157.3249 N   0  0  0  0  0  0  0  0  0  0  0  0
  151.8524  140.9420  158.6221 C   0  0  0  0  0  0  0  0  0  0  0  0
  152.9474  141.9131  159.0956 C   0  0  0  0  0  0  0  0  0  0  0  0
  152.4371  143.3614  159.0997 C   0  0  0  0  0  0  0  0  0  0  0  0
  151.8862  143.7277  157.7138 C   0  0  0  0  0  0  0  0  0  0  0  0
  150.8086  142.7264  157.2634 C   0  0  0  0  0  0  0  0  0  0  0  0
  150.6612  140.3790  155.2540 N   0  0  0  0  0  0  0  0  0  0  0  0
  149.9461  139.4744  154.5538 C   0  0  0  0  0  0  0  0  0  0  0  0
  146.8962  136.2341  153.4439 N   0  0  0  0  0  0  0  0  0  0  0  0
  145.6669  135.4561  153.3176 C   0  0  1  0  0  0  0  0  0  0  0  0
  144.4230  136.3332  153.0894 C   0  0  0  0  0  0  0  0  0  0  0  0
  143.5427  135.5450  152.0993 C   0  0  0  0  0  0  0  0  0  0  0  0
  144.2426  134.2637  151.8876 N   0  3  1  0  0  0  0  0  0  0  0  0
  143.9669  133.5453  150.6243 C   0  0  0  0  0  0  0  0  0  0  0  0
  144.7172  132.1986  150.6321 C   0  0  0  0  0  0  0  0  0  0  0  0
  146.2210  132.3840  150.9195 C   0  0  0  0  0  0  0  0  0  0  0  0
  146.4459  133.2198  152.1944 C   0  0  0  0  0  0  0  0  0  0  0  0
  145.6726  134.5455  152.0865 C   0  0  2  0  0  0  0  0  0  0  0  0
  148.8590  137.4304  153.4221 H   0  0  0  0  0  0  0  0  0  0  0  0
  148.3183  137.8721  157.0904 H   0  0  0  0  0  0  0  0  0  0  0  0
  149.6007  139.5322  158.3652 H   0  0  0  0  0  0  0  0  0  0  0  0
  151.0450  140.9052  159.3546 H   0  0  0  0  0  0  0  0  0  0  0  0
  152.2735  139.9381  158.5539 H   0  0  0  0  0  0  0  0  0  0  0  0
  153.2891  141.6327  160.0924 H   0  0  0  0  0  0  0  0  0  0  0  0
  153.8136  141.8339  158.4373 H   0  0  0  0  0  0  0  0  0  0  0  0
  151.6536  143.4742  159.8502 H   0  0  0  0  0  0  0  0  0  0  0  0
  153.2405  144.0436  159.3788 H   0  0  0  0  0  0  0  0  0  0  0  0
  151.4737  144.7367  157.7294 H   0  0  0  0  0  0  0  0  0  0  0  0
  152.7002  143.7368  156.9877 H   0  0  0  0  0  0  0  0  0  0  0  0
  150.4780  142.9923  156.2602 H   0  0  0  0  0  0  0  0  0  0  0  0
  149.9341  142.8076  157.9103 H   0  0  0  0  0  0  0  0  0  0  0  0
  150.0798  139.4967  153.4819 H   0  0  0  0  0  0  0  0  0  0  0  0
  147.5767  136.1366  152.7043 H   0  0  0  0  0  0  0  0  0  0  0  0
  145.5008  134.8547  154.2141 H   0  0  0  0  0  0  0  0  0  0  0  0
  143.9033  136.5289  154.0282 H   0  0  0  0  0  0  0  0  0  0  0  0
  144.6896  137.2984  152.6560 H   0  0  0  0  0  0  0  0  0  0  0  0
  142.5354  135.3758  152.4810 H   0  0  0  0  0  0  0  0  0  0  0  0
  143.4611  136.0891  151.1569 H   0  0  0  0  0  0  0  0  0  0  0  0
  142.8939  133.3781  150.5247 H   0  0  0  0  0  0  0  0  0  0  0  0
  144.2804  134.1534  149.7742 H   0  0  0  0  0  0  0  0  0  0  0  0
  144.2841  131.5496  151.3945 H   0  0  0  0  0  0  0  0  0  0  0  0
  144.5787  131.6877  149.6788 H   0  0  0  0  0  0  0  0  0  0  0  0
  146.7079  131.4131  151.0162 H   0  0  0  0  0  0  0  0  0  0  0  0
  146.6925  132.8826  150.0716 H   0  0  0  0  0  0  0  0  0  0  0  0
  146.1147  132.6602  153.0701 H   0  0  0  0  0  0  0  0  0  0  0  0
  147.5112  133.4095  152.3276 H   0  0  0  0  0  0  0  0  0  0  0  0
  146.0387  135.1097  151.2254 H   0  0  0  0  0  0  0  0  0  0  0  0
  143.9646  133.6565  152.6455 H   0  0  0  0  0  0  0  0  0  0  0  0
  1  2  2  0  0  0  0
  2  3  1  0  0  0  0
  2 16  1  0  0  0  0
  3  4  1  0  0  0  0
  3 26  1  0  0  0  0
  4 15  1  0  0  0  0
  4  5  2  0  0  0  0
  5  6  1  0  0  0  0
  5 27  1  0  0  0  0
  6  7  2  0  0  0  0
  6 28  1  0  0  0  0
  7  8  1  0  0  0  0
  7 14  1  0  0  0  0
  8 13  1  0  0  0  0
  8  9  1  0  0  0  0
  9 10  1  0  0  0  0
  9 29  1  0  0  0  0
  9 30  1  0  0  0  0
 10 11  1  0  0  0  0
 10 31  1  0  0  0  0
 10 32  1  0  0  0  0
 11 12  1  0  0  0  0
 11 33  1  0  0  0  0
 11 34  1  0  0  0  0
 12 13  1  0  0  0  0
 12 35  1  0  0  0  0
 12 36  1  0  0  0  0
 13 37  1  0  0  0  0
 13 38  1  0  0  0  0
 14 15  2  0  0  0  0
 15 39  1  0  0  0  0
 16 17  1  0  0  0  0
 16 40  1  0  0  0  0
 17 25  1  0  0  0  0
 17 18  1  0  0  0  0
 17 41  1  0  0  0  0
 18 19  1  0  0  0  0
 18 42  1  0  0  0  0
 18 43  1  0  0  0  0
 19 20  1  0  0  0  0
 19 44  1  0  0  0  0
 19 45  1  0  0  0  0
 20 25  1  0  0  0  0
 20 21  1  0  0  0  0
 20 55  1  0  0  0  0
 21 22  1  0  0  0  0
 21 46  1  0  0  0  0
 21 47  1  0  0  0  0
 22 23  1  0  0  0  0
 22 48  1  0  0  0  0
 22 49  1  0  0  0  0
 23 24  1  0  0  0  0
 23 50  1  0  0  0  0
 23 51  1  0  0  0  0
 24 25  1  0  0  0  0
 24 52  1  0  0  0  0
 24 53  1  0  0  0  0
 25 54  1  0  0  0  0
M  CHG  1  20   1
M  END
> <s_m_source_file>
AV-unprocessed.smi

> <i_m_source_file_index>
1645

> <i_lp_mmshare_version>
43012

> <i_f3d_flags>
0

> <s_epik_input>
W0NIMl0xW0NIMl1bQ0gyXVtDSDJdW0NASF0oTjEyKVtDQEBIXShbQ0gyXVtDSDJdMilbTkhdQyg9TylbTkhdYzNbY0hdW2NIXWMobltjSF0zKU40W0NIMl1bQ0gyXVtDSDJdW0NIMl1bQ0gyXTQ=

> <s_epik_cmdline>
J2VwaWtfcHl0aG9uJywgJy1waCcsICc3LjAnLCAnLXRuJywgJzgnLCAnLW1hJywgJzIwMCcsICctbWV0YWxfYmluZGluZycsICctaW1hZScsICc8aW5maWxlLm1hZT4nLCAnLW9tYWUnLCAnPG91dGZpbGUubWFlPic=

> <r_lp_tautomer_probability>
1

> <r_epik_Ionization_Penalty>
0.0808019

> <r_epik_Ionization_Penalty_Charging>
0.000974069

> <r_epik_Ionization_Penalty_Neutral>
0.0798278

> <r_epik_State_Penalty>
0.0653665

> <r_epik_Charging_Adjusted_Penalty>
0.0663406

> <i_epik_Tot_Q>
1

> <i_epik_Tot_abs_Q>
1

> <r_epik_Metal_State_Penalty>
0.0585673

> <b_epik_Metal_Only>
0

> <s_lp_Force_Field>
OPLS_2005

> <r_lp_Energy>
50.6971

> <b_lp_Chiralities_Consistent>
1

> <s_lp_Variant>
AV-unprocessed.smi:1645-8

> <Gold.Version>
5.8.1

> <Gold.Id.Protein>
6NUR|6NUR_protein|mol2

> <Gold.PLP.Fitness>
47.0569

> <Gold.PLP.PLP>
-38.0406

> <Gold.PLP.part.hbond>
-3.0000

> <Gold.PLP.part.metal>
0.0000

> <Gold.PLP.part.buried>
-5.6847

> <Gold.PLP.part.nonpolar>
-30.9359

> <Gold.PLP.part.repulsive>
0.1024

> <Gold.PLP.ligand.clash>
0.0000

> <Gold.PLP.ligand.torsion>
0.7476

> <Gold.PLP.Chemscore.Hbond>
2.3608

> <Gold.PLP.Chemscore.CHOScore>
1.0000

> <Gold.PLP.Chemscore.Metal>
0.0000

> <Gold.Chemscore.Hbonds>
donor molecule, donor type, donor heavy atom, donor atom, acceptor molecule, acceptor atom, score
      L1  H     3    26       P1  7948  0.94
      L1  H    16    40       P1  7948  1.00
      P1  H  7989  7998       L1    14  0.42
      L1  C    15    39       P1  7957  1.00

> <Gold.PLP.Chemscore.Internal.Correction>
0.4291

> <Gold.Rescore>
     Score         DG    S(hbond)    S(metal)    S(lipo)     H(rot)  DE(clash)    DE(int)     intcor
     20.72     -21.55       1.93        0.00     107.89       1.17       0.03       0.81       ----

> <Gold.Chemscore.Fitness>
20.7190

> <Gold.Chemscore.DG>
-21.5516

> <Gold.Chemscore.ZeroCoef>
-5.4800

> <Gold.Chemscore.Hbond>
1.9317

> <Gold.Chemscore.Metal>
0.0000

> <Gold.Chemscore.Lipo>
107.8876

> <Gold.Chemscore.Internal_Hbond>
0.0000

> <Gold.Chemscore.DEClash>
0.0259

> <Gold.Chemscore.DEInternal>
0.8067

> <Gold.Chemscore.Rot>
1.1731

> <Gold.Chemscore.Internal.Correction>
   9.000000E+99

> <Gold.Chemscore.Hbonds>
donor molecule, donor type, donor heavy atom, donor atom, acceptor molecule, acceptor atom, score
      L1  H     3    26       P1  7948  0.90
      L1  H    16    40       P1  7948  0.99
      P1  H  7989  7998       L1    14  0.01

> <Gold.Chemscore.Hbond.Weighted>
-6.4520

> <Gold.Chemscore.Metal.Weighted>
-0.0000

> <Gold.Chemscore.Lipo.Weighted>
-12.6229

> <Gold.Chemscore.Internal_Hbond.Weighted>
0.0000

> <Gold.Chemscore.DEClash.Weighted>
0.0259

> <Gold.Chemscore.DEInternal.Weighted>
0.8067

> <Gold.Chemscore.Rot.Weighted>
3.0032

> <Gold.Chemscore.Internal.Correction.Weighted>
   9.000000E+99

> <Gold.Protein.RotatedTorsions>
[ 6907 6896 6895 6894 ] final   86.14 input  -60.11 | X-H torsion
[ 7974 7965 7964 7962 ] final    2.56 input  175.53 | X-H torsion
[ 8008 7997 7996 7995 ] final  161.11 input   59.86 | X-H torsion
[ 10167 10162 10161 10158 ] final   21.90 input  -65.29 | X-H torsion
[ 10718 10713 10712 10709 ] final  133.80 input   66.30 | X-H torsion
[ 10763 10752 10751 10750 ] final  -33.84 input  -60.55 | X-H torsion
[ 11005 11000 10999 10996 ] final  146.80 input  -57.11 | X-H torsion

> <Gold.Protein.ActiveResidues>
 VAL166  LYS551  ARG553  GLY616  TRP617  ASP618  TYR619  PRO620  LYS621  CYS622 
 ASP623  PHE694  ASN695  SER759  ASP760  ASP761  ALA762  ILE779  LEU786  VAL792 
 PHE793  MET794  SER795  GLU796  ALA797  LYS798  CYS799  TRP800  GLU811  SER814 

> <Gold.Protein.RotatedAtoms>
  152.5388  134.2478  159.8886 H   0  0  0  0  0  0  0  0  0  0  0  0  # atno 6907 bound_to 6896
  151.2442  133.4377  159.2616 H   0  0  0  0  0  0  0  0  0  0  0  0  # atno 6908 bound_to 6896
  151.0598  134.9743  159.8311 H   0  0  0  0  0  0  0  0  0  0  0  0  # atno 6909 bound_to 6896
  146.2444  140.0818  142.8356 H   0  0  0  0  0  0  0  0  0  0  0  0  # atno 7974 bound_to 7965
  156.2126  140.1786  156.7661 H   0  0  0  0  0  0  0  0  0  0  0  0  # atno 8008 bound_to 7997
  154.5744  140.0677  156.9042 H   0  0  0  0  0  0  0  0  0  0  0  0  # atno 8009 bound_to 7997
  155.2614  140.3336  155.4275 H   0  0  0  0  0  0  0  0  0  0  0  0  # atno 8010 bound_to 7997
  140.5391  143.9709  150.6508 H   0  0  0  0  0  0  0  0  0  0  0  0  # atno 10167 bound_to 10162
  157.4737  131.1081  150.9770 H   0  0  0  0  0  0  0  0  0  0  0  0  # atno 10718 bound_to 10713
  153.8368  135.6861  153.4807 H   0  0  0  0  0  0  0  0  0  0  0  0  # atno 10763 bound_to 10752
  153.1478  135.4631  154.9589 H   0  0  0  0  0  0  0  0  0  0  0  0  # atno 10764 bound_to 10752
  154.7863  135.3286  154.7825 H   0  0  0  0  0  0  0  0  0  0  0  0  # atno 10765 bound_to 10752
  140.0823  134.9090  157.1520 H   0  0  0  0  0  0  0  0  0  0  0  0  # atno 11005 bound_to 11000
  145.0726  140.9166  143.4873 LP  0  0  0  0  0  0  0  0  0  0  0  0  # atno 17320 bound_to 7965
  145.0955  139.2859  143.5713 LP  0  0  0  0  0  0  0  0  0  0  0  0  # atno 17321 bound_to 7965
  140.3104  143.3201  152.0884 LP  0  0  0  0  0  0  0  0  0  0  0  0  # atno 17342 bound_to 10162
  139.4982  144.6639  151.6400 LP  0  0  0  0  0  0  0  0  0  0  0  0  # atno 17343 bound_to 10162
  157.0527  130.5793  149.5373 LP  0  0  0  0  0  0  0  0  0  0  0  0  # atno 17370 bound_to 10713
  156.0086  130.5175  150.7914 LP  0  0  0  0  0  0  0  0  0  0  0  0  # atno 17371 bound_to 10713
  140.3470  134.2640  155.7203 LP  0  0  0  0  0  0  0  0  0  0  0  0  # atno 17394 bound_to 11000
  141.2051  133.7870  157.0253 LP  0  0  0  0  0  0  0  0  0  0  0  0  # atno 17395 bound_to 11000

$$$$
