AV-unprocessed.smi:1005|AV-procd|sdf|4381|dock10
  -GOLD-   22720 2303D 1   1.00000     0.00000
 Structure written by MMmdl.
 58 60  0  0  0  0  0  0  0  0  4 V2000
  152.7988  144.1595  160.5508 C   0  0  0  0  0  0  0  0  0  0  0  0
  152.4558  143.1687  159.4514 C   0  0  0  0  0  0  0  0  0  0  0  0
  151.5081  143.5471  158.4744 C   0  0  0  0  0  0  0  0  0  0  0  0
  151.2155  142.6200  157.4814 C   0  0  0  0  0  0  0  0  0  0  0  0
  150.3418  142.6912  156.3949 N   0  3  0  0  0  0  0  0  0  0  0  0
  150.3962  141.5273  155.6906 C   0  0  0  0  0  0  0  0  0  0  0  0
  151.2919  140.7119  156.3113 N   0  0  0  0  0  0  0  0  0  0  0  0
  151.7189  139.3496  155.9591 C   0  0  0  0  0  0  0  0  0  0  0  0
  150.6284  138.5538  155.2143 C   0  0  1  0  0  0  0  0  0  0  0  0
  150.4908  139.0527  153.8975 O   0  0  0  0  0  0  0  0  0  0  0  0
  150.9624  137.0504  155.1406 C   0  0  0  0  0  0  0  0  0  0  0  0
  149.8479  136.2529  154.5602 N   0  3  2  0  0  0  0  0  0  0  0  0
  148.5361  136.4380  155.2313 C   0  0  0  0  0  0  0  0  0  0  0  0
  148.4465  135.6212  156.5345 C   0  0  0  0  0  0  0  0  0  0  0  0
  148.7348  134.2537  156.2685 O   0  0  0  0  0  0  0  0  0  0  0  0
  150.0489  134.0611  155.7548 C   0  0  1  0  0  0  0  0  0  0  0  0
  150.2767  132.5470  155.5815 C   0  0  0  0  0  0  0  0  0  0  0  0
  151.7133  132.1822  155.4742 N   0  3  0  0  0  0  0  0  0  0  0  0
  151.9460  130.7254  155.3384 C   0  0  0  0  0  0  0  0  0  0  0  0
  152.5143  132.7560  156.5784 C   0  0  0  0  0  0  0  0  0  0  0  0
  150.1565  134.8093  154.4084 C   0  0  0  0  0  0  0  0  0  0  0  0
  151.8280  141.3522  157.4364 C   0  0  0  0  0  0  0  0  0  0  0  0
  152.7640  140.9637  158.3927 C   0  0  0  0  0  0  0  0  0  0  0  0
  153.0758  141.8931  159.4109 C   0  0  0  0  0  0  0  0  0  0  0  0
  154.0941  141.4971  160.4666 C   0  0  0  0  0  0  0  0  0  0  0  0
  152.2349  145.0866  160.4424 H   0  0  0  0  0  0  0  0  0  0  0  0
  153.8595  144.4103  160.5236 H   0  0  0  0  0  0  0  0  0  0  0  0
  152.5658  143.7411  161.5302 H   0  0  0  0  0  0  0  0  0  0  0  0
  151.0325  144.5169  158.4987 H   0  0  0  0  0  0  0  0  0  0  0  0
  149.8301  141.2949  154.8000 H   0  0  0  0  0  0  0  0  0  0  0  0
  152.6426  139.3974  155.3821 H   0  0  0  0  0  0  0  0  0  0  0  0
  151.9708  138.8452  156.8928 H   0  0  0  0  0  0  0  0  0  0  0  0
  149.6803  138.7047  155.7302 H   0  0  0  0  0  0  0  0  0  0  0  0
  149.7434  138.6404  153.4917 H   0  0  0  0  0  0  0  0  0  0  0  0
  151.8610  136.9282  154.5338 H   0  0  0  0  0  0  0  0  0  0  0  0
  151.2162  136.6694  156.1299 H   0  0  0  0  0  0  0  0  0  0  0  0
  148.3361  137.4913  155.4250 H   0  0  0  0  0  0  0  0  0  0  0  0
  147.7564  136.1016  154.5467 H   0  0  0  0  0  0  0  0  0  0  0  0
  149.1248  136.0067  157.2965 H   0  0  0  0  0  0  0  0  0  0  0  0
  147.4405  135.6917  156.9485 H   0  0  0  0  0  0  0  0  0  0  0  0
  150.7812  134.4702  156.4513 H   0  0  0  0  0  0  0  0  0  0  0  0
  149.8391  132.0358  156.4406 H   0  0  0  0  0  0  0  0  0  0  0  0
  149.7453  132.1786  154.7028 H   0  0  0  0  0  0  0  0  0  0  0  0
  151.5635  130.1853  156.2056 H   0  0  0  0  0  0  0  0  0  0  0  0
  153.0128  130.5149  155.2536 H   0  0  0  0  0  0  0  0  0  0  0  0
  151.4693  130.3228  154.4457 H   0  0  0  0  0  0  0  0  0  0  0  0
  152.1956  132.3564  157.5422 H   0  0  0  0  0  0  0  0  0  0  0  0
  152.4145  133.8415  156.6079 H   0  0  0  0  0  0  0  0  0  0  0  0
  153.5729  132.5281  156.4476 H   0  0  0  0  0  0  0  0  0  0  0  0
  149.4447  134.3854  153.6985 H   0  0  0  0  0  0  0  0  0  0  0  0
  151.1434  134.6754  153.9636 H   0  0  0  0  0  0  0  0  0  0  0  0
  153.2401  139.9954  158.3647 H   0  0  0  0  0  0  0  0  0  0  0  0
  154.4843  140.4946  160.2888 H   0  0  0  0  0  0  0  0  0  0  0  0
  153.6411  141.5074  161.4582 H   0  0  0  0  0  0  0  0  0  0  0  0
  154.9380  142.1872  160.4636 H   0  0  0  0  0  0  0  0  0  0  0  0
  152.0592  132.6152  154.6293 H   0  0  0  0  0  0  0  0  0  0  0  0
  149.7427  136.6098  153.6204 H   0  0  0  0  0  0  0  0  0  0  0  0
  149.7508  143.4757  156.1505 H   0  0  0  0  0  0  0  0  0  0  0  0
  1  2  1  0  0  0  0
  1 26  1  0  0  0  0
  1 27  1  0  0  0  0
  1 28  1  0  0  0  0
  2 24  1  0  0  0  0
  2  3  2  0  0  0  0
  3  4  1  0  0  0  0
  3 29  1  0  0  0  0
  4 22  2  0  0  0  0
  4  5  1  0  0  0  0
  5  6  2  0  0  0  0
  5 58  1  0  0  0  0
  6  7  1  0  0  0  0
  6 30  1  0  0  0  0
  7  8  1  0  0  0  0
  7 22  1  0  0  0  0
  8  9  1  0  0  0  0
  8 31  1  0  0  0  0
  8 32  1  0  0  0  0
  9 10  1  0  0  0  0
  9 11  1  0  0  0  0
  9 33  1  0  0  0  0
 10 34  1  0  0  0  0
 11 12  1  0  0  0  0
 11 35  1  0  0  0  0
 11 36  1  0  0  0  0
 12 21  1  0  0  0  0
 12 13  1  0  0  0  0
 12 57  1  0  0  0  0
 13 14  1  0  0  0  0
 13 37  1  0  0  0  0
 13 38  1  0  0  0  0
 14 15  1  0  0  0  0
 14 39  1  0  0  0  0
 14 40  1  0  0  0  0
 15 16  1  0  0  0  0
 16 17  1  0  0  0  0
 16 21  1  0  0  0  0
 16 41  1  0  0  0  0
 17 18  1  0  0  0  0
 17 42  1  0  0  0  0
 17 43  1  0  0  0  0
 18 19  1  0  0  0  0
 18 20  1  0  0  0  0
 18 56  1  0  0  0  0
 19 44  1  0  0  0  0
 19 45  1  0  0  0  0
 19 46  1  0  0  0  0
 20 47  1  0  0  0  0
 20 48  1  0  0  0  0
 20 49  1  0  0  0  0
 21 50  1  0  0  0  0
 21 51  1  0  0  0  0
 22 23  1  0  0  0  0
 23 24  2  0  0  0  0
 23 52  1  0  0  0  0
 24 25  1  0  0  0  0
 25 53  1  0  0  0  0
 25 54  1  0  0  0  0
 25 55  1  0  0  0  0
M  CHG  1   5   1
M  CHG  1  12   1
M  CHG  1  18   1
M  END
> <s_m_source_file>
AV-unprocessed.smi

> <i_m_source_file_index>
1005

> <i_lp_mmshare_version>
43012

> <i_f3d_flags>
0

> <s_epik_input>
W0NIM11jKFtjSF0xKWMoW0NIM10pW2NIXWMoYzEyKW4oW2NIXW4yKVtDSDJdW0NASF0oW09IXSlbQ0gyXU4zW0NIMl1bQ0gyXU9bQ0BIXShbQ0gyXTMpW0NIMl1OKFtDSDNdKVtDSDNd

> <s_epik_cmdline>
J2VwaWtfcHl0aG9uJywgJy1waCcsICc3LjAnLCAnLXRuJywgJzgnLCAnLW1hJywgJzIwMCcsICctbWV0YWxfYmluZGluZycsICctaW1hZScsICc8aW5maWxlLm1hZT4nLCAnLW9tYWUnLCAnPG91dGZpbGUubWFlPic=

> <r_epik_Ionization_Penalty>
2.30802

> <r_epik_Ionization_Penalty_Charging>
2.30798

> <r_epik_Ionization_Penalty_Neutral>
3.4851e-05

> <r_epik_State_Penalty>
2.52618

> <r_epik_Charging_Adjusted_Penalty>
4.83416

> <i_epik_Tot_Q>
3

> <i_epik_Tot_abs_Q>
3

> <r_epik_Metal_State_Penalty>
6.53149

> <b_epik_Metal_Only>
0

> <s_lp_Force_Field>
OPLS_2005

> <r_lp_Energy>
46.6076

> <b_lp_Chiralities_Consistent>
1

> <s_lp_Variant>
AV-unprocessed.smi:1005-20

> <Gold.Version>
5.8.1

> <Gold.Id.Protein>
6NUR|6NUR_protein|mol2

> <Gold.PLP.Fitness>
56.5708

> <Gold.PLP.PLP>
-44.6549

> <Gold.PLP.part.hbond>
-3.8369

> <Gold.PLP.part.metal>
0.0000

> <Gold.PLP.part.buried>
-1.8380

> <Gold.PLP.part.nonpolar>
-36.2644

> <Gold.PLP.part.repulsive>
0.2113

> <Gold.PLP.ligand.clash>
0.0000

> <Gold.PLP.ligand.torsion>
0.6699

> <Gold.PLP.Chemscore.Hbond>
4.3628

> <Gold.PLP.Chemscore.CHOScore>
0.0000

> <Gold.PLP.Chemscore.Metal>
0.0000

> <Gold.Chemscore.Hbonds>
donor molecule, donor type, donor heavy atom, donor atom, acceptor molecule, acceptor atom, score
      L1  H     5    58       P1  8028  2.00
      L1  H    12    57       P1  7948  1.76
      P1  H  7989  7998       L1    10  0.65

> <Gold.PLP.Chemscore.Internal.Correction>
0.1675

> <Gold.Rescore>
     Score         DG    S(hbond)    S(metal)    S(lipo)     H(rot)  DE(clash)    DE(int)     intcor
     19.77     -20.54       2.14        0.00     123.65       2.56       0.05       0.71       ----

> <Gold.Chemscore.Fitness>
19.7732

> <Gold.Chemscore.DG>
-20.5383

> <Gold.Chemscore.ZeroCoef>
-5.4800

> <Gold.Chemscore.Hbond>
2.1365

> <Gold.Chemscore.Metal>
0.0000

> <Gold.Chemscore.Lipo>
123.6536

> <Gold.Chemscore.Internal_Hbond>
0.0000

> <Gold.Chemscore.DEClash>
0.0537

> <Gold.Chemscore.DEInternal>
0.7114

> <Gold.Chemscore.Rot>
2.5566

> <Gold.Chemscore.Internal.Correction>
   9.000000E+99

> <Gold.Chemscore.Hbonds>
donor molecule, donor type, donor heavy atom, donor atom, acceptor molecule, acceptor atom, score
      L1  H     5    58       P1  8028  0.98
      L1  H    12    57       P1  7948  0.43
      P1  H  7989  7998       L1    10  0.56

> <Gold.Chemscore.Hbond.Weighted>
-7.1358

> <Gold.Chemscore.Metal.Weighted>
-0.0000

> <Gold.Chemscore.Lipo.Weighted>
-14.4675

> <Gold.Chemscore.Internal_Hbond.Weighted>
0.0000

> <Gold.Chemscore.DEClash.Weighted>
0.0537

> <Gold.Chemscore.DEInternal.Weighted>
0.7114

> <Gold.Chemscore.Rot.Weighted>
6.5450

> <Gold.Chemscore.Internal.Correction.Weighted>
   9.000000E+99

> <Gold.Protein.RotatedTorsions>
[ 6907 6896 6895 6894 ] final  160.45 input  -60.11 | X-H torsion
[ 7974 7965 7964 7962 ] final  -95.60 input  175.53 | X-H torsion
[ 8008 7997 7996 7995 ] final   62.29 input   59.86 | X-H torsion
[ 10167 10162 10161 10158 ] final  -74.23 input  -65.29 | X-H torsion
[ 10718 10713 10712 10709 ] final   49.97 input   66.30 | X-H torsion
[ 10763 10752 10751 10750 ] final -148.22 input  -60.55 | X-H torsion
[ 11005 11000 10999 10996 ] final   41.71 input  -57.11 | X-H torsion

> <Gold.Protein.ActiveResidues>
 VAL166  LYS551  ARG553  GLY616  TRP617  ASP618  TYR619  PRO620  LYS621  CYS622 
 ASP623  PHE694  ASN695  SER759  ASP760  ASP761  ALA762  ILE779  LEU786  VAL792 
 PHE793  MET794  SER795  GLU796  ALA797  LYS798  CYS799  TRP800  GLU811  SER814 

> <Gold.Protein.RotatedAtoms>
  151.9705  133.3724  159.4069 H   0  0  0  0  0  0  0  0  0  0  0  0  # atno 6907 bound_to 6896
  150.6949  134.4145  159.5186 H   0  0  0  0  0  0  0  0  0  0  0  0  # atno 6908 bound_to 6896
  152.1848  134.8723  160.0574 H   0  0  0  0  0  0  0  0  0  0  0  0  # atno 6909 bound_to 6896
  145.3580  140.9487  143.2517 H   0  0  0  0  0  0  0  0  0  0  0  0  # atno 7974 bound_to 7965
  155.6119  140.3495  155.4625 H   0  0  0  0  0  0  0  0  0  0  0  0  # atno 8008 bound_to 7997
  156.0147  140.1241  157.0442 H   0  0  0  0  0  0  0  0  0  0  0  0  # atno 8009 bound_to 7997
  154.4293  140.1074  156.5865 H   0  0  0  0  0  0  0  0  0  0  0  0  # atno 8010 bound_to 7997
  140.5044  143.2355  151.7699 H   0  0  0  0  0  0  0  0  0  0  0  0  # atno 10167 bound_to 10162
  157.4839  130.8332  149.8124 H   0  0  0  0  0  0  0  0  0  0  0  0  # atno 10718 bound_to 10713
  154.8244  135.3340  154.6940 H   0  0  0  0  0  0  0  0  0  0  0  0  # atno 10763 bound_to 10752
  153.7568  135.6935  153.4938 H   0  0  0  0  0  0  0  0  0  0  0  0  # atno 10764 bound_to 10752
  153.2138  135.4473  155.0360 H   0  0  0  0  0  0  0  0  0  0  0  0  # atno 10765 bound_to 10752
  140.1808  134.4106  155.8201 H   0  0  0  0  0  0  0  0  0  0  0  0  # atno 11005 bound_to 11000
  144.8668  139.5096  143.6786 LP  0  0  0  0  0  0  0  0  0  0  0  0  # atno 17320 bound_to 7965
  146.2940  139.7221  142.9140 LP  0  0  0  0  0  0  0  0  0  0  0  0  # atno 17321 bound_to 7965
  139.4880  144.4478  151.9690 LP  0  0  0  0  0  0  0  0  0  0  0  0  # atno 17342 bound_to 10162
  140.3568  144.3022  150.5940 LP  0  0  0  0  0  0  0  0  0  0  0  0  # atno 17343 bound_to 10162
  156.0136  130.3823  150.2183 LP  0  0  0  0  0  0  0  0  0  0  0  0  # atno 17370 bound_to 10713
  157.0370  131.0024  151.3295 LP  0  0  0  0  0  0  0  0  0  0  0  0  # atno 17371 bound_to 10713
  141.2223  133.7000  156.7928 LP  0  0  0  0  0  0  0  0  0  0  0  0  # atno 17394 bound_to 11000
  140.2269  134.8715  157.3436 LP  0  0  0  0  0  0  0  0  0  0  0  0  # atno 17395 bound_to 11000

$$$$
