AV-unprocessed.smi:3331|AV-procd|sdf|12819|dock4
  -GOLD-   2272019193D 1   1.00000     0.00000
 Structure written by MMmdl.
 47 48  0  0  0  0  0  0  0  0  2 V2000
  152.3389  139.1666  157.2762 C   0  0  0  0  0  0  0  0  0  0  0  0
  151.2105  139.7943  158.1137 C   0  0  1  0  0  0  0  0  0  0  0  0
  151.5194  141.2560  158.5071 C   0  0  0  0  0  0  0  0  0  0  0  0
  151.3091  142.2494  157.3421 C   0  0  2  0  0  0  0  0  0  0  0  0
  151.4951  143.7017  157.8030 C   0  0  0  0  0  0  0  0  0  0  0  0
  149.9251  142.0310  156.6963 C   0  0  0  0  0  0  0  0  0  0  0  0
  149.8082  140.6312  156.2638 N   0  0  0  0  0  0  0  0  0  0  0  0
  149.7607  140.2746  154.9542 C   0  0  0  0  0  0  0  0  0  0  0  0
  149.7495  141.1141  154.0527 O   0  0  0  0  0  0  0  0  0  0  0  0
  149.6944  138.7831  154.5671 C   0  0  2  0  0  0  0  0  0  0  0  0
  151.0943  138.1955  154.2887 C   0  0  0  0  0  0  0  0  0  0  0  0
  148.8057  138.6182  153.3949 N   0  3  0  0  0  0  0  0  0  0  0  0
  147.4248  139.1115  153.5709 C   0  0  0  0  0  0  0  0  0  0  0  0
  146.5146  138.5909  152.4492 C   0  0  0  0  0  0  0  0  0  0  0  0
  145.7675  137.4175  152.8588 N   0  0  0  0  0  0  0  0  0  0  0  0
  144.4219  137.1602  152.7015 C   0  0  0  0  0  0  0  0  0  0  0  0
  144.1765  135.9342  153.2501 C   0  0  0  0  0  0  0  0  0  0  0  0
  145.4493  135.5172  153.7301 C   0  0  0  0  0  0  0  0  0  0  0  0
  146.3993  136.4087  153.4964 N   0  0  0  0  0  0  0  0  0  0  0  0
  149.8354  139.7157  157.4152 C   0  0  0  0  0  0  0  0  0  0  0  0
  152.4781  139.6805  156.3252 H   0  0  0  0  0  0  0  0  0  0  0  0
  152.1272  138.1196  157.0588 H   0  0  0  0  0  0  0  0  0  0  0  0
  153.2883  139.2031  157.8114 H   0  0  0  0  0  0  0  0  0  0  0  0
  151.1477  139.2136  159.0348 H   0  0  0  0  0  0  0  0  0  0  0  0
  150.8610  141.5378  159.3302 H   0  0  0  0  0  0  0  0  0  0  0  0
  152.5352  141.3369  158.8958 H   0  0  0  0  0  0  0  0  0  0  0  0
  152.0681  142.0513  156.5841 H   0  0  0  0  0  0  0  0  0  0  0  0
  150.7569  143.9774  158.5567 H   0  0  0  0  0  0  0  0  0  0  0  0
  151.3929  144.3947  156.9674 H   0  0  0  0  0  0  0  0  0  0  0  0
  152.4847  143.8517  158.2354 H   0  0  0  0  0  0  0  0  0  0  0  0
  149.1337  142.2536  157.4139 H   0  0  0  0  0  0  0  0  0  0  0  0
  149.7841  142.7393  155.8787 H   0  0  0  0  0  0  0  0  0  0  0  0
  149.2855  138.2306  155.4127 H   0  0  0  0  0  0  0  0  0  0  0  0
  151.7745  138.3845  155.1204 H   0  0  0  0  0  0  0  0  0  0  0  0
  151.5404  138.6223  153.3895 H   0  0  0  0  0  0  0  0  0  0  0  0
  151.0552  137.1144  154.1561 H   0  0  0  0  0  0  0  0  0  0  0  0
  149.2152  139.1383  152.6320 H   0  0  0  0  0  0  0  0  0  0  0  0
  147.0387  138.7886  154.5379 H   0  0  0  0  0  0  0  0  0  0  0  0
  147.4300  140.2026  153.5708 H   0  0  0  0  0  0  0  0  0  0  0  0
  145.8067  139.3619  152.1414 H   0  0  0  0  0  0  0  0  0  0  0  0
  147.1065  138.3338  151.5697 H   0  0  0  0  0  0  0  0  0  0  0  0
  143.7580  137.8611  152.2172 H   0  0  0  0  0  0  0  0  0  0  0  0
  143.2306  135.4154  153.3029 H   0  0  0  0  0  0  0  0  0  0  0  0
  145.7089  134.6003  154.2383 H   0  0  0  0  0  0  0  0  0  0  0  0
  149.5978  138.6824  157.1704 H   0  0  0  0  0  0  0  0  0  0  0  0
  149.0559  140.0189  158.1159 H   0  0  0  0  0  0  0  0  0  0  0  0
  148.7830  137.6417  153.1380 H   0  0  0  0  0  0  0  0  0  0  0  0
  1  2  1  0  0  0  0
  1 21  1  0  0  0  0
  1 22  1  0  0  0  0
  1 23  1  0  0  0  0
  2 20  1  0  0  0  0
  2  3  1  0  0  0  0
  2 24  1  0  0  0  0
  3  4  1  0  0  0  0
  3 25  1  0  0  0  0
  3 26  1  0  0  0  0
  4  5  1  0  0  0  0
  4  6  1  0  0  0  0
  4 27  1  0  0  0  0
  5 28  1  0  0  0  0
  5 29  1  0  0  0  0
  5 30  1  0  0  0  0
  6  7  1  0  0  0  0
  6 31  1  0  0  0  0
  6 32  1  0  0  0  0
  7  8  1  0  0  0  0
  7 20  1  0  0  0  0
  8  9  2  0  0  0  0
  8 10  1  0  0  0  0
 10 11  1  0  0  0  0
 10 12  1  0  0  0  0
 10 33  1  0  0  0  0
 11 34  1  0  0  0  0
 11 35  1  0  0  0  0
 11 36  1  0  0  0  0
 12 13  1  0  0  0  0
 12 37  1  0  0  0  0
 12 47  1  0  0  0  0
 13 14  1  0  0  0  0
 13 38  1  0  0  0  0
 13 39  1  0  0  0  0
 14 15  1  0  0  0  0
 14 40  1  0  0  0  0
 14 41  1  0  0  0  0
 15 19  1  0  0  0  0
 15 16  1  0  0  0  0
 16 17  2  0  0  0  0
 16 42  1  0  0  0  0
 17 18  1  0  0  0  0
 17 43  1  0  0  0  0
 18 19  2  0  0  0  0
 18 44  1  0  0  0  0
 20 45  1  0  0  0  0
 20 46  1  0  0  0  0
M  CHG  1  12   1
M  END
> <s_m_source_file>
AV-unprocessed.smi

> <i_m_source_file_index>
3331

> <i_lp_mmshare_version>
43012

> <i_f3d_flags>
0

> <s_epik_input>
W0NIM11bQ0BASF0xW0NIMl1bQ0BASF0oW0NIM10pW0NIMl1OKFtDSDJdMSlDKD1PKVtDQEhdKFtDSDNdKVtOSF1bQ0gyXVtDSDJdbjJbY0hdW2NIXVtjSF1uMg==

> <s_epik_cmdline>
J2VwaWtfcHl0aG9uJywgJy1waCcsICc3LjAnLCAnLXRuJywgJzgnLCAnLW1hJywgJzIwMCcsICctbWV0YWxfYmluZGluZycsICctaW1hZScsICc8aW5maWxlLm1hZT4nLCAnLW9tYWUnLCAnPG91dGZpbGUubWFlPic=

> <r_lp_tautomer_probability>
1

> <r_epik_Ionization_Penalty>
0.189706

> <r_epik_Ionization_Penalty_Charging>
0.189703

> <r_epik_Ionization_Penalty_Neutral>
2.45875e-06

> <r_epik_State_Penalty>
0.179341

> <r_epik_Charging_Adjusted_Penalty>
0.369044

> <i_epik_Tot_Q>
1

> <i_epik_Tot_abs_Q>
1

> <r_epik_Metal_State_Penalty>
0.179578

> <b_epik_Metal_Only>
0

> <s_lp_Force_Field>
OPLS_2005

> <r_lp_Energy>
29.8768

> <b_lp_Chiralities_Consistent>
1

> <s_lp_Variant>
AV-unprocessed.smi:3331-3

> <Gold.Version>
5.8.1

> <Gold.Id.Protein>
6NUR|6NUR_protein|mol2

> <Gold.PLP.Fitness>
48.4102

> <Gold.PLP.PLP>
-32.7673

> <Gold.PLP.part.hbond>
-4.0000

> <Gold.PLP.part.metal>
0.0000

> <Gold.PLP.part.buried>
-2.3487

> <Gold.PLP.part.nonpolar>
-28.1710

> <Gold.PLP.part.repulsive>
1.5593

> <Gold.PLP.ligand.clash>
0.0000

> <Gold.PLP.ligand.torsion>
1.1485

> <Gold.PLP.Chemscore.Hbond>
4.0010

> <Gold.PLP.Chemscore.CHOScore>
1.9548

> <Gold.PLP.Chemscore.Metal>
0.0000

> <Gold.Chemscore.Hbonds>
donor molecule, donor type, donor heavy atom, donor atom, acceptor molecule, acceptor atom, score
      L1  H    12    37       P1  7957  1.00
      L1  H    12    47       P1  7948  2.00
      P1  H  7989  7998       L1     9  0.37
      P1  H  8011  8017       L1     9  0.56
      L1  C    16    42       P1 10171  0.94
      L1  C    16    42       P1 10175  0.86

> <Gold.PLP.Chemscore.Internal.Correction>
0.0724

> <Gold.Rescore>
     Score         DG    S(hbond)    S(metal)    S(lipo)     H(rot)  DE(clash)    DE(int)     intcor
     17.60     -18.92       2.50        0.00      81.15       1.73       0.14       1.18       ----

> <Gold.Chemscore.Fitness>
17.6042

> <Gold.Chemscore.DG>
-18.9231

> <Gold.Chemscore.ZeroCoef>
-5.4800

> <Gold.Chemscore.Hbond>
2.5048

> <Gold.Chemscore.Metal>
0.0000

> <Gold.Chemscore.Lipo>
81.1469

> <Gold.Chemscore.Internal_Hbond>
0.0000

> <Gold.Chemscore.DEClash>
0.1437

> <Gold.Chemscore.DEInternal>
1.1753

> <Gold.Chemscore.Rot>
1.7254

> <Gold.Chemscore.Internal.Correction>
   9.000000E+99

> <Gold.Chemscore.Hbonds>
donor molecule, donor type, donor heavy atom, donor atom, acceptor molecule, acceptor atom, score
      L1  H    12    37       P1  7957  1.00
      L1  H    12    47       P1  7948  0.95
      P1  H  7989  7998       L1     9  0.07
      P1  H  8011  8017       L1     9  0.55

> <Gold.Chemscore.Hbond.Weighted>
-8.3659

> <Gold.Chemscore.Metal.Weighted>
-0.0000

> <Gold.Chemscore.Lipo.Weighted>
-9.4942

> <Gold.Chemscore.Internal_Hbond.Weighted>
0.0000

> <Gold.Chemscore.DEClash.Weighted>
0.1437

> <Gold.Chemscore.DEInternal.Weighted>
1.1753

> <Gold.Chemscore.Rot.Weighted>
4.4170

> <Gold.Chemscore.Internal.Correction.Weighted>
   9.000000E+99

> <Gold.Protein.RotatedTorsions>
[ 6907 6896 6895 6894 ] final  117.44 input  -60.11 | X-H torsion
[ 7974 7965 7964 7962 ] final   -2.96 input  175.53 | X-H torsion
[ 8008 7997 7996 7995 ] final   20.86 input   59.86 | X-H torsion
[ 10167 10162 10161 10158 ] final  -23.89 input  -65.29 | X-H torsion
[ 10718 10713 10712 10709 ] final   29.19 input   66.30 | X-H torsion
[ 10763 10752 10751 10750 ] final  137.14 input  -60.55 | X-H torsion
[ 11005 11000 10999 10996 ] final   42.73 input  -57.11 | X-H torsion

> <Gold.Protein.ActiveResidues>
 VAL166  LYS551  ARG553  GLY616  TRP617  ASP618  TYR619  PRO620  LYS621  CYS622 
 ASP623  PHE694  ASN695  SER759  ASP760  ASP761  ALA762  ILE779  LEU786  VAL792 
 PHE793  MET794  SER795  GLU796  ALA797  LYS798  CYS799  TRP800  GLU811  SER814 

> <Gold.Protein.RotatedAtoms>
  152.4611  133.7825  159.6857 H   0  0  0  0  0  0  0  0  0  0  0  0  # atno 6907 bound_to 6896
  150.8556  133.7711  159.3016 H   0  0  0  0  0  0  0  0  0  0  0  0  # atno 6908 bound_to 6896
  151.5293  135.1071  159.9950 H   0  0  0  0  0  0  0  0  0  0  0  0  # atno 6909 bound_to 6896
  146.2397  140.1649  142.8332 H   0  0  0  0  0  0  0  0  0  0  0  0  # atno 7974 bound_to 7965
  154.9419  140.3054  155.5116 H   0  0  0  0  0  0  0  0  0  0  0  0  # atno 8008 bound_to 7997
  156.2995  140.2335  156.4426 H   0  0  0  0  0  0  0  0  0  0  0  0  # atno 8009 bound_to 7997
  154.8137  140.0427  157.1350 H   0  0  0  0  0  0  0  0  0  0  0  0  # atno 8010 bound_to 7997
  140.7288  143.4402  151.0669 H   0  0  0  0  0  0  0  0  0  0  0  0  # atno 10167 bound_to 10162
  157.2434  130.7080  149.6369 H   0  0  0  0  0  0  0  0  0  0  0  0  # atno 10718 bound_to 10713
  153.8681  135.3059  155.3441 H   0  0  0  0  0  0  0  0  0  0  0  0  # atno 10763 bound_to 10752
  154.7818  135.4831  153.9864 H   0  0  0  0  0  0  0  0  0  0  0  0  # atno 10764 bound_to 10752
  153.1422  135.6826  153.9105 H   0  0  0  0  0  0  0  0  0  0  0  0  # atno 10765 bound_to 10752
  140.1712  134.4220  155.8256 H   0  0  0  0  0  0  0  0  0  0  0  0  # atno 11005 bound_to 11000
  145.0059  140.8672  143.5254 LP  0  0  0  0  0  0  0  0  0  0  0  0  # atno 17320 bound_to 7965
  145.1675  139.2423  143.5359 LP  0  0  0  0  0  0  0  0  0  0  0  0  # atno 17321 bound_to 7965
  139.8068  143.8006  152.3168 LP  0  0  0  0  0  0  0  0  0  0  0  0  # atno 17342 bound_to 10162
  139.8042  144.7362  150.9784 LP  0  0  0  0  0  0  0  0  0  0  0  0  # atno 17343 bound_to 10162
  155.9669  130.4451  150.5487 LP  0  0  0  0  0  0  0  0  0  0  0  0  # atno 17370 bound_to 10713
  157.3355  131.0707  151.1828 LP  0  0  0  0  0  0  0  0  0  0  0  0  # atno 17371 bound_to 10713
  141.2217  133.6957  156.7766 LP  0  0  0  0  0  0  0  0  0  0  0  0  # atno 17394 bound_to 11000
  140.2375  134.8638  157.3540 LP  0  0  0  0  0  0  0  0  0  0  0  0  # atno 17395 bound_to 11000

$$$$
