AV-unprocessed.smi:1701|AV-procd|sdf|6829|dock5
  -GOLD-   22720 8 03D 1   1.00000     0.00000
 Structure written by MMmdl.
 54 56  0  0  0  0  0  0  0  0  2 V2000
  152.8964  142.6174  159.0894 C   0  0  0  0  0  0  0  0  0  0  0  0
  152.6016  141.2343  158.4925 C   0  0  0  0  0  0  0  0  0  0  0  0
  151.5194  141.2522  157.5082 N   0  0  0  0  0  0  0  0  0  0  0  0
  150.9414  142.5372  157.1073 C   0  0  0  0  0  0  0  0  0  0  0  0
  150.0784  143.1772  158.2059 C   0  0  0  0  0  0  0  0  0  0  0  0
  151.1380  140.0652  156.8345 C   0  0  0  0  0  0  0  0  0  0  0  0
  151.0919  138.8121  157.4961 C   0  0  0  0  0  0  0  0  0  0  0  0
  150.7026  137.6638  156.7803 C   0  0  0  0  0  0  0  0  0  0  0  0
  150.3696  137.7877  155.4127 C   0  0  0  0  0  0  0  0  0  0  0  0
  149.9352  136.7079  154.5986 N   0  0  0  0  0  0  0  0  0  0  0  0
  149.7136  135.4289  154.9599 C   0  0  0  0  0  0  0  0  0  0  0  0
  149.9678  134.9628  156.0681 O   0  0  0  0  0  0  0  0  0  0  0  0
  149.2173  134.6548  153.9786 N   0  0  0  0  0  0  0  0  0  0  0  0
  148.8684  133.2347  154.0390 C   0  0  2  0  0  0  0  0  0  0  0  0
  150.0113  132.3253  154.5239 C   0  0  0  0  0  0  0  0  0  0  0  0
  149.9344  131.0612  153.6453 C   0  0  0  0  0  0  0  0  0  0  0  0
  148.7347  131.2103  152.7906 N   0  3  1  0  0  0  0  0  0  0  0  0
  147.5565  130.4913  153.3487 C   0  0  0  0  0  0  0  0  0  0  0  0
  146.2626  130.8345  152.5996 C   0  0  0  0  0  0  0  0  0  0  0  0
  146.0100  132.3433  152.6456 C   0  0  0  0  0  0  0  0  0  0  0  0
  147.2020  133.0798  152.0245 C   0  0  0  0  0  0  0  0  0  0  0  0
  148.5576  132.6755  152.6463 C   0  0  1  0  0  0  0  0  0  0  0  0
  150.4296  139.0733  154.8423 C   0  0  0  0  0  0  0  0  0  0  0  0
  150.8065  140.1746  155.5242 N   0  0  0  0  0  0  0  0  0  0  0  0
  153.7436  142.5664  159.7734 H   0  0  0  0  0  0  0  0  0  0  0  0
  152.0458  142.9969  159.6541 H   0  0  0  0  0  0  0  0  0  0  0  0
  153.1395  143.3462  158.3161 H   0  0  0  0  0  0  0  0  0  0  0  0
  153.5038  140.8040  158.0586 H   0  0  0  0  0  0  0  0  0  0  0  0
  152.3257  140.5536  159.2984 H   0  0  0  0  0  0  0  0  0  0  0  0
  151.7299  143.2244  156.7996 H   0  0  0  0  0  0  0  0  0  0  0  0
  150.3260  142.3865  156.2200 H   0  0  0  0  0  0  0  0  0  0  0  0
  149.6624  144.1243  157.8623 H   0  0  0  0  0  0  0  0  0  0  0  0
  150.6608  143.3817  159.1044 H   0  0  0  0  0  0  0  0  0  0  0  0
  149.2441  142.5364  158.4881 H   0  0  0  0  0  0  0  0  0  0  0  0
  151.3513  138.7017  158.5375 H   0  0  0  0  0  0  0  0  0  0  0  0
  150.6526  136.7179  157.2972 H   0  0  0  0  0  0  0  0  0  0  0  0
  149.8025  136.9266  153.6222 H   0  0  0  0  0  0  0  0  0  0  0  0
  149.1155  135.0941  153.0748 H   0  0  0  0  0  0  0  0  0  0  0  0
  147.9978  133.0973  154.6823 H   0  0  0  0  0  0  0  0  0  0  0  0
  150.9846  132.8029  154.4012 H   0  0  0  0  0  0  0  0  0  0  0  0
  149.8958  132.0870  155.5819 H   0  0  0  0  0  0  0  0  0  0  0  0
  150.8111  131.0130  152.9985 H   0  0  0  0  0  0  0  0  0  0  0  0
  149.9185  130.1430  154.2345 H   0  0  0  0  0  0  0  0  0  0  0  0
  147.7398  129.4174  153.2969 H   0  0  0  0  0  0  0  0  0  0  0  0
  147.4375  130.7358  154.4056 H   0  0  0  0  0  0  0  0  0  0  0  0
  146.3292  130.4971  151.5644 H   0  0  0  0  0  0  0  0  0  0  0  0
  145.4222  130.3031  153.0472 H   0  0  0  0  0  0  0  0  0  0  0  0
  145.0956  132.5886  152.1049 H   0  0  0  0  0  0  0  0  0  0  0  0
  145.8592  132.6679  153.6757 H   0  0  0  0  0  0  0  0  0  0  0  0
  147.2274  132.8549  150.9573 H   0  0  0  0  0  0  0  0  0  0  0  0
  147.0584  134.1581  152.0994 H   0  0  0  0  0  0  0  0  0  0  0  0
  149.3428  133.0160  151.9677 H   0  0  0  0  0  0  0  0  0  0  0  0
  150.1707  139.2257  153.8045 H   0  0  0  0  0  0  0  0  0  0  0  0
  148.9213  130.8155  151.8796 H   0  0  0  0  0  0  0  0  0  0  0  0
  1  2  1  0  0  0  0
  1 25  1  0  0  0  0
  1 26  1  0  0  0  0
  1 27  1  0  0  0  0
  2  3  1  0  0  0  0
  2 28  1  0  0  0  0
  2 29  1  0  0  0  0
  3  4  1  0  0  0  0
  3  6  1  0  0  0  0
  4  5  1  0  0  0  0
  4 30  1  0  0  0  0
  4 31  1  0  0  0  0
  5 32  1  0  0  0  0
  5 33  1  0  0  0  0
  5 34  1  0  0  0  0
  6 24  1  0  0  0  0
  6  7  2  0  0  0  0
  7  8  1  0  0  0  0
  7 35  1  0  0  0  0
  8  9  2  0  0  0  0
  8 36  1  0  0  0  0
  9 10  1  0  0  0  0
  9 23  1  0  0  0  0
 10 11  1  0  0  0  0
 10 37  1  0  0  0  0
 11 12  2  0  0  0  0
 11 13  1  0  0  0  0
 13 14  1  0  0  0  0
 13 38  1  0  0  0  0
 14 22  1  0  0  0  0
 14 15  1  0  0  0  0
 14 39  1  0  0  0  0
 15 16  1  0  0  0  0
 15 40  1  0  0  0  0
 15 41  1  0  0  0  0
 16 17  1  0  0  0  0
 16 42  1  0  0  0  0
 16 43  1  0  0  0  0
 17 22  1  0  0  0  0
 17 18  1  0  0  0  0
 17 54  1  0  0  0  0
 18 19  1  0  0  0  0
 18 44  1  0  0  0  0
 18 45  1  0  0  0  0
 19 20  1  0  0  0  0
 19 46  1  0  0  0  0
 19 47  1  0  0  0  0
 20 21  1  0  0  0  0
 20 48  1  0  0  0  0
 20 49  1  0  0  0  0
 21 22  1  0  0  0  0
 21 50  1  0  0  0  0
 21 51  1  0  0  0  0
 22 52  1  0  0  0  0
 23 24  2  0  0  0  0
 23 53  1  0  0  0  0
M  CHG  1  17   1
M  END
> <s_m_source_file>
AV-unprocessed.smi

> <i_m_source_file_index>
1701

> <i_lp_mmshare_version>
43012

> <i_f3d_flags>
0

> <s_epik_input>
W0NIM11bQ0gyXU4oW0NIMl1bQ0gzXSljMVtjSF1bY0hdYyhbY0hdbjEpW05IXUMoPU8pW05IXVtDQEhdKFtDSDJdW0NIMl0yKVtDQEBIXShOMjMpW0NIMl1bQ0gyXVtDSDJdW0NIMl0z

> <s_epik_cmdline>
J2VwaWtfcHl0aG9uJywgJy1waCcsICc3LjAnLCAnLXRuJywgJzgnLCAnLW1hJywgJzIwMCcsICctbWV0YWxfYmluZGluZycsICctaW1hZScsICc8aW5maWxlLm1hZT4nLCAnLW9tYWUnLCAnPG91dGZpbGUubWFlPic=

> <r_lp_tautomer_probability>
1

> <r_epik_Ionization_Penalty>
0.56662

> <r_epik_Ionization_Penalty_Charging>
0.000974069

> <r_epik_Ionization_Penalty_Neutral>
0.565646

> <r_epik_State_Penalty>
2.0247

> <r_epik_Charging_Adjusted_Penalty>
2.02568

> <i_epik_Tot_Q>
1

> <i_epik_Tot_abs_Q>
1

> <r_epik_Metal_State_Penalty>
1.51504

> <b_epik_Metal_Only>
0

> <s_lp_Force_Field>
OPLS_2005

> <r_lp_Energy>
57.8718

> <b_lp_Chiralities_Consistent>
1

> <s_lp_Variant>
AV-unprocessed.smi:1701-9

> <Gold.Version>
5.8.1

> <Gold.Id.Protein>
6NUR|6NUR_protein|mol2

> <Gold.PLP.Fitness>
47.0262

> <Gold.PLP.PLP>
-38.2955

> <Gold.PLP.part.hbond>
-3.3646

> <Gold.PLP.part.metal>
0.0000

> <Gold.PLP.part.buried>
-2.9037

> <Gold.PLP.part.nonpolar>
-30.8005

> <Gold.PLP.part.repulsive>
0.0985

> <Gold.PLP.ligand.clash>
0.0000

> <Gold.PLP.ligand.torsion>
0.6503

> <Gold.PLP.Chemscore.Hbond>
2.9970

> <Gold.PLP.Chemscore.CHOScore>
0.3056

> <Gold.PLP.Chemscore.Metal>
0.0000

> <Gold.Chemscore.Hbonds>
donor molecule, donor type, donor heavy atom, donor atom, acceptor molecule, acceptor atom, score
      L1  H    10    37       P1  7948  0.86
      L1  H    13    38       P1  7948  0.75
      L1  H    17    54       P1 10747  1.00
      P1  H  7989  7998       L1    24  0.09
      L1  C    23    53       P1  7957  0.29

> <Gold.PLP.Chemscore.Internal.Correction>
0.1236

> <Gold.Rescore>
     Score         DG    S(hbond)    S(metal)    S(lipo)     H(rot)  DE(clash)    DE(int)     intcor
     19.71     -21.73       2.58        0.00      93.23       1.28       0.06       1.96       ----

> <Gold.Chemscore.Fitness>
19.7084

> <Gold.Chemscore.DG>
-21.7308

> <Gold.Chemscore.ZeroCoef>
-5.4800

> <Gold.Chemscore.Hbond>
2.5837

> <Gold.Chemscore.Metal>
0.0000

> <Gold.Chemscore.Lipo>
93.2303

> <Gold.Chemscore.Internal_Hbond>
0.0000

> <Gold.Chemscore.DEClash>
0.0609

> <Gold.Chemscore.DEInternal>
1.9615

> <Gold.Chemscore.Rot>
1.2838

> <Gold.Chemscore.Internal.Correction>
   9.000000E+99

> <Gold.Chemscore.Hbonds>
donor molecule, donor type, donor heavy atom, donor atom, acceptor molecule, acceptor atom, score
      L1  H    10    37       P1  7948  0.44
      L1  H    13    38       P1  7948  0.09
      L1  H    17    54       P1 10747  0.48

> <Gold.Chemscore.Hbond.Weighted>
-8.6294

> <Gold.Chemscore.Metal.Weighted>
-0.0000

> <Gold.Chemscore.Lipo.Weighted>
-10.9079

> <Gold.Chemscore.Internal_Hbond.Weighted>
0.0000

> <Gold.Chemscore.DEClash.Weighted>
0.0609

> <Gold.Chemscore.DEInternal.Weighted>
1.9615

> <Gold.Chemscore.Rot.Weighted>
3.2865

> <Gold.Chemscore.Internal.Correction.Weighted>
   9.000000E+99

> <Gold.Protein.RotatedTorsions>
[ 6907 6896 6895 6894 ] final  -41.40 input  -60.11 | X-H torsion
[ 7974 7965 7964 7962 ] final -123.49 input  175.53 | X-H torsion
[ 8008 7997 7996 7995 ] final -154.16 input   59.86 | X-H torsion
[ 10167 10162 10161 10158 ] final  -67.04 input  -65.29 | X-H torsion
[ 10718 10713 10712 10709 ] final  -40.87 input   66.30 | X-H torsion
[ 10763 10752 10751 10750 ] final  119.51 input  -60.55 | X-H torsion
[ 11005 11000 10999 10996 ] final   85.54 input  -57.11 | X-H torsion

> <Gold.Protein.ActiveResidues>
 VAL166  LYS551  ARG553  GLY616  TRP617  ASP618  TYR619  PRO620  LYS621  CYS622 
 ASP623  PHE694  ASN695  SER759  ASP760  ASP761  ALA762  ILE779  LEU786  VAL792 
 PHE793  MET794  SER795  GLU796  ALA797  LYS798  CYS799  TRP800  GLU811  SER814 

> <Gold.Protein.RotatedAtoms>
  150.9672  134.9051  159.7766 H   0  0  0  0  0  0  0  0  0  0  0  0  # atno 6907 bound_to 6896
  152.5177  134.3590  159.9288 H   0  0  0  0  0  0  0  0  0  0  0  0  # atno 6908 bound_to 6896
  151.3600  133.3852  159.2723 H   0  0  0  0  0  0  0  0  0  0  0  0  # atno 6909 bound_to 6896
  145.0181  140.7964  143.4397 H   0  0  0  0  0  0  0  0  0  0  0  0  # atno 7974 bound_to 7965
  155.6820  140.0745  157.2481 H   0  0  0  0  0  0  0  0  0  0  0  0  # atno 8008 bound_to 7997
  154.4104  140.1680  156.2045 H   0  0  0  0  0  0  0  0  0  0  0  0  # atno 8009 bound_to 7997
  155.9526  140.3376  155.6424 H   0  0  0  0  0  0  0  0  0  0  0  0  # atno 8010 bound_to 7997
  140.5612  143.2313  151.6724 H   0  0  0  0  0  0  0  0  0  0  0  0  # atno 10167 bound_to 10162
  156.2765  130.4212  149.8381 H   0  0  0  0  0  0  0  0  0  0  0  0  # atno 10718 bound_to 10713
  153.5842  135.3478  155.2886 H   0  0  0  0  0  0  0  0  0  0  0  0  # atno 10763 bound_to 10752
  154.8663  135.4189  154.2587 H   0  0  0  0  0  0  0  0  0  0  0  0  # atno 10764 bound_to 10752
  153.3380  135.7048  153.6961 H   0  0  0  0  0  0  0  0  0  0  0  0  # atno 10765 bound_to 10752
  139.8969  134.8293  156.2596 H   0  0  0  0  0  0  0  0  0  0  0  0  # atno 11005 bound_to 11000
  145.1932  139.2290  143.5232 LP  0  0  0  0  0  0  0  0  0  0  0  0  # atno 17320 bound_to 7965
  146.3481  140.1733  142.8589 LP  0  0  0  0  0  0  0  0  0  0  0  0  # atno 17321 bound_to 7965
  139.5071  144.3658  152.0518 LP  0  0  0  0  0  0  0  0  0  0  0  0  # atno 17342 bound_to 10162
  140.2785  144.3886  150.6127 LP  0  0  0  0  0  0  0  0  0  0  0  0  # atno 17343 bound_to 10162
  156.5844  130.8479  151.3391 LP  0  0  0  0  0  0  0  0  0  0  0  0  # atno 17370 bound_to 10713
  157.7301  130.9680  150.1817 LP  0  0  0  0  0  0  0  0  0  0  0  0  # atno 17371 bound_to 10713
  141.0171  133.7062  156.1207 LP  0  0  0  0  0  0  0  0  0  0  0  0  # atno 17394 bound_to 11000
  140.7286  134.4279  157.5568 LP  0  0  0  0  0  0  0  0  0  0  0  0  # atno 17395 bound_to 11000

$$$$
