#       Name:                AV-unprocessed.smi:2386
#       Creating user name   scv26
#       Creation time:       Fri Mar 27 13:09:36 2020


#       File generated by GOLD software.
#

@<TRIPOS>MOLECULE
AV-unprocessed.smi:2386
    48    49     1
SMALL
NO_CHARGES


@<TRIPOS>ATOM
      1 ****        -3.4794   4.9227  -1.1428 C.3            1 S1                 0.0000
      2 ****        -3.7580   3.4764  -1.4938 C.ar           1 S1                 0.0000
      3 ****        -5.0760   3.0178  -1.6857 C.ar           1 S1                 0.0000
      4 ****        -5.2656   1.6630  -2.0115 C.ar           1 S1                 0.0000
      5 ****        -4.1374   0.8291  -2.1327 C.ar           1 S1                 0.0000
      6 ****        -2.8483   1.3688  -1.9244 C.ar           1 S1                 0.0000
      7 ****        -1.7789   0.4461  -2.0727 N.am           1 S1                 0.0000
      8 ****        -0.4610   0.6701  -1.9276 C.2            1 S1                 0.0000
      9 ****         0.0510   1.7470  -1.6204 O.2            1 S1                 0.0000
     10 ****         0.2479  -0.4453  -2.1545 N.am           1 S1                 0.0000
     11 ****         1.7026  -0.5467  -2.0880 C.3            1 S1                 0.0000
     12 ****         2.2432  -0.5340  -0.6449 C.3            1 S1                 0.0000
     13 ****         1.6836  -1.6662   0.2374 C.3            1 S1                 0.0000
     14 ****         2.2201  -1.6180   1.6204 N.4            1 S1                 1.0000
     15 ****         1.3268  -2.2825   2.5994 C.3            1 S1                 0.0000
     16 ****         1.9006  -2.1633   4.0212 C.3            1 S1                 0.0000
     17 ****         3.2072  -2.7227   4.0564 O.3            1 S1                 0.0000
     18 ****         4.1011  -2.0382   3.1879 C.3            1 S1                 0.0000
     19 ****         3.6013  -2.1487   1.7374 C.3            1 S1                 0.0000
     20 ****        -2.6758   2.6764  -1.6083 N.ar           1 S1                 0.0000
     21 ****        -4.4039   5.4939  -1.0545 H              1 S1                 0.0000
     22 ****        -2.8646   5.3877  -1.9139 H              1 S1                 0.0000
     23 ****        -2.9477   4.9870  -0.1931 H              1 S1                 0.0000
     24 ****        -5.9210   3.6834  -1.5871 H              1 S1                 0.0000
     25 ****        -6.2592   1.2690  -2.1668 H              1 S1                 0.0000
     26 ****        -4.2659  -0.2137  -2.3839 H              1 S1                 0.0000
     27 ****        -2.0499  -0.4927  -2.3243 H              1 S1                 0.0000
     28 ****        -0.2546  -1.2838  -2.4071 H              1 S1                 0.0000
     29 ****         1.9983  -1.4721  -2.5830 H              1 S1                 0.0000
     30 ****         2.1516   0.2648  -2.6630 H              1 S1                 0.0000
     31 ****         3.3295  -0.6011  -0.6949 H              1 S1                 0.0000
     32 ****         2.0253   0.4286  -0.1806 H              1 S1                 0.0000
     33 ****         0.5985  -1.5647   0.2801 H              1 S1                 0.0000
     34 ****         1.8832  -2.6420  -0.2079 H              1 S1                 0.0000
     35 ****         0.3365  -1.8268   2.5675 H              1 S1                 0.0000
     36 ****         1.2065  -3.3332   2.3313 H              1 S1                 0.0000
     37 ****         1.9280  -1.1217   4.3451 H              1 S1                 0.0000
     38 ****         1.2677  -2.6999   4.7280 H              1 S1                 0.0000
     39 ****         4.1940  -0.9939   3.4900 H              1 S1                 0.0000
     40 ****         5.0914  -2.4846   3.2784 H              1 S1                 0.0000
     41 ****         3.6211  -3.1919   1.4182 H              1 S1                 0.0000
     42 ****         4.2780  -1.6020   1.0816 H              1 S1                 0.0000
     43 ****         2.2517  -0.6436   1.8850 H              1 S1                 0.0000
     44 ****        -0.5267   2.5467  -1.4565 LP             1 S1                 0.0000
     45 ****         1.0445   1.8220  -1.5348 LP             1 S1                 0.0000
     46 ****         3.1559  -3.6815   3.7771 LP             1 S1                 0.0000
     47 ****         3.5580  -2.6661   4.9912 LP             1 S1                 0.0000
     48 ****        -1.7575   3.0442  -1.4616 LP             1 S1                 0.0000
@<TRIPOS>BOND
    1    1    2 1     
    2    1   21 1     
    3    1   22 1     
    4    1   23 1     
    5    2   20 ar    
    6    2    3 ar    
    7    3    4 ar    
    8    3   24 1     
    9    4    5 ar    
   10    4   25 1     
   11    5    6 ar    
   12    5   26 1     
   13    6    7 1     
   14    6   20 ar    
   15    7    8 am    
   16    7   27 1     
   17    8    9 2     
   18    8   10 am    
   19   10   11 1     
   20   10   28 1     
   21   11   12 1     
   22   11   29 1     
   23   11   30 1     
   24   12   13 1     
   25   12   31 1     
   26   12   32 1     
   27   13   14 1     
   28   13   33 1     
   29   13   34 1     
   30   14   19 1     
   31   14   15 1     
   32   14   43 1     
   33   15   16 1     
   34   15   35 1     
   35   15   36 1     
   36   16   17 1     
   37   16   37 1     
   38   16   38 1     
   39   17   18 1     
   40   18   19 1     
   41   18   39 1     
   42   18   40 1     
   43   19   41 1     
   44   19   42 1     
   45    9   44 1     
   46    9   45 1     
   47   17   46 1     
   48   17   47 1     
   49   20   48 1     
@<TRIPOS>SUBSTRUCTURE
      1 S1             1
@<TRIPOS>SET
LONE_PAIRS      STATIC     ATOMS    <user>   **** ""
5 44 45 46 47 48
DONOR_HYDROGENS      STATIC     ATOMS    <user>   **** ""
3 27 28 43
ATOM$BLUE        STATIC     ATOMS    COLORGROUP SYSTEM
5 44 45 46 47 48
ATOM$RED        STATIC     ATOMS    COLORGROUP SYSTEM
3 27 28 43
