AV-unprocessed.smi:1430|AV-procd|sdf|5825|dock1
  -GOLD-   22720 5483D 1   1.00000     0.00000
 Structure written by MMmdl.
 47 48  0  0  0  0  0  0  0  0  2 V2000
  151.7829  141.6407  157.8571 C   0  0  0  0  0  0  0  0  0  0  0  0
  151.2871  141.6024  156.5234 O   0  0  0  0  0  0  0  0  0  0  0  0
  150.7790  140.4112  156.0471 C   0  0  0  0  0  0  0  0  0  0  0  0
  150.4579  139.3974  156.9714 C   0  0  0  0  0  0  0  0  0  0  0  0
  149.9386  138.1788  156.4941 C   0  0  0  0  0  0  0  0  0  0  0  0
  149.7498  138.0145  155.1007 C   0  0  0  0  0  0  0  0  0  0  0  0
  149.2549  136.8304  154.4898 N   0  0  0  0  0  0  0  0  0  0  0  0
  149.0003  135.6375  155.0536 C   0  0  0  0  0  0  0  0  0  0  0  0
  149.1090  135.3752  156.2506 O   0  0  0  0  0  0  0  0  0  0  0  0
  148.5973  134.7451  154.1378 N   0  0  0  0  0  0  0  0  0  0  0  0
  148.2335  133.3569  154.4151 C   0  0  0  0  0  0  0  0  0  0  0  0
  148.8508  132.3488  153.4203 C   0  0  0  0  0  0  0  0  0  0  0  0
  147.8565  131.7621  152.4865 N   0  3  1  0  0  0  0  0  0  0  0  0
  147.2647  130.5046  152.9986 C   0  0  0  0  0  0  0  0  0  0  0  0
  146.3045  129.9008  151.9565 C   0  0  1  0  0  0  0  0  0  0  0  0
  145.6094  128.6371  152.4747 C   0  0  0  0  0  0  0  0  0  0  0  0
  145.3033  130.8610  151.6357 O   0  0  0  0  0  0  0  0  0  0  0  0
  145.8437  132.0478  151.0641 C   0  0  1  0  0  0  0  0  0  0  0  0
  144.6797  132.9662  150.6759 C   0  0  0  0  0  0  0  0  0  0  0  0
  146.7913  132.7102  152.0818 C   0  0  0  0  0  0  0  0  0  0  0  0
  150.1144  139.0862  154.2594 C   0  0  0  0  0  0  0  0  0  0  0  0
  150.6123  140.2563  154.7104 N   0  0  0  0  0  0  0  0  0  0  0  0
  152.1499  142.6433  158.0763 H   0  0  0  0  0  0  0  0  0  0  0  0
  152.6142  140.9474  157.9934 H   0  0  0  0  0  0  0  0  0  0  0  0
  151.0008  141.4089  158.5811 H   0  0  0  0  0  0  0  0  0  0  0  0
  150.6115  139.5502  158.0295 H   0  0  0  0  0  0  0  0  0  0  0  0
  149.7132  137.3978  157.2030 H   0  0  0  0  0  0  0  0  0  0  0  0
  149.0350  136.9140  153.5081 H   0  0  0  0  0  0  0  0  0  0  0  0
  148.5209  135.0522  153.1789 H   0  0  0  0  0  0  0  0  0  0  0  0
  148.5185  133.0982  155.4360 H   0  0  0  0  0  0  0  0  0  0  0  0
  147.1461  133.2903  154.3817 H   0  0  0  0  0  0  0  0  0  0  0  0
  149.6091  132.8711  152.8359 H   0  0  0  0  0  0  0  0  0  0  0  0
  149.3774  131.5573  153.9554 H   0  0  0  0  0  0  0  0  0  0  0  0
  148.0582  129.7908  153.2240 H   0  0  0  0  0  0  0  0  0  0  0  0
  146.7365  130.7044  153.9324 H   0  0  0  0  0  0  0  0  0  0  0  0
  146.8584  129.6446  151.0515 H   0  0  0  0  0  0  0  0  0  0  0  0
  146.3363  127.8644  152.7258 H   0  0  0  0  0  0  0  0  0  0  0  0
  144.9357  128.2265  151.7223 H   0  0  0  0  0  0  0  0  0  0  0  0
  145.0216  128.8472  153.3687 H   0  0  0  0  0  0  0  0  0  0  0  0
  146.3981  131.7906  150.1598 H   0  0  0  0  0  0  0  0  0  0  0  0
  145.0417  133.8910  150.2261 H   0  0  0  0  0  0  0  0  0  0  0  0
  144.0779  133.2304  151.5460 H   0  0  0  0  0  0  0  0  0  0  0  0
  144.0237  132.4806  149.9529 H   0  0  0  0  0  0  0  0  0  0  0  0
  146.2345  133.0310  152.9639 H   0  0  0  0  0  0  0  0  0  0  0  0
  147.2330  133.6027  151.6389 H   0  0  0  0  0  0  0  0  0  0  0  0
  150.0012  139.0049  153.1881 H   0  0  0  0  0  0  0  0  0  0  0  0
  148.3647  131.5134  151.6498 H   0  0  0  0  0  0  0  0  0  0  0  0
  1  2  1  0  0  0  0
  1 23  1  0  0  0  0
  1 24  1  0  0  0  0
  1 25  1  0  0  0  0
  2  3  1  0  0  0  0
  3 22  1  0  0  0  0
  3  4  2  0  0  0  0
  4  5  1  0  0  0  0
  4 26  1  0  0  0  0
  5  6  2  0  0  0  0
  5 27  1  0  0  0  0
  6  7  1  0  0  0  0
  6 21  1  0  0  0  0
  7  8  1  0  0  0  0
  7 28  1  0  0  0  0
  8  9  2  0  0  0  0
  8 10  1  0  0  0  0
 10 11  1  0  0  0  0
 10 29  1  0  0  0  0
 11 12  1  0  0  0  0
 11 30  1  0  0  0  0
 11 31  1  0  0  0  0
 12 13  1  0  0  0  0
 12 32  1  0  0  0  0
 12 33  1  0  0  0  0
 13 20  1  0  0  0  0
 13 14  1  0  0  0  0
 13 47  1  0  0  0  0
 14 15  1  0  0  0  0
 14 34  1  0  0  0  0
 14 35  1  0  0  0  0
 15 16  1  0  0  0  0
 15 17  1  0  0  0  0
 15 36  1  0  0  0  0
 16 37  1  0  0  0  0
 16 38  1  0  0  0  0
 16 39  1  0  0  0  0
 17 18  1  0  0  0  0
 18 19  1  0  0  0  0
 18 20  1  0  0  0  0
 18 40  1  0  0  0  0
 19 41  1  0  0  0  0
 19 42  1  0  0  0  0
 19 43  1  0  0  0  0
 20 44  1  0  0  0  0
 20 45  1  0  0  0  0
 21 22  2  0  0  0  0
 21 46  1  0  0  0  0
M  CHG  1  13   1
M  END
> <s_m_source_file>
AV-unprocessed.smi

> <i_m_source_file_index>
1430

> <i_lp_mmshare_version>
43012

> <i_f3d_flags>
0

> <s_epik_input>
W0NIM11PYzFbY0hdW2NIXWMoW2NIXW4xKVtOSF1DKD1PKVtOSF1bQ0gyXVtDSDJdTjJbQ0gyXVtDQEBIXShbQ0gzXSlPW0NAQEhdKFtDSDNdKVtDSDJdMg==

> <s_epik_cmdline>
J2VwaWtfcHl0aG9uJywgJy1waCcsICc3LjAnLCAnLXRuJywgJzgnLCAnLW1hJywgJzIwMCcsICctbWV0YWxfYmluZGluZycsICctaW1hZScsICc8aW5maWxlLm1hZT4nLCAnLW9tYWUnLCAnPG91dGZpbGUubWFlPic=

> <r_lp_tautomer_probability>
1

> <r_epik_Ionization_Penalty>
0.602607

> <r_epik_Ionization_Penalty_Charging>
0.602531

> <r_epik_Ionization_Penalty_Neutral>
7.66983e-05

> <r_epik_State_Penalty>
0.617039

> <r_epik_Charging_Adjusted_Penalty>
1.21957

> <i_epik_Tot_Q>
1

> <i_epik_Tot_abs_Q>
1

> <r_epik_Metal_State_Penalty>
0.617043

> <b_epik_Metal_Only>
0

> <s_lp_Force_Field>
OPLS_2005

> <r_lp_Energy>
23.5338

> <b_lp_Chiralities_Consistent>
1

> <s_lp_Variant>
AV-unprocessed.smi:1430-4

> <Gold.Version>
5.8.1

> <Gold.Id.Protein>
6NUR|6NUR_protein|mol2

> <Gold.PLP.Fitness>
47.8774

> <Gold.PLP.PLP>
-34.8152

> <Gold.PLP.part.hbond>
-4.0000

> <Gold.PLP.part.metal>
0.0000

> <Gold.PLP.part.buried>
-4.6364

> <Gold.PLP.part.nonpolar>
-26.2150

> <Gold.PLP.part.repulsive>
0.2907

> <Gold.PLP.ligand.clash>
0.0000

> <Gold.PLP.ligand.torsion>
0.9893

> <Gold.PLP.Chemscore.Hbond>
4.0000

> <Gold.PLP.Chemscore.CHOScore>
1.0000

> <Gold.PLP.Chemscore.Metal>
0.0000

> <Gold.Chemscore.Hbonds>
donor molecule, donor type, donor heavy atom, donor atom, acceptor molecule, acceptor atom, score
      L1  H     7    28       P1  7948  1.00
      L1  H    10    29       P1  7948  1.00
      L1  H    13    47       P1 10747  1.00
      P1  H  7989  7998       L1    22  1.00
      L1  C    21    46       P1  7957  1.00

> <Gold.PLP.Chemscore.Internal.Correction>
0.0407

> <Gold.Rescore>
     Score         DG    S(hbond)    S(metal)    S(lipo)     H(rot)  DE(clash)    DE(int)     intcor
     20.64     -22.68       3.51        0.00      85.41       1.76       0.01       2.03       ----

> <Gold.Chemscore.Fitness>
20.6389

> <Gold.Chemscore.DG>
-22.6837

> <Gold.Chemscore.ZeroCoef>
-5.4800

> <Gold.Chemscore.Hbond>
3.5085

> <Gold.Chemscore.Metal>
0.0000

> <Gold.Chemscore.Lipo>
85.4063

> <Gold.Chemscore.Internal_Hbond>
0.0000

> <Gold.Chemscore.DEClash>
0.0149

> <Gold.Chemscore.DEInternal>
2.0300

> <Gold.Chemscore.Rot>
1.7606

> <Gold.Chemscore.Internal.Correction>
   9.000000E+99

> <Gold.Chemscore.Hbonds>
donor molecule, donor type, donor heavy atom, donor atom, acceptor molecule, acceptor atom, score
      L1  H     7    28       P1  7948  0.95
      L1  H    10    29       P1  7948  0.75
      L1  H    13    47       P1 10747  1.00
      P1  H  7989  7998       L1    22  0.60

> <Gold.Chemscore.Hbond.Weighted>
-11.7184

> <Gold.Chemscore.Metal.Weighted>
-0.0000

> <Gold.Chemscore.Lipo.Weighted>
-9.9925

> <Gold.Chemscore.Internal_Hbond.Weighted>
0.0000

> <Gold.Chemscore.DEClash.Weighted>
0.0149

> <Gold.Chemscore.DEInternal.Weighted>
2.0300

> <Gold.Chemscore.Rot.Weighted>
4.5072

> <Gold.Chemscore.Internal.Correction.Weighted>
   9.000000E+99

> <Gold.Protein.RotatedTorsions>
[ 6907 6896 6895 6894 ] final -132.17 input  -60.11 | X-H torsion
[ 7974 7965 7964 7962 ] final  -96.86 input  175.53 | X-H torsion
[ 8008 7997 7996 7995 ] final  -31.26 input   59.86 | X-H torsion
[ 10167 10162 10161 10158 ] final   49.78 input  -65.29 | X-H torsion
[ 10718 10713 10712 10709 ] final   22.50 input   66.30 | X-H torsion
[ 10763 10752 10751 10750 ] final   90.67 input  -60.55 | X-H torsion
[ 11005 11000 10999 10996 ] final -108.82 input  -57.11 | X-H torsion

> <Gold.Protein.ActiveResidues>
 VAL166  LYS551  ARG553  GLY616  TRP617  ASP618  TYR619  PRO620  LYS621  CYS622 
 ASP623  PHE694  ASN695  SER759  ASP760  ASP761  ALA762  ILE779  LEU786  VAL792 
 PHE793  MET794  SER795  GLU796  ALA797  LYS798  CYS799  TRP800  GLU811  SER814 

> <Gold.Protein.RotatedAtoms>
  150.9594  133.6462  159.2756 H   0  0  0  0  0  0  0  0  0  0  0  0  # atno 6907 bound_to 6896
  151.3790  135.0935  159.9499 H   0  0  0  0  0  0  0  0  0  0  0  0  # atno 6908 bound_to 6896
  152.5141  133.9132  159.7553 H   0  0  0  0  0  0  0  0  0  0  0  0  # atno 6909 bound_to 6896
  145.3413  140.9460  143.2606 H   0  0  0  0  0  0  0  0  0  0  0  0  # atno 7974 bound_to 7965
  154.4220  140.1769  156.1538 H   0  0  0  0  0  0  0  0  0  0  0  0  # atno 8008 bound_to 7997
  155.9894  140.3370  155.6714 H   0  0  0  0  0  0  0  0  0  0  0  0  # atno 8009 bound_to 7997
  155.6393  140.0678  157.2614 H   0  0  0  0  0  0  0  0  0  0  0  0  # atno 8010 bound_to 7997
  140.2793  144.3175  150.6268 H   0  0  0  0  0  0  0  0  0  0  0  0  # atno 10167 bound_to 10162
  157.1531  130.6683  149.6018 H   0  0  0  0  0  0  0  0  0  0  0  0  # atno 10718 bound_to 10713
  153.2000  135.4425  155.0255 H   0  0  0  0  0  0  0  0  0  0  0  0  # atno 10763 bound_to 10752
  154.8141  135.3307  154.7226 H   0  0  0  0  0  0  0  0  0  0  0  0  # atno 10764 bound_to 10752
  153.7672  135.6987  153.4969 H   0  0  0  0  0  0  0  0  0  0  0  0  # atno 10765 bound_to 10752
  141.0881  133.9104  157.2139 H   0  0  0  0  0  0  0  0  0  0  0  0  # atno 11005 bound_to 11000
  144.8788  139.4933  143.6733 LP  0  0  0  0  0  0  0  0  0  0  0  0  # atno 17320 bound_to 7965
  146.3006  139.7415  142.9094 LP  0  0  0  0  0  0  0  0  0  0  0  0  # atno 17321 bound_to 7965
  140.5825  143.2172  151.7402 LP  0  0  0  0  0  0  0  0  0  0  0  0  # atno 17342 bound_to 10162
  139.4967  144.4059  152.0132 LP  0  0  0  0  0  0  0  0  0  0  0  0  # atno 17343 bound_to 10162
  155.9767  130.4737  150.6544 LP  0  0  0  0  0  0  0  0  0  0  0  0  # atno 17370 bound_to 10713
  157.4202  131.0835  151.1138 LP  0  0  0  0  0  0  0  0  0  0  0  0  # atno 17371 bound_to 10713
  139.9702  135.0130  156.9492 LP  0  0  0  0  0  0  0  0  0  0  0  0  # atno 17394 bound_to 11000
  140.5316  134.0807  155.7317 LP  0  0  0  0  0  0  0  0  0  0  0  0  # atno 17395 bound_to 11000

$$$$
