AV-unprocessed.smi:479|AV-procd|sdf|2672|dock7
  -GOLD-   2262023 93D 1   1.00000     0.00000
 Structure written by MMmdl.
 45 47  0  0  0  0  0  0  0  0  1 V2000
  156.9242  133.1862  160.6839 C   0  0  0  0  0  0  0  0  0  0  0  0
  156.3905  134.3946  161.2039 O   0  0  0  0  0  0  0  0  0  0  0  0
  155.5052  134.3240  162.2600 C   0  0  0  0  0  0  0  0  0  0  0  0
  155.1346  133.1111  162.8945 C   0  0  0  0  0  0  0  0  0  0  0  0
  154.2173  133.1027  163.9704 C   0  0  0  0  0  0  0  0  0  0  0  0
  153.8144  131.8391  164.6528 C   0  0  0  0  0  0  0  0  0  0  0  0
  152.3327  131.6362  164.9664 C   0  0  0  0  0  0  0  0  0  0  0  0
  154.6105  130.9561  164.9710 O   0  0  0  0  0  0  0  0  0  0  0  0
  153.6656  134.3272  164.4025 C   0  0  0  0  0  0  0  0  0  0  0  0
  154.0285  135.5350  163.7812 C   0  0  0  0  0  0  0  0  0  0  0  0
  154.9551  135.5446  162.7107 C   0  0  0  0  0  0  0  0  0  0  0  0
  155.3694  136.6922  162.0668 O   0  0  0  0  0  0  0  0  0  0  0  0
  154.5752  137.8658  162.1868 C   0  0  0  0  0  0  0  0  0  0  0  0
  155.4581  139.0532  162.6153 C   0  0  2  0  0  0  0  0  0  0  0  0
  156.1464  138.7283  163.8048 O   0  0  0  0  0  0  0  0  0  0  0  0
  154.7159  140.3963  162.7775 C   0  0  0  0  0  0  0  0  0  0  0  0
  154.1845  140.8943  161.5206 N   0  0  0  0  0  0  0  0  0  0  0  0
  154.3184  140.3281  160.3060 C   0  0  0  0  0  0  0  0  0  0  0  0
  153.7346  140.9400  159.2795 N   0  0  0  0  0  0  0  0  0  0  0  0
  153.1621  142.0380  159.8984 C   0  0  0  0  0  0  0  0  0  0  0  0
  152.3882  143.0922  159.3624 C   0  0  0  0  0  0  0  0  0  0  0  0
  151.9034  144.1196  160.1986 C   0  0  0  0  0  0  0  0  0  0  0  0
  152.1887  144.1121  161.5793 C   0  0  0  0  0  0  0  0  0  0  0  0
  152.9606  143.0740  162.1344 C   0  0  0  0  0  0  0  0  0  0  0  0
  153.4345  142.0453  161.2998 C   0  0  0  0  0  0  0  0  0  0  0  0
  157.6248  133.4202  159.8825 H   0  0  0  0  0  0  0  0  0  0  0  0
  156.1419  132.5531  160.2629 H   0  0  0  0  0  0  0  0  0  0  0  0
  157.4711  132.6306  161.4470 H   0  0  0  0  0  0  0  0  0  0  0  0
  155.5542  132.1783  162.5529 H   0  0  0  0  0  0  0  0  0  0  0  0
  151.9798  132.4028  165.6564 H   0  0  0  0  0  0  0  0  0  0  0  0
  152.1702  130.6616  165.4276 H   0  0  0  0  0  0  0  0  0  0  0  0
  151.7387  131.6832  164.0536 H   0  0  0  0  0  0  0  0  0  0  0  0
  152.9578  134.3553  165.2184 H   0  0  0  0  0  0  0  0  0  0  0  0
  153.5780  136.4445  164.1478 H   0  0  0  0  0  0  0  0  0  0  0  0
  154.0615  138.0839  161.2490 H   0  0  0  0  0  0  0  0  0  0  0  0
  153.8119  137.7123  162.9514 H   0  0  0  0  0  0  0  0  0  0  0  0
  156.2270  139.1797  161.8523 H   0  0  0  0  0  0  0  0  0  0  0  0
  157.0347  139.0428  163.7338 H   0  0  0  0  0  0  0  0  0  0  0  0
  153.8930  140.2904  163.4854 H   0  0  0  0  0  0  0  0  0  0  0  0
  155.3850  141.1517  163.1912 H   0  0  0  0  0  0  0  0  0  0  0  0
  154.8675  139.4079  160.1701 H   0  0  0  0  0  0  0  0  0  0  0  0
  152.1657  143.1098  158.3059 H   0  0  0  0  0  0  0  0  0  0  0  0
  151.3111  144.9187  159.7775 H   0  0  0  0  0  0  0  0  0  0  0  0
  151.8143  144.9026  162.2132 H   0  0  0  0  0  0  0  0  0  0  0  0
  153.1811  143.0651  163.1910 H   0  0  0  0  0  0  0  0  0  0  0  0
  1  2  1  0  0  0  0
  1 26  1  0  0  0  0
  1 27  1  0  0  0  0
  1 28  1  0  0  0  0
  2  3  1  0  0  0  0
  3 11  1  0  0  0  0
  3  4  2  0  0  0  0
  4  5  1  0  0  0  0
  4 29  1  0  0  0  0
  5  6  1  0  0  0  0
  5  9  2  0  0  0  0
  6  7  1  0  0  0  0
  6  8  2  0  0  0  0
  7 30  1  0  0  0  0
  7 31  1  0  0  0  0
  7 32  1  0  0  0  0
  9 10  1  0  0  0  0
  9 33  1  0  0  0  0
 10 11  2  0  0  0  0
 10 34  1  0  0  0  0
 11 12  1  0  0  0  0
 12 13  1  0  0  0  0
 13 14  1  0  0  0  0
 13 35  1  0  0  0  0
 13 36  1  0  0  0  0
 14 15  1  0  0  0  0
 14 16  1  0  0  0  0
 14 37  1  0  0  0  0
 15 38  1  0  0  0  0
 16 17  1  0  0  0  0
 16 39  1  0  0  0  0
 16 40  1  0  0  0  0
 17 25  1  0  0  0  0
 17 18  1  0  0  0  0
 18 19  2  0  0  0  0
 18 41  1  0  0  0  0
 19 20  1  0  0  0  0
 20 25  2  0  0  0  0
 20 21  1  0  0  0  0
 21 22  2  0  0  0  0
 21 42  1  0  0  0  0
 22 23  1  0  0  0  0
 22 43  1  0  0  0  0
 23 24  2  0  0  0  0
 23 44  1  0  0  0  0
 24 25  1  0  0  0  0
 24 45  1  0  0  0  0
M  END
> <s_m_source_file>
AV-unprocessed.smi

> <i_m_source_file_index>
479

> <i_lp_mmshare_version>
43012

> <i_f3d_flags>
0

> <s_epik_input>
W0NIM11PYzFbY0hdYyhDKD1PKVtDSDNdKVtjSF1bY0hdYzFPW0NIMl1bQ0BIXShbT0hdKVtDSDJdbihbY0hdbjIpYyhjMjMpW2NIXVtjSF1bY0hdW2NIXTM=

> <s_epik_cmdline>
J2VwaWtfcHl0aG9uJywgJy1waCcsICc3LjAnLCAnLXRuJywgJzgnLCAnLW1hJywgJzIwMCcsICctbWV0YWxfYmluZGluZycsICctaW1hZScsICc8aW5maWxlLm1hZT4nLCAnLW9tYWUnLCAnPG91dGZpbGUubWFlPic=

> <r_lp_tautomer_probability>
0.99995

> <r_epik_Ionization_Penalty>
0.061028

> <r_epik_Ionization_Penalty_Charging>
0

> <r_epik_Ionization_Penalty_Neutral>
0.061028

> <r_epik_State_Penalty>
0.052945

> <r_epik_Charging_Adjusted_Penalty>
0.052945

> <i_epik_Tot_Q>
0

> <i_epik_Tot_abs_Q>
0

> <r_epik_Metal_State_Penalty>
5.53801e-05

> <b_epik_Metal_Only>
0

> <s_lp_Force_Field>
OPLS_2005

> <r_lp_Energy>
25.674

> <b_lp_Chiralities_Consistent>
1

> <s_lp_Variant>
AV-unprocessed.smi:479-1

> <Gold.Version>
5.8.1

> <Gold.Id.Protein>
6NUR|6NUR_protein|mol2

> <Gold.PLP.Fitness>
46.5208

> <Gold.PLP.PLP>
-48.4824

> <Gold.PLP.part.hbond>
-0.9115

> <Gold.PLP.part.metal>
0.0000

> <Gold.PLP.part.buried>
-2.7193

> <Gold.PLP.part.nonpolar>
-44.4191

> <Gold.PLP.part.repulsive>
0.0000

> <Gold.PLP.ligand.clash>
0.0000

> <Gold.PLP.ligand.torsion>
1.3858

> <Gold.PLP.Chemscore.Hbond>
0.2129

> <Gold.PLP.Chemscore.CHOScore>
0.0000

> <Gold.PLP.Chemscore.Metal>
0.0000

> <Gold.PLP.Chemscore.Internal.Correction>
0.1712

> <Gold.Rescore>
     Score         DG    S(hbond)    S(metal)    S(lipo)     H(rot)  DE(clash)    DE(int)     intcor
     14.60     -16.82       0.73        0.00     134.29       2.66       0.94       1.28       ----

> <Gold.Chemscore.Fitness>
14.6022

> <Gold.Chemscore.DG>
-16.8172

> <Gold.Chemscore.ZeroCoef>
-5.4800

> <Gold.Chemscore.Hbond>
0.7256

> <Gold.Chemscore.Metal>
0.0000

> <Gold.Chemscore.Lipo>
134.2888

> <Gold.Chemscore.Internal_Hbond>
0.0000

> <Gold.Chemscore.DEClash>
0.9392

> <Gold.Chemscore.DEInternal>
1.2758

> <Gold.Chemscore.Rot>
2.6555

> <Gold.Chemscore.Internal.Correction>
   9.000000E+99

> <Gold.Chemscore.Hbonds>
donor molecule, donor type, donor heavy atom, donor atom, acceptor molecule, acceptor atom, score
      P1  H  7997  8009       L1    19  0.01

> <Gold.Chemscore.Hbond.Weighted>
-2.4234

> <Gold.Chemscore.Metal.Weighted>
-0.0000

> <Gold.Chemscore.Lipo.Weighted>
-15.7118

> <Gold.Chemscore.Internal_Hbond.Weighted>
0.0000

> <Gold.Chemscore.DEClash.Weighted>
0.9392

> <Gold.Chemscore.DEInternal.Weighted>
1.2758

> <Gold.Chemscore.Rot.Weighted>
6.7980

> <Gold.Chemscore.Internal.Correction.Weighted>
   9.000000E+99

> <Gold.Protein.RotatedTorsions>
[ 6907 6896 6895 6894 ] final  156.78 input  -60.11 | X-H torsion
[ 7974 7965 7964 7962 ] final -113.33 input  175.53 | X-H torsion
[ 8008 7997 7996 7995 ] final  134.15 input   59.86 | X-H torsion
[ 10167 10162 10161 10158 ] final  162.66 input  -65.29 | X-H torsion
[ 10718 10713 10712 10709 ] final  -73.24 input   66.30 | X-H torsion
[ 10763 10752 10751 10750 ] final   43.95 input  -60.55 | X-H torsion
[ 11005 11000 10999 10996 ] final -103.96 input  -57.11 | X-H torsion

> <Gold.Protein.ActiveResidues>
 VAL166  LYS551  ARG553  GLY616  TRP617  ASP618  TYR619  PRO620  LYS621  CYS622 
 ASP623  PHE694  ASN695  SER759  ASP760  ASP761  ALA762  ILE779  LEU786  VAL792 
 PHE793  MET794  SER795  GLU796  ALA797  LYS798  CYS799  TRP800  GLU811  SER814 

> <Gold.Protein.RotatedAtoms>
  152.0247  133.3913  159.4272 H   0  0  0  0  0  0  0  0  0  0  0  0  # atno 6907 bound_to 6896
  150.6887  134.3587  159.4950 H   0  0  0  0  0  0  0  0  0  0  0  0  # atno 6908 bound_to 6896
  152.1366  134.9094  160.0606 H   0  0  0  0  0  0  0  0  0  0  0  0  # atno 6909 bound_to 6896
  145.1333  140.8736  143.3745 H   0  0  0  0  0  0  0  0  0  0  0  0  # atno 7974 bound_to 7965
  156.2997  140.2503  156.3370 H   0  0  0  0  0  0  0  0  0  0  0  0  # atno 8008 bound_to 7997
  154.9091  140.0404  157.1955 H   0  0  0  0  0  0  0  0  0  0  0  0  # atno 8009 bound_to 7997
  154.8423  140.2893  155.5655 H   0  0  0  0  0  0  0  0  0  0  0  0  # atno 8010 bound_to 7997
  139.4863  144.4415  151.8946 H   0  0  0  0  0  0  0  0  0  0  0  0  # atno 10167 bound_to 10162
  156.0288  130.4390  150.2712 H   0  0  0  0  0  0  0  0  0  0  0  0  # atno 10718 bound_to 10713
  152.9850  135.6085  154.3195 H   0  0  0  0  0  0  0  0  0  0  0  0  # atno 10763 bound_to 10752
  154.2905  135.2775  155.2658 H   0  0  0  0  0  0  0  0  0  0  0  0  # atno 10764 bound_to 10752
  154.4956  135.5880  153.6548 H   0  0  0  0  0  0  0  0  0  0  0  0  # atno 10765 bound_to 10752
  141.1122  133.8683  157.1551 H   0  0  0  0  0  0  0  0  0  0  0  0  # atno 11005 bound_to 11000
  145.0612  139.3104  143.5879 LP  0  0  0  0  0  0  0  0  0  0  0  0  # atno 17320 bound_to 7965
  146.3512  140.0054  142.8672 LP  0  0  0  0  0  0  0  0  0  0  0  0  # atno 17321 bound_to 7965
  140.3867  144.2667  150.5903 LP  0  0  0  0  0  0  0  0  0  0  0  0  # atno 17342 bound_to 10162
  140.5184  143.2272  151.8428 LP  0  0  0  0  0  0  0  0  0  0  0  0  # atno 17343 bound_to 10162
  157.0815  131.0145  151.3154 LP  0  0  0  0  0  0  0  0  0  0  0  0  # atno 17370 bound_to 10713
  157.4923  130.7830  149.7520 LP  0  0  0  0  0  0  0  0  0  0  0  0  # atno 17371 bound_to 10713
  140.0023  135.0023  157.0216 LP  0  0  0  0  0  0  0  0  0  0  0  0  # atno 17394 bound_to 11000
  140.4744  134.1354  155.7207 LP  0  0  0  0  0  0  0  0  0  0  0  0  # atno 17395 bound_to 11000

$$$$
