#       Name:                AV-unprocessed.smi:34
#       Creating user name   scv26
#       Creation time:       Thu Mar 26 15:56:36 2020


#       File generated by GOLD software.
#

@<TRIPOS>MOLECULE
AV-unprocessed.smi:34
    66    70     1
SMALL
NO_CHARGES


@<TRIPOS>ATOM
      1 ****        -3.9902  -0.9506   1.8532 O.2            1 S1                 0.0000
      2 ****        -4.3095  -0.7936   0.6728 C.2            1 S1                 0.0000
      3 ****        -3.5070  -0.4590  -0.3695 N.pl3          1 S1                -1.0000
      4 ****        -2.1876  -0.3069  -0.1777 C.ar           1 S1                 0.0000
      5 ****        -1.6563   0.9327  -0.0233 N.ar           1 S1                 0.0000
      6 ****        -0.3400   1.0852   0.1614 C.ar           1 S1                 0.0000
      7 ****         0.6124   0.1502   0.2191 N.ar           1 S1                 0.0000
      8 ****         0.0949  -1.1018   0.0572 C.ar           1 S1                 0.0000
      9 ****        -1.2833  -1.4044  -0.1472 C.ar           1 S1                 0.0000
     10 ****        -1.4735  -2.7723  -0.2768 N.2            1 S1                 0.0000
     11 ****        -0.2310  -3.2299  -0.1442 C.2            1 S1                 0.0000
     12 ****         0.7482  -2.3260   0.0571 N.pl3          1 S1                 0.0000
     13 ****         2.2072  -2.6124   0.2377 C.3            1 S1                 0.0000
     14 ****         2.9662  -1.5518  -0.2662 O.3            1 S1                 0.0000
     15 ****         4.0477  -1.2274   0.6132 C.3            1 S1                 0.0000
     16 ****         3.7916   0.1582   1.2276 C.3            1 S1                 0.0000
     17 ****         3.8566   1.1373   0.2034 O.3            1 S1                 0.0000
     18 ****         3.4277   2.3923   0.4401 C.2            1 S1                 0.0000
     19 ****         3.0130   2.7779   1.5352 O.2            1 S1                 0.0000
     20 ****         3.5038   3.2674  -0.7650 C.ar           1 S1                 0.0000
     21 ****         3.1208   4.6250  -0.6610 C.ar           1 S1                 0.0000
     22 ****         3.1776   5.4742  -1.7833 C.ar           1 S1                 0.0000
     23 ****         3.6162   4.9755  -3.0237 C.ar           1 S1                 0.0000
     24 ****         3.9993   3.6266  -3.1404 C.ar           1 S1                 0.0000
     25 ****         3.9443   2.7761  -2.0189 C.ar           1 S1                 0.0000
     26 ****         4.0565  -2.3661   1.6387 C.3            1 S1                 0.0000
     27 ****         4.5799  -2.0552   2.8261 F              1 S1                 0.0000
     28 ****         2.6085  -2.8141   1.7046 C.3            1 S1                 0.0000
     29 ****         1.8392  -2.0443   2.6121 O.3            1 S1                 0.0000
     30 ****        -5.7614  -0.9144   0.2920 C.ar           1 S1                 0.0000
     31 ****        -6.7609  -0.4990   1.2016 C.ar           1 S1                 0.0000
     32 ****        -8.1252  -0.6274   0.8754 C.ar           1 S1                 0.0000
     33 ****        -8.5056  -1.1823  -0.3606 C.ar           1 S1                 0.0000
     34 ****        -7.5203  -1.6123  -1.2689 C.ar           1 S1                 0.0000
     35 ****        -6.1558  -1.4840  -0.9437 C.ar           1 S1                 0.0000
     36 ****         0.0004   2.1033   0.2794 H              1 S1                 0.0000
     37 ****        -0.0197  -4.2880  -0.1929 H              1 S1                 0.0000
     38 ****         2.3961  -3.4977  -0.3712 H              1 S1                 0.0000
     39 ****         4.9874  -1.2118   0.0599 H              1 S1                 0.0000
     40 ****         2.8228   0.1867   1.7257 H              1 S1                 0.0000
     41 ****         4.5493   0.3850   1.9784 H              1 S1                 0.0000
     42 ****         2.7786   5.0294   0.2807 H              1 S1                 0.0000
     43 ****         2.8831   6.5091  -1.6917 H              1 S1                 0.0000
     44 ****         3.6580   5.6260  -3.8846 H              1 S1                 0.0000
     45 ****         4.3354   3.2423  -4.0922 H              1 S1                 0.0000
     46 ****         4.2423   1.7453  -2.1435 H              1 S1                 0.0000
     47 ****         4.6598  -3.1859   1.2464 H              1 S1                 0.0000
     48 ****         2.5139  -3.8667   1.9732 H              1 S1                 0.0000
     49 ****         0.9307  -2.2884   2.5203 H              1 S1                 0.0000
     50 ****        -6.4862  -0.0736   2.1560 H              1 S1                 0.0000
     51 ****        -8.8800  -0.3014   1.5755 H              1 S1                 0.0000
     52 ****        -9.5515  -1.2815  -0.6104 H              1 S1                 0.0000
     53 ****        -7.8101  -2.0446  -2.2151 H              1 S1                 0.0000
     54 ****        -5.4163  -1.8303  -1.6512 H              1 S1                 0.0000
     55 ****        -3.0380  -0.8296   2.1339 LP             1 S1                 0.0000
     56 ****        -4.6833  -1.1989   2.5299 LP             1 S1                 0.0000
     57 ****        -3.8988  -0.3259  -1.2799 LP             1 S1                 0.0000
     58 ****        -2.2516   1.7358  -0.0477 LP             1 S1                 0.0000
     59 ****         1.5829   0.3437   0.3629 LP             1 S1                 0.0000
     60 ****        -2.3210  -3.2806  -0.4296 LP             1 S1                 0.0000
     61 ****         2.3780  -0.7498  -0.3699 LP             1 S1                 0.0000
     62 ****         3.3371  -1.8107  -1.1581 LP             1 S1                 0.0000
     63 ****         2.9820   2.1453   2.3091 LP             1 S1                 0.0000
     64 ****         2.7077   3.7232   1.6496 LP             1 S1                 0.0000
     65 ****         1.9492  -1.0719   2.4064 LP             1 S1                 0.0000
     66 ****         2.1433  -2.2235   3.5477 LP             1 S1                 0.0000
@<TRIPOS>BOND
    1    1    2 2     
    2    2    3 1     
    3    2   30 1     
    4    3    4 1     
    5    4    9 ar    
    6    4    5 ar    
    7    5    6 ar    
    8    6    7 ar    
    9    6   36 1     
   10    7    8 ar    
   11    8   12 1     
   12    8    9 ar    
   13    9   10 1     
   14   10   11 2     
   15   11   12 1     
   16   11   37 1     
   17   12   13 1     
   18   13   28 1     
   19   13   14 1     
   20   13   38 1     
   21   14   15 1     
   22   15   16 1     
   23   15   26 1     
   24   15   39 1     
   25   16   17 1     
   26   16   40 1     
   27   16   41 1     
   28   17   18 1     
   29   18   19 2     
   30   18   20 1     
   31   20   25 ar    
   32   20   21 ar    
   33   21   22 ar    
   34   21   42 1     
   35   22   23 ar    
   36   22   43 1     
   37   23   24 ar    
   38   23   44 1     
   39   24   25 ar    
   40   24   45 1     
   41   25   46 1     
   42   26   27 1     
   43   26   28 1     
   44   26   47 1     
   45   28   29 1     
   46   28   48 1     
   47   29   49 1     
   48   30   35 ar    
   49   30   31 ar    
   50   31   32 ar    
   51   31   50 1     
   52   32   33 ar    
   53   32   51 1     
   54   33   34 ar    
   55   33   52 1     
   56   34   35 ar    
   57   34   53 1     
   58   35   54 1     
   59    1   55 1     
   60    1   56 1     
   61    3   57 1     
   62    5   58 1     
   63    7   59 1     
   64   10   60 1     
   65   14   61 1     
   66   14   62 1     
   67   19   63 1     
   68   19   64 1     
   69   29   65 1     
   70   29   66 1     
@<TRIPOS>SUBSTRUCTURE
      1 S1             1
@<TRIPOS>SET
LONE_PAIRS      STATIC     ATOMS    <user>   **** ""
12 55 56 57 58 59 60 61 62 63 64 65 66
DONOR_HYDROGENS      STATIC     ATOMS    <user>   **** ""
1 49
ATOM$BLUE        STATIC     ATOMS    COLORGROUP SYSTEM
12 55 56 57 58 59 60 61 62 63 64 65 66
ATOM$RED        STATIC     ATOMS    COLORGROUP SYSTEM
1 49
