AV-unprocessed.smi:3336|AV-procd|sdf|12854|dock3
  -GOLD-   2272019243D 1   1.00000     0.00000
 Structure written by MMmdl.
 42 43  0  0  0  0  0  0  0  0  2 V2000
  143.6277  137.1705  152.8707 C   0  0  0  0  0  0  0  0  0  0  0  0
  145.1676  137.2213  152.8683 C   0  0  1  0  0  0  0  0  0  0  0  0
  145.7660  136.7872  151.5144 C   0  0  0  0  0  0  0  0  0  0  0  0
  145.4322  135.4201  151.1560 N   0  0  0  0  0  0  0  0  0  0  0  0
  146.2491  134.3087  151.1512 C   0  0  0  0  0  0  0  0  0  0  0  0
  145.4880  133.2473  150.7528 C   0  0  0  0  0  0  0  0  0  0  0  0
  144.1999  133.8144  150.5422 C   0  0  0  0  0  0  0  0  0  0  0  0
  144.1694  135.1146  150.7872 N   0  0  0  0  0  0  0  0  0  0  0  0
  145.6509  138.5826  153.2008 N   0  3  0  0  0  0  0  0  0  0  0  0
  145.8667  138.8679  154.6412 C   0  0  2  0  0  0  0  0  0  0  0  0
  144.5011  138.9849  155.3389 C   0  0  0  0  0  0  0  0  0  0  0  0
  146.6865  140.1605  154.8485 C   0  0  0  0  0  0  0  0  0  0  0  0
  146.1603  141.0826  155.4747 O   0  0  0  0  0  0  0  0  0  0  0  0
  147.9462  140.2590  154.3542 N   0  0  0  0  0  0  0  0  0  0  0  0
  148.7660  141.4663  154.5061 C   0  0  0  0  0  0  0  0  0  0  0  0
  150.0037  141.1180  155.3503 C   0  0  0  0  0  0  0  0  0  0  0  0
  150.7335  140.0723  154.7149 O   0  0  0  0  0  0  0  0  0  0  0  0
  149.9620  138.8889  154.5306 C   0  0  0  0  0  0  0  0  0  0  0  0
  148.7154  139.2041  153.6828 C   0  0  0  0  0  0  0  0  0  0  0  0
  143.2627  136.1617  152.6761 H   0  0  0  0  0  0  0  0  0  0  0  0
  143.2101  137.8260  152.1058 H   0  0  0  0  0  0  0  0  0  0  0  0
  143.2120  137.4755  153.8305 H   0  0  0  0  0  0  0  0  0  0  0  0
  145.5355  136.5299  153.6277 H   0  0  0  0  0  0  0  0  0  0  0  0
  145.4175  137.4468  150.7182 H   0  0  0  0  0  0  0  0  0  0  0  0
  146.8534  136.8742  151.5372 H   0  0  0  0  0  0  0  0  0  0  0  0
  147.2922  134.3640  151.4264 H   0  0  0  0  0  0  0  0  0  0  0  0
  145.8022  132.2210  150.6336 H   0  0  0  0  0  0  0  0  0  0  0  0
  143.2925  133.3234  150.2222 H   0  0  0  0  0  0  0  0  0  0  0  0
  146.5380  138.7243  152.7380 H   0  0  0  0  0  0  0  0  0  0  0  0
  146.4020  138.0155  155.0546 H   0  0  0  0  0  0  0  0  0  0  0  0
  144.6050  139.1614  156.4095 H   0  0  0  0  0  0  0  0  0  0  0  0
  143.9233  138.0680  155.2182 H   0  0  0  0  0  0  0  0  0  0  0  0
  143.9106  139.8040  154.9261 H   0  0  0  0  0  0  0  0  0  0  0  0
  149.0713  141.8209  153.5205 H   0  0  0  0  0  0  0  0  0  0  0  0
  148.2295  142.2952  154.9694 H   0  0  0  0  0  0  0  0  0  0  0  0
  150.6500  141.9899  155.4505 H   0  0  0  0  0  0  0  0  0  0  0  0
  149.7152  140.8146  156.3579 H   0  0  0  0  0  0  0  0  0  0  0  0
  150.5785  138.1405  154.0321 H   0  0  0  0  0  0  0  0  0  0  0  0
  149.6802  138.4751  155.4999 H   0  0  0  0  0  0  0  0  0  0  0  0
  148.1634  138.2824  153.5174 H   0  0  0  0  0  0  0  0  0  0  0  0
  149.0152  139.5537  152.6937 H   0  0  0  0  0  0  0  0  0  0  0  0
  144.9876  139.2475  152.8299 H   0  0  0  0  0  0  0  0  0  0  0  0
  1  2  1  0  0  0  0
  1 20  1  0  0  0  0
  1 21  1  0  0  0  0
  1 22  1  0  0  0  0
  2  3  1  0  0  0  0
  2  9  1  0  0  0  0
  2 23  1  0  0  0  0
  3  4  1  0  0  0  0
  3 24  1  0  0  0  0
  3 25  1  0  0  0  0
  4  8  1  0  0  0  0
  4  5  1  0  0  0  0
  5  6  2  0  0  0  0
  5 26  1  0  0  0  0
  6  7  1  0  0  0  0
  6 27  1  0  0  0  0
  7  8  2  0  0  0  0
  7 28  1  0  0  0  0
  9 10  1  0  0  0  0
  9 29  1  0  0  0  0
  9 42  1  0  0  0  0
 10 11  1  0  0  0  0
 10 12  1  0  0  0  0
 10 30  1  0  0  0  0
 11 31  1  0  0  0  0
 11 32  1  0  0  0  0
 11 33  1  0  0  0  0
 12 13  2  0  0  0  0
 12 14  1  0  0  0  0
 14 19  1  0  0  0  0
 14 15  1  0  0  0  0
 15 16  1  0  0  0  0
 15 34  1  0  0  0  0
 15 35  1  0  0  0  0
 16 17  1  0  0  0  0
 16 36  1  0  0  0  0
 16 37  1  0  0  0  0
 17 18  1  0  0  0  0
 18 19  1  0  0  0  0
 18 38  1  0  0  0  0
 18 39  1  0  0  0  0
 19 40  1  0  0  0  0
 19 41  1  0  0  0  0
M  CHG  1   9   1
M  END
> <s_m_source_file>
AV-unprocessed.smi

> <i_m_source_file_index>
3336

> <i_lp_mmshare_version>
43012

> <i_f3d_flags>
0

> <s_epik_input>
bjFbY0hdW2NIXVtjSF1uMVtDSDJdW0NAQEhdKFtDSDNdKVtOSF1bQ0BIXShbQ0gzXSlDKD1PKU4yW0NIMl1bQ0gyXU9bQ0gyXVtDSDJdMg==

> <s_epik_cmdline>
J2VwaWtfcHl0aG9uJywgJy1waCcsICc3LjAnLCAnLXRuJywgJzgnLCAnLW1hJywgJzIwMCcsICctbWV0YWxfYmluZGluZycsICctaW1hZScsICc8aW5maWxlLm1hZT4nLCAnLW9tYWUnLCAnPG91dGZpbGUubWFlPic=

> <r_lp_tautomer_probability>
1

> <r_epik_Ionization_Penalty>
0.200288

> <r_epik_Ionization_Penalty_Charging>
0.200285

> <r_epik_Ionization_Penalty_Neutral>
3.37705e-06

> <r_epik_State_Penalty>
0.190126

> <r_epik_Charging_Adjusted_Penalty>
0.39041

> <i_epik_Tot_Q>
1

> <i_epik_Tot_abs_Q>
1

> <r_epik_Metal_State_Penalty>
0.190133

> <b_epik_Metal_Only>
0

> <s_lp_Force_Field>
OPLS_2005

> <r_lp_Energy>
27.5118

> <b_lp_Chiralities_Consistent>
1

> <s_lp_Variant>
AV-unprocessed.smi:3336-2

> <Gold.Version>
5.8.1

> <Gold.Id.Protein>
6NUR|6NUR_protein|mol2

> <Gold.PLP.Fitness>
42.9920

> <Gold.PLP.PLP>
-29.2651

> <Gold.PLP.part.hbond>
-2.0000

> <Gold.PLP.part.metal>
0.0000

> <Gold.PLP.part.buried>
-0.4790

> <Gold.PLP.part.nonpolar>
-27.5106

> <Gold.PLP.part.repulsive>
0.3925

> <Gold.PLP.ligand.clash>
0.0000

> <Gold.PLP.ligand.torsion>
0.6397

> <Gold.PLP.Chemscore.Hbond>
3.0000

> <Gold.PLP.Chemscore.CHOScore>
1.9746

> <Gold.PLP.Chemscore.Metal>
0.0000

> <Gold.Chemscore.Hbonds>
donor molecule, donor type, donor heavy atom, donor atom, acceptor molecule, acceptor atom, score
      L1  H     9    42       P1 10175  2.00
      P1  H  7989  7998       L1    17  1.00
      L1  C     5    26       P1  7948  1.00
      L1  C     7    28       P1 10186  0.74

> <Gold.PLP.Chemscore.Internal.Correction>
0.0824

> <Gold.Rescore>
     Score         DG    S(hbond)    S(metal)    S(lipo)     H(rot)  DE(clash)    DE(int)     intcor
     13.16     -14.02       1.85        0.00      60.89       1.85       0.11       0.76       ----

> <Gold.Chemscore.Fitness>
13.1601

> <Gold.Chemscore.DG>
-14.0241

> <Gold.Chemscore.ZeroCoef>
-5.4800

> <Gold.Chemscore.Hbond>
1.8462

> <Gold.Chemscore.Metal>
0.0000

> <Gold.Chemscore.Lipo>
60.8909

> <Gold.Chemscore.Internal_Hbond>
0.0000

> <Gold.Chemscore.DEClash>
0.1066

> <Gold.Chemscore.DEInternal>
0.7574

> <Gold.Chemscore.Rot>
1.8541

> <Gold.Chemscore.Internal.Correction>
   9.000000E+99

> <Gold.Chemscore.Hbonds>
donor molecule, donor type, donor heavy atom, donor atom, acceptor molecule, acceptor atom, score
      L1  H     9    42       P1 10175  1.00
      P1  H  7989  7998       L1    17  0.45

> <Gold.Chemscore.Hbond.Weighted>
-6.1664

> <Gold.Chemscore.Metal.Weighted>
-0.0000

> <Gold.Chemscore.Lipo.Weighted>
-7.1242

> <Gold.Chemscore.Internal_Hbond.Weighted>
0.0000

> <Gold.Chemscore.DEClash.Weighted>
0.1066

> <Gold.Chemscore.DEInternal.Weighted>
0.7574

> <Gold.Chemscore.Rot.Weighted>
4.7465

> <Gold.Chemscore.Internal.Correction.Weighted>
   9.000000E+99

> <Gold.Protein.RotatedTorsions>
[ 6907 6896 6895 6894 ] final  134.54 input  -60.11 | X-H torsion
[ 7974 7965 7964 7962 ] final -148.45 input  175.53 | X-H torsion
[ 8008 7997 7996 7995 ] final   93.51 input   59.86 | X-H torsion
[ 10167 10162 10161 10158 ] final -170.59 input  -65.29 | X-H torsion
[ 10718 10713 10712 10709 ] final  173.28 input   66.30 | X-H torsion
[ 10763 10752 10751 10750 ] final   53.92 input  -60.55 | X-H torsion
[ 11005 11000 10999 10996 ] final  120.38 input  -57.11 | X-H torsion

> <Gold.Protein.ActiveResidues>
 VAL166  LYS551  ARG553  GLY616  TRP617  ASP618  TYR619  PRO620  LYS621  CYS622 
 ASP623  PHE694  ASN695  SER759  ASP760  ASP761  ALA762  ILE779  LEU786  VAL792 
 PHE793  MET794  SER795  GLU796  ALA797  LYS798  CYS799  TRP800  GLU811  SER814 

> <Gold.Protein.RotatedAtoms>
  152.3102  133.5745  159.5675 H   0  0  0  0  0  0  0  0  0  0  0  0  # atno 6907 bound_to 6896
  150.7319  134.0163  159.3695 H   0  0  0  0  0  0  0  0  0  0  0  0  # atno 6908 bound_to 6896
  151.8056  135.0696  160.0457 H   0  0  0  0  0  0  0  0  0  0  0  0  # atno 6909 bound_to 6896
  144.8028  140.5194  143.5695 H   0  0  0  0  0  0  0  0  0  0  0  0  # atno 7974 bound_to 7965
  156.0476  140.3312  155.7314 H   0  0  0  0  0  0  0  0  0  0  0  0  # atno 8008 bound_to 7997
  155.5650  140.0622  157.2837 H   0  0  0  0  0  0  0  0  0  0  0  0  # atno 8009 bound_to 7997
  154.4421  140.1871  156.0809 H   0  0  0  0  0  0  0  0  0  0  0  0  # atno 8010 bound_to 7997
  139.5852  144.1334  152.1566 H   0  0  0  0  0  0  0  0  0  0  0  0  # atno 10167 bound_to 10162
  156.9667  131.0077  151.2915 H   0  0  0  0  0  0  0  0  0  0  0  0  # atno 10718 bound_to 10713
  152.9799  135.5762  154.4820 H   0  0  0  0  0  0  0  0  0  0  0  0  # atno 10763 bound_to 10752
  154.4367  135.2775  155.1877 H   0  0  0  0  0  0  0  0  0  0  0  0  # atno 10764 bound_to 10752
  154.3562  135.6198  153.5721 H   0  0  0  0  0  0  0  0  0  0  0  0  # atno 10765 bound_to 10752
  139.9183  134.9634  156.7799 H   0  0  0  0  0  0  0  0  0  0  0  0  # atno 11005 bound_to 11000
  145.5510  139.1477  143.3394 LP  0  0  0  0  0  0  0  0  0  0  0  0  # atno 17320 bound_to 7965
  146.2314  140.5648  142.8974 LP  0  0  0  0  0  0  0  0  0  0  0  0  # atno 17321 bound_to 7965
  140.0896  144.5632  150.7064 LP  0  0  0  0  0  0  0  0  0  0  0  0  # atno 17342 bound_to 10162
  140.7125  143.2517  151.4537 LP  0  0  0  0  0  0  0  0  0  0  0  0  # atno 17343 bound_to 10162
  157.5621  130.8253  149.8279 LP  0  0  0  0  0  0  0  0  0  0  0  0  # atno 17370 bound_to 10713
  156.0300  130.3767  150.1715 LP  0  0  0  0  0  0  0  0  0  0  0  0  # atno 17371 bound_to 10713
  140.6553  133.9694  155.7776 LP  0  0  0  0  0  0  0  0  0  0  0  0  # atno 17394 bound_to 11000
  141.0680  134.0247  157.3566 LP  0  0  0  0  0  0  0  0  0  0  0  0  # atno 17395 bound_to 11000

$$$$
