#       Name:                AV-unprocessed.smi:1047
#       Creating user name   scv26
#       Creation time:       Fri Mar 27 03:02:13 2020


#       File generated by GOLD software.
#

@<TRIPOS>MOLECULE
AV-unprocessed.smi:1047
    62    64     1
SMALL
NO_CHARGES


@<TRIPOS>ATOM
      1 ****        -6.0242   2.5144   1.0288 C.3            1 S1                 0.0000
      2 ****        -5.0115   3.5891   0.6078 C.3            1 S1                 0.0000
      3 ****        -3.6946   3.4741   1.2327 N.3            1 S1                 0.0000
      4 ****        -2.8803   4.6514   0.9530 C.3            1 S1                 0.0000
      5 ****        -1.4887   4.5520   1.5985 C.3            1 S1                 0.0000
      6 ****        -0.8418   3.3667   1.1476 O.3            1 S1                 0.0000
      7 ****        -1.5749   2.1818   1.4496 C.3            1 S1                 0.0000
      8 ****        -0.7817   0.9805   0.9183 C.3            1 S1                 0.0000
      9 ****         0.4846   0.8061   1.6570 N.4            1 S1                 1.0000
     10 ****         1.3139  -0.3105   1.1632 C.3            1 S1                 0.0000
     11 ****         2.6182  -0.4477   1.9706 C.3            1 S1                 0.0000
     12 ****         3.4366   0.6762   1.7091 O.3            1 S1                 0.0000
     13 ****         3.4093  -1.7355   1.6505 C.3            1 S1                 0.0000
     14 ****         3.7586  -1.8696   0.2450 N.pl3          1 S1                 0.0000
     15 ****         4.8626  -1.3959  -0.3651 C.2            1 S1                 0.0000
     16 ****         4.9806  -1.6185  -1.6705 N.2            1 S1                 0.0000
     17 ****         3.8240  -2.3299  -1.9384 C.ar           1 S1                 0.0000
     18 ****         3.3374  -2.8656  -3.1510 C.ar           1 S1                 0.0000
     19 ****         2.1093  -3.5631  -3.1942 C.ar           1 S1                 0.0000
     20 ****         1.6204  -4.1160  -4.5213 C.3            1 S1                 0.0000
     21 ****         1.3497  -3.7382  -2.0097 C.ar           1 S1                 0.0000
     22 ****         0.0272  -4.4843  -2.0322 C.3            1 S1                 0.0000
     23 ****         1.8226  -3.2122  -0.7895 C.ar           1 S1                 0.0000
     24 ****         3.0420  -2.5121  -0.7603 C.ar           1 S1                 0.0000
     25 ****        -2.9696   2.2823   0.7984 C.3            1 S1                 0.0000
     26 ****        -7.0075   2.7323   0.6116 H              1 S1                 0.0000
     27 ****        -6.1272   2.4744   2.1136 H              1 S1                 0.0000
     28 ****        -5.7378   1.5230   0.6786 H              1 S1                 0.0000
     29 ****        -4.9093   3.5870  -0.4786 H              1 S1                 0.0000
     30 ****        -5.4394   4.5585   0.8663 H              1 S1                 0.0000
     31 ****        -2.7688   4.7768  -0.1253 H              1 S1                 0.0000
     32 ****        -3.3837   5.5468   1.3198 H              1 S1                 0.0000
     33 ****        -0.8817   5.4155   1.3266 H              1 S1                 0.0000
     34 ****        -1.5661   4.5423   2.6868 H              1 S1                 0.0000
     35 ****        -1.6879   2.0912   2.5316 H              1 S1                 0.0000
     36 ****        -1.3735   0.0704   1.0251 H              1 S1                 0.0000
     37 ****        -0.5748   1.1070  -0.1453 H              1 S1                 0.0000
     38 ****         1.0217   1.6584   1.5776 H              1 S1                 0.0000
     39 ****         0.7325  -1.2290   1.2498 H              1 S1                 0.0000
     40 ****         1.5269  -0.1635   0.1032 H              1 S1                 0.0000
     41 ****         2.3824  -0.4483   3.0356 H              1 S1                 0.0000
     42 ****         3.6990   0.6550   0.8011 H              1 S1                 0.0000
     43 ****         4.3271  -1.7702   2.2394 H              1 S1                 0.0000
     44 ****         2.8278  -2.6104   1.9429 H              1 S1                 0.0000
     45 ****         5.6183  -0.8477   0.1790 H              1 S1                 0.0000
     46 ****         3.9168  -2.7333  -4.0529 H              1 S1                 0.0000
     47 ****         1.4792  -5.1953  -4.4589 H              1 S1                 0.0000
     48 ****         2.3337  -3.9190  -5.3220 H              1 S1                 0.0000
     49 ****         0.6710  -3.6570  -4.7986 H              1 S1                 0.0000
     50 ****        -0.4196  -4.5336  -1.0388 H              1 S1                 0.0000
     51 ****         0.1702  -5.5060  -2.3845 H              1 S1                 0.0000
     52 ****        -0.6815  -3.9854  -2.6937 H              1 S1                 0.0000
     53 ****         1.2526  -3.3405   0.1184 H              1 S1                 0.0000
     54 ****        -3.5370   1.3866   1.0503 H              1 S1                 0.0000
     55 ****        -2.8647   2.2904  -0.2879 H              1 S1                 0.0000
     56 ****         0.2738   0.6486   2.6321 H              1 S1                 0.0000
     57 ****        -3.8598   3.3989   2.2161 LP             1 S1                 0.0000
     58 ****         0.0550   3.3068   1.5859 LP             1 S1                 0.0000
     59 ****        -0.7250   3.4250   0.1561 LP             1 S1                 0.0000
     60 ****         4.2468   0.6460   2.2944 LP             1 S1                 0.0000
     61 ****         2.9244   1.5154   1.8919 LP             1 S1                 0.0000
     62 ****         5.7123  -1.3442  -2.2945 LP             1 S1                 0.0000
@<TRIPOS>BOND
    1    1    2 1     
    2    1   26 1     
    3    1   27 1     
    4    1   28 1     
    5    2    3 1     
    6    2   29 1     
    7    2   30 1     
    8    3   25 1     
    9    3    4 1     
   10    4    5 1     
   11    4   31 1     
   12    4   32 1     
   13    5    6 1     
   14    5   33 1     
   15    5   34 1     
   16    6    7 1     
   17    7    8 1     
   18    7   25 1     
   19    7   35 1     
   20    8    9 1     
   21    8   36 1     
   22    8   37 1     
   23    9   10 1     
   24    9   38 1     
   25    9   56 1     
   26   10   11 1     
   27   10   39 1     
   28   10   40 1     
   29   11   12 1     
   30   11   13 1     
   31   11   41 1     
   32   12   42 1     
   33   13   14 1     
   34   13   43 1     
   35   13   44 1     
   36   14   24 1     
   37   14   15 1     
   38   15   16 2     
   39   15   45 1     
   40   16   17 1     
   41   17   24 ar    
   42   17   18 ar    
   43   18   19 ar    
   44   18   46 1     
   45   19   20 1     
   46   19   21 ar    
   47   20   47 1     
   48   20   48 1     
   49   20   49 1     
   50   21   22 1     
   51   21   23 ar    
   52   22   50 1     
   53   22   51 1     
   54   22   52 1     
   55   23   24 ar    
   56   23   53 1     
   57   25   54 1     
   58   25   55 1     
   59    3   57 1     
   60    6   58 1     
   61    6   59 1     
   62   12   60 1     
   63   12   61 1     
   64   16   62 1     
@<TRIPOS>SUBSTRUCTURE
      1 S1             1
@<TRIPOS>SET
LONE_PAIRS      STATIC     ATOMS    <user>   **** ""
6 57 58 59 60 61 62
DONOR_HYDROGENS      STATIC     ATOMS    <user>   **** ""
3 38 56 42
ATOM$BLUE        STATIC     ATOMS    COLORGROUP SYSTEM
6 57 58 59 60 61 62
ATOM$RED        STATIC     ATOMS    COLORGROUP SYSTEM
3 38 56 42
