#       Name:                AV-unprocessed.smi:1341
#       Creating user name   scv26
#       Creation time:       Fri Mar 27 05:08:57 2020


#       File generated by GOLD software.
#

@<TRIPOS>MOLECULE
AV-unprocessed.smi:1341
    40    41     1
SMALL
NO_CHARGES


@<TRIPOS>ATOM
      1 ****        -4.9353   1.7809  -0.2112 C.2            1 S1                 0.0000
      2 ****        -3.9696   1.7265   0.7212 C.2            1 S1                 0.0000
      3 ****        -3.7015   0.5510   1.6399 C.3            1 S1                 0.0000
      4 ****        -2.3587  -0.0078   1.5211 N.pl3          1 S1                -1.0000
      5 ****        -2.0776  -1.2697   1.0812 C.2            1 S1                 0.0000
      6 ****        -2.8543  -2.1702   0.7441 O.2            1 S1                 0.0000
      7 ****        -0.5917  -1.5393   1.0151 C.ar           1 S1                 0.0000
      8 ****         0.2121  -0.5359   0.5797 N.ar           1 S1                 0.0000
      9 ****         1.5281  -0.7509   0.4871 C.ar           1 S1                 0.0000
     10 ****         2.3266   0.3047   0.0285 N.pl3          1 S1                 0.0000
     11 ****         3.6313   0.0657  -0.5859 C.3            1 S1                 0.0000
     12 ****         3.4722  -0.0005  -2.1161 C.3            1 S1                 0.0000
     13 ****         2.8832   1.2101  -2.5882 O.3            1 S1                 0.0000
     14 ****         1.6043   1.4614  -2.0080 C.3            1 S1                 0.0000
     15 ****         1.7456   1.5476  -0.4776 C.3            1 S1                 0.0000
     16 ****         2.1390  -1.9004   0.7953 N.ar           1 S1                 0.0000
     17 ****         1.3680  -2.9156   1.2358 C.ar           1 S1                 0.0000
     18 ****        -0.0286  -2.7948   1.3696 C.ar           1 S1                 0.0000
     19 ****        -0.9428  -4.1348   1.9745 Cl             1 S1                 0.0000
     20 ****        -5.6194   0.9616  -0.3853 H              1 S1                 0.0000
     21 ****        -5.0532   2.6628  -0.8230 H              1 S1                 0.0000
     22 ****        -3.3163   2.5777   0.8455 H              1 S1                 0.0000
     23 ****        -3.8761   0.9069   2.6552 H              1 S1                 0.0000
     24 ****        -4.4811  -0.1933   1.4696 H              1 S1                 0.0000
     25 ****         4.2960   0.8885  -0.3209 H              1 S1                 0.0000
     26 ****         4.1119  -0.8384  -0.2136 H              1 S1                 0.0000
     27 ****         4.4448  -0.1292  -2.5910 H              1 S1                 0.0000
     28 ****         2.8583  -0.8544  -2.4071 H              1 S1                 0.0000
     29 ****         1.2132   2.3983  -2.4043 H              1 S1                 0.0000
     30 ****         0.9021   0.6754  -2.2909 H              1 S1                 0.0000
     31 ****         0.7867   1.7794  -0.0137 H              1 S1                 0.0000
     32 ****         2.4080   2.3735  -0.2163 H              1 S1                 0.0000
     33 ****         1.8738  -3.8353   1.4898 H              1 S1                 0.0000
     34 ****        -1.5888   0.5753   1.7805 LP             1 S1                 0.0000
     35 ****        -3.8419  -2.0163   0.7751 LP             1 S1                 0.0000
     36 ****        -2.4950  -3.0527   0.4403 LP             1 S1                 0.0000
     37 ****        -0.1750   0.3521   0.3316 LP             1 S1                 0.0000
     38 ****         2.7781   1.1491  -3.5808 LP             1 S1                 0.0000
     39 ****         3.4918   1.9711  -2.3636 LP             1 S1                 0.0000
     40 ****         3.1294  -2.0031   0.7026 LP             1 S1                 0.0000
@<TRIPOS>BOND
    1    1    2 2     
    2    1   20 1     
    3    1   21 1     
    4    2    3 1     
    5    2   22 1     
    6    3    4 1     
    7    3   23 1     
    8    3   24 1     
    9    4    5 1     
   10    5    6 2     
   11    5    7 1     
   12    7   18 ar    
   13    7    8 ar    
   14    8    9 ar    
   15    9   10 1     
   16    9   16 ar    
   17   10   15 1     
   18   10   11 1     
   19   11   12 1     
   20   11   25 1     
   21   11   26 1     
   22   12   13 1     
   23   12   27 1     
   24   12   28 1     
   25   13   14 1     
   26   14   15 1     
   27   14   29 1     
   28   14   30 1     
   29   15   31 1     
   30   15   32 1     
   31   16   17 ar    
   32   17   18 ar    
   33   17   33 1     
   34   18   19 1     
   35    4   34 1     
   36    6   35 1     
   37    6   36 1     
   38    8   37 1     
   39   13   38 1     
   40   13   39 1     
   41   16   40 1     
@<TRIPOS>SUBSTRUCTURE
      1 S1             1
@<TRIPOS>SET
LONE_PAIRS      STATIC     ATOMS    <user>   **** ""
7 34 35 36 37 38 39 40
ATOM$BLUE        STATIC     ATOMS    COLORGROUP SYSTEM
7 34 35 36 37 38 39 40
