#       Name:                AV-unprocessed.smi:862
#       Creating user name   scv26
#       Creation time:       Fri Mar 27 01:46:08 2020


#       File generated by GOLD software.
#

@<TRIPOS>MOLECULE
AV-unprocessed.smi:862
    47    49     1
SMALL
NO_CHARGES


@<TRIPOS>ATOM
      1 ****        -4.3866  -3.5124   1.4690 N.am           1 S1                 0.0000
      2 ****        -4.0349  -3.0671   0.2589 C.2            1 S1                 0.0000
      3 ****        -4.1547  -3.7788  -0.7367 O.2            1 S1                 0.0000
      4 ****        -3.5902  -1.7855   0.2195 N.am           1 S1                 0.0000
      5 ****        -3.1704  -0.9763   1.3759 C.3            1 S1                 0.0000
      6 ****        -1.6348  -0.8598   1.3723 C.3            1 S1                 0.0000
      7 ****        -1.1231  -0.2559   0.0439 C.3            1 S1                 0.0000
      8 ****         0.3556  -0.2804  -0.0295 N.4            1 S1                 1.0000
      9 ****         1.0514   0.9615   0.3835 C.3            1 S1                 0.0000
     10 ****         1.0144   1.2118   1.8938 C.3            1 S1                 0.0000
     11 ****         2.1864   2.1608   2.1652 C.3            1 S1                 0.0000
     12 ****         3.1988   1.9360   1.0312 C.3            1 S1                 0.0000
     13 ****         2.5580   0.9044   0.0857 C.3            1 S1                 0.0000
     14 ****         2.9000   1.1090  -1.3318 N.pl3          1 S1                 0.0000
     15 ****         3.5403   0.2198  -2.1578 C.2            1 S1                 0.0000
     16 ****         3.6508   0.8279  -3.3818 C.2            1 S1                 0.0000
     17 ****         3.0740   2.0625  -3.2545 N.pl3          1 S1                 1.0000
     18 ****         2.6180   2.2321  -2.0094 C.2            1 S1                 0.0000
     19 ****        -1.7191  -1.0154  -1.1595 C.3            1 S1                 0.0000
     20 ****        -3.2504  -1.1224  -1.0455 C.3            1 S1                 0.0000
     21 ****        -4.7354  -4.4544   1.5714 H              1 S1                 0.0000
     22 ****        -4.3120  -2.9067   2.2730 H              1 S1                 0.0000
     23 ****        -3.6196   0.0151   1.2997 H              1 S1                 0.0000
     24 ****        -3.5051  -1.3709   2.3350 H              1 S1                 0.0000
     25 ****        -1.3205  -0.2538   2.2206 H              1 S1                 0.0000
     26 ****        -1.1989  -1.8487   1.5224 H              1 S1                 0.0000
     27 ****        -1.4658   0.7780  -0.0246 H              1 S1                 0.0000
     28 ****         0.7019  -1.0632   0.5070 H              1 S1                 0.0000
     29 ****         0.6086   1.8165  -0.1300 H              1 S1                 0.0000
     30 ****         0.0655   1.6322   2.2279 H              1 S1                 0.0000
     31 ****         1.1751   0.2769   2.4332 H              1 S1                 0.0000
     32 ****         1.8390   3.1947   2.1456 H              1 S1                 0.0000
     33 ****         2.6251   1.9853   3.1482 H              1 S1                 0.0000
     34 ****         3.3978   2.8846   0.5309 H              1 S1                 0.0000
     35 ****         4.1532   1.5718   1.4137 H              1 S1                 0.0000
     36 ****         2.9307  -0.0818   0.3700 H              1 S1                 0.0000
     37 ****         3.8668  -0.7549  -1.8239 H              1 S1                 0.0000
     38 ****         4.0875   0.4845  -4.3087 H              1 S1                 0.0000
     39 ****         2.1252   3.1087  -1.6277 H              1 S1                 0.0000
     40 ****        -1.4528  -0.5117  -2.0894 H              1 S1                 0.0000
     41 ****        -1.2928  -2.0184  -1.2171 H              1 S1                 0.0000
     42 ****        -3.6548  -1.6439  -1.9143 H              1 S1                 0.0000
     43 ****        -3.7002  -0.1287  -1.0643 H              1 S1                 0.0000
     44 ****         0.5925  -0.4341  -0.9992 H              1 S1                 0.0000
     45 ****         3.0067   2.7520  -3.9932 H              1 S1                 0.0000
     46 ****        -4.5199  -4.7055  -0.6478 LP             1 S1                 0.0000
     47 ****        -3.8870  -3.4309  -1.6352 LP             1 S1                 0.0000
@<TRIPOS>BOND
    1    1    2 am    
    2    1   21 1     
    3    1   22 1     
    4    2    3 2     
    5    2    4 am    
    6    4   20 1     
    7    4    5 1     
    8    5    6 1     
    9    5   23 1     
   10    5   24 1     
   11    6    7 1     
   12    6   25 1     
   13    6   26 1     
   14    7    8 1     
   15    7   19 1     
   16    7   27 1     
   17    8    9 1     
   18    8   28 1     
   19    8   44 1     
   20    9   13 1     
   21    9   10 1     
   22    9   29 1     
   23   10   11 1     
   24   10   30 1     
   25   10   31 1     
   26   11   12 1     
   27   11   32 1     
   28   11   33 1     
   29   12   13 1     
   30   12   34 1     
   31   12   35 1     
   32   13   14 1     
   33   13   36 1     
   34   14   18 1     
   35   14   15 1     
   36   15   16 2     
   37   15   37 1     
   38   16   17 1     
   39   16   38 1     
   40   17   18 2     
   41   17   45 1     
   42   18   39 1     
   43   19   20 1     
   44   19   40 1     
   45   19   41 1     
   46   20   42 1     
   47   20   43 1     
   48    3   46 1     
   49    3   47 1     
@<TRIPOS>SUBSTRUCTURE
      1 S1             1
@<TRIPOS>SET
LONE_PAIRS      STATIC     ATOMS    <user>   **** ""
2 46 47
DONOR_HYDROGENS      STATIC     ATOMS    <user>   **** ""
5 21 22 28 44 45
ATOM$BLUE        STATIC     ATOMS    COLORGROUP SYSTEM
2 46 47
ATOM$RED        STATIC     ATOMS    COLORGROUP SYSTEM
5 21 22 28 44 45
