#       Name:                AV-unprocessed.smi:1807
#       Creating user name   scv26
#       Creation time:       Fri Mar 27 08:56:09 2020


#       File generated by GOLD software.
#

@<TRIPOS>MOLECULE
AV-unprocessed.smi:1807
    49    50     1
SMALL
NO_CHARGES


@<TRIPOS>ATOM
      1 ****         0.7358   3.2207   1.8928 C.3            1 S1                 0.0000
      2 ****        -0.7966   3.2857   2.0116 C.3            1 S1                 0.0000
      3 ****        -1.3158   2.3722   3.1412 C.3            1 S1                 0.0000
      4 ****        -2.8394   2.4884   3.3058 C.3            1 S1                 0.0000
      5 ****        -3.5688   2.1908   1.9873 C.3            1 S1                 0.0000
      6 ****        -3.0569   3.0934   0.8508 C.3            1 S1                 0.0000
      7 ****        -1.5277   2.9998   0.6739 C.3            1 S1                 0.0000
      8 ****        -1.1741   1.6882   0.1272 N.am           1 S1                 0.0000
      9 ****        -0.3513   1.4517  -0.9061 C.2            1 S1                 0.0000
     10 ****         0.2191   2.3427  -1.5379 O.2            1 S1                 0.0000
     11 ****        -0.1600  -0.0229  -1.2697 C.3            1 S1                 0.0000
     12 ****         1.0009  -0.2320  -2.1237 N.pl3          1 S1                 0.0000
     13 ****         1.3921  -1.5337  -2.4532 C.2            1 S1                 0.0000
     14 ****         2.5182  -1.7994  -3.2787 C.2            1 S1                 0.0000
     15 ****         2.5468  -3.1640  -3.3369 C.2            1 S1                 0.0000
     16 ****         1.4890  -3.6352  -2.5833 N.pl3          1 S1                 0.0000
     17 ****         1.1036  -5.0122  -2.3317 C.3            1 S1                 0.0000
     18 ****         1.8597  -5.5860  -1.1320 C.2            1 S1                 0.0000
     19 ****         2.9951  -6.2431  -1.3832 N.am           1 S1                 0.0000
     20 ****         1.4248  -5.4380   0.0079 O.2            1 S1                 0.0000
     21 ****         0.7720  -2.6277  -2.0379 N.2            1 S1                 0.0000
     22 ****         1.0828   2.2093   1.6800 H              1 S1                 0.0000
     23 ****         1.2122   3.5419   2.8192 H              1 S1                 0.0000
     24 ****         1.0956   3.8719   1.0956 H              1 S1                 0.0000
     25 ****        -1.0408   4.3114   2.2924 H              1 S1                 0.0000
     26 ****        -1.0486   1.3351   2.9344 H              1 S1                 0.0000
     27 ****        -0.8292   2.6309   4.0822 H              1 S1                 0.0000
     28 ****        -3.1828   1.8044   4.0826 H              1 S1                 0.0000
     29 ****        -3.0936   3.4935   3.6445 H              1 S1                 0.0000
     30 ****        -3.4284   1.1427   1.7203 H              1 S1                 0.0000
     31 ****        -4.6419   2.3321   2.1173 H              1 S1                 0.0000
     32 ****        -3.5614   2.8405  -0.0827 H              1 S1                 0.0000
     33 ****        -3.3278   4.1269   1.0694 H              1 S1                 0.0000
     34 ****        -1.2402   3.7736  -0.0402 H              1 S1                 0.0000
     35 ****        -1.5933   0.8880   0.5783 H              1 S1                 0.0000
     36 ****        -0.0475  -0.6053  -0.3535 H              1 S1                 0.0000
     37 ****        -1.0558  -0.3800  -1.7794 H              1 S1                 0.0000
     38 ****         1.5591   0.5628  -2.4010 H              1 S1                 0.0000
     39 ****         3.1974  -1.1039  -3.7490 H              1 S1                 0.0000
     40 ****         3.2262  -3.8328  -3.8442 H              1 S1                 0.0000
     41 ****         0.0288  -5.0607  -2.1487 H              1 S1                 0.0000
     42 ****         1.3023  -5.6039  -3.2265 H              1 S1                 0.0000
     43 ****         3.5312  -6.6370  -0.6237 H              1 S1                 0.0000
     44 ****         3.3153  -6.3406  -2.3360 H              1 S1                 0.0000
     45 ****         0.0790   3.3009  -1.2884 LP             1 S1                 0.0000
     46 ****         0.8222   2.1076  -2.3002 LP             1 S1                 0.0000
     47 ****         0.5708  -4.9395   0.1564 LP             1 S1                 0.0000
     48 ****         1.9250  -5.8162   0.7869 LP             1 S1                 0.0000
     49 ****        -0.0385  -2.6932  -1.4559 LP             1 S1                 0.0000
@<TRIPOS>BOND
    1    1    2 1     
    2    1   22 1     
    3    1   23 1     
    4    1   24 1     
    5    2    7 1     
    6    2    3 1     
    7    2   25 1     
    8    3    4 1     
    9    3   26 1     
   10    3   27 1     
   11    4    5 1     
   12    4   28 1     
   13    4   29 1     
   14    5    6 1     
   15    5   30 1     
   16    5   31 1     
   17    6    7 1     
   18    6   32 1     
   19    6   33 1     
   20    7    8 1     
   21    7   34 1     
   22    8    9 am    
   23    8   35 1     
   24    9   10 2     
   25    9   11 1     
   26   11   12 1     
   27   11   36 1     
   28   11   37 1     
   29   12   13 1     
   30   12   38 1     
   31   13   21 2     
   32   13   14 1     
   33   14   15 2     
   34   14   39 1     
   35   15   16 1     
   36   15   40 1     
   37   16   17 1     
   38   16   21 1     
   39   17   18 1     
   40   17   41 1     
   41   17   42 1     
   42   18   19 am    
   43   18   20 2     
   44   19   43 1     
   45   19   44 1     
   46   10   45 1     
   47   10   46 1     
   48   20   47 1     
   49   20   48 1     
   50   21   49 1     
@<TRIPOS>SUBSTRUCTURE
      1 S1             1
@<TRIPOS>SET
LONE_PAIRS      STATIC     ATOMS    <user>   **** ""
5 45 46 47 48 49
DONOR_HYDROGENS      STATIC     ATOMS    <user>   **** ""
4 35 38 43 44
ATOM$BLUE        STATIC     ATOMS    COLORGROUP SYSTEM
5 45 46 47 48 49
ATOM$RED        STATIC     ATOMS    COLORGROUP SYSTEM
4 35 38 43 44
