AV-unprocessed.smi:1932|AV-procd|sdf|7814|dock7
  -GOLD-   22720 9553D 1   1.00000     0.00000
 Structure written by MMmdl.
 44 45  0  0  0  0  0  0  0  0  1 V2000
  154.8625  140.2247  161.6608 C   0  0  0  0  0  0  0  0  0  0  0  0
  154.3058  140.6008  160.2843 C   0  0  0  0  0  0  0  0  0  0  0  0
  154.7101  139.9733  159.3051 O   0  0  0  0  0  0  0  0  0  0  0  0
  153.3953  141.6009  160.1867 N   0  0  0  0  0  0  0  0  0  0  0  0
  152.9650  142.3302  161.3828 C   0  0  0  0  0  0  0  0  0  0  0  0
  152.8052  142.0602  158.9166 C   0  0  0  0  0  0  0  0  0  0  0  0
  151.2777  141.9110  158.8156 C   0  0  0  0  0  0  0  0  0  0  0  0
  150.5615  142.6269  159.5142 O   0  0  0  0  0  0  0  0  0  0  0  0
  150.7828  140.9867  157.9763 N   0  0  0  0  0  0  0  0  0  0  0  0
  149.3715  140.6587  157.8198 C   0  0  0  0  0  0  0  0  0  0  0  0
  148.9241  140.7377  156.3661 C   0  0  0  0  0  0  0  0  0  0  0  0
  147.9921  141.7235  155.9791 C   0  0  0  0  0  0  0  0  0  0  0  0
  147.5540  141.7665  154.6431 C   0  0  0  0  0  0  0  0  0  0  0  0
  148.0652  140.8139  153.7428 C   0  0  0  0  0  0  0  0  0  0  0  0
  148.9591  139.8671  154.0965 N   0  0  0  0  0  0  0  0  0  0  0  0
  149.3863  139.8239  155.3819 C   0  0  0  0  0  0  0  0  0  0  0  0
  150.3412  138.8477  155.7155 N   0  0  0  0  0  0  0  0  0  0  0  0
  151.6015  139.0134  155.0039 C   0  0  0  0  0  0  0  0  0  0  0  0
  152.6620  138.0675  155.5933 C   0  0  0  0  0  0  0  0  0  0  0  0
  152.1826  136.7261  155.5505 O   0  0  0  0  0  0  0  0  0  0  0  0
  150.9875  136.5604  156.3088 C   0  0  0  0  0  0  0  0  0  0  0  0
  149.8828  137.4638  155.7329 C   0  0  0  0  0  0  0  0  0  0  0  0
  154.0811  139.7961  162.2883 H   0  0  0  0  0  0  0  0  0  0  0  0
  155.2864  141.0913  162.1675 H   0  0  0  0  0  0  0  0  0  0  0  0
  155.6533  139.4804  161.5625 H   0  0  0  0  0  0  0  0  0  0  0  0
  152.8829  141.6847  162.2574 H   0  0  0  0  0  0  0  0  0  0  0  0
  151.9854  142.7877  161.2380 H   0  0  0  0  0  0  0  0  0  0  0  0
  153.6761  143.1239  161.6132 H   0  0  0  0  0  0  0  0  0  0  0  0
  153.0453  143.1152  158.7757 H   0  0  0  0  0  0  0  0  0  0  0  0
  153.2628  141.5592  158.0635 H   0  0  0  0  0  0  0  0  0  0  0  0
  151.4376  140.4369  157.4388 H   0  0  0  0  0  0  0  0  0  0  0  0
  149.1589  139.6699  158.2300 H   0  0  0  0  0  0  0  0  0  0  0  0
  148.7876  141.3580  158.4173 H   0  0  0  0  0  0  0  0  0  0  0  0
  147.6095  142.4338  156.6972 H   0  0  0  0  0  0  0  0  0  0  0  0
  146.8393  142.5080  154.3180 H   0  0  0  0  0  0  0  0  0  0  0  0
  147.7488  140.8127  152.7102 H   0  0  0  0  0  0  0  0  0  0  0  0
  151.4495  138.7921  153.9466 H   0  0  0  0  0  0  0  0  0  0  0  0
  151.9440  140.0464  155.0676 H   0  0  0  0  0  0  0  0  0  0  0  0
  153.5866  138.1344  155.0200 H   0  0  0  0  0  0  0  0  0  0  0  0
  152.9023  138.3459  156.6210 H   0  0  0  0  0  0  0  0  0  0  0  0
  150.6799  135.5157  156.2679 H   0  0  0  0  0  0  0  0  0  0  0  0
  151.1792  136.7971  157.3564 H   0  0  0  0  0  0  0  0  0  0  0  0
  148.9757  137.3816  156.3327 H   0  0  0  0  0  0  0  0  0  0  0  0
  149.6348  137.1416  154.7207 H   0  0  0  0  0  0  0  0  0  0  0  0
  1  2  1  0  0  0  0
  1 23  1  0  0  0  0
  1 24  1  0  0  0  0
  1 25  1  0  0  0  0
  2  3  2  0  0  0  0
  2  4  1  0  0  0  0
  4  5  1  0  0  0  0
  4  6  1  0  0  0  0
  5 26  1  0  0  0  0
  5 27  1  0  0  0  0
  5 28  1  0  0  0  0
  6  7  1  0  0  0  0
  6 29  1  0  0  0  0
  6 30  1  0  0  0  0
  7  8  2  0  0  0  0
  7  9  1  0  0  0  0
  9 10  1  0  0  0  0
  9 31  1  0  0  0  0
 10 11  1  0  0  0  0
 10 32  1  0  0  0  0
 10 33  1  0  0  0  0
 11 16  1  0  0  0  0
 11 12  2  0  0  0  0
 12 13  1  0  0  0  0
 12 34  1  0  0  0  0
 13 14  2  0  0  0  0
 13 35  1  0  0  0  0
 14 15  1  0  0  0  0
 14 36  1  0  0  0  0
 15 16  2  0  0  0  0
 16 17  1  0  0  0  0
 17 22  1  0  0  0  0
 17 18  1  0  0  0  0
 18 19  1  0  0  0  0
 18 37  1  0  0  0  0
 18 38  1  0  0  0  0
 19 20  1  0  0  0  0
 19 39  1  0  0  0  0
 19 40  1  0  0  0  0
 20 21  1  0  0  0  0
 21 22  1  0  0  0  0
 21 41  1  0  0  0  0
 21 42  1  0  0  0  0
 22 43  1  0  0  0  0
 22 44  1  0  0  0  0
M  END
> <s_m_source_file>
AV-unprocessed.smi

> <i_m_source_file_index>
1932

> <i_lp_mmshare_version>
43012

> <i_f3d_flags>
0

> <s_epik_input>
W0NIM11DKD1PKU4oW0NIM10pW0NIMl1DKD1PKVtOSF1bQ0gyXWMxW2NIXVtjSF1bY0hdbmMxTjJbQ0gyXVtDSDJdT1tDSDJdW0NIMl0y

> <s_epik_cmdline>
J2VwaWtfcHl0aG9uJywgJy1waCcsICc3LjAnLCAnLXRuJywgJzgnLCAnLW1hJywgJzIwMCcsICctbWV0YWxfYmluZGluZycsICctaW1hZScsICc8aW5maWxlLm1hZT4nLCAnLW9tYWUnLCAnPG91dGZpbGUubWFlPic=

> <r_lp_tautomer_probability>
1

> <r_epik_Ionization_Penalty>
0.00462916

> <r_epik_Ionization_Penalty_Charging>
0

> <r_epik_Ionization_Penalty_Neutral>
0.00462916

> <r_epik_State_Penalty>
0.00334737

> <r_epik_Charging_Adjusted_Penalty>
0.00334737

> <i_epik_Tot_Q>
0

> <i_epik_Tot_abs_Q>
0

> <r_epik_Metal_State_Penalty>
-0

> <b_epik_Metal_Only>
0

> <s_lp_Force_Field>
OPLS_2005

> <r_lp_Energy>
20.2877

> <b_lp_Chiralities_Consistent>
1

> <s_lp_Variant>
AV-unprocessed.smi:1932-1

> <Gold.Version>
5.8.1

> <Gold.Id.Protein>
6NUR|6NUR_protein|mol2

> <Gold.PLP.Fitness>
44.1063

> <Gold.PLP.PLP>
-36.5466

> <Gold.PLP.part.hbond>
-3.0000

> <Gold.PLP.part.metal>
0.0000

> <Gold.PLP.part.buried>
-4.2498

> <Gold.PLP.part.nonpolar>
-30.7785

> <Gold.PLP.part.repulsive>
1.0102

> <Gold.PLP.ligand.clash>
0.0000

> <Gold.PLP.ligand.torsion>
0.2692

> <Gold.PLP.Chemscore.Hbond>
1.9753

> <Gold.PLP.Chemscore.CHOScore>
0.6588

> <Gold.PLP.Chemscore.Metal>
0.0000

> <Gold.Chemscore.Hbonds>
donor molecule, donor type, donor heavy atom, donor atom, acceptor molecule, acceptor atom, score
      P1  H  7997  8010       L1     3  1.00
      P1  H 10752 10764       L1    20  1.00
      L1  C    14    36       P1  7957  0.65

> <Gold.PLP.Chemscore.Internal.Correction>
0.1957

> <Gold.Rescore>
     Score         DG    S(hbond)    S(metal)    S(lipo)     H(rot)  DE(clash)    DE(int)     intcor
     15.05     -15.43       1.92        0.00      74.01       2.00       0.04       0.34       ----

> <Gold.Chemscore.Fitness>
15.0496

> <Gold.Chemscore.DG>
-15.4345

> <Gold.Chemscore.ZeroCoef>
-5.4800

> <Gold.Chemscore.Hbond>
1.9175

> <Gold.Chemscore.Metal>
0.0000

> <Gold.Chemscore.Lipo>
74.0061

> <Gold.Chemscore.Internal_Hbond>
0.0000

> <Gold.Chemscore.DEClash>
0.0402

> <Gold.Chemscore.DEInternal>
0.3448

> <Gold.Chemscore.Rot>
1.9956

> <Gold.Chemscore.Internal.Correction>
   9.000000E+99

> <Gold.Chemscore.Hbonds>
donor molecule, donor type, donor heavy atom, donor atom, acceptor molecule, acceptor atom, score
      P1  H  7997  8010       L1     3  0.93
      P1  H 10752 10764       L1    20  0.93

> <Gold.Chemscore.Hbond.Weighted>
-6.4045

> <Gold.Chemscore.Metal.Weighted>
-0.0000

> <Gold.Chemscore.Lipo.Weighted>
-8.6587

> <Gold.Chemscore.Internal_Hbond.Weighted>
0.0000

> <Gold.Chemscore.DEClash.Weighted>
0.0402

> <Gold.Chemscore.DEInternal.Weighted>
0.3448

> <Gold.Chemscore.Rot.Weighted>
5.1087

> <Gold.Chemscore.Internal.Correction.Weighted>
   9.000000E+99

> <Gold.Protein.RotatedTorsions>
[ 6907 6896 6895 6894 ] final  -46.47 input  -60.11 | X-H torsion
[ 7974 7965 7964 7962 ] final  -45.57 input  175.53 | X-H torsion
[ 8008 7997 7996 7995 ] final   -1.47 input   59.86 | X-H torsion
[ 10167 10162 10161 10158 ] final   76.34 input  -65.29 | X-H torsion
[ 10718 10713 10712 10709 ] final  128.50 input   66.30 | X-H torsion
[ 10763 10752 10751 10750 ] final  -43.77 input  -60.55 | X-H torsion
[ 11005 11000 10999 10996 ] final    7.82 input  -57.11 | X-H torsion

> <Gold.Protein.ActiveResidues>
 VAL166  LYS551  ARG553  GLY616  TRP617  ASP618  TYR619  PRO620  LYS621  CYS622 
 ASP623  PHE694  ASN695  SER759  ASP760  ASP761  ALA762  ILE779  LEU786  VAL792 
 PHE793  MET794  SER795  GLU796  ALA797  LYS798  CYS799  TRP800  GLU811  SER814 

> <Gold.Protein.RotatedAtoms>
  150.9109  134.8526  159.7424 H   0  0  0  0  0  0  0  0  0  0  0  0  # atno 6907 bound_to 6896
  152.4944  134.4360  159.9538 H   0  0  0  0  0  0  0  0  0  0  0  0  # atno 6908 bound_to 6896
  151.4402  133.3606  159.2816 H   0  0  0  0  0  0  0  0  0  0  0  0  # atno 6909 bound_to 6896
  145.9808  140.7286  142.9365 H   0  0  0  0  0  0  0  0  0  0  0  0  # atno 7974 bound_to 7965
  154.6465  140.2558  155.7262 H   0  0  0  0  0  0  0  0  0  0  0  0  # atno 8008 bound_to 7997
  156.2554  140.2877  156.0801 H   0  0  0  0  0  0  0  0  0  0  0  0  # atno 8009 bound_to 7997
  155.1516  140.0382  157.2812 H   0  0  0  0  0  0  0  0  0  0  0  0  # atno 8010 bound_to 7997
  139.9933  144.5741  150.7799 H   0  0  0  0  0  0  0  0  0  0  0  0  # atno 10167 bound_to 10162
  157.5239  131.1098  150.9112 H   0  0  0  0  0  0  0  0  0  0  0  0  # atno 10718 bound_to 10713
  154.0011  135.6693  153.4759 H   0  0  0  0  0  0  0  0  0  0  0  0  # atno 10763 bound_to 10752
  153.0662  135.5000  154.8201 H   0  0  0  0  0  0  0  0  0  0  0  0  # atno 10764 bound_to 10752
  154.7052  135.3086  154.9244 H   0  0  0  0  0  0  0  0  0  0  0  0  # atno 10765 bound_to 10752
  140.5439  134.0348  155.7913 H   0  0  0  0  0  0  0  0  0  0  0  0  # atno 11005 bound_to 11000
  144.6861  140.2904  143.7279 LP  0  0  0  0  0  0  0  0  0  0  0  0  # atno 17320 bound_to 7965
  145.7773  139.1878  143.2178 LP  0  0  0  0  0  0  0  0  0  0  0  0  # atno 17321 bound_to 7965
  140.7446  143.2864  151.3453 LP  0  0  0  0  0  0  0  0  0  0  0  0  # atno 17342 bound_to 10162
  139.6324  144.0695  152.2487 LP  0  0  0  0  0  0  0  0  0  0  0  0  # atno 17343 bound_to 10162
  156.9714  130.5492  149.5291 LP  0  0  0  0  0  0  0  0  0  0  0  0  # atno 17370 bound_to 10713
  156.0373  130.5459  150.8685 LP  0  0  0  0  0  0  0  0  0  0  0  0  # atno 17371 bound_to 10713
  141.1211  133.9460  157.2727 LP  0  0  0  0  0  0  0  0  0  0  0  0  # atno 17394 bound_to 11000
  139.9490  135.0179  156.8937 LP  0  0  0  0  0  0  0  0  0  0  0  0  # atno 17395 bound_to 11000

$$$$
