AV-unprocessed.smi:413|AV-procd|sdf|2513|dock10
  -GOLD-   2262022463D 1   1.00000     0.00000
 Structure written by MMmdl.
 40 42  0  0  0  0  0  0  0  0  1 V2000
  154.6698  141.4889  159.9131 C   0  0  0  0  0  0  0  0  0  0  0  0
  153.3457  141.4703  159.3034 N   0  0  0  0  0  0  0  0  0  0  0  0
  152.7970  140.4690  158.5761 C   0  0  0  0  0  0  0  0  0  0  0  0
  153.3320  139.3947  158.3028 O   0  0  0  0  0  0  0  0  0  0  0  0
  151.5570  140.8586  158.1965 N   0  0  0  0  0  0  0  0  0  0  0  0
  150.6185  140.0949  157.3774 C   0  0  0  0  0  0  0  0  0  0  0  0
  150.5596  140.6281  155.9316 C   0  0  1  0  0  0  0  0  0  0  0  0
  151.7253  140.2639  155.2209 O   0  0  0  0  0  0  0  0  0  0  0  0
  149.3458  140.1053  155.1457 C   0  0  0  0  0  0  0  0  0  0  0  0
  148.8498  141.1263  154.2880 O   0  0  0  0  0  0  0  0  0  0  0  0
  147.6559  141.7325  154.6132 C   0  0  0  0  0  0  0  0  0  0  0  0
  147.0661  142.5510  153.6278 C   0  0  0  0  0  0  0  0  0  0  0  0
  145.8448  143.2078  153.8723 C   0  0  0  0  0  0  0  0  0  0  0  0
  145.1985  143.0517  155.1121 C   0  0  0  0  0  0  0  0  0  0  0  0
  144.0239  143.6819  155.3493 F   0  0  0  0  0  0  0  0  0  0  0  0
  145.7757  142.2386  156.1051 C   0  0  0  0  0  0  0  0  0  0  0  0
  146.9977  141.5818  155.8604 C   0  0  0  0  0  0  0  0  0  0  0  0
  151.3122  142.1509  158.6826 C   0  0  0  0  0  0  0  0  0  0  0  0
  150.1945  142.9935  158.5523 C   0  0  0  0  0  0  0  0  0  0  0  0
  150.2675  144.2639  159.1706 C   0  0  0  0  0  0  0  0  0  0  0  0
  151.4273  144.6582  159.8879 C   0  0  0  0  0  0  0  0  0  0  0  0
  152.5389  143.7905  160.0021 C   0  0  0  0  0  0  0  0  0  0  0  0
  152.4385  142.5346  159.3791 C   0  0  0  0  0  0  0  0  0  0  0  0
  155.1616  140.5172  159.8529 H   0  0  0  0  0  0  0  0  0  0  0  0
  154.5976  141.7619  160.9663 H   0  0  0  0  0  0  0  0  0  0  0  0
  155.3035  142.2213  159.4128 H   0  0  0  0  0  0  0  0  0  0  0  0
  150.8617  139.0310  157.3930 H   0  0  0  0  0  0  0  0  0  0  0  0
  149.6344  140.1788  157.8399 H   0  0  0  0  0  0  0  0  0  0  0  0
  150.5090  141.7178  155.9382 H   0  0  0  0  0  0  0  0  0  0  0  0
  151.8219  139.3245  155.2661 H   0  0  0  0  0  0  0  0  0  0  0  0
  149.6640  139.2555  154.5397 H   0  0  0  0  0  0  0  0  0  0  0  0
  148.5709  139.7532  155.8290 H   0  0  0  0  0  0  0  0  0  0  0  0
  147.5557  142.6759  152.6730 H   0  0  0  0  0  0  0  0  0  0  0  0
  145.4044  143.8306  153.1078 H   0  0  0  0  0  0  0  0  0  0  0  0
  145.2806  142.1178  157.0572 H   0  0  0  0  0  0  0  0  0  0  0  0
  147.4089  140.9676  156.6468 H   0  0  0  0  0  0  0  0  0  0  0  0
  149.3162  142.6886  158.0028 H   0  0  0  0  0  0  0  0  0  0  0  0
  149.4307  144.9424  159.0950 H   0  0  0  0  0  0  0  0  0  0  0  0
  151.4625  145.6331  160.3515 H   0  0  0  0  0  0  0  0  0  0  0  0
  153.4258  144.0835  160.5443 H   0  0  0  0  0  0  0  0  0  0  0  0
  1  2  1  0  0  0  0
  1 24  1  0  0  0  0
  1 25  1  0  0  0  0
  1 26  1  0  0  0  0
  2 23  1  0  0  0  0
  2  3  1  0  0  0  0
  3  4  2  0  0  0  0
  3  5  1  0  0  0  0
  5  6  1  0  0  0  0
  5 18  1  0  0  0  0
  6  7  1  0  0  0  0
  6 27  1  0  0  0  0
  6 28  1  0  0  0  0
  7  8  1  0  0  0  0
  7  9  1  0  0  0  0
  7 29  1  0  0  0  0
  8 30  1  0  0  0  0
  9 10  1  0  0  0  0
  9 31  1  0  0  0  0
  9 32  1  0  0  0  0
 10 11  1  0  0  0  0
 11 17  1  0  0  0  0
 11 12  2  0  0  0  0
 12 13  1  0  0  0  0
 12 33  1  0  0  0  0
 13 14  2  0  0  0  0
 13 34  1  0  0  0  0
 14 15  1  0  0  0  0
 14 16  1  0  0  0  0
 16 17  2  0  0  0  0
 16 35  1  0  0  0  0
 17 36  1  0  0  0  0
 18 23  2  0  0  0  0
 18 19  1  0  0  0  0
 19 20  2  0  0  0  0
 19 37  1  0  0  0  0
 20 21  1  0  0  0  0
 20 38  1  0  0  0  0
 21 22  2  0  0  0  0
 21 39  1  0  0  0  0
 22 23  1  0  0  0  0
 22 40  1  0  0  0  0
M  END
> <s_m_source_file>
AV-unprocessed.smi

> <i_m_source_file_index>
413

> <i_lp_mmshare_version>
43012

> <i_f3d_flags>
0

> <s_epik_input>
W2NIXTFbY0hdW2NIXVtjSF1jKGMxMiluKFtDSDNdKWMoPU8pbjJbQ0gyXVtDQEhdKFtPSF0pW0NIMl1PYzNbY0hdW2NIXWMoRilbY0hdW2NIXTM=

> <s_epik_cmdline>
J2VwaWtfcHl0aG9uJywgJy1waCcsICc3LjAnLCAnLXRuJywgJzgnLCAnLW1hJywgJzIwMCcsICctbWV0YWxfYmluZGluZycsICctaW1hZScsICc8aW5maWxlLm1hZT4nLCAnLW9tYWUnLCAnPG91dGZpbGUubWFlPic=

> <r_lp_tautomer_probability>
1

> <r_epik_Ionization_Penalty>
2.40172e-06

> <r_epik_Ionization_Penalty_Charging>
2.42369e-09

> <r_epik_Ionization_Penalty_Neutral>
2.3993e-06

> <r_epik_State_Penalty>
-0

> <r_epik_Charging_Adjusted_Penalty>
2.42369e-09

> <i_epik_Tot_Q>
0

> <i_epik_Tot_abs_Q>
0

> <r_epik_Metal_State_Penalty>
-0

> <b_epik_Metal_Only>
0

> <s_lp_Force_Field>
OPLS_2005

> <r_lp_Energy>
47.225

> <b_lp_Chiralities_Consistent>
1

> <s_lp_Variant>
AV-unprocessed.smi:413-2

> <Gold.Version>
5.8.1

> <Gold.Id.Protein>
6NUR|6NUR_protein|mol2

> <Gold.PLP.Fitness>
51.3078

> <Gold.PLP.PLP>
-48.0903

> <Gold.PLP.part.hbond>
-2.0000

> <Gold.PLP.part.metal>
0.0000

> <Gold.PLP.part.buried>
-9.1451

> <Gold.PLP.part.nonpolar>
-37.1208

> <Gold.PLP.part.repulsive>
0.1469

> <Gold.PLP.ligand.clash>
0.0000

> <Gold.PLP.ligand.torsion>
1.2334

> <Gold.PLP.Chemscore.Hbond>
1.8800

> <Gold.PLP.Chemscore.CHOScore>
0.0000

> <Gold.PLP.Chemscore.Metal>
0.0000

> <Gold.Chemscore.Hbonds>
donor molecule, donor type, donor heavy atom, donor atom, acceptor molecule, acceptor atom, score
      P1  H  7989  7998       L1     8  0.86
      P1  H  7997  8008       L1     4  1.00

> <Gold.PLP.Chemscore.Internal.Correction>
0.0442

> <Gold.Rescore>
     Score         DG    S(hbond)    S(metal)    S(lipo)     H(rot)  DE(clash)    DE(int)     intcor
     15.13     -16.70       1.17        0.00     112.12       2.27       0.35       1.21       ----

> <Gold.Chemscore.Fitness>
15.1334

> <Gold.Chemscore.DG>
-16.6965

> <Gold.Chemscore.ZeroCoef>
-5.4800

> <Gold.Chemscore.Hbond>
1.1709

> <Gold.Chemscore.Metal>
0.0000

> <Gold.Chemscore.Lipo>
112.1234

> <Gold.Chemscore.Internal_Hbond>
0.0000

> <Gold.Chemscore.DEClash>
0.3528

> <Gold.Chemscore.DEInternal>
1.2103

> <Gold.Chemscore.Rot>
2.2706

> <Gold.Chemscore.Internal.Correction>
   9.000000E+99

> <Gold.Chemscore.Hbonds>
donor molecule, donor type, donor heavy atom, donor atom, acceptor molecule, acceptor atom, score
      P1  H  7989  7998       L1     8  0.58
      P1  H  7997  8008       L1     4  0.28

> <Gold.Chemscore.Hbond.Weighted>
-3.9109

> <Gold.Chemscore.Metal.Weighted>
-0.0000

> <Gold.Chemscore.Lipo.Weighted>
-13.1184

> <Gold.Chemscore.Internal_Hbond.Weighted>
0.0000

> <Gold.Chemscore.DEClash.Weighted>
0.3528

> <Gold.Chemscore.DEInternal.Weighted>
1.2103

> <Gold.Chemscore.Rot.Weighted>
5.8128

> <Gold.Chemscore.Internal.Correction.Weighted>
   9.000000E+99

> <Gold.Protein.RotatedTorsions>
[ 6907 6896 6895 6894 ] final  137.16 input  -60.11 | X-H torsion
[ 7974 7965 7964 7962 ] final -120.30 input  175.53 | X-H torsion
[ 8008 7997 7996 7995 ] final -108.51 input   59.86 | X-H torsion
[ 10167 10162 10161 10158 ] final   48.72 input  -65.29 | X-H torsion
[ 10718 10713 10712 10709 ] final -122.03 input   66.30 | X-H torsion
[ 10763 10752 10751 10750 ] final    1.45 input  -60.55 | X-H torsion
[ 11005 11000 10999 10996 ] final   22.36 input  -57.11 | X-H torsion

> <Gold.Protein.ActiveResidues>
 VAL166  LYS551  ARG553  GLY616  TRP617  ASP618  TYR619  PRO620  LYS621  CYS622 
 ASP623  PHE694  ASN695  SER759  ASP760  ASP761  ALA762  ILE779  LEU786  VAL792 
 PHE793  MET794  SER795  GLU796  ALA797  LYS798  CYS799  TRP800  GLU811  SER814 

> <Gold.Protein.RotatedAtoms>
  152.2812  133.5472  159.5498 H   0  0  0  0  0  0  0  0  0  0  0  0  # atno 6907 bound_to 6896
  150.7197  134.0561  159.3824 H   0  0  0  0  0  0  0  0  0  0  0  0  # atno 6908 bound_to 6896
  151.8472  135.0570  160.0505 H   0  0  0  0  0  0  0  0  0  0  0  0  # atno 6909 bound_to 6896
  145.0529  140.8232  143.4198 H   0  0  0  0  0  0  0  0  0  0  0  0  # atno 7974 bound_to 7965
  154.9453  140.0402  157.2117 H   0  0  0  0  0  0  0  0  0  0  0  0  # atno 8008 bound_to 7997
  154.8030  140.2855  155.5886 H   0  0  0  0  0  0  0  0  0  0  0  0  # atno 8009 bound_to 7997
  156.2963  140.2551  156.2902 H   0  0  0  0  0  0  0  0  0  0  0  0  # atno 8010 bound_to 7997
  140.2904  144.3053  150.6242 H   0  0  0  0  0  0  0  0  0  0  0  0  # atno 10167 bound_to 10162
  156.1385  130.6448  150.9734 H   0  0  0  0  0  0  0  0  0  0  0  0  # atno 10718 bound_to 10713
  153.3079  135.6960  153.7142 H   0  0  0  0  0  0  0  0  0  0  0  0  # atno 10763 bound_to 10752
  153.6031  135.3458  155.2953 H   0  0  0  0  0  0  0  0  0  0  0  0  # atno 10764 bound_to 10752
  154.8568  135.4345  154.2209 H   0  0  0  0  0  0  0  0  0  0  0  0  # atno 10765 bound_to 10752
  140.3815  134.1916  155.7663 H   0  0  0  0  0  0  0  0  0  0  0  0  # atno 11005 bound_to 11000
  145.1505  139.2517  143.5443 LP  0  0  0  0  0  0  0  0  0  0  0  0  # atno 17320 bound_to 7965
  146.3519  140.1206  142.8600 LP  0  0  0  0  0  0  0  0  0  0  0  0  # atno 17321 bound_to 7965
  140.5737  143.2178  151.7553 LP  0  0  0  0  0  0  0  0  0  0  0  0  # atno 17342 bound_to 10162
  139.4939  144.4180  152.0009 LP  0  0  0  0  0  0  0  0  0  0  0  0  # atno 17343 bound_to 10162
  157.6554  131.0890  150.7959 LP  0  0  0  0  0  0  0  0  0  0  0  0  # atno 17370 bound_to 10713
  156.8036  130.4929  149.5366 LP  0  0  0  0  0  0  0  0  0  0  0  0  # atno 17371 bound_to 10713
  141.1922  133.8178  157.0849 LP  0  0  0  0  0  0  0  0  0  0  0  0  # atno 17394 bound_to 11000
  140.0475  134.9823  157.1076 LP  0  0  0  0  0  0  0  0  0  0  0  0  # atno 17395 bound_to 11000

$$$$
