AV-unprocessed.smi:2980|AV-procd|sdf|11373|dock3
  -GOLD-   2272016293D 1   1.00000     0.00000
 Structure written by MMmdl.
 39 40  0  0  0  0  0  0  0  0  2 V2000
  149.4577  138.0989  154.7538 C   0  0  0  0  0  0  0  0  0  0  0  0
  150.8642  138.0955  154.1510 C   0  0  0  0  0  0  0  0  0  0  0  0
  151.4817  139.3385  154.4347 O   0  0  0  0  0  0  0  0  0  0  0  0
  152.3842  139.2715  155.5265 C   0  0  0  0  0  0  0  0  0  0  0  0
  151.6416  139.5863  156.8328 C   0  0  0  0  0  0  0  0  0  0  0  0
  151.3059  141.0145  156.9582 N   0  0  0  0  0  0  0  0  0  0  0  0
  150.5048  141.8072  156.1872 C   0  0  0  0  0  0  0  0  0  0  0  0
  149.7458  141.4115  154.9615 C   0  0  0  0  0  0  0  0  0  0  0  0
  148.2344  141.6292  155.1390 C   0  0  0  0  0  0  0  0  0  0  0  0
  147.4689  141.6588  153.8084 C   0  0  0  0  0  0  0  0  0  0  0  0
  147.7079  140.4754  153.0760 O   0  0  0  0  0  0  0  0  0  0  0  0
  150.5361  143.0583  156.7273 N   0  3  0  0  0  0  0  0  0  0  0  0
  151.3637  143.0694  157.8499 C   0  0  0  0  0  0  0  0  0  0  0  0
  151.7056  144.1017  158.7180 C   0  0  0  0  0  0  0  0  0  0  0  0
  152.5880  143.7783  159.7695 C   0  0  0  0  0  0  0  0  0  0  0  0
  153.0953  142.4722  159.9260 C   0  0  0  0  0  0  0  0  0  0  0  0
  152.7403  141.4341  159.0398 C   0  0  0  0  0  0  0  0  0  0  0  0
  151.8648  141.7607  158.0038 C   0  0  0  0  0  0  0  0  0  0  0  0
  148.9475  137.1558  154.5576 H   0  0  0  0  0  0  0  0  0  0  0  0
  148.8531  138.9012  154.3307 H   0  0  0  0  0  0  0  0  0  0  0  0
  149.4956  138.2412  155.8342 H   0  0  0  0  0  0  0  0  0  0  0  0
  151.4486  137.2778  154.5751 H   0  0  0  0  0  0  0  0  0  0  0  0
  150.8083  137.9401  153.0726 H   0  0  0  0  0  0  0  0  0  0  0  0
  152.8292  138.2772  155.5821 H   0  0  0  0  0  0  0  0  0  0  0  0
  153.1981  139.9838  155.3837 H   0  0  0  0  0  0  0  0  0  0  0  0
  150.7155  139.0146  156.8844 H   0  0  0  0  0  0  0  0  0  0  0  0
  152.2304  139.2792  157.6971 H   0  0  0  0  0  0  0  0  0  0  0  0
  150.1140  141.9772  154.1063 H   0  0  0  0  0  0  0  0  0  0  0  0
  149.9496  140.3620  154.7467 H   0  0  0  0  0  0  0  0  0  0  0  0
  147.8310  140.8255  155.7562 H   0  0  0  0  0  0  0  0  0  0  0  0
  148.0493  142.5540  155.6870 H   0  0  0  0  0  0  0  0  0  0  0  0
  146.3977  141.7735  153.9774 H   0  0  0  0  0  0  0  0  0  0  0  0
  147.7940  142.5086  153.2073 H   0  0  0  0  0  0  0  0  0  0  0  0
  148.4452  140.6197  152.5022 H   0  0  0  0  0  0  0  0  0  0  0  0
  151.3205  145.1036  158.5977 H   0  0  0  0  0  0  0  0  0  0  0  0
  152.8833  144.5475  160.4682 H   0  0  0  0  0  0  0  0  0  0  0  0
  153.7719  142.2617  160.7414 H   0  0  0  0  0  0  0  0  0  0  0  0
  153.1411  140.4393  159.1663 H   0  0  0  0  0  0  0  0  0  0  0  0
  150.0299  143.8484  156.3490 H   0  0  0  0  0  0  0  0  0  0  0  0
  1  2  1  0  0  0  0
  1 19  1  0  0  0  0
  1 20  1  0  0  0  0
  1 21  1  0  0  0  0
  2  3  1  0  0  0  0
  2 22  1  0  0  0  0
  2 23  1  0  0  0  0
  3  4  1  0  0  0  0
  4  5  1  0  0  0  0
  4 24  1  0  0  0  0
  4 25  1  0  0  0  0
  5  6  1  0  0  0  0
  5 26  1  0  0  0  0
  5 27  1  0  0  0  0
  6 18  1  0  0  0  0
  6  7  1  0  0  0  0
  7  8  1  0  0  0  0
  7 12  2  0  0  0  0
  8  9  1  0  0  0  0
  8 28  1  0  0  0  0
  8 29  1  0  0  0  0
  9 10  1  0  0  0  0
  9 30  1  0  0  0  0
  9 31  1  0  0  0  0
 10 11  1  0  0  0  0
 10 32  1  0  0  0  0
 10 33  1  0  0  0  0
 11 34  1  0  0  0  0
 12 13  1  0  0  0  0
 12 39  1  0  0  0  0
 13 18  2  0  0  0  0
 13 14  1  0  0  0  0
 14 15  2  0  0  0  0
 14 35  1  0  0  0  0
 15 16  1  0  0  0  0
 15 36  1  0  0  0  0
 16 17  2  0  0  0  0
 16 37  1  0  0  0  0
 17 18  1  0  0  0  0
 17 38  1  0  0  0  0
M  CHG  1  12   1
M  END
> <s_m_source_file>
AV-unprocessed.smi

> <i_m_source_file_index>
2980

> <i_lp_mmshare_version>
43012

> <i_f3d_flags>
0

> <s_epik_input>
W0NIM11bQ0gyXU9bQ0gyXVtDSDJdbihjKG4xKVtDSDJdW0NIMl1bQ0gyXVtPSF0pYyhjMTIpW2NIXVtjSF1bY0hdW2NIXTI=

> <s_epik_cmdline>
J2VwaWtfcHl0aG9uJywgJy1waCcsICc3LjAnLCAnLXRuJywgJzgnLCAnLW1hJywgJzIwMCcsICctbWV0YWxfYmluZGluZycsICctaW1hZScsICc8aW5maWxlLm1hZT4nLCAnLW9tYWUnLCAnPG91dGZpbGUubWFlPic=

> <r_epik_Ionization_Penalty>
0.813193

> <r_epik_Ionization_Penalty_Charging>
0.813193

> <r_epik_Ionization_Penalty_Neutral>
1.64912e-07

> <r_epik_State_Penalty>
0.845533

> <r_epik_Charging_Adjusted_Penalty>
1.65873

> <i_epik_Tot_Q>
1

> <i_epik_Tot_abs_Q>
1

> <r_epik_Metal_State_Penalty>
4.77586

> <b_epik_Metal_Only>
0

> <s_lp_Force_Field>
OPLS_2005

> <r_lp_Energy>
11.2721

> <b_lp_Chiralities_Consistent>
1

> <s_lp_Variant>
AV-unprocessed.smi:2980-2

> <Gold.Version>
5.8.1

> <Gold.Id.Protein>
6NUR|6NUR_protein|mol2

> <Gold.PLP.Fitness>
55.0874

> <Gold.PLP.PLP>
-44.1491

> <Gold.PLP.part.hbond>
-3.0000

> <Gold.PLP.part.metal>
0.0000

> <Gold.PLP.part.buried>
-3.6171

> <Gold.PLP.part.nonpolar>
-36.5577

> <Gold.PLP.part.repulsive>
0.1632

> <Gold.PLP.ligand.clash>
0.0000

> <Gold.PLP.ligand.torsion>
0.6078

> <Gold.PLP.Chemscore.Hbond>
4.0000

> <Gold.PLP.Chemscore.CHOScore>
0.0000

> <Gold.PLP.Chemscore.Metal>
0.0000

> <Gold.Chemscore.Hbonds>
donor molecule, donor type, donor heavy atom, donor atom, acceptor molecule, acceptor atom, score
      L1  H    11    34       P1  7957  1.00
      L1  H    12    39       P1  8028  2.00
      P1  H  7989  7998       L1     3  1.00

> <Gold.PLP.Chemscore.Internal.Correction>
0.1539

> <Gold.Rescore>
     Score         DG    S(hbond)    S(metal)    S(lipo)     H(rot)  DE(clash)    DE(int)     intcor
     19.43     -21.42       2.86        0.00     111.01       2.58       0.18       1.81       ----

> <Gold.Chemscore.Fitness>
19.4301

> <Gold.Chemscore.DG>
-21.4187

> <Gold.Chemscore.ZeroCoef>
-5.4800

> <Gold.Chemscore.Hbond>
2.8595

> <Gold.Chemscore.Metal>
0.0000

> <Gold.Chemscore.Lipo>
111.0148

> <Gold.Chemscore.Internal_Hbond>
0.0000

> <Gold.Chemscore.DEClash>
0.1772

> <Gold.Chemscore.DEInternal>
1.8114

> <Gold.Chemscore.Rot>
2.5784

> <Gold.Chemscore.Internal.Correction>
   9.000000E+99

> <Gold.Chemscore.Hbonds>
donor molecule, donor type, donor heavy atom, donor atom, acceptor molecule, acceptor atom, score
      L1  H    11    34       P1  7957  0.95
      L1  H    12    39       P1  8028  0.98
      P1  H  7989  7998       L1     3  0.85

> <Gold.Chemscore.Hbond.Weighted>
-9.5507

> <Gold.Chemscore.Metal.Weighted>
-0.0000

> <Gold.Chemscore.Lipo.Weighted>
-12.9887

> <Gold.Chemscore.Internal_Hbond.Weighted>
0.0000

> <Gold.Chemscore.DEClash.Weighted>
0.1772

> <Gold.Chemscore.DEInternal.Weighted>
1.8114

> <Gold.Chemscore.Rot.Weighted>
6.6007

> <Gold.Chemscore.Internal.Correction.Weighted>
   9.000000E+99

> <Gold.Protein.RotatedTorsions>
[ 6907 6896 6895 6894 ] final   27.16 input  -60.11 | X-H torsion
[ 7974 7965 7964 7962 ] final   96.22 input  175.53 | X-H torsion
[ 8008 7997 7996 7995 ] final  129.66 input   59.86 | X-H torsion
[ 10167 10162 10161 10158 ] final -104.48 input  -65.29 | X-H torsion
[ 10718 10713 10712 10709 ] final  121.32 input   66.30 | X-H torsion
[ 10763 10752 10751 10750 ] final   -6.10 input  -60.55 | X-H torsion
[ 11005 11000 10999 10996 ] final -116.86 input  -57.11 | X-H torsion

> <Gold.Protein.ActiveResidues>
 VAL166  LYS551  ARG553  GLY616  TRP617  ASP618  TYR619  PRO620  LYS621  CYS622 
 ASP623  PHE694  ASN695  SER759  ASP760  ASP761  ALA762  ILE779  LEU786  VAL792 
 PHE793  MET794  SER795  GLU796  ALA797  LYS798  CYS799  TRP800  GLU811  SER814 

> <Gold.Protein.RotatedAtoms>
  151.9981  134.9943  160.0563 H   0  0  0  0  0  0  0  0  0  0  0  0  # atno 6907 bound_to 6896
  152.1545  133.4538  159.4838 H   0  0  0  0  0  0  0  0  0  0  0  0  # atno 6908 bound_to 6896
  150.6879  134.2066  159.4386 H   0  0  0  0  0  0  0  0  0  0  0  0  # atno 6909 bound_to 6896
  145.4417  139.2300  143.3088 H   0  0  0  0  0  0  0  0  0  0  0  0  # atno 7974 bound_to 7965
  156.2940  140.2615  156.2634 H   0  0  0  0  0  0  0  0  0  0  0  0  # atno 8008 bound_to 7997
  154.9766  140.0390  157.2277 H   0  0  0  0  0  0  0  0  0  0  0  0  # atno 8009 bound_to 7997
  154.7810  140.2795  155.6068 H   0  0  0  0  0  0  0  0  0  0  0  0  # atno 8010 bound_to 7997
  140.2088  143.3762  152.1068 H   0  0  0  0  0  0  0  0  0  0  0  0  # atno 10167 bound_to 10162
  157.5826  131.1073  150.8157 H   0  0  0  0  0  0  0  0  0  0  0  0  # atno 10718 bound_to 10713
  153.4076  135.7007  153.6381 H   0  0  0  0  0  0  0  0  0  0  0  0  # atno 10763 bound_to 10752
  153.4889  135.3677  155.2481 H   0  0  0  0  0  0  0  0  0  0  0  0  # atno 10764 bound_to 10752
  154.8715  135.4084  154.3423 H   0  0  0  0  0  0  0  0  0  0  0  0  # atno 10765 bound_to 10752
  141.0394  133.9859  157.3019 H   0  0  0  0  0  0  0  0  0  0  0  0  # atno 11005 bound_to 11000
  146.2552  140.5166  142.8876 LP  0  0  0  0  0  0  0  0  0  0  0  0  # atno 17320 bound_to 7965
  144.8117  140.6397  143.6411 LP  0  0  0  0  0  0  0  0  0  0  0  0  # atno 17321 bound_to 7965
  139.5188  144.7011  151.5491 LP  0  0  0  0  0  0  0  0  0  0  0  0  # atno 17342 bound_to 10162
  140.6338  143.9023  150.6629 LP  0  0  0  0  0  0  0  0  0  0  0  0  # atno 17343 bound_to 10162
  156.8600  130.5110  149.5304 LP  0  0  0  0  0  0  0  0  0  0  0  0  # atno 17370 bound_to 10713
  156.0873  130.5868  150.9670 LP  0  0  0  0  0  0  0  0  0  0  0  0  # atno 17371 bound_to 10713
  139.9264  135.0201  156.8250 LP  0  0  0  0  0  0  0  0  0  0  0  0  # atno 17394 bound_to 11000
  140.6262  133.9948  155.7641 LP  0  0  0  0  0  0  0  0  0  0  0  0  # atno 17395 bound_to 11000

$$$$
