AV-unprocessed.smi:3209|AV-procd|sdf|12270|dock5
  -GOLD-   2272018103D 1   1.00000     0.00000
 Structure written by MMmdl.
 37 39  0  0  0  0  0  0  0  0  2 V2000
  153.6617  138.3814  154.2144 C   0  0  0  0  0  0  0  0  0  0  0  0
  152.2713  138.6755  154.6639 C   0  0  0  0  0  0  0  0  0  0  0  0
  151.7484  139.9044  154.6969 N   0  0  0  0  0  0  0  0  0  0  0  0
  150.4294  139.9161  155.1612 C   0  0  0  0  0  0  0  0  0  0  0  0
  149.6856  141.2129  155.2638 C   0  0  0  0  0  0  0  0  0  0  0  0
  149.5786  141.7072  156.7126 C   0  0  0  0  0  0  0  0  0  0  0  0
  150.5440  142.7941  156.9743 N   0  3  0  0  0  0  0  0  0  0  0  0
  150.9369  142.9484  158.3929 C   0  0  2  0  0  0  0  0  0  0  0  0
  150.4662  144.3054  158.9626 C   0  0  0  0  0  0  0  0  0  0  0  0
  151.7747  144.9455  159.4608 C   0  0  1  0  0  0  0  0  0  0  0  0
  152.2888  144.1777  160.6925 C   0  0  0  0  0  0  0  0  0  0  0  0
  152.7927  142.8564  160.0816 C   0  0  0  0  0  0  0  0  0  0  0  0
  152.4702  143.0274  158.5850 C   0  0  2  0  0  0  0  0  0  0  0  0
  152.7596  144.5119  158.3827 C   0  0  0  0  0  0  0  0  0  0  0  0
  149.9555  138.6669  155.4760 C   0  0  0  0  0  0  0  0  0  0  0  0
  151.1519  137.4303  155.2034 S   0  0  0  0  0  0  0  0  0  0  0  0
  154.2303  139.3040  154.0926 H   0  0  0  0  0  0  0  0  0  0  0  0
  153.6405  137.8539  153.2607 H   0  0  0  0  0  0  0  0  0  0  0  0
  154.1672  137.7552  154.9500 H   0  0  0  0  0  0  0  0  0  0  0  0
  150.1805  141.9723  154.6567 H   0  0  0  0  0  0  0  0  0  0  0  0
  148.6856  141.0990  154.8429 H   0  0  0  0  0  0  0  0  0  0  0  0
  148.5691  142.0716  156.9084 H   0  0  0  0  0  0  0  0  0  0  0  0
  149.7603  140.8788  157.3975 H   0  0  0  0  0  0  0  0  0  0  0  0
  151.3759  142.6424  156.4222 H   0  0  0  0  0  0  0  0  0  0  0  0
  150.5066  142.1278  158.9695 H   0  0  0  0  0  0  0  0  0  0  0  0
  150.0095  144.9297  158.1927 H   0  0  0  0  0  0  0  0  0  0  0  0
  149.7358  144.1864  159.7637 H   0  0  0  0  0  0  0  0  0  0  0  0
  151.7038  146.0227  159.6146 H   0  0  0  0  0  0  0  0  0  0  0  0
  153.1076  144.7148  161.1729 H   0  0  0  0  0  0  0  0  0  0  0  0
  151.5078  144.0215  161.4379 H   0  0  0  0  0  0  0  0  0  0  0  0
  153.8676  142.7502  160.2355 H   0  0  0  0  0  0  0  0  0  0  0  0
  152.3068  141.9824  160.5170 H   0  0  0  0  0  0  0  0  0  0  0  0
  153.0458  142.3563  157.9470 H   0  0  0  0  0  0  0  0  0  0  0  0
  152.5006  144.8754  157.3869 H   0  0  0  0  0  0  0  0  0  0  0  0
  153.7926  144.7864  158.6052 H   0  0  0  0  0  0  0  0  0  0  0  0
  148.9790  138.3981  155.8509 H   0  0  0  0  0  0  0  0  0  0  0  0
  150.1144  143.6584  156.6765 H   0  0  0  0  0  0  0  0  0  0  0  0
  1  2  1  0  0  0  0
  1 17  1  0  0  0  0
  1 18  1  0  0  0  0
  1 19  1  0  0  0  0
  2 16  1  0  0  0  0
  2  3  2  0  0  0  0
  3  4  1  0  0  0  0
  4  5  1  0  0  0  0
  4 15  2  0  0  0  0
  5  6  1  0  0  0  0
  5 20  1  0  0  0  0
  5 21  1  0  0  0  0
  6  7  1  0  0  0  0
  6 22  1  0  0  0  0
  6 23  1  0  0  0  0
  7  8  1  0  0  0  0
  7 24  1  0  0  0  0
  7 37  1  0  0  0  0
  8 13  1  0  0  0  0
  8  9  1  0  0  0  0
  8 25  1  0  0  0  0
  9 10  1  0  0  0  0
  9 26  1  0  0  0  0
  9 27  1  0  0  0  0
 10 14  1  0  0  0  0
 10 11  1  0  0  0  0
 10 28  1  0  0  0  0
 11 12  1  0  0  0  0
 11 29  1  0  0  0  0
 11 30  1  0  0  0  0
 12 13  1  0  0  0  0
 12 31  1  0  0  0  0
 12 32  1  0  0  0  0
 13 14  1  0  0  0  0
 13 33  1  0  0  0  0
 14 34  1  0  0  0  0
 14 35  1  0  0  0  0
 15 16  1  0  0  0  0
 15 36  1  0  0  0  0
M  CHG  1   7   1
M  END
> <s_m_source_file>
AV-unprocessed.smi

> <i_m_source_file_index>
3209

> <i_lp_mmshare_version>
43012

> <i_f3d_flags>
0

> <s_epik_input>
W0NIM11jMW5jKFtjSF1zMSlbQ0gyXVtDSDJdW05IXVtDQEhdKFtDSDJdW0NASF0yMylbQ0BIXShbQ0gyXTMpW0NIMl1bQ0gyXTI=

> <s_epik_cmdline>
J2VwaWtfcHl0aG9uJywgJy1waCcsICc3LjAnLCAnLXRuJywgJzgnLCAnLW1hJywgJzIwMCcsICctbWV0YWxfYmluZGluZycsICctaW1hZScsICc8aW5maWxlLm1hZT4nLCAnLW9tYWUnLCAnPG91dGZpbGUubWFlPic=

> <r_lp_tautomer_probability>
1

> <r_epik_Ionization_Penalty>
0.000342479

> <r_epik_Ionization_Penalty_Charging>
0.000317129

> <r_epik_Ionization_Penalty_Neutral>
2.535e-05

> <r_epik_State_Penalty>
-0

> <r_epik_Charging_Adjusted_Penalty>
0.000317129

> <i_epik_Tot_Q>
1

> <i_epik_Tot_abs_Q>
1

> <r_epik_Metal_State_Penalty>
-0

> <b_epik_Metal_Only>
0

> <s_lp_Force_Field>
OPLS_2005

> <r_lp_Energy>
48.4774

> <b_lp_Chiralities_Consistent>
1

> <s_lp_Variant>
AV-unprocessed.smi:3209-3

> <Gold.Version>
5.8.1

> <Gold.Id.Protein>
6NUR|6NUR_protein|mol2

> <Gold.PLP.Fitness>
48.3681

> <Gold.PLP.PLP>
-42.1130

> <Gold.PLP.part.hbond>
-2.0000

> <Gold.PLP.part.metal>
0.0000

> <Gold.PLP.part.buried>
-4.6122

> <Gold.PLP.part.nonpolar>
-36.7823

> <Gold.PLP.part.repulsive>
0.0814

> <Gold.PLP.ligand.clash>
0.0000

> <Gold.PLP.ligand.torsion>
1.3690

> <Gold.PLP.Chemscore.Hbond>
2.9920

> <Gold.PLP.Chemscore.CHOScore>
0.0000

> <Gold.PLP.Chemscore.Metal>
0.0000

> <Gold.Chemscore.Hbonds>
donor molecule, donor type, donor heavy atom, donor atom, acceptor molecule, acceptor atom, score
      L1  H     7    37       P1  8028  2.00
      P1  H  7989  7998       L1     3  1.00

> <Gold.PLP.Chemscore.Internal.Correction>
0.0172

> <Gold.Rescore>
     Score         DG    S(hbond)    S(metal)    S(lipo)     H(rot)  DE(clash)    DE(int)     intcor
     21.81     -23.16       1.91        0.00     125.20       1.31       0.06       1.29       ----

> <Gold.Chemscore.Fitness>
21.8138

> <Gold.Chemscore.DG>
-23.1609

> <Gold.Chemscore.ZeroCoef>
-5.4800

> <Gold.Chemscore.Hbond>
1.9126

> <Gold.Chemscore.Metal>
0.0000

> <Gold.Chemscore.Lipo>
125.2030

> <Gold.Chemscore.Internal_Hbond>
0.0000

> <Gold.Chemscore.DEClash>
0.0565

> <Gold.Chemscore.DEInternal>
1.2906

> <Gold.Chemscore.Rot>
1.3108

> <Gold.Chemscore.Internal.Correction>
   9.000000E+99

> <Gold.Chemscore.Hbonds>
donor molecule, donor type, donor heavy atom, donor atom, acceptor molecule, acceptor atom, score
      L1  H     7    37       P1  8028  0.98
      P1  H  7989  7998       L1     3  0.31

> <Gold.Chemscore.Hbond.Weighted>
-6.3879

> <Gold.Chemscore.Metal.Weighted>
-0.0000

> <Gold.Chemscore.Lipo.Weighted>
-14.6488

> <Gold.Chemscore.Internal_Hbond.Weighted>
0.0000

> <Gold.Chemscore.DEClash.Weighted>
0.0565

> <Gold.Chemscore.DEInternal.Weighted>
1.2906

> <Gold.Chemscore.Rot.Weighted>
3.3558

> <Gold.Chemscore.Internal.Correction.Weighted>
   9.000000E+99

> <Gold.Protein.RotatedTorsions>
[ 6907 6896 6895 6894 ] final  103.79 input  -60.11 | X-H torsion
[ 7974 7965 7964 7962 ] final  -84.27 input  175.53 | X-H torsion
[ 8008 7997 7996 7995 ] final   34.74 input   59.86 | X-H torsion
[ 10167 10162 10161 10158 ] final  -99.95 input  -65.29 | X-H torsion
[ 10718 10713 10712 10709 ] final -161.21 input   66.30 | X-H torsion
[ 10763 10752 10751 10750 ] final   20.19 input  -60.55 | X-H torsion
[ 11005 11000 10999 10996 ] final   36.42 input  -57.11 | X-H torsion

> <Gold.Protein.ActiveResidues>
 VAL166  LYS551  ARG553  GLY616  TRP617  ASP618  TYR619  PRO620  LYS621  CYS622 
 ASP623  PHE694  ASN695  SER759  ASP760  ASP761  ALA762  ILE779  LEU786  VAL792 
 PHE793  MET794  SER795  GLU796  ALA797  LYS798  CYS799  TRP800  GLU811  SER814 

> <Gold.Protein.RotatedAtoms>
  152.5285  133.9774  159.7790 H   0  0  0  0  0  0  0  0  0  0  0  0  # atno 6907 bound_to 6896
  151.0034  133.6026  159.2699 H   0  0  0  0  0  0  0  0  0  0  0  0  # atno 6908 bound_to 6896
  151.3127  135.0805  159.9331 H   0  0  0  0  0  0  0  0  0  0  0  0  # atno 6909 bound_to 6896
  145.5089  140.9541  143.1718 H   0  0  0  0  0  0  0  0  0  0  0  0  # atno 7974 bound_to 7965
  155.1598  140.3282  155.4414 H   0  0  0  0  0  0  0  0  0  0  0  0  # atno 8008 bound_to 7997
  156.2546  140.1962  156.6656 H   0  0  0  0  0  0  0  0  0  0  0  0  # atno 8009 bound_to 7997
  154.6413  140.0570  156.9835 H   0  0  0  0  0  0  0  0  0  0  0  0  # atno 8010 bound_to 7997
  140.2570  143.3433  152.0661 H   0  0  0  0  0  0  0  0  0  0  0  0  # atno 10167 bound_to 10162
  156.5931  130.8778  151.2895 H   0  0  0  0  0  0  0  0  0  0  0  0  # atno 10718 bound_to 10713
  153.1098  135.6694  153.9521 H   0  0  0  0  0  0  0  0  0  0  0  0  # atno 10763 bound_to 10752
  153.9067  135.3029  155.3450 H   0  0  0  0  0  0  0  0  0  0  0  0  # atno 10764 bound_to 10752
  154.7518  135.5031  153.9380 H   0  0  0  0  0  0  0  0  0  0  0  0  # atno 10765 bound_to 10752
  140.2328  134.3507  155.7957 H   0  0  0  0  0  0  0  0  0  0  0  0  # atno 11005 bound_to 11000
  144.7738  139.6675  143.7183 LP  0  0  0  0  0  0  0  0  0  0  0  0  # atno 17320 bound_to 7965
  146.2179  139.5582  142.9638 LP  0  0  0  0  0  0  0  0  0  0  0  0  # atno 17321 bound_to 7965
  139.5028  144.6743  151.6167 LP  0  0  0  0  0  0  0  0  0  0  0  0  # atno 17342 bound_to 10162
  140.5996  143.9634  150.6377 LP  0  0  0  0  0  0  0  0  0  0  0  0  # atno 17343 bound_to 10162
  157.7299  130.9677  150.1807 LP  0  0  0  0  0  0  0  0  0  0  0  0  # atno 17370 bound_to 10713
  156.2533  130.3703  149.8209 LP  0  0  0  0  0  0  0  0  0  0  0  0  # atno 17371 bound_to 10713
  141.2216  133.7255  156.8759 LP  0  0  0  0  0  0  0  0  0  0  0  0  # atno 17394 bound_to 11000
  140.1733  134.9084  157.2860 LP  0  0  0  0  0  0  0  0  0  0  0  0  # atno 17395 bound_to 11000

$$$$
