AV-unprocessed.smi:560|AV-procd|sdf|2933|dock5
  -GOLD-   2262023423D 1   1.00000     0.00000
 Structure written by MMmdl.
 41 42  0  0  0  0  0  0  0  0  3 V2000
  153.3513  141.5659  160.7495 C   0  0  0  0  0  0  0  0  0  0  0  0
  152.9986  141.8129  159.2688 C   0  0  1  0  0  0  0  0  0  0  0  0
  152.1295  140.6950  158.6713 C   0  0  0  0  0  0  0  0  0  0  0  0
  151.7383  139.7595  159.3705 O   0  0  0  0  0  0  0  0  0  0  0  0
  151.8348  140.8057  157.3659 N   0  0  0  0  0  0  0  0  0  0  0  0
  151.0208  139.8642  156.6036 C   0  0  2  0  0  0  0  0  0  0  0  0
  150.8446  140.3425  155.1502 C   0  0  0  0  0  0  0  0  0  0  0  0
  149.8973  139.4166  154.3705 C   0  0  0  0  0  0  0  0  0  0  0  0
  148.5792  139.3084  155.0501 N   0  3  1  0  0  0  0  0  0  0  0  0
  147.5723  138.5480  154.2661 C   0  0  0  0  0  0  0  0  0  0  0  0
  147.3186  139.2150  152.9092 C   0  0  0  0  0  0  0  0  0  0  0  0
  147.5439  138.3797  151.8748 N   0  5  0  0  0  0  0  0  0  0  0  0
  146.9526  140.3871  152.8672 O   0  0  0  0  0  0  0  0  0  0  0  0
  148.7189  138.8038  156.4388 C   0  0  0  0  0  0  0  0  0  0  0  0
  149.6427  139.7119  157.2677 C   0  0  0  0  0  0  0  0  0  0  0  0
  152.3683  143.1115  159.0626 N   0  0  0  0  0  0  0  0  0  0  0  0
  152.8447  144.3535  159.4309 C   0  0  0  0  0  0  0  0  0  0  0  0
  151.9398  145.2836  159.0065 C   0  0  0  0  0  0  0  0  0  0  0  0
  150.9328  144.5083  158.3678 C   0  0  0  0  0  0  0  0  0  0  0  0
  151.1944  143.2121  158.3960 N   0  0  0  0  0  0  0  0  0  0  0  0
  153.8714  140.6158  160.8760 H   0  0  0  0  0  0  0  0  0  0  0  0
  152.4659  141.5447  161.3862 H   0  0  0  0  0  0  0  0  0  0  0  0
  154.0085  142.3502  161.1263 H   0  0  0  0  0  0  0  0  0  0  0  0
  153.9393  141.8227  158.7154 H   0  0  0  0  0  0  0  0  0  0  0  0
  152.1974  141.6045  156.8656 H   0  0  0  0  0  0  0  0  0  0  0  0
  151.5112  138.8886  156.6027 H   0  0  0  0  0  0  0  0  0  0  0  0
  150.4464  141.3583  155.1385 H   0  0  0  0  0  0  0  0  0  0  0  0
  151.8103  140.3840  154.6451 H   0  0  0  0  0  0  0  0  0  0  0  0
  149.7710  139.8066  153.3602 H   0  0  0  0  0  0  0  0  0  0  0  0
  150.3400  138.4243  154.2719 H   0  0  0  0  0  0  0  0  0  0  0  0
  147.8939  137.5134  154.1342 H   0  0  0  0  0  0  0  0  0  0  0  0
  146.6215  138.5127  154.8006 H   0  0  0  0  0  0  0  0  0  0  0  0
  148.2110  137.6087  152.0013 H   0  0  0  0  0  0  0  0  0  0  0  0
  147.7385  138.7630  156.9149 H   0  0  0  0  0  0  0  0  0  0  0  0
  149.1064  137.7839  156.4196 H   0  0  0  0  0  0  0  0  0  0  0  0
  149.7543  139.3039  158.2730 H   0  0  0  0  0  0  0  0  0  0  0  0
  149.1748  140.6911  157.3818 H   0  0  0  0  0  0  0  0  0  0  0  0
  153.7787  144.4714  159.9605 H   0  0  0  0  0  0  0  0  0  0  0  0
  151.9910  146.3550  159.1299 H   0  0  0  0  0  0  0  0  0  0  0  0
  150.0282  144.8467  157.8844 H   0  0  0  0  0  0  0  0  0  0  0  0
  148.2050  140.2447  155.1212 H   0  0  0  0  0  0  0  0  0  0  0  0
  1  2  1  0  0  0  0
  1 21  1  0  0  0  0
  1 22  1  0  0  0  0
  1 23  1  0  0  0  0
  2  3  1  0  0  0  0
  2 16  1  0  0  0  0
  2 24  1  0  0  0  0
  3  4  2  0  0  0  0
  3  5  1  0  0  0  0
  5  6  1  0  0  0  0
  5 25  1  0  0  0  0
  6 15  1  0  0  0  0
  6  7  1  0  0  0  0
  6 26  1  0  0  0  0
  7  8  1  0  0  0  0
  7 27  1  0  0  0  0
  7 28  1  0  0  0  0
  8  9  1  0  0  0  0
  8 29  1  0  0  0  0
  8 30  1  0  0  0  0
  9 10  1  0  0  0  0
  9 14  1  0  0  0  0
  9 41  1  0  0  0  0
 10 11  1  0  0  0  0
 10 31  1  0  0  0  0
 10 32  1  0  0  0  0
 11 12  1  0  0  0  0
 11 13  2  0  0  0  0
 12 33  1  0  0  0  0
 14 15  1  0  0  0  0
 14 34  1  0  0  0  0
 14 35  1  0  0  0  0
 15 36  1  0  0  0  0
 15 37  1  0  0  0  0
 16 20  1  0  0  0  0
 16 17  1  0  0  0  0
 17 18  2  0  0  0  0
 17 38  1  0  0  0  0
 18 19  1  0  0  0  0
 18 39  1  0  0  0  0
 19 20  2  0  0  0  0
 19 40  1  0  0  0  0
M  CHG  1   9   1
M  CHG  1  12  -1
M  END
> <s_m_source_file>
AV-unprocessed.smi

> <i_m_source_file_index>
560

> <i_lp_mmshare_version>
43012

> <i_f3d_flags>
0

> <s_epik_input>
bjFbY0hdW2NIXVtjSF1uMVtDQEhdKFtDSDNdKUMoPU8pW05IXVtDSF0yW0NIMl1bQ0gyXU4oW0NIMl1bQ0gyXTIpW0NIMl1DKD1PKVtOSDJd

> <s_epik_cmdline>
J2VwaWtfcHl0aG9uJywgJy1waCcsICc3LjAnLCAnLXRuJywgJzgnLCAnLW1hJywgJzIwMCcsICctbWV0YWxfYmluZGluZycsICctaW1hZScsICc8aW5maWxlLm1hZT4nLCAnLW9tYWUnLCAnPG91dGZpbGUubWFlPic=

> <r_lp_tautomer_probability>
1

> <r_epik_Ionization_Penalty>
5.71084

> <r_epik_Ionization_Penalty_Charging>
5.71081

> <r_epik_Ionization_Penalty_Neutral>
3.04611e-05

> <r_epik_State_Penalty>
6.71277

> <r_epik_Charging_Adjusted_Penalty>
12.4236

> <i_epik_Tot_Q>
0

> <i_epik_Tot_abs_Q>
2

> <r_epik_Metal_State_Penalty>
2.67562

> <b_epik_Metal_Only>
1

> <s_lp_Force_Field>
OPLS_2005

> <r_lp_Energy>
10.2497

> <b_lp_Chiralities_Consistent>
1

> <s_lp_Variant>
AV-unprocessed.smi:560-8

> <Gold.Version>
5.8.1

> <Gold.Id.Protein>
6NUR|6NUR_protein|mol2

> <Gold.PLP.Fitness>
41.7347

> <Gold.PLP.PLP>
-35.4873

> <Gold.PLP.part.hbond>
-2.5104

> <Gold.PLP.part.metal>
0.0000

> <Gold.PLP.part.buried>
-3.2182

> <Gold.PLP.part.nonpolar>
-30.6870

> <Gold.PLP.part.repulsive>
0.4138

> <Gold.PLP.ligand.clash>
0.0000

> <Gold.PLP.ligand.torsion>
0.1035

> <Gold.PLP.Chemscore.Hbond>
1.0000

> <Gold.PLP.Chemscore.CHOScore>
1.1073

> <Gold.PLP.Chemscore.Metal>
0.0000

> <Gold.Chemscore.Hbonds>
donor molecule, donor type, donor heavy atom, donor atom, acceptor molecule, acceptor atom, score
      L1  H    12    33       P1  7948  1.00
      L1  C    19    40       P1  8028  0.51
      L1  C    19    40       P1  8029  0.52

> <Gold.PLP.Chemscore.Internal.Correction>
0.1325

> <Gold.Rescore>
     Score         DG    S(hbond)    S(metal)    S(lipo)     H(rot)  DE(clash)    DE(int)     intcor
      9.76     -11.97       1.00        0.00      81.14       2.47       0.39       1.82       ----

> <Gold.Chemscore.Fitness>
9.7577

> <Gold.Chemscore.DG>
-11.9667

> <Gold.Chemscore.ZeroCoef>
-5.4800

> <Gold.Chemscore.Hbond>
0.9955

> <Gold.Chemscore.Metal>
0.0000

> <Gold.Chemscore.Lipo>
81.1421

> <Gold.Chemscore.Internal_Hbond>
0.0000

> <Gold.Chemscore.DEClash>
0.3912

> <Gold.Chemscore.DEInternal>
1.8178

> <Gold.Chemscore.Rot>
2.4734

> <Gold.Chemscore.Internal.Correction>
   9.000000E+99

> <Gold.Chemscore.Hbonds>
donor molecule, donor type, donor heavy atom, donor atom, acceptor molecule, acceptor atom, score
      L1  H    12    33       P1  7948  0.94

> <Gold.Chemscore.Hbond.Weighted>
-3.3249

> <Gold.Chemscore.Metal.Weighted>
-0.0000

> <Gold.Chemscore.Lipo.Weighted>
-9.4936

> <Gold.Chemscore.Internal_Hbond.Weighted>
0.0000

> <Gold.Chemscore.DEClash.Weighted>
0.3912

> <Gold.Chemscore.DEInternal.Weighted>
1.8178

> <Gold.Chemscore.Rot.Weighted>
6.3318

> <Gold.Chemscore.Internal.Correction.Weighted>
   9.000000E+99

> <Gold.Protein.RotatedTorsions>
[ 6907 6896 6895 6894 ] final  156.92 input  -60.11 | X-H torsion
[ 7974 7965 7964 7962 ] final -117.01 input  175.53 | X-H torsion
[ 8008 7997 7996 7995 ] final   54.07 input   59.86 | X-H torsion
[ 10167 10162 10161 10158 ] final  116.08 input  -65.29 | X-H torsion
[ 10718 10713 10712 10709 ] final  116.54 input   66.30 | X-H torsion
[ 10763 10752 10751 10750 ] final  -25.14 input  -60.55 | X-H torsion
[ 11005 11000 10999 10996 ] final  171.72 input  -57.11 | X-H torsion

> <Gold.Protein.ActiveResidues>
 VAL166  LYS551  ARG553  GLY616  TRP617  ASP618  TYR619  PRO620  LYS621  CYS622 
 ASP623  PHE694  ASN695  SER759  ASP760  ASP761  ALA762  ILE779  LEU786  VAL792 
 PHE793  MET794  SER795  GLU796  ALA797  LYS798  CYS799  TRP800  GLU811  SER814 

> <Gold.Protein.RotatedAtoms>
  152.0227  133.3905  159.4264 H   0  0  0  0  0  0  0  0  0  0  0  0  # atno 6907 bound_to 6896
  150.6889  134.3608  159.4959 H   0  0  0  0  0  0  0  0  0  0  0  0  # atno 6908 bound_to 6896
  152.1384  134.9081  160.0606 H   0  0  0  0  0  0  0  0  0  0  0  0  # atno 6909 bound_to 6896
  145.0902  140.8484  143.3987 H   0  0  0  0  0  0  0  0  0  0  0  0  # atno 7974 bound_to 7965
  155.4787  140.3467  155.4336 H   0  0  0  0  0  0  0  0  0  0  0  0  # atno 8008 bound_to 7997
  156.1053  140.1446  156.9441 H   0  0  0  0  0  0  0  0  0  0  0  0  # atno 8009 bound_to 7997
  154.4720  140.0897  156.7147 H   0  0  0  0  0  0  0  0  0  0  0  0  # atno 8010 bound_to 7997
  139.6272  144.7110  151.2508 H   0  0  0  0  0  0  0  0  0  0  0  0  # atno 10167 bound_to 10162
  157.6154  131.1026  150.7487 H   0  0  0  0  0  0  0  0  0  0  0  0  # atno 10718 bound_to 10713
  153.6950  135.6959  153.5079 H   0  0  0  0  0  0  0  0  0  0  0  0  # atno 10763 bound_to 10752
  153.2384  135.4314  155.0671 H   0  0  0  0  0  0  0  0  0  0  0  0  # atno 10764 bound_to 10752
  154.8361  135.3502  154.6491 H   0  0  0  0  0  0  0  0  0  0  0  0  # atno 10765 bound_to 10752
  140.3220  134.7429  157.4071 H   0  0  0  0  0  0  0  0  0  0  0  0  # atno 11005 bound_to 11000
  145.1075  139.2780  143.5654 LP  0  0  0  0  0  0  0  0  0  0  0  0  # atno 17320 bound_to 7965
  146.3531  140.0661  142.8626 LP  0  0  0  0  0  0  0  0  0  0  0  0  # atno 17321 bound_to 7965
  140.7418  143.6546  150.8218 LP  0  0  0  0  0  0  0  0  0  0  0  0  # atno 17342 bound_to 10162
  140.0165  143.5587  152.2818 LP  0  0  0  0  0  0  0  0  0  0  0  0  # atno 17343 bound_to 10162
  156.7855  130.4873  149.5393 LP  0  0  0  0  0  0  0  0  0  0  0  0  # atno 17370 bound_to 10713
  156.1274  130.6153  151.0283 LP  0  0  0  0  0  0  0  0  0  0  0  0  # atno 17371 bound_to 10713
  140.0934  134.5571  155.8422 LP  0  0  0  0  0  0  0  0  0  0  0  0  # atno 17394 bound_to 11000
  141.2084  133.6673  156.6370 LP  0  0  0  0  0  0  0  0  0  0  0  0  # atno 17395 bound_to 11000

$$$$
