AV-unprocessed.smi:3249|AV-procd|sdf|12418|dock10
  -GOLD-   2272018303D 1   1.00000     0.00000
 Structure written by MMmdl.
 44 45  0  0  0  0  0  0  0  0  2 V2000
  151.5632  136.6394  156.4954 C   0  0  0  0  0  0  0  0  0  0  0  0
  151.1298  137.8571  155.7315 C   0  0  0  0  0  0  0  0  0  0  0  0
  151.9476  138.8945  155.2014 C   0  0  0  0  0  0  0  0  0  0  0  0
  151.2492  139.8356  154.5878 N   0  0  0  0  0  0  0  0  0  0  0  0
  149.9656  139.4277  154.6863 N   0  0  0  0  0  0  0  0  0  0  0  0
  148.9002  140.2596  154.1364 C   0  0  1  0  0  0  0  0  0  0  0  0
  147.7570  139.3665  153.6186 C   0  0  0  0  0  0  0  0  0  0  0  0
  148.4407  141.3160  155.1748 C   0  0  2  0  0  0  0  0  0  0  0  0
  147.3076  142.2153  154.6455 C   0  0  0  0  0  0  0  0  0  0  0  0
  149.5951  142.1506  155.5839 N   0  3  0  0  0  0  0  0  0  0  0  0
  150.4851  141.5507  156.5994 C   0  0  0  0  0  0  0  0  0  0  0  0
  150.7763  142.5503  157.7271 C   0  0  2  0  0  0  0  0  0  0  0  0
  151.5064  143.8049  157.2098 C   0  0  0  0  0  0  0  0  0  0  0  0
  151.8601  144.7400  158.3719 C   0  0  0  0  0  0  0  0  0  0  0  0
  152.6310  143.9630  159.4441 C   0  0  0  0  0  0  0  0  0  0  0  0
  151.8589  142.6962  159.8451 C   0  0  0  0  0  0  0  0  0  0  0  0
  151.6002  141.8997  158.6925 O   0  0  0  0  0  0  0  0  0  0  0  0
  149.8658  138.2391  155.3819 C   0  0  0  0  0  0  0  0  0  0  0  0
  152.6464  136.5161  156.4814 H   0  0  0  0  0  0  0  0  0  0  0  0
  151.1320  135.7286  156.0798 H   0  0  0  0  0  0  0  0  0  0  0  0
  151.2596  136.6921  157.5411 H   0  0  0  0  0  0  0  0  0  0  0  0
  153.0221  138.9945  155.2503 H   0  0  0  0  0  0  0  0  0  0  0  0
  149.3091  140.7878  153.2725 H   0  0  0  0  0  0  0  0  0  0  0  0
  147.0287  139.9374  153.0434 H   0  0  0  0  0  0  0  0  0  0  0  0
  147.2272  138.8774  154.4365 H   0  0  0  0  0  0  0  0  0  0  0  0
  148.1400  138.5876  152.9583 H   0  0  0  0  0  0  0  0  0  0  0  0
  148.0769  140.7824  156.0548 H   0  0  0  0  0  0  0  0  0  0  0  0
  146.4096  141.6409  154.4206 H   0  0  0  0  0  0  0  0  0  0  0  0
  147.6074  142.7358  153.7354 H   0  0  0  0  0  0  0  0  0  0  0  0
  147.0173  142.9691  155.3770 H   0  0  0  0  0  0  0  0  0  0  0  0
  150.1543  142.3136  154.7581 H   0  0  0  0  0  0  0  0  0  0  0  0
  150.0412  140.6416  157.0058 H   0  0  0  0  0  0  0  0  0  0  0  0
  151.4210  141.2651  156.1172 H   0  0  0  0  0  0  0  0  0  0  0  0
  149.8341  142.8462  158.1926 H   0  0  0  0  0  0  0  0  0  0  0  0
  152.4183  143.5114  156.6875 H   0  0  0  0  0  0  0  0  0  0  0  0
  150.8869  144.3327  156.4837 H   0  0  0  0  0  0  0  0  0  0  0  0
  152.4499  145.5850  158.0157 H   0  0  0  0  0  0  0  0  0  0  0  0
  150.9472  145.1535  158.8023 H   0  0  0  0  0  0  0  0  0  0  0  0
  153.6129  143.6838  159.0599 H   0  0  0  0  0  0  0  0  0  0  0  0
  152.8038  144.5932  160.3170 H   0  0  0  0  0  0  0  0  0  0  0  0
  152.4445  142.1099  160.5535 H   0  0  0  0  0  0  0  0  0  0  0  0
  150.9217  142.9516  160.3419 H   0  0  0  0  0  0  0  0  0  0  0  0
  148.9125  137.7684  155.5729 H   0  0  0  0  0  0  0  0  0  0  0  0
  149.2576  143.0424  155.9173 H   0  0  0  0  0  0  0  0  0  0  0  0
  1  2  1  0  0  0  0
  1 19  1  0  0  0  0
  1 20  1  0  0  0  0
  1 21  1  0  0  0  0
  2 18  2  0  0  0  0
  2  3  1  0  0  0  0
  3  4  2  0  0  0  0
  3 22  1  0  0  0  0
  4  5  1  0  0  0  0
  5  6  1  0  0  0  0
  5 18  1  0  0  0  0
  6  7  1  0  0  0  0
  6  8  1  0  0  0  0
  6 23  1  0  0  0  0
  7 24  1  0  0  0  0
  7 25  1  0  0  0  0
  7 26  1  0  0  0  0
  8  9  1  0  0  0  0
  8 10  1  0  0  0  0
  8 27  1  0  0  0  0
  9 28  1  0  0  0  0
  9 29  1  0  0  0  0
  9 30  1  0  0  0  0
 10 11  1  0  0  0  0
 10 31  1  0  0  0  0
 10 44  1  0  0  0  0
 11 12  1  0  0  0  0
 11 32  1  0  0  0  0
 11 33  1  0  0  0  0
 12 17  1  0  0  0  0
 12 13  1  0  0  0  0
 12 34  1  0  0  0  0
 13 14  1  0  0  0  0
 13 35  1  0  0  0  0
 13 36  1  0  0  0  0
 14 15  1  0  0  0  0
 14 37  1  0  0  0  0
 14 38  1  0  0  0  0
 15 16  1  0  0  0  0
 15 39  1  0  0  0  0
 15 40  1  0  0  0  0
 16 17  1  0  0  0  0
 16 41  1  0  0  0  0
 16 42  1  0  0  0  0
 18 43  1  0  0  0  0
M  CHG  1  10   1
M  END
> <s_m_source_file>
AV-unprocessed.smi

> <i_m_source_file_index>
3249

> <i_lp_mmshare_version>
43012

> <i_f3d_flags>
0

> <s_epik_input>
W0NIM11jMVtjSF1ubihbY0hdMSlbQ0BIXShbQ0gzXSlbQ0BIXShbQ0gzXSlbTkhdW0NIMl1bQ0BASF0yW0NIMl1bQ0gyXVtDSDJdW0NIMl1PMg==

> <s_epik_cmdline>
J2VwaWtfcHl0aG9uJywgJy1waCcsICc3LjAnLCAnLXRuJywgJzgnLCAnLW1hJywgJzIwMCcsICctbWV0YWxfYmluZGluZycsICctaW1hZScsICc8aW5maWxlLm1hZT4nLCAnLW9tYWUnLCAnPG91dGZpbGUubWFlPic=

> <r_lp_tautomer_probability>
1

> <r_epik_Ionization_Penalty>
0.00659207

> <r_epik_Ionization_Penalty_Charging>
0.00656881

> <r_epik_Ionization_Penalty_Neutral>
2.32662e-05

> <r_epik_State_Penalty>
0.0048654

> <r_epik_Charging_Adjusted_Penalty>
0.0114342

> <i_epik_Tot_Q>
1

> <i_epik_Tot_abs_Q>
1

> <r_epik_Metal_State_Penalty>
-0

> <b_epik_Metal_Only>
0

> <s_lp_Force_Field>
OPLS_2005

> <r_lp_Energy>
17.4327

> <b_lp_Chiralities_Consistent>
1

> <s_lp_Variant>
AV-unprocessed.smi:3249-2

> <Gold.Version>
5.8.1

> <Gold.Id.Protein>
6NUR|6NUR_protein|mol2

> <Gold.PLP.Fitness>
44.4009

> <Gold.PLP.PLP>
-37.9402

> <Gold.PLP.part.hbond>
-1.9861

> <Gold.PLP.part.metal>
0.0000

> <Gold.PLP.part.buried>
-2.3877

> <Gold.PLP.part.nonpolar>
-34.6720

> <Gold.PLP.part.repulsive>
0.2550

> <Gold.PLP.ligand.clash>
0.0000

> <Gold.PLP.ligand.torsion>
1.3095

> <Gold.PLP.Chemscore.Hbond>
2.9913

> <Gold.PLP.Chemscore.CHOScore>
0.0000

> <Gold.PLP.Chemscore.Metal>
0.0000

> <Gold.Chemscore.Hbonds>
donor molecule, donor type, donor heavy atom, donor atom, acceptor molecule, acceptor atom, score
      L1  H    10    44       P1  8028  2.00
      P1  H  7989  7998       L1     4  1.00

> <Gold.PLP.Chemscore.Internal.Correction>
0.1060

> <Gold.Rescore>
     Score         DG    S(hbond)    S(metal)    S(lipo)     H(rot)  DE(clash)    DE(int)     intcor
     18.75     -20.87       1.99        0.00     108.31       1.53       0.25       1.88       ----

> <Gold.Chemscore.Fitness>
18.7496

> <Gold.Chemscore.DG>
-20.8749

> <Gold.Chemscore.ZeroCoef>
-5.4800

> <Gold.Chemscore.Hbond>
1.9903

> <Gold.Chemscore.Metal>
0.0000

> <Gold.Chemscore.Lipo>
108.3116

> <Gold.Chemscore.Internal_Hbond>
0.0000

> <Gold.Chemscore.DEClash>
0.2489

> <Gold.Chemscore.DEInternal>
1.8763

> <Gold.Chemscore.Rot>
1.5333

> <Gold.Chemscore.Internal.Correction>
   9.000000E+99

> <Gold.Chemscore.Hbonds>
donor molecule, donor type, donor heavy atom, donor atom, acceptor molecule, acceptor atom, score
      L1  H    10    44       P1  8028  0.95
      P1  H  7989  7998       L1     4  0.93

> <Gold.Chemscore.Hbond.Weighted>
-6.6476

> <Gold.Chemscore.Metal.Weighted>
-0.0000

> <Gold.Chemscore.Lipo.Weighted>
-12.6725

> <Gold.Chemscore.Internal_Hbond.Weighted>
0.0000

> <Gold.Chemscore.DEClash.Weighted>
0.2489

> <Gold.Chemscore.DEInternal.Weighted>
1.8763

> <Gold.Chemscore.Rot.Weighted>
3.9252

> <Gold.Chemscore.Internal.Correction.Weighted>
   9.000000E+99

> <Gold.Protein.RotatedTorsions>
[ 6907 6896 6895 6894 ] final -105.49 input  -60.11 | X-H torsion
[ 7974 7965 7964 7962 ] final  112.05 input  175.53 | X-H torsion
[ 8008 7997 7996 7995 ] final    4.09 input   59.86 | X-H torsion
[ 10167 10162 10161 10158 ] final   54.35 input  -65.29 | X-H torsion
[ 10718 10713 10712 10709 ] final  151.15 input   66.30 | X-H torsion
[ 10763 10752 10751 10750 ] final  108.63 input  -60.55 | X-H torsion
[ 11005 11000 10999 10996 ] final -159.60 input  -57.11 | X-H torsion

> <Gold.Protein.ActiveResidues>
 VAL166  LYS551  ARG553  GLY616  TRP617  ASP618  TYR619  PRO620  LYS621  CYS622 
 ASP623  PHE694  ASN695  SER759  ASP760  ASP761  ALA762  ILE779  LEU786  VAL792 
 PHE793  MET794  SER795  GLU796  ALA797  LYS798  CYS799  TRP800  GLU811  SER814 

> <Gold.Protein.RotatedAtoms>
  150.7339  134.0119  159.3672 H   0  0  0  0  0  0  0  0  0  0  0  0  # atno 6907 bound_to 6896
  151.8079  135.0687  160.0418 H   0  0  0  0  0  0  0  0  0  0  0  0  # atno 6908 bound_to 6896
  152.3094  133.5701  159.5707 H   0  0  0  0  0  0  0  0  0  0  0  0  # atno 6909 bound_to 6896
  145.2344  139.2805  143.4151 H   0  0  0  0  0  0  0  0  0  0  0  0  # atno 7974 bound_to 7965
  154.7116  140.2694  155.6624 H   0  0  0  0  0  0  0  0  0  0  0  0  # atno 8008 bound_to 7997
  156.2797  140.2752  156.1684 H   0  0  0  0  0  0  0  0  0  0  0  0  # atno 8009 bound_to 7997
  155.0627  140.0371  157.2572 H   0  0  0  0  0  0  0  0  0  0  0  0  # atno 8010 bound_to 7997
  140.2311  144.3686  150.6414 H   0  0  0  0  0  0  0  0  0  0  0  0  # atno 10167 bound_to 10162
  157.2743  131.0823  151.1577 H   0  0  0  0  0  0  0  0  0  0  0  0  # atno 10718 bound_to 10713
  153.4233  135.3806  155.2125 H   0  0  0  0  0  0  0  0  0  0  0  0  # atno 10763 bound_to 10752
  154.8746  135.3822  154.4357 H   0  0  0  0  0  0  0  0  0  0  0  0  # atno 10764 bound_to 10752
  153.4880  135.7088  153.5963 H   0  0  0  0  0  0  0  0  0  0  0  0  # atno 10765 bound_to 10752
  140.6408  134.4553  157.5233 H   0  0  0  0  0  0  0  0  0  0  0  0  # atno 11005 bound_to 11000
  146.3345  140.2689  142.8605 LP  0  0  0  0  0  0  0  0  0  0  0  0  # atno 17320 bound_to 7965
  144.9646  140.8309  143.5492 LP  0  0  0  0  0  0  0  0  0  0  0  0  # atno 17321 bound_to 7965
  140.6184  143.2174  151.6744 LP  0  0  0  0  0  0  0  0  0  0  0  0  # atno 17342 bound_to 10162
  139.5110  144.3525  152.0639 LP  0  0  0  0  0  0  0  0  0  0  0  0  # atno 17343 bound_to 10162
  157.3036  130.6855  149.6177 LP  0  0  0  0  0  0  0  0  0  0  0  0  # atno 17370 bound_to 10713
  155.9663  130.4384  150.5217 LP  0  0  0  0  0  0  0  0  0  0  0  0  # atno 17371 bound_to 10713
  139.9081  134.8405  156.1630 LP  0  0  0  0  0  0  0  0  0  0  0  0  # atno 17394 bound_to 11000
  141.0608  133.6842  156.1949 LP  0  0  0  0  0  0  0  0  0  0  0  0  # atno 17395 bound_to 11000

$$$$
