AV-unprocessed.smi:3036|AV-procd|sdf|11582|dock9
  -GOLD-   2272016553D 1   1.00000     0.00000
 Structure written by MMmdl.
 42 43  0  0  0  0  0  0  0  0  2 V2000
  149.0967  132.0384  153.2962 C   0  0  0  0  0  0  0  0  0  0  0  0
  147.6993  132.6518  153.1371 C   0  0  2  0  0  0  0  0  0  0  0  0
  147.1785  132.4982  151.6947 C   0  0  0  0  0  0  0  0  0  0  0  0
  146.0097  133.3221  151.4400 N   0  0  0  0  0  0  0  0  0  0  0  0
  145.9536  134.6764  151.1871 C   0  0  0  0  0  0  0  0  0  0  0  0
  144.6409  134.9993  150.9950 C   0  0  0  0  0  0  0  0  0  0  0  0
  143.9602  133.7603  151.1538 C   0  0  0  0  0  0  0  0  0  0  0  0
  144.7823  132.7575  151.4178 N   0  0  0  0  0  0  0  0  0  0  0  0
  147.7341  134.0789  153.5267 N   0  3  0  0  0  0  0  0  0  0  0  0
  148.5859  134.3807  154.6972 C   0  0  0  0  0  0  0  0  0  0  0  0
  148.7923  135.8962  154.8902 C   0  0  0  0  0  0  0  0  0  0  0  0
  150.2540  136.3299  155.1126 C   0  0  0  0  0  0  0  0  0  0  0  0
  151.0810  135.4840  155.4572 O   0  0  0  0  0  0  0  0  0  0  0  0
  150.5887  137.6288  154.9221 N   0  0  0  0  0  0  0  0  0  0  0  0
  149.6144  138.6651  154.5677 C   0  0  0  0  0  0  0  0  0  0  0  0
  149.5445  139.6823  155.7209 C   0  0  0  0  0  0  0  0  0  0  0  0
  150.8392  140.2289  155.9595 O   0  0  0  0  0  0  0  0  0  0  0  0
  151.8140  139.2399  156.2811 C   0  0  0  0  0  0  0  0  0  0  0  0
  151.9143  138.2206  155.1322 C   0  0  0  0  0  0  0  0  0  0  0  0
  149.0911  130.9784  153.0403 H   0  0  0  0  0  0  0  0  0  0  0  0
  149.4492  132.1255  154.3247 H   0  0  0  0  0  0  0  0  0  0  0  0
  149.8246  132.5320  152.6512 H   0  0  0  0  0  0  0  0  0  0  0  0
  147.0246  132.1088  153.8014 H   0  0  0  0  0  0  0  0  0  0  0  0
  147.9561  132.7518  150.9721 H   0  0  0  0  0  0  0  0  0  0  0  0
  146.9052  131.4594  151.5043 H   0  0  0  0  0  0  0  0  0  0  0  0
  146.8418  135.2905  151.1630 H   0  0  0  0  0  0  0  0  0  0  0  0
  144.2290  135.9733  150.7751 H   0  0  0  0  0  0  0  0  0  0  0  0
  142.9010  133.5611  151.0836 H   0  0  0  0  0  0  0  0  0  0  0  0
  148.0610  134.6234  152.7406 H   0  0  0  0  0  0  0  0  0  0  0  0
  148.1101  133.9725  155.5901 H   0  0  0  0  0  0  0  0  0  0  0  0
  149.5454  133.8720  154.5914 H   0  0  0  0  0  0  0  0  0  0  0  0
  148.3907  136.4201  154.0218 H   0  0  0  0  0  0  0  0  0  0  0  0
  148.2086  136.2160  155.7541 H   0  0  0  0  0  0  0  0  0  0  0  0
  149.9308  139.1587  153.6478 H   0  0  0  0  0  0  0  0  0  0  0  0
  148.6189  138.2662  154.3691 H   0  0  0  0  0  0  0  0  0  0  0  0
  148.8606  140.4928  155.4688 H   0  0  0  0  0  0  0  0  0  0  0  0
  149.1647  139.2135  156.6301 H   0  0  0  0  0  0  0  0  0  0  0  0
  152.7751  139.7303  156.4369 H   0  0  0  0  0  0  0  0  0  0  0  0
  151.5505  138.7465  157.2179 H   0  0  0  0  0  0  0  0  0  0  0  0
  152.6938  137.4942  155.3542 H   0  0  0  0  0  0  0  0  0  0  0  0
  152.2306  138.7221  154.2164 H   0  0  0  0  0  0  0  0  0  0  0  0
  146.7891  134.3628  153.7446 H   0  0  0  0  0  0  0  0  0  0  0  0
  1  2  1  0  0  0  0
  1 20  1  0  0  0  0
  1 21  1  0  0  0  0
  1 22  1  0  0  0  0
  2  3  1  0  0  0  0
  2  9  1  0  0  0  0
  2 23  1  0  0  0  0
  3  4  1  0  0  0  0
  3 24  1  0  0  0  0
  3 25  1  0  0  0  0
  4  8  1  0  0  0  0
  4  5  1  0  0  0  0
  5  6  2  0  0  0  0
  5 26  1  0  0  0  0
  6  7  1  0  0  0  0
  6 27  1  0  0  0  0
  7  8  2  0  0  0  0
  7 28  1  0  0  0  0
  9 10  1  0  0  0  0
  9 29  1  0  0  0  0
  9 42  1  0  0  0  0
 10 11  1  0  0  0  0
 10 30  1  0  0  0  0
 10 31  1  0  0  0  0
 11 12  1  0  0  0  0
 11 32  1  0  0  0  0
 11 33  1  0  0  0  0
 12 13  2  0  0  0  0
 12 14  1  0  0  0  0
 14 19  1  0  0  0  0
 14 15  1  0  0  0  0
 15 16  1  0  0  0  0
 15 34  1  0  0  0  0
 15 35  1  0  0  0  0
 16 17  1  0  0  0  0
 16 36  1  0  0  0  0
 16 37  1  0  0  0  0
 17 18  1  0  0  0  0
 18 19  1  0  0  0  0
 18 38  1  0  0  0  0
 18 39  1  0  0  0  0
 19 40  1  0  0  0  0
 19 41  1  0  0  0  0
M  CHG  1   9   1
M  END
> <s_m_source_file>
AV-unprocessed.smi

> <i_m_source_file_index>
3036

> <i_lp_mmshare_version>
43012

> <i_f3d_flags>
0

> <s_epik_input>
bjFbY0hdW2NIXVtjSF1uMVtDSDJdW0NAQEhdKFtDSDNdKVtOSF1bQ0gyXVtDSDJdQyg9TylOMltDSDJdW0NIMl1PW0NIMl1bQ0gyXTI=

> <s_epik_cmdline>
J2VwaWtfcHl0aG9uJywgJy1waCcsICc3LjAnLCAnLXRuJywgJzgnLCAnLW1hJywgJzIwMCcsICctbWV0YWxfYmluZGluZycsICctaW1hZScsICc8aW5maWxlLm1hZT4nLCAnLW9tYWUnLCAnPG91dGZpbGUubWFlPic=

> <r_lp_tautomer_probability>
1

> <r_epik_Ionization_Penalty>
0.00797109

> <r_epik_Ionization_Penalty_Charging>
0.0079672

> <r_epik_Ionization_Penalty_Neutral>
3.88864e-06

> <r_epik_State_Penalty>
0.00597998

> <r_epik_Charging_Adjusted_Penalty>
0.0139472

> <i_epik_Tot_Q>
1

> <i_epik_Tot_abs_Q>
1

> <r_epik_Metal_State_Penalty>
0.00598029

> <b_epik_Metal_Only>
0

> <s_lp_Force_Field>
OPLS_2005

> <r_lp_Energy>
23.8433

> <b_lp_Chiralities_Consistent>
1

> <s_lp_Variant>
AV-unprocessed.smi:3036-1

> <Gold.Version>
5.8.1

> <Gold.Id.Protein>
6NUR|6NUR_protein|mol2

> <Gold.PLP.Fitness>
50.1490

> <Gold.PLP.PLP>
-34.6510

> <Gold.PLP.part.hbond>
-3.0000

> <Gold.PLP.part.metal>
0.0000

> <Gold.PLP.part.buried>
-1.2154

> <Gold.PLP.part.nonpolar>
-31.1889

> <Gold.PLP.part.repulsive>
0.2530

> <Gold.PLP.ligand.clash>
0.0000

> <Gold.PLP.ligand.torsion>
1.1425

> <Gold.PLP.Chemscore.Hbond>
3.9280

> <Gold.PLP.Chemscore.CHOScore>
1.9705

> <Gold.PLP.Chemscore.Metal>
0.0000

> <Gold.Chemscore.Hbonds>
donor molecule, donor type, donor heavy atom, donor atom, acceptor molecule, acceptor atom, score
      L1  H     9    29       P1  7948  2.00
      P1  H 10752 10765       L1    13  1.00
      L1  C     5    26       P1  7948  1.00
      L1  C     7    28       P1 10186  0.88

> <Gold.PLP.Chemscore.Internal.Correction>
0.0877

> <Gold.Rescore>
     Score         DG    S(hbond)    S(metal)    S(lipo)     H(rot)  DE(clash)    DE(int)     intcor
     13.41     -14.59       1.96        0.00      67.17       2.07       0.10       1.08       ----

> <Gold.Chemscore.Fitness>
13.4092

> <Gold.Chemscore.DG>
-14.5907

> <Gold.Chemscore.ZeroCoef>
-5.4800

> <Gold.Chemscore.Hbond>
1.9597

> <Gold.Chemscore.Metal>
0.0000

> <Gold.Chemscore.Lipo>
67.1732

> <Gold.Chemscore.Internal_Hbond>
0.0000

> <Gold.Chemscore.DEClash>
0.1013

> <Gold.Chemscore.DEInternal>
1.0802

> <Gold.Chemscore.Rot>
2.0680

> <Gold.Chemscore.Internal.Correction>
   9.000000E+99

> <Gold.Chemscore.Hbonds>
donor molecule, donor type, donor heavy atom, donor atom, acceptor molecule, acceptor atom, score
      L1  H     9    29       P1  7948  0.62
      P1  H 10752 10765       L1    13  0.92

> <Gold.Chemscore.Hbond.Weighted>
-6.5455

> <Gold.Chemscore.Metal.Weighted>
-0.0000

> <Gold.Chemscore.Lipo.Weighted>
-7.8593

> <Gold.Chemscore.Internal_Hbond.Weighted>
0.0000

> <Gold.Chemscore.DEClash.Weighted>
0.1013

> <Gold.Chemscore.DEInternal.Weighted>
1.0802

> <Gold.Chemscore.Rot.Weighted>
5.2941

> <Gold.Chemscore.Internal.Correction.Weighted>
   9.000000E+99

> <Gold.Protein.RotatedTorsions>
[ 6907 6896 6895 6894 ] final    7.32 input  -60.11 | X-H torsion
[ 7974 7965 7964 7962 ] final  -41.35 input  175.53 | X-H torsion
[ 8008 7997 7996 7995 ] final   60.78 input   59.86 | X-H torsion
[ 10167 10162 10161 10158 ] final  -19.86 input  -65.29 | X-H torsion
[ 10718 10713 10712 10709 ] final  151.05 input   66.30 | X-H torsion
[ 10763 10752 10751 10750 ] final -164.30 input  -60.55 | X-H torsion
[ 11005 11000 10999 10996 ] final  -50.85 input  -57.11 | X-H torsion

> <Gold.Protein.ActiveResidues>
 VAL166  LYS551  ARG553  GLY616  TRP617  ASP618  TYR619  PRO620  LYS621  CYS622 
 ASP623  PHE694  ASN695  SER759  ASP760  ASP761  ALA762  ILE779  LEU786  VAL792 
 PHE793  MET794  SER795  GLU796  ALA797  LYS798  CYS799  TRP800  GLU811  SER814 

> <Gold.Protein.RotatedAtoms>
  151.6880  135.0951  160.0228 H   0  0  0  0  0  0  0  0  0  0  0  0  # atno 6907 bound_to 6896
  152.3795  133.6523  159.6159 H   0  0  0  0  0  0  0  0  0  0  0  0  # atno 6908 bound_to 6896
  150.7736  133.9053  159.3395 H   0  0  0  0  0  0  0  0  0  0  0  0  # atno 6909 bound_to 6896
  146.0219  140.6840  142.9174 H   0  0  0  0  0  0  0  0  0  0  0  0  # atno 7974 bound_to 7965
  155.5879  140.3492  155.4558 H   0  0  0  0  0  0  0  0  0  0  0  0  # atno 8008 bound_to 7997
  156.0324  140.1277  157.0269 H   0  0  0  0  0  0  0  0  0  0  0  0  # atno 8009 bound_to 7997
  154.4357  140.1040  156.6104 H   0  0  0  0  0  0  0  0  0  0  0  0  # atno 8010 bound_to 7997
  140.7272  143.4777  151.0159 H   0  0  0  0  0  0  0  0  0  0  0  0  # atno 10167 bound_to 10162
  157.2757  131.0825  151.1568 H   0  0  0  0  0  0  0  0  0  0  0  0  # atno 10718 bound_to 10713
  154.7041  135.2993  154.9297 H   0  0  0  0  0  0  0  0  0  0  0  0  # atno 10763 bound_to 10752
  154.0220  135.6681  153.4777 H   0  0  0  0  0  0  0  0  0  0  0  0  # atno 10764 bound_to 10752
  153.0703  135.5064  154.8201 H   0  0  0  0  0  0  0  0  0  0  0  0  # atno 10765 bound_to 10752
  141.0839  133.6647  156.3791 H   0  0  0  0  0  0  0  0  0  0  0  0  # atno 11005 bound_to 11000
  144.6993  140.3581  143.7169 LP  0  0  0  0  0  0  0  0  0  0  0  0  # atno 17320 bound_to 7965
  145.7180  139.1702  143.2501 LP  0  0  0  0  0  0  0  0  0  0  0  0  # atno 17321 bound_to 7965
  139.8474  143.7483  152.3179 LP  0  0  0  0  0  0  0  0  0  0  0  0  # atno 17342 bound_to 10162
  139.7653  144.7494  151.0303 LP  0  0  0  0  0  0  0  0  0  0  0  0  # atno 17343 bound_to 10162
  157.3022  130.6848  149.6170 LP  0  0  0  0  0  0  0  0  0  0  0  0  # atno 17370 bound_to 10713
  155.9663  130.4388  150.5234 LP  0  0  0  0  0  0  0  0  0  0  0  0  # atno 17371 bound_to 10713
  140.5408  134.6122  157.5379 LP  0  0  0  0  0  0  0  0  0  0  0  0  # atno 17394 bound_to 11000
  139.9655  134.7381  156.0148 LP  0  0  0  0  0  0  0  0  0  0  0  0  # atno 17395 bound_to 11000

$$$$
