AV-unprocessed.smi:2243|AV-procd|sdf|9063|dock4
  -GOLD-   2272012273D 1   1.00000     0.00000
 Structure written by MMmdl.
 34 35  0  0  0  0  0  0  0  0  1 V2000
  146.9131  140.1901  151.9448 C   0  0  0  0  0  0  0  0  0  0  0  0
  146.8750  139.2593  153.1690 C   0  0  1  0  0  0  0  0  0  0  0  0
  146.9669  137.8800  152.6873 N   0  0  0  0  0  0  0  0  0  0  0  0
  145.9344  137.0886  152.3568 C   0  0  0  0  0  0  0  0  0  0  0  0
  144.7544  137.4320  152.4335 O   0  0  0  0  0  0  0  0  0  0  0  0
  146.3560  135.8845  151.9406 N   0  0  0  0  0  0  0  0  0  0  0  0
  145.5375  134.8061  151.5317 C   0  0  0  0  0  0  0  0  0  0  0  0
  144.2117  134.8930  151.4684 N   0  0  0  0  0  0  0  0  0  0  0  0
  143.8051  133.6405  151.0291 C   0  0  0  0  0  0  0  0  0  0  0  0
  144.9215  132.8636  150.8514 C   0  0  0  0  0  0  0  0  0  0  0  0
  146.0359  133.5932  151.1675 O   0  0  0  0  0  0  0  0  0  0  0  0
  147.9956  139.5556  154.2023 C   0  0  0  0  0  0  0  0  0  0  0  0
  148.4193  141.0403  154.2096 C   0  0  0  0  0  0  0  0  0  0  0  0
  149.5835  141.2875  155.1821 C   0  0  0  0  0  0  0  0  0  0  0  0
  150.6856  140.4549  154.8443 O   0  0  0  0  0  0  0  0  0  0  0  0
  150.3785  139.0708  154.9536 C   0  0  0  0  0  0  0  0  0  0  0  0
  149.2577  138.6994  153.9691 C   0  0  0  0  0  0  0  0  0  0  0  0
  146.7103  141.2255  152.2168 H   0  0  0  0  0  0  0  0  0  0  0  0
  146.1570  139.9034  151.2131 H   0  0  0  0  0  0  0  0  0  0  0  0
  147.8838  140.1561  151.4490 H   0  0  0  0  0  0  0  0  0  0  0  0
  145.9128  139.4128  153.6608 H   0  0  0  0  0  0  0  0  0  0  0  0
  147.8979  137.5013  152.5915 H   0  0  0  0  0  0  0  0  0  0  0  0
  147.3516  135.7208  151.9177 H   0  0  0  0  0  0  0  0  0  0  0  0
  142.7627  133.4014  150.8780 H   0  0  0  0  0  0  0  0  0  0  0  0
  145.0837  131.8459  150.5281 H   0  0  0  0  0  0  0  0  0  0  0  0
  147.6110  139.3169  155.1953 H   0  0  0  0  0  0  0  0  0  0  0  0
  148.7167  141.3431  153.2047 H   0  0  0  0  0  0  0  0  0  0  0  0
  147.5840  141.6811  154.4923 H   0  0  0  0  0  0  0  0  0  0  0  0
  149.9008  142.3289  155.1282 H   0  0  0  0  0  0  0  0  0  0  0  0
  149.2758  141.1027  156.2126 H   0  0  0  0  0  0  0  0  0  0  0  0
  151.2766  138.4939  154.7322 H   0  0  0  0  0  0  0  0  0  0  0  0
  150.0915  138.8297  155.9783 H   0  0  0  0  0  0  0  0  0  0  0  0
  149.0326  137.6395  154.0825 H   0  0  0  0  0  0  0  0  0  0  0  0
  149.6142  138.8365  152.9475 H   0  0  0  0  0  0  0  0  0  0  0  0
  1  2  1  0  0  0  0
  1 18  1  0  0  0  0
  1 19  1  0  0  0  0
  1 20  1  0  0  0  0
  2  3  1  0  0  0  0
  2 12  1  0  0  0  0
  2 21  1  0  0  0  0
  3  4  1  0  0  0  0
  3 22  1  0  0  0  0
  4  5  2  0  0  0  0
  4  6  1  0  0  0  0
  6  7  1  0  0  0  0
  6 23  1  0  0  0  0
  7 11  1  0  0  0  0
  7  8  2  0  0  0  0
  8  9  1  0  0  0  0
  9 10  2  0  0  0  0
  9 24  1  0  0  0  0
 10 11  1  0  0  0  0
 10 25  1  0  0  0  0
 12 17  1  0  0  0  0
 12 13  1  0  0  0  0
 12 26  1  0  0  0  0
 13 14  1  0  0  0  0
 13 27  1  0  0  0  0
 13 28  1  0  0  0  0
 14 15  1  0  0  0  0
 14 29  1  0  0  0  0
 14 30  1  0  0  0  0
 15 16  1  0  0  0  0
 16 17  1  0  0  0  0
 16 31  1  0  0  0  0
 16 32  1  0  0  0  0
 17 33  1  0  0  0  0
 17 34  1  0  0  0  0
M  END
> <s_m_source_file>
AV-unprocessed.smi

> <i_m_source_file_index>
2243

> <i_lp_mmshare_version>
43012

> <i_f3d_flags>
0

> <s_epik_input>
W0NIMl0xW0NIMl1PW0NIMl1bQ0gyXVtDSF0xW0NASF0oW0NIM10pW05IXUMoPU8pW05IXWMybltjSF1bY0hdbzI=

> <s_epik_cmdline>
J2VwaWtfcHl0aG9uJywgJy1waCcsICc3LjAnLCAnLXRuJywgJzgnLCAnLW1hJywgJzIwMCcsICctbWV0YWxfYmluZGluZycsICctaW1hZScsICc8aW5maWxlLm1hZT4nLCAnLW9tYWUnLCAnPG91dGZpbGUubWFlPic=

> <r_lp_tautomer_probability>
0.785861

> <r_epik_Ionization_Penalty>
5.17761e-05

> <r_epik_Ionization_Penalty_Charging>
0

> <r_epik_Ionization_Penalty_Neutral>
5.17761e-05

> <r_epik_State_Penalty>
0.0447104

> <r_epik_Charging_Adjusted_Penalty>
0.0447104

> <i_epik_Tot_Q>
0

> <i_epik_Tot_abs_Q>
0

> <r_epik_Metal_State_Penalty>
0.0593601

> <b_epik_Metal_Only>
0

> <s_lp_Force_Field>
OPLS_2005

> <r_lp_Energy>
9.3246

> <b_lp_Chiralities_Consistent>
1

> <s_lp_Variant>
AV-unprocessed.smi:2243-2

> <Gold.Version>
5.8.1

> <Gold.Id.Protein>
6NUR|6NUR_protein|mol2

> <Gold.PLP.Fitness>
35.7020

> <Gold.PLP.PLP>
-26.1254

> <Gold.PLP.part.hbond>
-3.0000

> <Gold.PLP.part.metal>
0.0000

> <Gold.PLP.part.buried>
-0.1289

> <Gold.PLP.part.nonpolar>
-24.0946

> <Gold.PLP.part.repulsive>
1.1134

> <Gold.PLP.ligand.clash>
0.0019

> <Gold.PLP.ligand.torsion>
1.1587

> <Gold.PLP.Chemscore.Hbond>
2.9600

> <Gold.PLP.Chemscore.CHOScore>
1.0000

> <Gold.PLP.Chemscore.Metal>
0.0000

> <Gold.Chemscore.Hbonds>
donor molecule, donor type, donor heavy atom, donor atom, acceptor molecule, acceptor atom, score
      L1  H     3    22       P1  7948  0.94
      L1  H     6    23       P1  7948  1.00
      P1  H  7989  7998       L1    15  1.00
      L1  C     9    24       P1 10186  1.00

> <Gold.PLP.Chemscore.Internal.Correction>
0.0159

> <Gold.Rescore>
     Score         DG    S(hbond)    S(metal)    S(lipo)     H(rot)  DE(clash)    DE(int)     intcor
     15.73     -18.57       2.81        0.00      60.50       1.32       0.26       2.59       ----

> <Gold.Chemscore.Fitness>
15.7272

> <Gold.Chemscore.DG>
-18.5685

> <Gold.Chemscore.ZeroCoef>
-5.4800

> <Gold.Chemscore.Hbond>
2.8113

> <Gold.Chemscore.Metal>
0.0000

> <Gold.Chemscore.Lipo>
60.4962

> <Gold.Chemscore.Internal_Hbond>
0.0000

> <Gold.Chemscore.DEClash>
0.2561

> <Gold.Chemscore.DEInternal>
2.5852

> <Gold.Chemscore.Rot>
1.3201

> <Gold.Chemscore.Internal.Correction>
   9.000000E+99

> <Gold.Chemscore.Hbonds>
donor molecule, donor type, donor heavy atom, donor atom, acceptor molecule, acceptor atom, score
      L1  H     3    22       P1  7948  0.91
      L1  H     6    23       P1  7948  0.97
      P1  H  7989  7998       L1    15  0.85

> <Gold.Chemscore.Hbond.Weighted>
-9.3899

> <Gold.Chemscore.Metal.Weighted>
-0.0000

> <Gold.Chemscore.Lipo.Weighted>
-7.0781

> <Gold.Chemscore.Internal_Hbond.Weighted>
0.0000

> <Gold.Chemscore.DEClash.Weighted>
0.2561

> <Gold.Chemscore.DEInternal.Weighted>
2.5852

> <Gold.Chemscore.Rot.Weighted>
3.3794

> <Gold.Chemscore.Internal.Correction.Weighted>
   9.000000E+99

> <Gold.Protein.RotatedTorsions>
[ 6907 6896 6895 6894 ] final -178.29 input  -60.11 | X-H torsion
[ 7974 7965 7964 7962 ] final  -19.70 input  175.53 | X-H torsion
[ 8008 7997 7996 7995 ] final   30.85 input   59.86 | X-H torsion
[ 10167 10162 10161 10158 ] final -149.74 input  -65.29 | X-H torsion
[ 10718 10713 10712 10709 ] final  104.85 input   66.30 | X-H torsion
[ 10763 10752 10751 10750 ] final  -45.97 input  -60.55 | X-H torsion
[ 11005 11000 10999 10996 ] final  -71.09 input  -57.11 | X-H torsion

> <Gold.Protein.ActiveResidues>
 VAL166  LYS551  ARG553  GLY616  TRP617  ASP618  TYR619  PRO620  LYS621  CYS622 
 ASP623  PHE694  ASN695  SER759  ASP760  ASP761  ALA762  ILE779  LEU786  VAL792 
 PHE793  MET794  SER795  GLU796  ALA797  LYS798  CYS799  TRP800  GLU811  SER814 

> <Gold.Protein.RotatedAtoms>
  151.6348  133.3329  159.3116 H   0  0  0  0  0  0  0  0  0  0  0  0  # atno 6907 bound_to 6896
  150.8038  134.7153  159.6636 H   0  0  0  0  0  0  0  0  0  0  0  0  # atno 6908 bound_to 6896
  152.4132  134.6092  160.0072 H   0  0  0  0  0  0  0  0  0  0  0  0  # atno 6909 bound_to 6896
  146.1827  140.4099  142.8488 H   0  0  0  0  0  0  0  0  0  0  0  0  # atno 7974 bound_to 7965
  155.0971  140.3226  155.4557 H   0  0  0  0  0  0  0  0  0  0  0  0  # atno 8008 bound_to 7997
  156.2727  140.2067  156.6044 H   0  0  0  0  0  0  0  0  0  0  0  0  # atno 8009 bound_to 7997
  154.6858  140.0521  157.0300 H   0  0  0  0  0  0  0  0  0  0  0  0  # atno 8010 bound_to 7997
  139.7415  143.8654  152.2563 H   0  0  0  0  0  0  0  0  0  0  0  0  # atno 10167 bound_to 10162
  157.6726  131.0814  150.5768 H   0  0  0  0  0  0  0  0  0  0  0  0  # atno 10718 bound_to 10713
  154.0373  135.6649  153.4786 H   0  0  0  0  0  0  0  0  0  0  0  0  # atno 10763 bound_to 10752
  153.0516  135.5081  154.7876 H   0  0  0  0  0  0  0  0  0  0  0  0  # atno 10764 bound_to 10752
  154.6841  135.3050  154.9538 H   0  0  0  0  0  0  0  0  0  0  0  0  # atno 10765 bound_to 10752
  141.1586  133.6808  156.6853 H   0  0  0  0  0  0  0  0  0  0  0  0  # atno 11005 bound_to 11000
  144.8343  140.6757  143.6270 LP  0  0  0  0  0  0  0  0  0  0  0  0  # atno 17320 bound_to 7965
  145.4028  139.1594  143.4168 LP  0  0  0  0  0  0  0  0  0  0  0  0  # atno 17321 bound_to 7965
  139.8606  144.7119  150.9104 LP  0  0  0  0  0  0  0  0  0  0  0  0  # atno 17342 bound_to 10162
  140.7786  143.3821  151.1459 LP  0  0  0  0  0  0  0  0  0  0  0  0  # atno 17343 bound_to 10162
  156.6069  130.4369  149.5874 LP  0  0  0  0  0  0  0  0  0  0  0  0  # atno 17370 bound_to 10713
  156.2461  130.6880  151.1602 LP  0  0  0  0  0  0  0  0  0  0  0  0  # atno 17371 bound_to 10713
  140.3071  134.8116  157.4146 LP  0  0  0  0  0  0  0  0  0  0  0  0  # atno 17394 bound_to 11000
  140.1211  134.5219  155.8183 LP  0  0  0  0  0  0  0  0  0  0  0  0  # atno 17395 bound_to 11000

$$$$
