#       Name:                AV-unprocessed.smi:561
#       Creating user name   scv26
#       Creation time:       Thu Mar 26 23:44:07 2020


#       File generated by GOLD software.
#

@<TRIPOS>MOLECULE
AV-unprocessed.smi:561
    42    43     1
SMALL
NO_CHARGES


@<TRIPOS>ATOM
      1 ****        -2.5705  -1.1592   2.5146 C.3            1 S1                 0.0000
      2 ****        -2.2932  -0.3714   1.2267 C.3            1 S1                 0.0000
      3 ****        -2.9619  -1.0475   0.0020 C.3            1 S1                 0.0000
      4 ****        -2.8876  -0.2690  -1.2300 N.pl3          1 S1                 0.0000
      5 ****        -1.9696  -0.4210  -2.2642 C.2            1 S1                 0.0000
      6 ****        -2.2884   0.5178  -3.2186 C.2            1 S1                 0.0000
      7 ****        -3.4019   1.2458  -2.8072 N.2            1 S1                 0.0000
      8 ****        -3.7013   0.7234  -1.6246 C.2            1 S1                 0.0000
      9 ****        -0.8407  -0.2923   1.0298 N.pl3          1 S1                -1.0000
     10 ****        -0.1568   0.8142   0.6056 C.2            1 S1                 0.0000
     11 ****        -0.6455   1.9244   0.3627 O.2            1 S1                 0.0000
     12 ****         1.3157   0.7073   0.3837 C.2            1 S1                 0.0000
     13 ****         1.9006  -0.4439   0.5030 N.2            1 S1                 0.0000
     14 ****         3.2514  -0.6116   0.2801 N.am           1 S1                 0.0000
     15 ****         3.6894  -2.0032   0.1950 C.3            1 S1                 0.0000
     16 ****         4.1459   0.4007   0.1661 C.2            1 S1                 0.0000
     17 ****         5.3449   0.2330  -0.0582 O.2            1 S1                 0.0000
     18 ****         3.6017   1.8172   0.3654 C.3            1 S1                 0.0000
     19 ****         2.1146   1.9331  -0.0231 C.3            1 S1                 0.0000
     20 ****        -3.6413  -1.2231   2.7098 H              1 S1                 0.0000
     21 ****        -2.1090  -0.6780   3.3776 H              1 S1                 0.0000
     22 ****        -2.1831  -2.1768   2.4525 H              1 S1                 0.0000
     23 ****        -2.7433   0.6142   1.3548 H              1 S1                 0.0000
     24 ****        -2.5186  -2.0275  -0.1811 H              1 S1                 0.0000
     25 ****        -4.0168  -1.2260   0.2140 H              1 S1                 0.0000
     26 ****        -1.1813  -1.1583  -2.2267 H              1 S1                 0.0000
     27 ****        -1.8080   0.7204  -4.1643 H              1 S1                 0.0000
     28 ****        -4.5317   1.0717  -1.0280 H              1 S1                 0.0000
     29 ****         4.4378  -2.2183   0.9589 H              1 S1                 0.0000
     30 ****         4.1290  -2.2077  -0.7821 H              1 S1                 0.0000
     31 ****         2.8633  -2.7019   0.3382 H              1 S1                 0.0000
     32 ****         3.7249   2.0686   1.4195 H              1 S1                 0.0000
     33 ****         4.1987   2.5329  -0.2006 H              1 S1                 0.0000
     34 ****         2.0204   2.0810  -1.0994 H              1 S1                 0.0000
     35 ****         1.7128   2.8306   0.4479 H              1 S1                 0.0000
     36 ****        -3.8669   1.9881  -3.2897 LP             1 S1                 0.0000
     37 ****        -0.3066  -1.1156   1.2217 LP             1 S1                 0.0000
     38 ****        -1.6283   2.0731   0.4728 LP             1 S1                 0.0000
     39 ****        -0.0578   2.6732   0.0562 LP             1 S1                 0.0000
     40 ****         1.3529  -1.2382   0.7659 LP             1 S1                 0.0000
     41 ****         5.7086  -0.6921  -0.1672 LP             1 S1                 0.0000
     42 ****         5.9550   1.0219  -0.1313 LP             1 S1                 0.0000
@<TRIPOS>BOND
    1    1    2 1     
    2    1   20 1     
    3    1   21 1     
    4    1   22 1     
    5    2    3 1     
    6    2    9 1     
    7    2   23 1     
    8    3    4 1     
    9    3   24 1     
   10    3   25 1     
   11    4    8 1     
   12    4    5 1     
   13    5    6 2     
   14    5   26 1     
   15    6    7 1     
   16    6   27 1     
   17    7    8 2     
   18    8   28 1     
   19    9   10 1     
   20   10   11 2     
   21   10   12 1     
   22   12   19 1     
   23   12   13 2     
   24   13   14 1     
   25   14   15 1     
   26   14   16 am    
   27   15   29 1     
   28   15   30 1     
   29   15   31 1     
   30   16   17 2     
   31   16   18 1     
   32   18   19 1     
   33   18   32 1     
   34   18   33 1     
   35   19   34 1     
   36   19   35 1     
   37    7   36 1     
   38    9   37 1     
   39   11   38 1     
   40   11   39 1     
   41   13   40 1     
   42   17   41 1     
   43   17   42 1     
@<TRIPOS>SUBSTRUCTURE
      1 S1             1
@<TRIPOS>SET
LONE_PAIRS      STATIC     ATOMS    <user>   **** ""
7 36 37 38 39 40 41 42
ATOM$BLUE        STATIC     ATOMS    COLORGROUP SYSTEM
7 36 37 38 39 40 41 42
