AV-unprocessed.smi:2282|AV-procd|sdf|9195|dock1
  -GOLD-   2272012413D 1   1.00000     0.00000
 Structure written by MMmdl.
 32 33  0  0  0  0  0  0  0  0  1 V2000
  153.4139  142.3036  161.7049 C   0  0  0  0  0  0  0  0  0  0  0  0
  152.6512  142.6738  160.4465 C   0  0  0  0  0  0  0  0  0  0  0  0
  152.2472  143.9603  160.3647 N   0  0  0  0  0  0  0  0  0  0  0  0
  151.5580  144.3406  159.2697 C   0  0  0  0  0  0  0  0  0  0  0  0
  151.2455  143.4688  158.2094 C   0  0  0  0  0  0  0  0  0  0  0  0
  151.6821  142.1244  158.2834 C   0  0  0  0  0  0  0  0  0  0  0  0
  151.4027  141.1556  157.2798 N   0  0  0  0  0  0  0  0  0  0  0  0
  150.3797  141.1148  156.4067 C   0  0  0  0  0  0  0  0  0  0  0  0
  149.4855  141.9589  156.3404 O   0  0  0  0  0  0  0  0  0  0  0  0
  150.3832  139.9132  155.4470 C   0  0  2  0  0  0  0  0  0  0  0  0
  150.3366  138.5399  156.1481 C   0  0  0  0  0  0  0  0  0  0  0  0
  151.6277  137.8575  155.7268 C   0  0  0  0  0  0  0  0  0  0  0  0
  152.5224  139.0255  155.3267 C   0  0  1  0  0  0  0  0  0  0  0  0
  153.6470  138.6518  154.3555 C   0  0  0  0  0  0  0  0  0  0  0  0
  151.6051  139.9181  154.7113 O   0  0  0  0  0  0  0  0  0  0  0  0
  152.3906  141.7163  159.4379 C   0  0  0  0  0  0  0  0  0  0  0  0
  152.9348  140.0809  159.6114 Cl  0  0  0  0  0  0  0  0  0  0  0  0
  154.4131  141.9485  161.4518 H   0  0  0  0  0  0  0  0  0  0  0  0
  152.8931  141.5127  162.2451 H   0  0  0  0  0  0  0  0  0  0  0  0
  153.5192  143.1569  162.3763 H   0  0  0  0  0  0  0  0  0  0  0  0
  151.2391  145.3717  159.2399 H   0  0  0  0  0  0  0  0  0  0  0  0
  150.6710  143.8423  157.3761 H   0  0  0  0  0  0  0  0  0  0  0  0
  152.1068  140.4412  157.1643 H   0  0  0  0  0  0  0  0  0  0  0  0
  149.5565  140.0039  154.7406 H   0  0  0  0  0  0  0  0  0  0  0  0
  150.2908  138.6261  157.2346 H   0  0  0  0  0  0  0  0  0  0  0  0
  149.4672  137.9591  155.8380 H   0  0  0  0  0  0  0  0  0  0  0  0
  152.0616  137.2421  156.5154 H   0  0  0  0  0  0  0  0  0  0  0  0
  151.4370  137.2167  154.8648 H   0  0  0  0  0  0  0  0  0  0  0  0
  152.9402  139.4983  156.2170 H   0  0  0  0  0  0  0  0  0  0  0  0
  154.3336  137.9369  154.8098 H   0  0  0  0  0  0  0  0  0  0  0  0
  154.2228  139.5329  154.0712 H   0  0  0  0  0  0  0  0  0  0  0  0
  153.2509  138.2044  153.4435 H   0  0  0  0  0  0  0  0  0  0  0  0
  1  2  1  0  0  0  0
  1 18  1  0  0  0  0
  1 19  1  0  0  0  0
  1 20  1  0  0  0  0
  2 16  1  0  0  0  0
  2  3  2  0  0  0  0
  3  4  1  0  0  0  0
  4  5  2  0  0  0  0
  4 21  1  0  0  0  0
  5  6  1  0  0  0  0
  5 22  1  0  0  0  0
  6  7  1  0  0  0  0
  6 16  2  0  0  0  0
  7  8  1  0  0  0  0
  7 23  1  0  0  0  0
  8  9  2  0  0  0  0
  8 10  1  0  0  0  0
 10 15  1  0  0  0  0
 10 11  1  0  0  0  0
 10 24  1  0  0  0  0
 11 12  1  0  0  0  0
 11 25  1  0  0  0  0
 11 26  1  0  0  0  0
 12 13  1  0  0  0  0
 12 27  1  0  0  0  0
 12 28  1  0  0  0  0
 13 14  1  0  0  0  0
 13 15  1  0  0  0  0
 13 29  1  0  0  0  0
 14 30  1  0  0  0  0
 14 31  1  0  0  0  0
 14 32  1  0  0  0  0
 16 17  1  0  0  0  0
M  END
> <s_m_source_file>
AV-unprocessed.smi

> <i_m_source_file_index>
2282

> <i_lp_mmshare_version>
43012

> <i_f3d_flags>
0

> <s_epik_input>
W0NIM11jMW5bY0hdW2NIXWMoYzFDbClbTkhdQyg9TylbQ0BASF0yW0NIMl1bQ0gyXVtDQEhdKE8yKVtDSDNd

> <s_epik_cmdline>
J2VwaWtfcHl0aG9uJywgJy1waCcsICc3LjAnLCAnLXRuJywgJzgnLCAnLW1hJywgJzIwMCcsICctbWV0YWxfYmluZGluZycsICctaW1hZScsICc8aW5maWxlLm1hZT4nLCAnLW9tYWUnLCAnPG91dGZpbGUubWFlPic=

> <r_epik_Ionization_Penalty>
0.00037231

> <r_epik_Ionization_Penalty_Charging>
0

> <r_epik_Ionization_Penalty_Neutral>
0.00037231

> <r_epik_State_Penalty>
0.000225113

> <r_epik_Charging_Adjusted_Penalty>
0.000225113

> <i_epik_Tot_Q>
0

> <i_epik_Tot_abs_Q>
0

> <r_epik_Metal_State_Penalty>
-0

> <b_epik_Metal_Only>
0

> <s_lp_Force_Field>
OPLS_2005

> <r_lp_Energy>
24.6828

> <b_lp_Chiralities_Consistent>
1

> <s_lp_Variant>
AV-unprocessed.smi:2282-1

> <Gold.Version>
5.8.1

> <Gold.Id.Protein>
6NUR|6NUR_protein|mol2

> <Gold.PLP.Fitness>
36.0316

> <Gold.PLP.PLP>
-33.3438

> <Gold.PLP.part.hbond>
-0.9598

> <Gold.PLP.part.metal>
0.0000

> <Gold.PLP.part.buried>
-5.8829

> <Gold.PLP.part.nonpolar>
-28.8250

> <Gold.PLP.part.repulsive>
1.8404

> <Gold.PLP.ligand.clash>
0.0000

> <Gold.PLP.ligand.torsion>
0.1612

> <Gold.PLP.Chemscore.Hbond>
1.0000

> <Gold.PLP.Chemscore.CHOScore>
0.0000

> <Gold.PLP.Chemscore.Metal>
0.0000

> <Gold.Chemscore.Hbonds>
donor molecule, donor type, donor heavy atom, donor atom, acceptor molecule, acceptor atom, score
      P1  H  7989  7998       L1    15  1.00

> <Gold.PLP.Chemscore.Internal.Correction>
0.0101

> <Gold.Rescore>
     Score         DG    S(hbond)    S(metal)    S(lipo)     H(rot)  DE(clash)    DE(int)     intcor
     16.58     -17.92       0.96        0.00     100.71       1.00       0.04       1.30       ----

> <Gold.Chemscore.Fitness>
16.5833

> <Gold.Chemscore.DG>
-17.9179

> <Gold.Chemscore.ZeroCoef>
-5.4800

> <Gold.Chemscore.Hbond>
0.9626

> <Gold.Chemscore.Metal>
0.0000

> <Gold.Chemscore.Lipo>
100.7089

> <Gold.Chemscore.Internal_Hbond>
0.0000

> <Gold.Chemscore.DEClash>
0.0384

> <Gold.Chemscore.DEInternal>
1.2962

> <Gold.Chemscore.Rot>
1.0000

> <Gold.Chemscore.Internal.Correction>
   9.000000E+99

> <Gold.Chemscore.Hbonds>
donor molecule, donor type, donor heavy atom, donor atom, acceptor molecule, acceptor atom, score
      P1  H  7989  7998       L1    15  0.86

> <Gold.Chemscore.Hbond.Weighted>
-3.2150

> <Gold.Chemscore.Metal.Weighted>
-0.0000

> <Gold.Chemscore.Lipo.Weighted>
-11.7829

> <Gold.Chemscore.Internal_Hbond.Weighted>
0.0000

> <Gold.Chemscore.DEClash.Weighted>
0.0384

> <Gold.Chemscore.DEInternal.Weighted>
1.2962

> <Gold.Chemscore.Rot.Weighted>
2.5600

> <Gold.Chemscore.Internal.Correction.Weighted>
   9.000000E+99

> <Gold.Protein.RotatedTorsions>
[ 6907 6896 6895 6894 ] final  -27.81 input  -60.11 | X-H torsion
[ 7974 7965 7964 7962 ] final  154.91 input  175.53 | X-H torsion
[ 8008 7997 7996 7995 ] final -176.08 input   59.86 | X-H torsion
[ 10167 10162 10161 10158 ] final -101.53 input  -65.29 | X-H torsion
[ 10718 10713 10712 10709 ] final    2.57 input   66.30 | X-H torsion
[ 10763 10752 10751 10750 ] final   27.97 input  -60.55 | X-H torsion
[ 11005 11000 10999 10996 ] final   99.75 input  -57.11 | X-H torsion

> <Gold.Protein.ActiveResidues>
 VAL166  LYS551  ARG553  GLY616  TRP617  ASP618  TYR619  PRO620  LYS621  CYS622 
 ASP623  PHE694  ASN695  SER759  ASP760  ASP761  ALA762  ILE779  LEU786  VAL792 
 PHE793  MET794  SER795  GLU796  ALA797  LYS798  CYS799  TRP800  GLU811  SER814 

> <Gold.Protein.RotatedAtoms>
  151.1417  135.0183  159.8628 H   0  0  0  0  0  0  0  0  0  0  0  0  # atno 6907 bound_to 6896
  152.5452  134.1491  159.8521 H   0  0  0  0  0  0  0  0  0  0  0  0  # atno 6908 bound_to 6896
  151.1567  133.4826  159.2627 H   0  0  0  0  0  0  0  0  0  0  0  0  # atno 6909 bound_to 6896
  144.8058  139.6997  143.6162 H   0  0  0  0  0  0  0  0  0  0  0  0  # atno 7974 bound_to 7965
  155.9905  140.1200  157.0643 H   0  0  0  0  0  0  0  0  0  0  0  0  # atno 8008 bound_to 7997
  154.4210  140.1126  156.5627 H   0  0  0  0  0  0  0  0  0  0  0  0  # atno 8009 bound_to 7997
  155.6349  140.3473  155.4697 H   0  0  0  0  0  0  0  0  0  0  0  0  # atno 8010 bound_to 7997
  140.2403  143.3543  152.0807 H   0  0  0  0  0  0  0  0  0  0  0  0  # atno 10167 bound_to 10162
  156.8650  130.5600  149.5660 H   0  0  0  0  0  0  0  0  0  0  0  0  # atno 10718 bound_to 10713
  153.0521  135.6524  154.0667 H   0  0  0  0  0  0  0  0  0  0  0  0  # atno 10763 bound_to 10752
  154.0353  135.2908  155.3364 H   0  0  0  0  0  0  0  0  0  0  0  0  # atno 10764 bound_to 10752
  154.6816  135.5318  153.8337 H   0  0  0  0  0  0  0  0  0  0  0  0  # atno 10765 bound_to 10752
  139.8770  134.9109  156.4653 H   0  0  0  0  0  0  0  0  0  0  0  0  # atno 11005 bound_to 11000
  146.2349  139.5886  142.9530 LP  0  0  0  0  0  0  0  0  0  0  0  0  # atno 17320 bound_to 7965
  145.5441  141.0418  143.2314 LP  0  0  0  0  0  0  0  0  0  0  0  0  # atno 17321 bound_to 7965
  139.5079  144.6841  151.5933 LP  0  0  0  0  0  0  0  0  0  0  0  0  # atno 17342 bound_to 10162
  140.6118  143.9422  150.6459 LP  0  0  0  0  0  0  0  0  0  0  0  0  # atno 17343 bound_to 10162
  156.0756  130.5779  150.9468 LP  0  0  0  0  0  0  0  0  0  0  0  0  # atno 17370 bound_to 10713
  157.6228  131.0928  150.8589 LP  0  0  0  0  0  0  0  0  0  0  0  0  # atno 17371 bound_to 10713
  140.8835  133.7900  155.9492 LP  0  0  0  0  0  0  0  0  0  0  0  0  # atno 17394 bound_to 11000
  140.8829  134.2589  157.5135 LP  0  0  0  0  0  0  0  0  0  0  0  0  # atno 17395 bound_to 11000

$$$$
