AV-unprocessed.smi:1088|AV-procd|sdf|4729|dock1
  -GOLD-   22720 3263D 1   1.00000     0.00000
 Structure written by MMmdl.
 48 49  0  0  0  0  0  0  0  0  2 V2000
  149.2358  134.0555  154.6247 C   0  0  0  0  0  0  0  0  0  0  0  0
  147.9711  134.5083  154.1740 O   0  0  0  0  0  0  0  0  0  0  0  0
  147.4209  135.5087  155.0145 C   0  0  0  0  0  0  0  0  0  0  0  0
  148.4318  136.6586  155.1511 C   0  0  0  0  0  0  0  0  0  0  0  0
  148.2818  137.6819  154.0810 N   0  3  1  0  0  0  0  0  0  0  0  0
  146.8970  138.1840  153.9091 C   0  0  0  0  0  0  0  0  0  0  0  0
  147.0269  139.6020  153.3649 C   0  0  0  0  0  0  0  0  0  0  0  0
  148.2741  140.1034  154.0736 C   0  0  0  0  0  0  0  0  0  0  0  0
  149.1906  138.8698  154.1161 C   0  0  1  0  0  0  0  0  0  0  0  0
  150.2397  138.9055  155.2567 C   0  0  0  0  0  0  0  0  0  0  0  0
  150.7317  140.2606  155.4889 N   0  0  0  0  0  0  0  0  0  0  0  0
  150.8014  140.8684  156.6831 C   0  0  0  0  0  0  0  0  0  0  0  0
  150.5052  140.3141  157.7422 O   0  0  0  0  0  0  0  0  0  0  0  0
  151.2798  142.3261  156.6758 C   0  0  0  0  0  0  0  0  0  0  0  0
  151.4785  142.8604  158.0295 N   0  0  0  0  0  0  0  0  0  0  0  0
  150.9214  144.0783  158.3748 C   0  0  0  0  0  0  0  0  0  0  0  0
  151.0759  144.6504  159.5887 C   0  0  0  0  0  0  0  0  0  0  0  0
  151.8576  143.9960  160.6304 C   0  0  0  0  0  0  0  0  0  0  0  0
  152.0472  144.4911  161.7421 O   0  0  0  0  0  0  0  0  0  0  0  0
  152.4006  142.7434  160.2586 N   0  0  0  0  0  0  0  0  0  0  0  0
  153.2123  142.0468  161.2354 C   0  0  0  0  0  0  0  0  0  0  0  0
  152.2496  142.1572  158.9812 C   0  0  0  0  0  0  0  0  0  0  0  0
  152.7733  141.0794  158.6877 O   0  0  0  0  0  0  0  0  0  0  0  0
  149.6115  133.2861  153.9505 H   0  0  0  0  0  0  0  0  0  0  0  0
  149.1669  133.6223  155.6235 H   0  0  0  0  0  0  0  0  0  0  0  0
  149.9621  134.8691  154.6450 H   0  0  0  0  0  0  0  0  0  0  0  0
  146.4656  135.8612  154.6234 H   0  0  0  0  0  0  0  0  0  0  0  0
  147.2232  135.0849  156.0003 H   0  0  0  0  0  0  0  0  0  0  0  0
  148.3197  137.1308  156.1280 H   0  0  0  0  0  0  0  0  0  0  0  0
  149.4308  136.2250  155.1152 H   0  0  0  0  0  0  0  0  0  0  0  0
  146.3148  137.5409  153.2484 H   0  0  0  0  0  0  0  0  0  0  0  0
  146.3930  138.2175  154.8766 H   0  0  0  0  0  0  0  0  0  0  0  0
  147.1909  139.5802  152.2866 H   0  0  0  0  0  0  0  0  0  0  0  0
  146.1485  140.2165  153.5642 H   0  0  0  0  0  0  0  0  0  0  0  0
  148.7317  140.9549  153.5691 H   0  0  0  0  0  0  0  0  0  0  0  0
  148.0110  140.4152  155.0855 H   0  0  0  0  0  0  0  0  0  0  0  0
  149.7338  138.8366  153.1705 H   0  0  0  0  0  0  0  0  0  0  0  0
  149.8318  138.4841  156.1769 H   0  0  0  0  0  0  0  0  0  0  0  0
  151.1069  138.3008  154.9927 H   0  0  0  0  0  0  0  0  0  0  0  0
  151.0064  140.7909  154.6745 H   0  0  0  0  0  0  0  0  0  0  0  0
  152.2107  142.3760  156.1095 H   0  0  0  0  0  0  0  0  0  0  0  0
  150.5691  142.9526  156.1335 H   0  0  0  0  0  0  0  0  0  0  0  0
  150.3375  144.6067  157.6353 H   0  0  0  0  0  0  0  0  0  0  0  0
  150.6191  145.6081  159.7904 H   0  0  0  0  0  0  0  0  0  0  0  0
  153.1632  140.9717  161.0588 H   0  0  0  0  0  0  0  0  0  0  0  0
  152.8199  142.2399  162.2349 H   0  0  0  0  0  0  0  0  0  0  0  0
  154.2301  142.4228  161.1259 H   0  0  0  0  0  0  0  0  0  0  0  0
  148.5123  137.2080  153.2191 H   0  0  0  0  0  0  0  0  0  0  0  0
  1  2  1  0  0  0  0
  1 24  1  0  0  0  0
  1 25  1  0  0  0  0
  1 26  1  0  0  0  0
  2  3  1  0  0  0  0
  3  4  1  0  0  0  0
  3 27  1  0  0  0  0
  3 28  1  0  0  0  0
  4  5  1  0  0  0  0
  4 29  1  0  0  0  0
  4 30  1  0  0  0  0
  5  9  1  0  0  0  0
  5  6  1  0  0  0  0
  5 48  1  0  0  0  0
  6  7  1  0  0  0  0
  6 31  1  0  0  0  0
  6 32  1  0  0  0  0
  7  8  1  0  0  0  0
  7 33  1  0  0  0  0
  7 34  1  0  0  0  0
  8  9  1  0  0  0  0
  8 35  1  0  0  0  0
  8 36  1  0  0  0  0
  9 10  1  0  0  0  0
  9 37  1  0  0  0  0
 10 11  1  0  0  0  0
 10 38  1  0  0  0  0
 10 39  1  0  0  0  0
 11 12  1  0  0  0  0
 11 40  1  0  0  0  0
 12 13  2  0  0  0  0
 12 14  1  0  0  0  0
 14 15  1  0  0  0  0
 14 41  1  0  0  0  0
 14 42  1  0  0  0  0
 15 22  1  0  0  0  0
 15 16  1  0  0  0  0
 16 17  2  0  0  0  0
 16 43  1  0  0  0  0
 17 18  1  0  0  0  0
 17 44  1  0  0  0  0
 18 19  2  0  0  0  0
 18 20  1  0  0  0  0
 20 21  1  0  0  0  0
 20 22  1  0  0  0  0
 21 45  1  0  0  0  0
 21 46  1  0  0  0  0
 21 47  1  0  0  0  0
 22 23  2  0  0  0  0
M  CHG  1   5   1
M  END
> <s_m_source_file>
AV-unprocessed.smi

> <i_m_source_file_index>
1088

> <i_lp_mmshare_version>
43012

> <i_f3d_flags>
0

> <s_epik_input>
W0NIM11PW0NIMl1bQ0gyXU4xW0NIMl1bQ0gyXVtDSDJdW0NASF0xW0NIMl1bTkhdQyg9TylbQ0gyXW4yW2NIXVtjSF1jKD1PKW4oW0NIM10pYzI9Tw==

> <s_epik_cmdline>
J2VwaWtfcHl0aG9uJywgJy1waCcsICc3LjAnLCAnLXRuJywgJzgnLCAnLW1hJywgJzIwMCcsICctbWV0YWxfYmluZGluZycsICctaW1hZScsICc8aW5maWxlLm1hZT4nLCAnLW9tYWUnLCAnPG91dGZpbGUubWFlPic=

> <r_lp_tautomer_probability>
1

> <r_epik_Ionization_Penalty>
0.0127388

> <r_epik_Ionization_Penalty_Charging>
0.0127387

> <r_epik_Ionization_Penalty_Neutral>
8.26414e-08

> <r_epik_State_Penalty>
0.00987716

> <r_epik_Charging_Adjusted_Penalty>
0.0226159

> <i_epik_Tot_Q>
1

> <i_epik_Tot_abs_Q>
1

> <r_epik_Metal_State_Penalty>
0.00987836

> <b_epik_Metal_Only>
0

> <s_lp_Force_Field>
OPLS_2005

> <r_lp_Energy>
40.5069

> <b_lp_Chiralities_Consistent>
1

> <s_lp_Variant>
AV-unprocessed.smi:1088-2

> <Gold.Version>
5.8.1

> <Gold.Id.Protein>
6NUR|6NUR_protein|mol2

> <Gold.PLP.Fitness>
47.2750

> <Gold.PLP.PLP>
-39.2009

> <Gold.PLP.part.hbond>
-1.2028

> <Gold.PLP.part.metal>
0.0000

> <Gold.PLP.part.buried>
-5.5285

> <Gold.PLP.part.nonpolar>
-33.5174

> <Gold.PLP.part.repulsive>
1.7842

> <Gold.PLP.ligand.clash>
0.0000

> <Gold.PLP.ligand.torsion>
0.6059

> <Gold.PLP.Chemscore.Hbond>
2.0000

> <Gold.PLP.Chemscore.CHOScore>
1.0231

> <Gold.PLP.Chemscore.Metal>
0.0000

> <Gold.Chemscore.Hbonds>
donor molecule, donor type, donor heavy atom, donor atom, acceptor molecule, acceptor atom, score
      L1  H     5    48       P1  7948  2.00
      L1  C    16    43       P1  8028  1.00
      L1  C    16    43       P1  8029  0.06

> <Gold.PLP.Chemscore.Internal.Correction>
0.2166

> <Gold.Rescore>
     Score         DG    S(hbond)    S(metal)    S(lipo)     H(rot)  DE(clash)    DE(int)     intcor
      5.33     -11.76       1.16        0.00      76.69       2.57       1.87       4.55       ----

> <Gold.Chemscore.Fitness>
5.3337

> <Gold.Chemscore.DG>
-11.7558

> <Gold.Chemscore.ZeroCoef>
-5.4800

> <Gold.Chemscore.Hbond>
1.1616

> <Gold.Chemscore.Metal>
0.0000

> <Gold.Chemscore.Lipo>
76.6947

> <Gold.Chemscore.Internal_Hbond>
0.0000

> <Gold.Chemscore.DEClash>
1.8750

> <Gold.Chemscore.DEInternal>
4.5471

> <Gold.Chemscore.Rot>
2.5692

> <Gold.Chemscore.Internal.Correction>
   9.000000E+99

> <Gold.Chemscore.Hbonds>
donor molecule, donor type, donor heavy atom, donor atom, acceptor molecule, acceptor atom, score
      L1  H     5    48       P1  7948  1.00

> <Gold.Chemscore.Hbond.Weighted>
-3.8797

> <Gold.Chemscore.Metal.Weighted>
-0.0000

> <Gold.Chemscore.Lipo.Weighted>
-8.9733

> <Gold.Chemscore.Internal_Hbond.Weighted>
0.0000

> <Gold.Chemscore.DEClash.Weighted>
1.8750

> <Gold.Chemscore.DEInternal.Weighted>
4.5471

> <Gold.Chemscore.Rot.Weighted>
6.5772

> <Gold.Chemscore.Internal.Correction.Weighted>
   9.000000E+99

> <Gold.Protein.RotatedTorsions>
[ 6907 6896 6895 6894 ] final  123.93 input  -60.11 | X-H torsion
[ 7974 7965 7964 7962 ] final  100.29 input  175.53 | X-H torsion
[ 8008 7997 7996 7995 ] final  -93.92 input   59.86 | X-H torsion
[ 10167 10162 10161 10158 ] final  169.77 input  -65.29 | X-H torsion
[ 10718 10713 10712 10709 ] final    3.63 input   66.30 | X-H torsion
[ 10763 10752 10751 10750 ] final -173.56 input  -60.55 | X-H torsion
[ 11005 11000 10999 10996 ] final -152.42 input  -57.11 | X-H torsion

> <Gold.Protein.ActiveResidues>
 VAL166  LYS551  ARG553  GLY616  TRP617  ASP618  TYR619  PRO620  LYS621  CYS622 
 ASP623  PHE694  ASN695  SER759  ASP760  ASP761  ALA762  ILE779  LEU786  VAL792 
 PHE793  MET794  SER795  GLU796  ALA797  LYS798  CYS799  TRP800  GLU811  SER814 

> <Gold.Protein.RotatedAtoms>
  152.4121  133.6979  159.6406 H   0  0  0  0  0  0  0  0  0  0  0  0  # atno 6907 bound_to 6896
  150.8000  133.8606  159.3239 H   0  0  0  0  0  0  0  0  0  0  0  0  # atno 6908 bound_to 6896
  151.6346  135.1021  160.0180 H   0  0  0  0  0  0  0  0  0  0  0  0  # atno 6909 bound_to 6896
  145.3875  139.2368  143.3370 H   0  0  0  0  0  0  0  0  0  0  0  0  # atno 7974 bound_to 7965
  154.7418  140.0494  157.0817 H   0  0  0  0  0  0  0  0  0  0  0  0  # atno 8008 bound_to 7997
  155.0169  140.3142  155.4789 H   0  0  0  0  0  0  0  0  0  0  0  0  # atno 8009 bound_to 7997
  156.2866  140.2174  156.5285 H   0  0  0  0  0  0  0  0  0  0  0  0  # atno 8010 bound_to 7997
  139.5001  144.3670  151.9765 H   0  0  0  0  0  0  0  0  0  0  0  0  # atno 10167 bound_to 10162
  156.8806  130.5652  149.5653 H   0  0  0  0  0  0  0  0  0  0  0  0  # atno 10718 bound_to 10713
  154.6065  135.2860  155.0479 H   0  0  0  0  0  0  0  0  0  0  0  0  # atno 10763 bound_to 10752
  154.1725  135.6470  153.5017 H   0  0  0  0  0  0  0  0  0  0  0  0  # atno 10764 bound_to 10752
  153.0177  135.5404  154.6803 H   0  0  0  0  0  0  0  0  0  0  0  0  # atno 10765 bound_to 10752
  140.7191  134.3747  157.5186 H   0  0  0  0  0  0  0  0  0  0  0  0  # atno 11005 bound_to 11000
  146.2813  140.4553  142.8775 LP  0  0  0  0  0  0  0  0  0  0  0  0  # atno 17320 bound_to 7965
  144.8464  140.6935  143.6196 LP  0  0  0  0  0  0  0  0  0  0  0  0  # atno 17321 bound_to 7965
  140.3106  144.3542  150.6035 LP  0  0  0  0  0  0  0  0  0  0  0  0  # atno 17342 bound_to 10162
  140.5802  143.2173  151.7442 LP  0  0  0  0  0  0  0  0  0  0  0  0  # atno 17343 bound_to 10162
  156.0679  130.5718  150.9325 LP  0  0  0  0  0  0  0  0  0  0  0  0  # atno 17370 bound_to 10713
  157.6142  131.0934  150.8740 LP  0  0  0  0  0  0  0  0  0  0  0  0  # atno 17371 bound_to 10713
  139.8852  134.8942  156.2654 LP  0  0  0  0  0  0  0  0  0  0  0  0  # atno 17394 bound_to 11000
  141.0019  133.7146  156.0974 LP  0  0  0  0  0  0  0  0  0  0  0  0  # atno 17395 bound_to 11000

$$$$
