AV-unprocessed.smi:86|AV-procd|sdf|817|dock2
  -GOLD-   2262017223D 1   1.00000     0.00000
 Structure written by MMmdl.
 51 55  0  0  0  0  0  0  0  0  1 V2000
  146.4206  137.7982  150.9643 O   0  0  0  0  0  0  0  0  0  0  0  0
  145.7999  137.8348  152.2342 C   0  0  0  0  0  0  0  0  0  0  0  0
  146.7539  138.3137  153.3465 C   0  0  0  0  0  0  0  0  0  0  0  0
  147.7290  139.3767  152.8002 C   0  0  0  0  0  0  0  0  0  0  0  0
  148.4812  140.0847  153.8235 N   0  0  0  0  0  0  0  0  0  0  0  0
  148.2493  141.3588  154.2865 C   0  0  0  0  0  0  0  0  0  0  0  0
  149.0677  141.7681  155.2160 N   0  0  0  0  0  0  0  0  0  0  0  0
  149.9376  140.6997  155.4098 C   0  0  0  0  0  0  0  0  0  0  0  0
  151.0554  140.4567  156.2638 C   0  0  0  0  0  0  0  0  0  0  0  0
  151.5443  141.3433  157.1692 N   0  0  0  0  0  0  0  0  0  0  0  0
  150.9497  142.6544  157.4097 C   0  0  0  0  0  0  0  0  0  0  0  0
  151.7810  143.2200  158.5589 C   0  0  1  0  0  0  0  0  0  0  0  0
  151.1739  144.3167  159.4401 C   0  0  0  0  0  0  0  0  0  0  0  0
  152.1648  144.6566  160.5763 C   0  0  0  0  0  0  0  0  0  0  0  0
  152.6381  143.4137  161.3737 C   0  0  1  0  0  0  0  0  0  0  0  0
  151.5880  142.9611  162.2056 O   0  0  0  0  0  0  0  0  0  0  0  0
  153.1180  142.2586  160.4608 C   0  0  0  0  0  0  0  0  0  0  0  0
  152.0674  141.9710  159.3793 C   0  0  2  0  0  0  0  0  0  0  0  0
  152.3851  140.9388  158.2967 C   0  0  0  0  0  0  0  0  0  0  0  0
  151.6749  139.2524  156.1463 N   0  0  0  0  0  0  0  0  0  0  0  0
  151.2366  138.3435  155.2715 C   0  0  0  0  0  0  0  0  0  0  0  0
  150.2100  138.4291  154.4253 N   0  0  0  0  0  0  0  0  0  0  0  0
  149.5843  139.6360  154.5294 C   0  0  0  0  0  0  0  0  0  0  0  0
  146.0440  138.7173  154.6469 C   0  0  0  0  0  0  0  0  0  0  0  0
  146.4077  137.4831  155.2999 O   0  0  0  0  0  0  0  0  0  0  0  0
  147.3479  137.2124  154.2394 C   0  0  0  0  0  0  0  0  0  0  0  0
  145.7797  138.0288  150.3092 H   0  0  0  0  0  0  0  0  0  0  0  0
  144.9161  138.4708  152.1749 H   0  0  0  0  0  0  0  0  0  0  0  0
  145.4387  136.8275  152.4434 H   0  0  0  0  0  0  0  0  0  0  0  0
  148.4342  138.9210  152.1041 H   0  0  0  0  0  0  0  0  0  0  0  0
  147.1889  140.1250  152.2187 H   0  0  0  0  0  0  0  0  0  0  0  0
  147.4478  141.9799  153.9149 H   0  0  0  0  0  0  0  0  0  0  0  0
  151.0037  143.2932  156.5279 H   0  0  0  0  0  0  0  0  0  0  0  0
  149.9044  142.5387  157.6997 H   0  0  0  0  0  0  0  0  0  0  0  0
  152.7188  143.5909  158.1396 H   0  0  0  0  0  0  0  0  0  0  0  0
  150.9610  145.2060  158.8465 H   0  0  0  0  0  0  0  0  0  0  0  0
  150.2238  143.9823  159.8584 H   0  0  0  0  0  0  0  0  0  0  0  0
  153.0394  145.1385  160.1377 H   0  0  0  0  0  0  0  0  0  0  0  0
  151.7245  145.3933  161.2492 H   0  0  0  0  0  0  0  0  0  0  0  0
  153.4549  143.7068  162.0340 H   0  0  0  0  0  0  0  0  0  0  0  0
  151.7139  143.3201  163.0707 H   0  0  0  0  0  0  0  0  0  0  0  0
  154.0598  142.5383  159.9870 H   0  0  0  0  0  0  0  0  0  0  0  0
  153.3210  141.3619  161.0474 H   0  0  0  0  0  0  0  0  0  0  0  0
  151.1431  141.6546  159.8672 H   0  0  0  0  0  0  0  0  0  0  0  0
  152.1715  139.9283  158.6473 H   0  0  0  0  0  0  0  0  0  0  0  0
  153.4322  140.9879  157.9959 H   0  0  0  0  0  0  0  0  0  0  0  0
  151.7873  137.4148  155.2470 H   0  0  0  0  0  0  0  0  0  0  0  0
  146.4856  139.5818  155.1454 H   0  0  0  0  0  0  0  0  0  0  0  0
  144.9645  138.8390  154.5498 H   0  0  0  0  0  0  0  0  0  0  0  0
  147.2474  136.2028  153.8403 H   0  0  0  0  0  0  0  0  0  0  0  0
  148.3739  137.4027  154.5569 H   0  0  0  0  0  0  0  0  0  0  0  0
  1  2  1  0  0  0  0
  1 27  1  0  0  0  0
  2  3  1  0  0  0  0
  2 28  1  0  0  0  0
  2 29  1  0  0  0  0
  3 26  1  0  0  0  0
  3  4  1  0  0  0  0
  3 24  1  0  0  0  0
  4  5  1  0  0  0  0
  4 30  1  0  0  0  0
  4 31  1  0  0  0  0
  5 23  1  0  0  0  0
  5  6  1  0  0  0  0
  6  7  2  0  0  0  0
  6 32  1  0  0  0  0
  7  8  1  0  0  0  0
  8 23  2  0  0  0  0
  8  9  1  0  0  0  0
  9 10  1  0  0  0  0
  9 20  2  0  0  0  0
 10 19  1  0  0  0  0
 10 11  1  0  0  0  0
 11 12  1  0  0  0  0
 11 33  1  0  0  0  0
 11 34  1  0  0  0  0
 12 18  1  0  0  0  0
 12 13  1  0  0  0  0
 12 35  1  0  0  0  0
 13 14  1  0  0  0  0
 13 36  1  0  0  0  0
 13 37  1  0  0  0  0
 14 15  1  0  0  0  0
 14 38  1  0  0  0  0
 14 39  1  0  0  0  0
 15 16  1  0  0  0  0
 15 17  1  0  0  0  0
 15 40  1  0  0  0  0
 16 41  1  0  0  0  0
 17 18  1  0  0  0  0
 17 42  1  0  0  0  0
 17 43  1  0  0  0  0
 18 19  1  0  0  0  0
 18 44  1  0  0  0  0
 19 45  1  0  0  0  0
 19 46  1  0  0  0  0
 20 21  1  0  0  0  0
 21 22  2  0  0  0  0
 21 47  1  0  0  0  0
 22 23  1  0  0  0  0
 24 25  1  0  0  0  0
 24 48  1  0  0  0  0
 24 49  1  0  0  0  0
 25 26  1  0  0  0  0
 26 50  1  0  0  0  0
 26 51  1  0  0  0  0
M  END
> <s_m_source_file>
AV-unprocessed.smi

> <i_m_source_file_index>
86

> <i_lp_mmshare_version>
43012

> <i_f3d_flags>
0

> <s_epik_input>
W0NIMl0xT1tDSDJdQzEoW0NIMl1bT0hdKVtDSDJdbihbY0hdbjIpYyhjMjMpbltjSF1uYzNOKFtDSDJdNClbQ0gyXVtDQEBIXShbQ0BIXTQ1KVtDSDJdW0NASF0oW09IXSlbQ0gyXVtDSDJdNQ==

> <s_epik_cmdline>
J2VwaWtfcHl0aG9uJywgJy1waCcsICc3LjAnLCAnLXRuJywgJzgnLCAnLW1hJywgJzIwMCcsICctbWV0YWxfYmluZGluZycsICctaW1hZScsICc8aW5maWxlLm1hZT4nLCAnLW9tYWUnLCAnPG91dGZpbGUubWFlPic=

> <r_lp_tautomer_probability>
1

> <r_epik_Ionization_Penalty>
0.00425795

> <r_epik_Ionization_Penalty_Charging>
0

> <r_epik_Ionization_Penalty_Neutral>
0.00425795

> <r_epik_State_Penalty>
0.00299946

> <r_epik_Charging_Adjusted_Penalty>
0.00299946

> <i_epik_Tot_Q>
0

> <i_epik_Tot_abs_Q>
0

> <r_epik_Metal_State_Penalty>
-0

> <b_epik_Metal_Only>
0

> <s_lp_Force_Field>
OPLS_2005

> <r_lp_Energy>
55.8457

> <b_lp_Chiralities_Consistent>
1

> <s_lp_Variant>
AV-unprocessed.smi:86-6

> <Gold.Version>
5.8.1

> <Gold.Id.Protein>
6NUR|6NUR_protein|mol2

> <Gold.PLP.Fitness>
55.3579

> <Gold.PLP.PLP>
-48.2758

> <Gold.PLP.part.hbond>
-4.8784

> <Gold.PLP.part.metal>
0.0000

> <Gold.PLP.part.buried>
-1.6713

> <Gold.PLP.part.nonpolar>
-43.4097

> <Gold.PLP.part.repulsive>
1.3043

> <Gold.PLP.ligand.clash>
0.0000

> <Gold.PLP.ligand.torsion>
0.9649

> <Gold.PLP.Chemscore.Hbond>
2.8390

> <Gold.PLP.Chemscore.CHOScore>
0.0000

> <Gold.PLP.Chemscore.Metal>
0.0000

> <Gold.Chemscore.Hbonds>
donor molecule, donor type, donor heavy atom, donor atom, acceptor molecule, acceptor atom, score
      L1  H     1    27       P1 10171  0.99
      P1  H  6933  6945       L1    16  0.86
      P1  H  7954  7966       L1     1  0.96

> <Gold.PLP.Chemscore.Internal.Correction>
0.4948

> <Gold.Rescore>
     Score         DG    S(hbond)    S(metal)    S(lipo)     H(rot)  DE(clash)    DE(int)     intcor
     12.55     -17.80       1.97        0.00     109.47       2.76       3.13       2.12       ----

> <Gold.Chemscore.Fitness>
12.5501

> <Gold.Chemscore.DG>
-17.8023

> <Gold.Chemscore.ZeroCoef>
-5.4800

> <Gold.Chemscore.Hbond>
1.9724

> <Gold.Chemscore.Metal>
0.0000

> <Gold.Chemscore.Lipo>
109.4698

> <Gold.Chemscore.Internal_Hbond>
0.0000

> <Gold.Chemscore.DEClash>
3.1305

> <Gold.Chemscore.DEInternal>
2.1216

> <Gold.Chemscore.Rot>
2.7630

> <Gold.Chemscore.Internal.Correction>
   9.000000E+99

> <Gold.Chemscore.Hbonds>
donor molecule, donor type, donor heavy atom, donor atom, acceptor molecule, acceptor atom, score
      L1  H     1    27       P1 10171  0.88
      P1  H  6933  6945       L1    16  0.55
      P1  H  7954  7966       L1     1  0.31

> <Gold.Chemscore.Hbond.Weighted>
-6.5877

> <Gold.Chemscore.Metal.Weighted>
-0.0000

> <Gold.Chemscore.Lipo.Weighted>
-12.8080

> <Gold.Chemscore.Internal_Hbond.Weighted>
0.0000

> <Gold.Chemscore.DEClash.Weighted>
3.1305

> <Gold.Chemscore.DEInternal.Weighted>
2.1216

> <Gold.Chemscore.Rot.Weighted>
7.0734

> <Gold.Chemscore.Internal.Correction.Weighted>
   9.000000E+99

> <Gold.Protein.RotatedTorsions>
[ 6907 6896 6895 6894 ] final  -43.64 input  -60.11 | X-H torsion
[ 7974 7965 7964 7962 ] final -174.80 input  175.53 | X-H torsion
[ 8008 7997 7996 7995 ] final -137.24 input   59.86 | X-H torsion
[ 10167 10162 10161 10158 ] final   24.62 input  -65.29 | X-H torsion
[ 10718 10713 10712 10709 ] final -130.03 input   66.30 | X-H torsion
[ 10763 10752 10751 10750 ] final -160.50 input  -60.55 | X-H torsion
[ 11005 11000 10999 10996 ] final  127.16 input  -57.11 | X-H torsion

> <Gold.Protein.ActiveResidues>
 VAL166  LYS551  ARG553  GLY616  TRP617  ASP618  TYR619  PRO620  LYS621  CYS622 
 ASP623  PHE694  ASN695  SER759  ASP760  ASP761  ALA762  ILE779  LEU786  VAL792 
 PHE793  MET794  SER795  GLU796  ALA797  LYS798  CYS799  TRP800  GLU811  SER814 

> <Gold.Protein.RotatedAtoms>
  150.9416  134.8825  159.7615 H   0  0  0  0  0  0  0  0  0  0  0  0  # atno 6907 bound_to 6896
  152.5082  134.3933  159.9401 H   0  0  0  0  0  0  0  0  0  0  0  0  # atno 6908 bound_to 6896
  151.3954  133.3735  159.2760 H   0  0  0  0  0  0  0  0  0  0  0  0  # atno 6909 bound_to 6896
  144.7130  140.1417  143.6391 H   0  0  0  0  0  0  0  0  0  0  0  0  # atno 7974 bound_to 7965
  155.4085  140.0510  157.3033 H   0  0  0  0  0  0  0  0  0  0  0  0  # atno 8008 bound_to 7997
  154.4957  140.2137  155.9412 H   0  0  0  0  0  0  0  0  0  0  0  0  # atno 8009 bound_to 7997
  156.1402  140.3155  155.8489 H   0  0  0  0  0  0  0  0  0  0  0  0  # atno 8010 bound_to 7997
  140.5173  144.0061  150.6400 H   0  0  0  0  0  0  0  0  0  0  0  0  # atno 10167 bound_to 10162
  156.2104  130.6914  151.0643 H   0  0  0  0  0  0  0  0  0  0  0  0  # atno 10718 bound_to 10713
  154.7384  135.3063  154.8770 H   0  0  0  0  0  0  0  0  0  0  0  0  # atno 10763 bound_to 10752
  153.9592  135.6755  153.4749 H   0  0  0  0  0  0  0  0  0  0  0  0  # atno 10764 bound_to 10752
  153.0985  135.4923  154.8747 H   0  0  0  0  0  0  0  0  0  0  0  0  # atno 10765 bound_to 10752
  139.9493  134.9624  156.8813 H   0  0  0  0  0  0  0  0  0  0  0  0  # atno 11005 bound_to 11000
  145.9196  139.2537  143.1389 LP  0  0  0  0  0  0  0  0  0  0  0  0  # atno 17320 bound_to 7965
  145.9634  140.8818  143.0199 LP  0  0  0  0  0  0  0  0  0  0  0  0  # atno 17321 bound_to 7965
  140.3400  143.3025  152.0598 LP  0  0  0  0  0  0  0  0  0  0  0  0  # atno 17342 bound_to 10162
  139.4913  144.6449  151.6799 LP  0  0  0  0  0  0  0  0  0  0  0  0  # atno 17343 bound_to 10162
  157.7035  131.0766  150.6743 LP  0  0  0  0  0  0  0  0  0  0  0  0  # atno 17370 bound_to 10713
  156.6802  130.4565  149.5630 LP  0  0  0  0  0  0  0  0  0  0  0  0  # atno 17371 bound_to 10713
  140.5758  134.0400  155.7446 LP  0  0  0  0  0  0  0  0  0  0  0  0  # atno 17394 bound_to 11000
  141.1152  133.9552  157.2836 LP  0  0  0  0  0  0  0  0  0  0  0  0  # atno 17395 bound_to 11000

$$$$
