AV-unprocessed.smi:2446|AV-procd|sdf|9648|dock4
  -GOLD-   2272013283D 1   1.00000     0.00000
 Structure written by MMmdl.
 40 41  0  0  0  0  0  0  0  0  2 V2000
  150.3293  138.7171  154.0548 C   0  0  0  0  0  0  0  0  0  0  0  0
  149.2222  139.7545  154.1339 C   0  0  0  0  0  0  0  0  0  0  0  0
  149.5488  141.0982  154.4191 C   0  0  0  0  0  0  0  0  0  0  0  0
  148.5762  142.0305  154.4967 N   0  3  0  0  0  0  0  0  0  0  0  0
  147.2710  141.7397  154.3173 C   0  0  0  0  0  0  0  0  0  0  0  0
  146.8784  140.4175  154.0296 C   0  0  0  0  0  0  0  0  0  0  0  0
  147.8643  139.4034  153.9206 C   0  0  0  0  0  0  0  0  0  0  0  0
  147.5528  138.0416  153.6483 N   0  0  0  0  0  0  0  0  0  0  0  0
  146.5365  137.2918  154.1182 C   0  0  0  0  0  0  0  0  0  0  0  0
  145.6972  137.6784  154.9281 O   0  0  0  0  0  0  0  0  0  0  0  0
  146.4923  136.0451  153.6136 N   0  0  0  0  0  0  0  0  0  0  0  0
  145.5326  134.9729  153.8997 C   0  0  1  0  0  0  0  0  0  0  0  0
  144.0928  135.5134  153.8086 C   0  0  0  0  0  0  0  0  0  0  0  0
  143.6794  135.8248  152.3603 C   0  0  0  0  0  0  0  0  0  0  0  0
  143.8712  134.6039  151.4473 C   0  0  0  0  0  0  0  0  0  0  0  0
  145.3217  134.0800  151.4936 C   0  0  2  0  0  0  0  0  0  0  0  0
  145.5295  132.8658  150.5652 C   0  0  0  0  0  0  0  0  0  0  0  0
  146.8258  132.6717  150.3203 F   0  0  0  0  0  0  0  0  0  0  0  0
  145.0280  131.7675  151.1300 F   0  0  0  0  0  0  0  0  0  0  0  0
  144.8971  133.0639  149.4084 F   0  0  0  0  0  0  0  0  0  0  0  0
  145.7253  133.7668  152.9524 C   0  0  0  0  0  0  0  0  0  0  0  0
  151.3002  139.1557  154.2871 H   0  0  0  0  0  0  0  0  0  0  0  0
  150.3824  138.2934  153.0517 H   0  0  0  0  0  0  0  0  0  0  0  0
  150.1476  137.9082  154.7633 H   0  0  0  0  0  0  0  0  0  0  0  0
  150.5544  141.4550  154.5888 H   0  0  0  0  0  0  0  0  0  0  0  0
  146.5827  142.5668  154.4141 H   0  0  0  0  0  0  0  0  0  0  0  0
  145.8267  140.2075  153.9112 H   0  0  0  0  0  0  0  0  0  0  0  0
  148.1228  137.6044  152.9390 H   0  0  0  0  0  0  0  0  0  0  0  0
  147.2247  135.8051  152.9607 H   0  0  0  0  0  0  0  0  0  0  0  0
  145.6847  134.6387  154.9274 H   0  0  0  0  0  0  0  0  0  0  0  0
  143.4068  134.7721  154.2207 H   0  0  0  0  0  0  0  0  0  0  0  0
  143.9823  136.4038  154.4290 H   0  0  0  0  0  0  0  0  0  0  0  0
  142.6374  136.1450  152.3353 H   0  0  0  0  0  0  0  0  0  0  0  0
  144.2656  136.6619  151.9792 H   0  0  0  0  0  0  0  0  0  0  0  0
  143.1821  133.8137  151.7483 H   0  0  0  0  0  0  0  0  0  0  0  0
  143.6022  134.8732  150.4256 H   0  0  0  0  0  0  0  0  0  0  0  0
  145.9724  134.8764  151.1291 H   0  0  0  0  0  0  0  0  0  0  0  0
  146.7587  133.4223  152.9879 H   0  0  0  0  0  0  0  0  0  0  0  0
  145.1231  132.9345  153.3183 H   0  0  0  0  0  0  0  0  0  0  0  0
  148.8380  142.9944  154.7052 H   0  0  0  0  0  0  0  0  0  0  0  0
  1  2  1  0  0  0  0
  1 22  1  0  0  0  0
  1 23  1  0  0  0  0
  1 24  1  0  0  0  0
  2  7  1  0  0  0  0
  2  3  2  0  0  0  0
  3  4  1  0  0  0  0
  3 25  1  0  0  0  0
  4  5  2  0  0  0  0
  4 40  1  0  0  0  0
  5  6  1  0  0  0  0
  5 26  1  0  0  0  0
  6  7  2  0  0  0  0
  6 27  1  0  0  0  0
  7  8  1  0  0  0  0
  8  9  1  0  0  0  0
  8 28  1  0  0  0  0
  9 10  2  0  0  0  0
  9 11  1  0  0  0  0
 11 12  1  0  0  0  0
 11 29  1  0  0  0  0
 12 21  1  0  0  0  0
 12 13  1  0  0  0  0
 12 30  1  0  0  0  0
 13 14  1  0  0  0  0
 13 31  1  0  0  0  0
 13 32  1  0  0  0  0
 14 15  1  0  0  0  0
 14 33  1  0  0  0  0
 14 34  1  0  0  0  0
 15 16  1  0  0  0  0
 15 35  1  0  0  0  0
 15 36  1  0  0  0  0
 16 17  1  0  0  0  0
 16 21  1  0  0  0  0
 16 37  1  0  0  0  0
 17 18  1  0  0  0  0
 17 19  1  0  0  0  0
 17 20  1  0  0  0  0
 21 38  1  0  0  0  0
 21 39  1  0  0  0  0
M  CHG  1   4   1
M  END
> <s_m_source_file>
AV-unprocessed.smi

> <i_m_source_file_index>
2446

> <i_lp_mmshare_version>
43012

> <i_f3d_flags>
0

> <s_epik_input>
W0NIM11jMVtjSF1uW2NIXVtjSF1jMVtOSF1DKD1PKVtOSF1bQ0BASF0yW0NIMl1bQ0gyXVtDSDJdW0NAQEhdKEMoRikoRilGKVtDSDJdMg==

> <s_epik_cmdline>
J2VwaWtfcHl0aG9uJywgJy1waCcsICc3LjAnLCAnLXRuJywgJzgnLCAnLW1hJywgJzIwMCcsICctbWV0YWxfYmluZGluZycsICctaW1hZScsICc8aW5maWxlLm1hZT4nLCAnLW9tYWUnLCAnPG91dGZpbGUubWFlPic=

> <r_epik_Ionization_Penalty>
0.736582

> <r_epik_Ionization_Penalty_Charging>
0.736562

> <r_epik_Ionization_Penalty_Neutral>
1.98379e-05

> <r_epik_State_Penalty>
0.762314

> <r_epik_Charging_Adjusted_Penalty>
1.49888

> <i_epik_Tot_Q>
1

> <i_epik_Tot_abs_Q>
1

> <r_epik_Metal_State_Penalty>
0.914579

> <b_epik_Metal_Only>
0

> <s_lp_Force_Field>
OPLS_2005

> <r_lp_Energy>
31.0639

> <b_lp_Chiralities_Consistent>
1

> <s_lp_Variant>
AV-unprocessed.smi:2446-8

> <Gold.Version>
5.8.1

> <Gold.Id.Protein>
6NUR|6NUR_protein|mol2

> <Gold.PLP.Fitness>
41.1376

> <Gold.PLP.PLP>
-31.4928

> <Gold.PLP.part.hbond>
-2.8329

> <Gold.PLP.part.metal>
0.0000

> <Gold.PLP.part.buried>
1.8683

> <Gold.PLP.part.nonpolar>
-29.8568

> <Gold.PLP.part.repulsive>
0.4202

> <Gold.PLP.ligand.clash>
0.0000

> <Gold.PLP.ligand.torsion>
0.7855

> <Gold.PLP.Chemscore.Hbond>
3.7313

> <Gold.PLP.Chemscore.CHOScore>
0.0000

> <Gold.PLP.Chemscore.Metal>
0.0000

> <Gold.Chemscore.Hbonds>
donor molecule, donor type, donor heavy atom, donor atom, acceptor molecule, acceptor atom, score
      L1  H     4    40       P1  8028  2.00
      L1  H     8    28       P1  7948  1.00
      L1  H    11    29       P1  7948  0.86

> <Gold.PLP.Chemscore.Internal.Correction>
0.0220

> <Gold.Rescore>
     Score         DG    S(hbond)    S(metal)    S(lipo)     H(rot)  DE(clash)    DE(int)     intcor
     18.29     -20.38       2.91        0.00      66.20       1.00       1.62       0.47       ----

> <Gold.Chemscore.Fitness>
18.2924

> <Gold.Chemscore.DG>
-20.3825

> <Gold.Chemscore.ZeroCoef>
-5.4800

> <Gold.Chemscore.Hbond>
2.9092

> <Gold.Chemscore.Metal>
0.0000

> <Gold.Chemscore.Lipo>
66.2026

> <Gold.Chemscore.Internal_Hbond>
0.0000

> <Gold.Chemscore.DEClash>
1.6240

> <Gold.Chemscore.DEInternal>
0.4662

> <Gold.Chemscore.Rot>
1.0000

> <Gold.Chemscore.Internal.Correction>
   9.000000E+99

> <Gold.Chemscore.Hbonds>
donor molecule, donor type, donor heavy atom, donor atom, acceptor molecule, acceptor atom, score
      L1  H     4    40       P1  8028  0.98
      L1  H     8    28       P1  7948  0.99
      L1  H    11    29       P1  7948  0.82

> <Gold.Chemscore.Hbond.Weighted>
-9.7168

> <Gold.Chemscore.Metal.Weighted>
-0.0000

> <Gold.Chemscore.Lipo.Weighted>
-7.7457

> <Gold.Chemscore.Internal_Hbond.Weighted>
0.0000

> <Gold.Chemscore.DEClash.Weighted>
1.6240

> <Gold.Chemscore.DEInternal.Weighted>
0.4662

> <Gold.Chemscore.Rot.Weighted>
2.5600

> <Gold.Chemscore.Internal.Correction.Weighted>
   9.000000E+99

> <Gold.Protein.RotatedTorsions>
[ 6907 6896 6895 6894 ] final -167.44 input  -60.11 | X-H torsion
[ 7974 7965 7964 7962 ] final   77.73 input  175.53 | X-H torsion
[ 8008 7997 7996 7995 ] final  -94.63 input   59.86 | X-H torsion
[ 10167 10162 10161 10158 ] final  -44.02 input  -65.29 | X-H torsion
[ 10718 10713 10712 10709 ] final  132.37 input   66.30 | X-H torsion
[ 10763 10752 10751 10750 ] final  -39.81 input  -60.55 | X-H torsion
[ 11005 11000 10999 10996 ] final -119.83 input  -57.11 | X-H torsion

> <Gold.Protein.ActiveResidues>
 VAL166  LYS551  ARG553  GLY616  TRP617  ASP618  TYR619  PRO620  LYS621  CYS622 
 ASP623  PHE694  ASN695  SER759  ASP760  ASP761  ALA762  ILE779  LEU786  VAL792 
 PHE793  MET794  SER795  GLU796  ALA797  LYS798  CYS799  TRP800  GLU811  SER814 

> <Gold.Protein.RotatedAtoms>
  151.4595  133.3596  159.2806 H   0  0  0  0  0  0  0  0  0  0  0  0  # atno 6907 bound_to 6896
  150.9035  134.8450  159.7387 H   0  0  0  0  0  0  0  0  0  0  0  0  # atno 6908 bound_to 6896
  152.4893  134.4518  159.9629 H   0  0  0  0  0  0  0  0  0  0  0  0  # atno 6909 bound_to 6896
  145.6863  139.2539  143.1785 H   0  0  0  0  0  0  0  0  0  0  0  0  # atno 7974 bound_to 7965
  154.7510  140.0487  157.0893 H   0  0  0  0  0  0  0  0  0  0  0  0  # atno 8008 bound_to 7997
  155.0058  140.3130  155.4830 H   0  0  0  0  0  0  0  0  0  0  0  0  # atno 8009 bound_to 7997
  156.2885  140.2193  156.5170 H   0  0  0  0  0  0  0  0  0  0  0  0  # atno 8010 bound_to 7997
  140.6912  143.2952  151.3435 H   0  0  0  0  0  0  0  0  0  0  0  0  # atno 10167 bound_to 10162
  157.4877  131.1089  150.9598 H   0  0  0  0  0  0  0  0  0  0  0  0  # atno 10718 bound_to 10713
  153.9356  135.6767  153.4745 H   0  0  0  0  0  0  0  0  0  0  0  0  # atno 10763 bound_to 10752
  153.0957  135.4852  154.8772 H   0  0  0  0  0  0  0  0  0  0  0  0  # atno 10764 bound_to 10752
  154.7405  135.3159  154.8695 H   0  0  0  0  0  0  0  0  0  0  0  0  # atno 10765 bound_to 10752
  141.0187  134.0156  157.3313 H   0  0  0  0  0  0  0  0  0  0  0  0  # atno 11005 bound_to 11000
  146.0920  140.7644  142.9590 LP  0  0  0  0  0  0  0  0  0  0  0  0  # atno 17320 bound_to 7965
  144.7010  140.3653  143.7156 LP  0  0  0  0  0  0  0  0  0  0  0  0  # atno 17321 bound_to 7965
  139.6318  144.0706  152.2482 LP  0  0  0  0  0  0  0  0  0  0  0  0  # atno 17342 bound_to 10162
  140.0184  144.6172  150.7588 LP  0  0  0  0  0  0  0  0  0  0  0  0  # atno 17343 bound_to 10162
  157.0310  130.5711  149.5343 LP  0  0  0  0  0  0  0  0  0  0  0  0  # atno 17370 bound_to 10713
  156.0156  130.5250  150.8124 LP  0  0  0  0  0  0  0  0  0  0  0  0  # atno 17371 bound_to 10713
  139.9133  135.0193  156.7780 LP  0  0  0  0  0  0  0  0  0  0  0  0  # atno 17394 bound_to 11000
  140.6610  133.9645  155.7804 LP  0  0  0  0  0  0  0  0  0  0  0  0  # atno 17395 bound_to 11000

$$$$
