AV-unprocessed.smi:1313|AV-procd|sdf|5451|dock10
  -GOLD-   22720 5 23D 1   1.00000     0.00000
 Structure written by MMmdl.
 37 38  0  0  0  0  0  0  0  0  1 V2000
  150.9918  143.3432  157.7014 C   0  0  0  0  0  0  0  0  0  0  0  0
  150.9671  142.0420  156.9294 C   0  0  0  0  0  0  0  0  0  0  0  0
  150.0315  142.0193  155.9086 N   0  0  0  0  0  0  0  0  0  0  0  0
  149.9312  140.8680  155.1476 C   0  0  0  0  0  0  0  0  0  0  0  0
  148.8795  140.9267  154.0530 C   0  0  0  0  0  0  0  0  0  0  0  0
  150.7266  139.7946  155.3890 C   0  0  0  0  0  0  0  0  0  0  0  0
  150.6470  138.5068  154.5715 C   0  0  0  0  0  0  0  0  0  0  0  0
  150.2512  137.2584  155.3619 C   0  0  0  0  0  0  0  0  0  0  0  0
  150.7014  137.0782  156.4931 O   0  0  0  0  0  0  0  0  0  0  0  0
  149.4175  136.4014  154.7529 N   0  0  0  0  0  0  0  0  0  0  0  0
  148.9475  135.1396  155.3181 C   0  0  0  0  0  0  0  0  0  0  0  0
  150.1184  134.1555  155.5064 C   0  0  0  0  0  0  0  0  0  0  0  0
  149.6597  132.8286  154.8988 C   0  0  0  0  0  0  0  0  0  0  0  0
  148.6845  133.2342  153.7985 C   0  0  0  0  0  0  0  0  0  0  0  0
  147.9440  134.4378  154.3812 C   0  0  0  0  0  0  0  0  0  0  0  0
  151.7151  139.8820  156.4901 C   0  0  0  0  0  0  0  0  0  0  0  0
  152.4746  138.9498  156.7502 O   0  0  0  0  0  0  0  0  0  0  0  0
  151.7708  141.0700  157.2370 N   0  0  0  0  0  0  0  0  0  0  0  0
  149.4219  142.7952  155.6942 H   0  0  0  0  0  0  0  0  0  0  0  0
  151.7316  143.3080  158.5020 H   0  0  0  0  0  0  0  0  0  0  0  0
  150.0164  143.5396  158.1475 H   0  0  0  0  0  0  0  0  0  0  0  0
  151.2446  144.1724  157.0400 H   0  0  0  0  0  0  0  0  0  0  0  0
  148.1328  140.1461  154.1980 H   0  0  0  0  0  0  0  0  0  0  0  0
  149.3391  140.7892  153.0743 H   0  0  0  0  0  0  0  0  0  0  0  0
  148.3616  141.8865  154.0451 H   0  0  0  0  0  0  0  0  0  0  0  0
  151.6144  138.3401  154.0962 H   0  0  0  0  0  0  0  0  0  0  0  0
  149.9506  138.6185  153.7401 H   0  0  0  0  0  0  0  0  0  0  0  0
  149.0958  136.6324  153.8242 H   0  0  0  0  0  0  0  0  0  0  0  0
  148.4737  135.3265  156.2837 H   0  0  0  0  0  0  0  0  0  0  0  0
  151.0041  134.5023  154.9716 H   0  0  0  0  0  0  0  0  0  0  0  0
  150.3993  134.0467  156.5544 H   0  0  0  0  0  0  0  0  0  0  0  0
  150.4897  132.2282  154.5254 H   0  0  0  0  0  0  0  0  0  0  0  0
  149.1360  132.2401  155.6532 H   0  0  0  0  0  0  0  0  0  0  0  0
  149.2393  133.5383  152.9099 H   0  0  0  0  0  0  0  0  0  0  0  0
  148.0117  132.4253  153.5120 H   0  0  0  0  0  0  0  0  0  0  0  0
  147.0938  134.0864  154.9675 H   0  0  0  0  0  0  0  0  0  0  0  0
  147.5455  135.0885  153.6017 H   0  0  0  0  0  0  0  0  0  0  0  0
  1 20  1  0  0  0  0
  1 21  1  0  0  0  0
  1 22  1  0  0  0  0
  1  2  1  0  0  0  0
  2  3  1  0  0  0  0
  2 18  2  0  0  0  0
  3  4  1  0  0  0  0
  3 19  1  0  0  0  0
  4  6  2  0  0  0  0
  4  5  1  0  0  0  0
  5 23  1  0  0  0  0
  5 24  1  0  0  0  0
  5 25  1  0  0  0  0
  6 16  1  0  0  0  0
  6  7  1  0  0  0  0
  7  8  1  0  0  0  0
  7 26  1  0  0  0  0
  7 27  1  0  0  0  0
  8  9  2  0  0  0  0
  8 10  1  0  0  0  0
 10 11  1  0  0  0  0
 10 28  1  0  0  0  0
 11 15  1  0  0  0  0
 11 12  1  0  0  0  0
 11 29  1  0  0  0  0
 12 13  1  0  0  0  0
 12 30  1  0  0  0  0
 12 31  1  0  0  0  0
 13 14  1  0  0  0  0
 13 32  1  0  0  0  0
 13 33  1  0  0  0  0
 14 15  1  0  0  0  0
 14 34  1  0  0  0  0
 14 35  1  0  0  0  0
 15 36  1  0  0  0  0
 15 37  1  0  0  0  0
 16 17  2  0  0  0  0
 16 18  1  0  0  0  0
M  END
> <s_m_source_file>
AV-unprocessed.smi

> <i_m_source_file_index>
1313

> <i_lp_mmshare_version>
43012

> <i_f3d_flags>
0

> <s_epik_input>
W0NIM11jMW5jKFtDSDNdKWMoYyg9TylbbkhdMSlbQ0gyXUMoPU8pW05IXVtDSF0yW0NIMl1bQ0gyXVtDSDJdW0NIMl0y

> <s_epik_cmdline>
J2VwaWtfcHl0aG9uJywgJy1waCcsICc3LjAnLCAnLXRuJywgJzgnLCAnLW1hJywgJzIwMCcsICctbWV0YWxfYmluZGluZycsICctaW1hZScsICc8aW5maWxlLm1hZT4nLCAnLW9tYWUnLCAnPG91dGZpbGUubWFlPic=

> <r_lp_tautomer_probability>
0.156392

> <r_epik_Ionization_Penalty>
0.0140409

> <r_epik_Ionization_Penalty_Charging>
0.0139177

> <r_epik_Ionization_Penalty_Neutral>
0.000123229

> <r_epik_State_Penalty>
1.53066

> <r_epik_Charging_Adjusted_Penalty>
1.54458

> <i_epik_Tot_Q>
0

> <i_epik_Tot_abs_Q>
0

> <r_epik_Metal_State_Penalty>
1.70649

> <b_epik_Metal_Only>
0

> <s_lp_Force_Field>
OPLS_2005

> <r_lp_Energy>
23.2441

> <b_lp_Chiralities_Consistent>
1

> <s_lp_Variant>
AV-unprocessed.smi:1313-2

> <Gold.Version>
5.8.1

> <Gold.Id.Protein>
6NUR|6NUR_protein|mol2

> <Gold.PLP.Fitness>
40.6163

> <Gold.PLP.PLP>
-32.2256

> <Gold.PLP.part.hbond>
-3.0000

> <Gold.PLP.part.metal>
0.0000

> <Gold.PLP.part.buried>
-0.2327

> <Gold.PLP.part.nonpolar>
-27.7506

> <Gold.PLP.part.repulsive>
0.1531

> <Gold.PLP.ligand.clash>
0.0000

> <Gold.PLP.ligand.torsion>
0.3059

> <Gold.PLP.Chemscore.Hbond>
3.0000

> <Gold.PLP.Chemscore.CHOScore>
0.0000

> <Gold.PLP.Chemscore.Metal>
0.0000

> <Gold.Chemscore.Hbonds>
donor molecule, donor type, donor heavy atom, donor atom, acceptor molecule, acceptor atom, score
      L1  H     3    19       P1  8028  1.00
      L1  H    10    28       P1  7948  1.00
      P1  H  7997  8010       L1    17  0.46

> <Gold.PLP.Chemscore.Internal.Correction>
0.0023

> <Gold.Rescore>
     Score         DG    S(hbond)    S(metal)    S(lipo)     H(rot)  DE(clash)    DE(int)     intcor
     14.63     -17.84       2.52        0.00      66.67       1.51       0.29       2.92       ----

> <Gold.Chemscore.Fitness>
14.6251

> <Gold.Chemscore.DG>
-17.8405

> <Gold.Chemscore.ZeroCoef>
-5.4800

> <Gold.Chemscore.Hbond>
2.5248

> <Gold.Chemscore.Metal>
0.0000

> <Gold.Chemscore.Lipo>
66.6684

> <Gold.Chemscore.Internal_Hbond>
0.0000

> <Gold.Chemscore.DEClash>
0.2909

> <Gold.Chemscore.DEInternal>
2.9245

> <Gold.Chemscore.Rot>
1.5128

> <Gold.Chemscore.Internal.Correction>
   9.000000E+99

> <Gold.Chemscore.Hbonds>
donor molecule, donor type, donor heavy atom, donor atom, acceptor molecule, acceptor atom, score
      L1  H     3    19       P1  8028  0.95
      L1  H    10    28       P1  7948  0.91
      P1  H  7997  8010       L1    17  0.10

> <Gold.Chemscore.Hbond.Weighted>
-8.4330

> <Gold.Chemscore.Metal.Weighted>
-0.0000

> <Gold.Chemscore.Lipo.Weighted>
-7.8002

> <Gold.Chemscore.Internal_Hbond.Weighted>
0.0000

> <Gold.Chemscore.DEClash.Weighted>
0.2909

> <Gold.Chemscore.DEInternal.Weighted>
2.9245

> <Gold.Chemscore.Rot.Weighted>
3.8727

> <Gold.Chemscore.Internal.Correction.Weighted>
   9.000000E+99

> <Gold.Protein.RotatedTorsions>
[ 6907 6896 6895 6894 ] final  127.65 input  -60.11 | X-H torsion
[ 7974 7965 7964 7962 ] final   61.42 input  175.53 | X-H torsion
[ 8008 7997 7996 7995 ] final   52.48 input   59.86 | X-H torsion
[ 10167 10162 10161 10158 ] final -124.14 input  -65.29 | X-H torsion
[ 10718 10713 10712 10709 ] final -138.61 input   66.30 | X-H torsion
[ 10763 10752 10751 10750 ] final  -11.42 input  -60.55 | X-H torsion
[ 11005 11000 10999 10996 ] final  -86.87 input  -57.11 | X-H torsion

> <Gold.Protein.ActiveResidues>
 VAL166  LYS551  ARG553  GLY616  TRP617  ASP618  TYR619  PRO620  LYS621  CYS622 
 ASP623  PHE694  ASN695  SER759  ASP760  ASP761  ALA762  ILE779  LEU786  VAL792 
 PHE793  MET794  SER795  GLU796  ALA797  LYS798  CYS799  TRP800  GLU811  SER814 

> <Gold.Protein.RotatedAtoms>
  152.3793  133.6524  159.6148 H   0  0  0  0  0  0  0  0  0  0  0  0  # atno 6907 bound_to 6896
  150.7728  133.9140  159.3387 H   0  0  0  0  0  0  0  0  0  0  0  0  # atno 6908 bound_to 6896
  151.6949  135.0941  160.0291 H   0  0  0  0  0  0  0  0  0  0  0  0  # atno 6909 bound_to 6896
  145.8850  139.3470  143.0683 H   0  0  0  0  0  0  0  0  0  0  0  0  # atno 7974 bound_to 7965
  155.4524  140.3458  155.4302 H   0  0  0  0  0  0  0  0  0  0  0  0  # atno 8008 bound_to 7997
  156.1212  140.1487  156.9232 H   0  0  0  0  0  0  0  0  0  0  0  0  # atno 8009 bound_to 7997
  154.4824  140.0865  156.7388 H   0  0  0  0  0  0  0  0  0  0  0  0  # atno 8010 bound_to 7997
  139.9960  143.5591  152.2323 H   0  0  0  0  0  0  0  0  0  0  0  0  # atno 10167 bound_to 10162
  156.3013  130.7430  151.1482 H   0  0  0  0  0  0  0  0  0  0  0  0  # atno 10718 bound_to 10713
  153.4836  135.7017  153.5924 H   0  0  0  0  0  0  0  0  0  0  0  0  # atno 10763 bound_to 10752
  153.4127  135.3844  155.2061 H   0  0  0  0  0  0  0  0  0  0  0  0  # atno 10764 bound_to 10752
  154.8720  135.3908  154.4288 H   0  0  0  0  0  0  0  0  0  0  0  0  # atno 10765 bound_to 10752
  141.1624  133.7479  156.9224 H   0  0  0  0  0  0  0  0  0  0  0  0  # atno 11005 bound_to 11000
  145.8978  140.9262  143.0519 LP  0  0  0  0  0  0  0  0  0  0  0  0  # atno 17320 bound_to 7965
  144.6728  140.0992  143.7461 LP  0  0  0  0  0  0  0  0  0  0  0  0  # atno 17321 bound_to 7965
  139.6306  144.7643  151.2545 LP  0  0  0  0  0  0  0  0  0  0  0  0  # atno 17342 bound_to 10162
  140.7437  143.6486  150.8269 LP  0  0  0  0  0  0  0  0  0  0  0  0  # atno 17343 bound_to 10162
  157.7368  131.0558  150.5390 LP  0  0  0  0  0  0  0  0  0  0  0  0  # atno 17370 bound_to 10713
  156.5518  130.4233  149.6104 LP  0  0  0  0  0  0  0  0  0  0  0  0  # atno 17371 bound_to 10713
  140.1442  134.9273  157.2507 LP  0  0  0  0  0  0  0  0  0  0  0  0  # atno 17394 bound_to 11000
  140.2800  134.3361  155.7346 LP  0  0  0  0  0  0  0  0  0  0  0  0  # atno 17395 bound_to 11000

$$$$
