AV-unprocessed.smi:107|AV-procd|sdf|1018|dock1
  -GOLD-   2262018 23D 1   1.00000     0.00000
 Structure written by MMmdl.
 31 32  0  0  0  0  0  0  0  0  1 V2000
  140.8676  137.7766  152.9585 C   0  0  0  0  0  0  0  0  0  0  0  0
  142.0176  136.8005  153.1437 C   0  0  0  0  0  0  0  0  0  0  0  0
  143.2910  137.0993  152.7805 C   0  0  0  0  0  0  0  0  0  0  0  0
  144.3620  136.2303  152.9366 N   0  0  0  0  0  0  0  0  0  0  0  0
  145.7570  136.6246  152.5075 C   0  0  1  0  0  0  0  0  0  0  0  0
  145.7101  137.7342  151.4561 C   0  0  0  0  0  0  0  0  0  0  0  0
  146.8882  138.5889  151.8734 C   0  0  1  0  0  0  0  0  0  0  0  0
  146.7308  139.9202  151.4270 O   0  0  0  0  0  0  0  0  0  0  0  0
  146.8421  138.4734  153.3990 C   0  0  2  0  0  0  0  0  0  0  0  0
  148.1953  138.7409  154.0748 C   0  0  0  0  0  0  0  0  0  0  0  0
  148.7136  139.9816  153.6450 O   0  0  0  0  0  0  0  0  0  0  0  0
  146.4532  137.1169  153.6154 O   0  0  0  0  0  0  0  0  0  0  0  0
  144.1384  134.9507  153.4866 C   0  0  0  0  0  0  0  0  0  0  0  0
  145.0308  134.1165  153.6333 O   0  0  0  0  0  0  0  0  0  0  0  0
  142.8316  134.6443  153.8627 N   0  0  0  0  0  0  0  0  0  0  0  0
  141.7276  135.4904  153.7330 C   0  0  0  0  0  0  0  0  0  0  0  0
  140.6199  135.1042  154.1023 O   0  0  0  0  0  0  0  0  0  0  0  0
  142.6678  133.7307  154.2600 H   0  0  0  0  0  0  0  0  0  0  0  0
  141.2036  138.7214  152.5303 H   0  0  0  0  0  0  0  0  0  0  0  0
  140.3941  137.9945  153.9164 H   0  0  0  0  0  0  0  0  0  0  0  0
  140.1145  137.3558  152.2913 H   0  0  0  0  0  0  0  0  0  0  0  0
  143.4763  138.0681  152.3421 H   0  0  0  0  0  0  0  0  0  0  0  0
  146.2768  135.7274  152.1684 H   0  0  0  0  0  0  0  0  0  0  0  0
  145.7891  137.3295  150.4466 H   0  0  0  0  0  0  0  0  0  0  0  0
  144.7747  138.2896  151.5464 H   0  0  0  0  0  0  0  0  0  0  0  0
  147.8146  138.1662  151.4811 H   0  0  0  0  0  0  0  0  0  0  0  0
  147.5803  140.2618  151.1926 H   0  0  0  0  0  0  0  0  0  0  0  0
  146.0693  139.1380  153.7904 H   0  0  0  0  0  0  0  0  0  0  0  0
  148.1076  138.7197  155.1615 H   0  0  0  0  0  0  0  0  0  0  0  0
  148.9147  137.9716  153.7922 H   0  0  0  0  0  0  0  0  0  0  0  0
  148.7796  139.9691  152.7023 H   0  0  0  0  0  0  0  0  0  0  0  0
  1  2  1  0  0  0  0
  1 19  1  0  0  0  0
  1 20  1  0  0  0  0
  1 21  1  0  0  0  0
  2 16  1  0  0  0  0
  2  3  2  0  0  0  0
  3  4  1  0  0  0  0
  3 22  1  0  0  0  0
  4  5  1  0  0  0  0
  4 13  1  0  0  0  0
  5 12  1  0  0  0  0
  5  6  1  0  0  0  0
  5 23  1  0  0  0  0
  6  7  1  0  0  0  0
  6 24  1  0  0  0  0
  6 25  1  0  0  0  0
  7  8  1  0  0  0  0
  7  9  1  0  0  0  0
  7 26  1  0  0  0  0
  8 27  1  0  0  0  0
  9 10  1  0  0  0  0
  9 12  1  0  0  0  0
  9 28  1  0  0  0  0
 10 11  1  0  0  0  0
 10 29  1  0  0  0  0
 10 30  1  0  0  0  0
 11 31  1  0  0  0  0
 13 14  2  0  0  0  0
 13 15  1  0  0  0  0
 15 18  1  0  0  0  0
 15 16  1  0  0  0  0
 16 17  2  0  0  0  0
M  END
> <s_m_source_file>
AV-unprocessed.smi

> <i_m_source_file_index>
107

> <i_lp_mmshare_version>
43012

> <i_f3d_flags>
0

> <s_epik_input>
Tz1jMVtuSF1jKD1PKW4oW2NIXWMxW0NIM10pW0NAQEhdMltDSDJdW0NAQEhdKFtPSF0pW0NASF0oTzIpW0NIMl1bT0hd

> <s_epik_cmdline>
J2VwaWtfcHl0aG9uJywgJy1waCcsICc3LjAnLCAnLXRuJywgJzgnLCAnLW1hJywgJzIwMCcsICctbWV0YWxfYmluZGluZycsICctaW1hZScsICc8aW5maWxlLm1hZT4nLCAnLW9tYWUnLCAnPG91dGZpbGUubWFlPic=

> <r_lp_tautomer_probability>
0.999537

> <r_epik_Ionization_Penalty>
0.00121888

> <r_epik_Ionization_Penalty_Charging>
0.00121876

> <r_epik_Ionization_Penalty_Neutral>
1.19946e-07

> <r_epik_State_Penalty>
0.000805124

> <r_epik_Charging_Adjusted_Penalty>
0.00202389

> <i_epik_Tot_Q>
0

> <i_epik_Tot_abs_Q>
0

> <r_epik_Metal_State_Penalty>
0.662472

> <b_epik_Metal_Only>
0

> <s_epik_Chemistry_Notes>
This compound contains an acetal/aminal-like group ( X-CH(R)-Y where X, Y are N, S, or O) that may be acid/base labile, releasing an aldehyde.

> <s_lp_Force_Field>
OPLS_2005

> <r_lp_Energy>
25.0544

> <b_lp_Chiralities_Consistent>
1

> <s_lp_Variant>
AV-unprocessed.smi:107-6

> <Gold.Version>
5.8.1

> <Gold.Id.Protein>
6NUR|6NUR_protein|mol2

> <Gold.PLP.Fitness>
40.6726

> <Gold.PLP.PLP>
-25.2536

> <Gold.PLP.part.hbond>
-5.2962

> <Gold.PLP.part.metal>
0.0000

> <Gold.PLP.part.buried>
-0.7993

> <Gold.PLP.part.nonpolar>
-20.2498

> <Gold.PLP.part.repulsive>
0.4018

> <Gold.PLP.ligand.clash>
0.0000

> <Gold.PLP.ligand.torsion>
0.7165

> <Gold.PLP.Chemscore.Hbond>
3.9670

> <Gold.PLP.Chemscore.CHOScore>
1.6471

> <Gold.PLP.Chemscore.Metal>
0.0000

> <Gold.Chemscore.Hbonds>
donor molecule, donor type, donor heavy atom, donor atom, acceptor molecule, acceptor atom, score
      L1  H     8    27       P1  7957  0.99
      L1  H    11    31       P1  7957  1.00
      L1  H    15    18       P1 10957  1.00
      P1  H 11000 11005       L1    17  1.00
      L1  C     3    22       P1 10171  0.79
      L1  C     3    22       P1 10175  1.00

> <Gold.PLP.Chemscore.Internal.Correction>
0.0098

> <Gold.Rescore>
     Score         DG    S(hbond)    S(metal)    S(lipo)     H(rot)  DE(clash)    DE(int)     intcor
     14.38     -16.12       3.91        0.00      38.92       2.73       1.03       0.71       ----

> <Gold.Chemscore.Fitness>
14.3813

> <Gold.Chemscore.DG>
-16.1162

> <Gold.Chemscore.ZeroCoef>
-5.4800

> <Gold.Chemscore.Hbond>
3.9099

> <Gold.Chemscore.Metal>
0.0000

> <Gold.Chemscore.Lipo>
38.9220

> <Gold.Chemscore.Internal_Hbond>
0.0000

> <Gold.Chemscore.DEClash>
1.0251

> <Gold.Chemscore.DEInternal>
0.7098

> <Gold.Chemscore.Rot>
2.7253

> <Gold.Chemscore.Internal.Correction>
   9.000000E+99

> <Gold.Chemscore.Hbonds>
donor molecule, donor type, donor heavy atom, donor atom, acceptor molecule, acceptor atom, score
      L1  H     8    27       P1  7957  0.92
      L1  H    11    31       P1  7957  0.99
      L1  H    15    18       P1 10957  0.93
      P1  H 11000 11005       L1    17  0.95

> <Gold.Chemscore.Hbond.Weighted>
-13.0592

> <Gold.Chemscore.Metal.Weighted>
-0.0000

> <Gold.Chemscore.Lipo.Weighted>
-4.5539

> <Gold.Chemscore.Internal_Hbond.Weighted>
0.0000

> <Gold.Chemscore.DEClash.Weighted>
1.0251

> <Gold.Chemscore.DEInternal.Weighted>
0.7098

> <Gold.Chemscore.Rot.Weighted>
6.9769

> <Gold.Chemscore.Internal.Correction.Weighted>
   9.000000E+99

> <Gold.Protein.RotatedTorsions>
[ 6907 6896 6895 6894 ] final  164.56 input  -60.11 | X-H torsion
[ 7974 7965 7964 7962 ] final  100.24 input  175.53 | X-H torsion
[ 8008 7997 7996 7995 ] final  -56.97 input   59.86 | X-H torsion
[ 10167 10162 10161 10158 ] final   82.41 input  -65.29 | X-H torsion
[ 10718 10713 10712 10709 ] final -137.35 input   66.30 | X-H torsion
[ 10763 10752 10751 10750 ] final -134.32 input  -60.55 | X-H torsion
[ 11005 11000 10999 10996 ] final   50.61 input  -57.11 | X-H torsion

> <Gold.Protein.ActiveResidues>
 VAL166  LYS551  ARG553  GLY616  TRP617  ASP618  TYR619  PRO620  LYS621  CYS622 
 ASP623  PHE694  ASN695  SER759  ASP760  ASP761  ALA762  ILE779  LEU786  VAL792 
 PHE793  MET794  SER795  GLU796  ALA797  LYS798  CYS799  TRP800  GLU811  SER814 

> <Gold.Protein.RotatedAtoms>
  151.9080  133.3554  159.3853 H   0  0  0  0  0  0  0  0  0  0  0  0  # atno 6907 bound_to 6896
  150.7064  134.4761  159.5457 H   0  0  0  0  0  0  0  0  0  0  0  0  # atno 6908 bound_to 6896
  152.2361  134.8274  160.0517 H   0  0  0  0  0  0  0  0  0  0  0  0  # atno 6909 bound_to 6896
  145.3882  139.2367  143.3366 H   0  0  0  0  0  0  0  0  0  0  0  0  # atno 7974 bound_to 7965
  154.4250  140.1117  156.5722 H   0  0  0  0  0  0  0  0  0  0  0  0  # atno 8008 bound_to 7997
  155.6200  140.3495  155.4630 H   0  0  0  0  0  0  0  0  0  0  0  0  # atno 8009 bound_to 7997
  156.0032  140.1203  157.0517 H   0  0  0  0  0  0  0  0  0  0  0  0  # atno 8010 bound_to 7997
  139.9291  144.6164  150.8363 H   0  0  0  0  0  0  0  0  0  0  0  0  # atno 10167 bound_to 10162
  156.2871  130.7354  151.1369 H   0  0  0  0  0  0  0  0  0  0  0  0  # atno 10718 bound_to 10713
  154.8721  135.3738  154.4716 H   0  0  0  0  0  0  0  0  0  0  0  0  # atno 10763 bound_to 10752
  153.5376  135.7027  153.5657 H   0  0  0  0  0  0  0  0  0  0  0  0  # atno 10764 bound_to 10752
  153.3834  135.3991  155.1837 H   0  0  0  0  0  0  0  0  0  0  0  0  # atno 10765 bound_to 10752
  140.1003  134.5090  155.8769 H   0  0  0  0  0  0  0  0  0  0  0  0  # atno 11005 bound_to 11000
  146.2810  140.4561  142.8776 LP  0  0  0  0  0  0  0  0  0  0  0  0  # atno 17320 bound_to 7965
  144.8459  140.6928  143.6199 LP  0  0  0  0  0  0  0  0  0  0  0  0  # atno 17321 bound_to 7965
  140.7642  143.3243  151.2551 LP  0  0  0  0  0  0  0  0  0  0  0  0  # atno 17342 bound_to 10162
  139.6797  143.9875  152.2801 LP  0  0  0  0  0  0  0  0  0  0  0  0  # atno 17343 bound_to 10162
  157.7332  131.0593  150.5590 LP  0  0  0  0  0  0  0  0  0  0  0  0  # atno 17370 bound_to 10713
  156.5703  130.4278  149.6022 LP  0  0  0  0  0  0  0  0  0  0  0  0  # atno 17371 bound_to 10713
  141.2104  133.6694  156.6504 LP  0  0  0  0  0  0  0  0  0  0  0  0  # atno 17394 bound_to 11000
  140.3229  134.7993  157.4266 LP  0  0  0  0  0  0  0  0  0  0  0  0  # atno 17395 bound_to 11000

$$$$
