AV-unprocessed.smi:1116|AV-procd|sdf|4810|dock4
  -GOLD-   22720 3363D 1   1.00000     0.00000
 Structure written by MMmdl.
 35 36  0  0  0  0  0  0  0  0  2 V2000
  153.3679  143.1228  163.4586 C   0  0  0  0  0  0  0  0  0  0  0  0
  153.1757  142.8710  162.0024 C   0  0  0  0  0  0  0  0  0  0  0  0
  152.5582  143.7233  161.1806 N   0  0  0  0  0  0  0  0  0  0  0  0
  152.5016  143.2571  159.8635 C   0  0  0  0  0  0  0  0  0  0  0  0
  151.8385  144.0859  158.8060 C   0  0  0  0  0  0  0  0  0  0  0  0
  150.3617  143.7035  158.6092 C   0  0  0  0  0  0  0  0  0  0  0  0
  150.1168  143.1625  157.2775 N   0  0  0  0  0  0  0  0  0  0  0  0
  150.4206  141.9167  156.8823 C   0  0  0  0  0  0  0  0  0  0  0  0
  150.9418  141.0821  157.6227 O   0  0  0  0  0  0  0  0  0  0  0  0
  150.0704  141.5629  155.4347 C   0  0  0  0  0  0  0  0  0  0  0  0
  149.2815  140.2451  155.3114 C   0  0  0  0  0  0  0  0  0  0  0  0
  150.1976  139.0116  155.1699 C   0  0  1  0  0  0  0  0  0  0  0  0
  151.3847  139.3165  154.3896 N   0  5  0  0  0  0  0  0  0  0  0  0
  152.4755  139.0606  155.1499 C   0  0  0  0  0  0  0  0  0  0  0  0
  153.6572  139.1853  154.8357 O   0  0  0  0  0  0  0  0  0  0  0  0
  152.1159  138.6315  156.3641 N   0  0  0  0  0  0  0  0  0  0  0  0
  150.7945  138.5779  156.4951 C   0  0  0  0  0  0  0  0  0  0  0  0
  150.1545  138.2407  157.4903 O   0  0  0  0  0  0  0  0  0  0  0  0
  153.0936  142.0295  159.6986 C   0  0  0  0  0  0  0  0  0  0  0  0
  153.7421  141.4146  161.1944 S   0  0  0  0  0  0  0  0  0  0  0  0
  152.8639  144.0419  163.7598 H   0  0  0  0  0  0  0  0  0  0  0  0
  154.4304  143.2169  163.6828 H   0  0  0  0  0  0  0  0  0  0  0  0
  152.9585  142.2948  164.0372 H   0  0  0  0  0  0  0  0  0  0  0  0
  151.9148  145.1419  159.0680 H   0  0  0  0  0  0  0  0  0  0  0  0
  152.3703  143.9747  157.8601 H   0  0  0  0  0  0  0  0  0  0  0  0
  150.0754  142.9449  159.3385 H   0  0  0  0  0  0  0  0  0  0  0  0
  149.7143  144.5642  158.7858 H   0  0  0  0  0  0  0  0  0  0  0  0
  149.6923  143.7818  156.6022 H   0  0  0  0  0  0  0  0  0  0  0  0
  149.4911  142.3835  155.0106 H   0  0  0  0  0  0  0  0  0  0  0  0
  150.9898  141.4968  154.8510 H   0  0  0  0  0  0  0  0  0  0  0  0
  148.6215  140.1242  156.1729 H   0  0  0  0  0  0  0  0  0  0  0  0
  148.6288  140.3066  154.4387 H   0  0  0  0  0  0  0  0  0  0  0  0
  149.6331  138.1727  154.7602 H   0  0  0  0  0  0  0  0  0  0  0  0
  152.7688  138.3887  157.0940 H   0  0  0  0  0  0  0  0  0  0  0  0
  153.1865  141.4510  158.7914 H   0  0  0  0  0  0  0  0  0  0  0  0
  1  2  1  0  0  0  0
  1 21  1  0  0  0  0
  1 22  1  0  0  0  0
  1 23  1  0  0  0  0
  2 20  1  0  0  0  0
  2  3  2  0  0  0  0
  3  4  1  0  0  0  0
  4  5  1  0  0  0  0
  4 19  2  0  0  0  0
  5  6  1  0  0  0  0
  5 24  1  0  0  0  0
  5 25  1  0  0  0  0
  6  7  1  0  0  0  0
  6 26  1  0  0  0  0
  6 27  1  0  0  0  0
  7  8  1  0  0  0  0
  7 28  1  0  0  0  0
  8  9  2  0  0  0  0
  8 10  1  0  0  0  0
 10 11  1  0  0  0  0
 10 29  1  0  0  0  0
 10 30  1  0  0  0  0
 11 12  1  0  0  0  0
 11 31  1  0  0  0  0
 11 32  1  0  0  0  0
 12 17  1  0  0  0  0
 12 13  1  0  0  0  0
 12 33  1  0  0  0  0
 13 14  1  0  0  0  0
 14 15  2  0  0  0  0
 14 16  1  0  0  0  0
 16 17  1  0  0  0  0
 16 34  1  0  0  0  0
 17 18  2  0  0  0  0
 19 20  1  0  0  0  0
 19 35  1  0  0  0  0
M  CHG  1  13  -1
M  END
> <s_m_source_file>
AV-unprocessed.smi

> <i_m_source_file_index>
1116

> <i_lp_mmshare_version>
43012

> <i_f3d_flags>
0

> <s_epik_input>
W0NIM11jMW5jKFtjSF1zMSlbQ0gyXVtDSDJdW05IXUMoPU8pW0NIMl1bQ0gyXVtDQEBIXTJbTkhdQyg9TylbTkhdQzI9Tw==

> <s_epik_cmdline>
J2VwaWtfcHl0aG9uJywgJy1waCcsICc3LjAnLCAnLXRuJywgJzgnLCAnLW1hJywgJzIwMCcsICctbWV0YWxfYmluZGluZycsICctaW1hZScsICc8aW5maWxlLm1hZT4nLCAnLW9tYWUnLCAnPG91dGZpbGUubWFlPic=

> <r_lp_tautomer_probability>
1

> <r_epik_Ionization_Penalty>
5.7962

> <r_epik_Ionization_Penalty_Charging>
5.79516

> <r_epik_Ionization_Penalty_Neutral>
0.00104588

> <r_epik_State_Penalty>
5.80096

> <r_epik_Charging_Adjusted_Penalty>
11.5961

> <i_epik_Tot_Q>
-1

> <i_epik_Tot_abs_Q>
1

> <r_epik_Metal_State_Penalty>
2.1448

> <b_epik_Metal_Only>
1

> <s_lp_Force_Field>
OPLS_2005

> <r_lp_Energy>
5.74046

> <b_lp_Chiralities_Consistent>
1

> <s_lp_Variant>
AV-unprocessed.smi:1116-4

> <Gold.Version>
5.8.1

> <Gold.Id.Protein>
6NUR|6NUR_protein|mol2

> <Gold.PLP.Fitness>
48.0034

> <Gold.PLP.PLP>
-41.6252

> <Gold.PLP.part.hbond>
-3.0000

> <Gold.PLP.part.metal>
0.0000

> <Gold.PLP.part.buried>
-5.6097

> <Gold.PLP.part.nonpolar>
-32.4122

> <Gold.PLP.part.repulsive>
0.3823

> <Gold.PLP.ligand.clash>
0.0000

> <Gold.PLP.ligand.torsion>
1.3348

> <Gold.PLP.Chemscore.Hbond>
3.0000

> <Gold.PLP.Chemscore.CHOScore>
0.0000

> <Gold.PLP.Chemscore.Metal>
0.0000

> <Gold.Chemscore.Hbonds>
donor molecule, donor type, donor heavy atom, donor atom, acceptor molecule, acceptor atom, score
      L1  H     7    28       P1  8028  1.00
      P1  H  7989  7998       L1    13  1.00
      P1  H  7997  8009       L1    15  1.00

> <Gold.PLP.Chemscore.Internal.Correction>
0.0479

> <Gold.Rescore>
     Score         DG    S(hbond)    S(metal)    S(lipo)     H(rot)  DE(clash)    DE(int)     intcor
     16.39     -19.15       2.88        0.00      95.15       2.77       0.00       2.76       ----

> <Gold.Chemscore.Fitness>
16.3873

> <Gold.Chemscore.DG>
-19.1454

> <Gold.Chemscore.ZeroCoef>
-5.4800

> <Gold.Chemscore.Hbond>
2.8807

> <Gold.Chemscore.Metal>
0.0000

> <Gold.Chemscore.Lipo>
95.1524

> <Gold.Chemscore.Internal_Hbond>
0.0000

> <Gold.Chemscore.DEClash>
0.0009

> <Gold.Chemscore.DEInternal>
2.7573

> <Gold.Chemscore.Rot>
2.7691

> <Gold.Chemscore.Internal.Correction>
   9.000000E+99

> <Gold.Chemscore.Hbonds>
donor molecule, donor type, donor heavy atom, donor atom, acceptor molecule, acceptor atom, score
      L1  H     7    28       P1  8028  0.95
      P1  H  7989  7998       L1    13  0.69
      P1  H  7997  8009       L1    15  0.93

> <Gold.Chemscore.Hbond.Weighted>
-9.6215

> <Gold.Chemscore.Metal.Weighted>
-0.0000

> <Gold.Chemscore.Lipo.Weighted>
-11.1328

> <Gold.Chemscore.Internal_Hbond.Weighted>
0.0000

> <Gold.Chemscore.DEClash.Weighted>
0.0009

> <Gold.Chemscore.DEInternal.Weighted>
2.7573

> <Gold.Chemscore.Rot.Weighted>
7.0889

> <Gold.Chemscore.Internal.Correction.Weighted>
   9.000000E+99

> <Gold.Protein.RotatedTorsions>
[ 6907 6896 6895 6894 ] final   44.51 input  -60.11 | X-H torsion
[ 7974 7965 7964 7962 ] final -126.24 input  175.53 | X-H torsion
[ 8008 7997 7996 7995 ] final -124.68 input   59.86 | X-H torsion
[ 10167 10162 10161 10158 ] final   87.14 input  -65.29 | X-H torsion
[ 10718 10713 10712 10709 ] final -162.48 input   66.30 | X-H torsion
[ 10763 10752 10751 10750 ] final   81.28 input  -60.55 | X-H torsion
[ 11005 11000 10999 10996 ] final   76.36 input  -57.11 | X-H torsion

> <Gold.Protein.ActiveResidues>
 VAL166  LYS551  ARG553  GLY616  TRP617  ASP618  TYR619  PRO620  LYS621  CYS622 
 ASP623  PHE694  ASN695  SER759  ASP760  ASP761  ALA762  ILE779  LEU786  VAL792 
 PHE793  MET794  SER795  GLU796  ALA797  LYS798  CYS799  TRP800  GLU811  SER814 

> <Gold.Protein.RotatedAtoms>
  152.2334  134.8300  160.0470 H   0  0  0  0  0  0  0  0  0  0  0  0  # atno 6907 bound_to 6896
  151.9041  133.3540  159.3849 H   0  0  0  0  0  0  0  0  0  0  0  0  # atno 6908 bound_to 6896
  150.7032  134.4725  159.5476 H   0  0  0  0  0  0  0  0  0  0  0  0  # atno 6909 bound_to 6896
  144.9893  140.7716  143.4564 H   0  0  0  0  0  0  0  0  0  0  0  0  # atno 7974 bound_to 7965
  155.2009  140.0416  157.2917 H   0  0  0  0  0  0  0  0  0  0  0  0  # atno 8008 bound_to 7997
  154.6075  140.2468  155.7683 H   0  0  0  0  0  0  0  0  0  0  0  0  # atno 8009 bound_to 7997
  156.2359  140.2921  156.0321 H   0  0  0  0  0  0  0  0  0  0  0  0  # atno 8010 bound_to 7997
  139.8804  144.6443  150.8849 H   0  0  0  0  0  0  0  0  0  0  0  0  # atno 10167 bound_to 10162
  156.6110  130.8850  151.2936 H   0  0  0  0  0  0  0  0  0  0  0  0  # atno 10718 bound_to 10713
  153.1104  135.4771  154.9024 H   0  0  0  0  0  0  0  0  0  0  0  0  # atno 10763 bound_to 10752
  154.7474  135.3097  154.8622 H   0  0  0  0  0  0  0  0  0  0  0  0  # atno 10764 bound_to 10752
  153.9213  135.6854  153.4801 H   0  0  0  0  0  0  0  0  0  0  0  0  # atno 10765 bound_to 10752
  139.9302  134.7594  156.1385 H   0  0  0  0  0  0  0  0  0  0  0  0  # atno 11005 bound_to 11000
  145.2309  139.2115  143.5043 LP  0  0  0  0  0  0  0  0  0  0  0  0  # atno 17320 bound_to 7965
  146.3427  140.2185  142.8591 LP  0  0  0  0  0  0  0  0  0  0  0  0  # atno 17321 bound_to 7965
  140.7745  143.3590  151.1864 LP  0  0  0  0  0  0  0  0  0  0  0  0  # atno 17342 bound_to 10162
  139.7201  143.9237  152.2982 LP  0  0  0  0  0  0  0  0  0  0  0  0  # atno 17343 bound_to 10162
  157.7254  130.9615  150.1613 LP  0  0  0  0  0  0  0  0  0  0  0  0  # atno 17370 bound_to 10713
  156.2390  130.3689  149.8359 LP  0  0  0  0  0  0  0  0  0  0  0  0  # atno 17371 bound_to 10713
  141.0885  133.6724  156.2489 LP  0  0  0  0  0  0  0  0  0  0  0  0  # atno 17394 bound_to 11000
  140.6224  134.5348  157.5549 LP  0  0  0  0  0  0  0  0  0  0  0  0  # atno 17395 bound_to 11000

$$$$
