AV-unprocessed.smi:378|AV-procd|sdf|2457|dock10
  -GOLD-   2262022393D 1   1.00000     0.00000
 Structure written by MMmdl.
 34 35  0  0  0  0  0  0  0  0  1 V2000
  160.7122  142.3730  157.7599 N   0  0  0  0  0  0  0  0  0  0  0  0
  159.5773  142.2360  157.9380 C   0  0  0  0  0  0  0  0  0  0  0  0
  158.1340  142.0611  158.1635 C   0  0  0  0  0  0  0  0  0  0  0  0
  157.7989  140.8059  158.9840 C   0  0  0  0  0  0  0  0  0  0  0  0
  156.5778  140.9753  159.7632 N   0  0  0  0  0  0  0  0  0  0  0  0
  155.7887  139.9748  160.1812 C   0  0  0  0  0  0  0  0  0  0  0  0
  156.0117  138.7906  159.9245 O   0  0  0  0  0  0  0  0  0  0  0  0
  154.5615  140.3879  161.0080 C   0  0  0  0  0  0  0  0  0  0  0  0
  153.5637  141.1566  160.2317 N   0  0  0  0  0  0  0  0  0  0  0  0
  153.0893  140.6214  159.0068 C   0  0  0  0  0  0  0  0  0  0  0  0
  153.5156  139.5491  158.5743 O   0  0  0  0  0  0  0  0  0  0  0  0
  152.0694  141.4162  158.3264 C   0  0  0  0  0  0  0  0  0  0  0  0
  151.5430  140.8954  157.1084 C   0  0  0  0  0  0  0  0  0  0  0  0
  151.1261  140.4501  156.1246 N   0  0  0  0  0  0  0  0  0  0  0  0
  151.6444  142.5888  158.8403 C   0  0  0  0  0  0  0  0  0  0  0  0
  152.1468  143.1101  160.0127 N   0  0  0  0  0  0  0  0  0  0  0  0
  151.5699  144.2755  160.6214 C   0  0  0  0  0  0  0  0  0  0  0  0
  150.4199  144.9726  159.9278 C   0  0  0  0  0  0  0  0  0  0  0  0
  151.7701  145.6435  159.9985 C   0  0  0  0  0  0  0  0  0  0  0  0
  153.0869  142.3769  160.7694 C   0  0  0  0  0  0  0  0  0  0  0  0
  153.4738  142.7782  161.8702 O   0  0  0  0  0  0  0  0  0  0  0  0
  157.7761  142.9499  158.6829 H   0  0  0  0  0  0  0  0  0  0  0  0
  157.6377  142.0395  157.1929 H   0  0  0  0  0  0  0  0  0  0  0  0
  157.6696  139.9517  158.3187 H   0  0  0  0  0  0  0  0  0  0  0  0
  158.6280  140.5586  159.6490 H   0  0  0  0  0  0  0  0  0  0  0  0
  156.3217  141.9197  160.0138 H   0  0  0  0  0  0  0  0  0  0  0  0
  154.1045  139.4935  161.4355 H   0  0  0  0  0  0  0  0  0  0  0  0
  154.9085  140.9479  161.8776 H   0  0  0  0  0  0  0  0  0  0  0  0
  150.8837  143.1456  158.3119 H   0  0  0  0  0  0  0  0  0  0  0  0
  151.5221  144.2540  161.7088 H   0  0  0  0  0  0  0  0  0  0  0  0
  150.1015  144.5960  158.9575 H   0  0  0  0  0  0  0  0  0  0  0  0
  149.6258  145.3739  160.5543 H   0  0  0  0  0  0  0  0  0  0  0  0
  151.8783  146.4895  160.6740 H   0  0  0  0  0  0  0  0  0  0  0  0
  152.3394  145.7110  159.0733 H   0  0  0  0  0  0  0  0  0  0  0  0
  1  2  3  0  0  0  0
  2  3  1  0  0  0  0
  3  4  1  0  0  0  0
  3 22  1  0  0  0  0
  3 23  1  0  0  0  0
  4  5  1  0  0  0  0
  4 24  1  0  0  0  0
  4 25  1  0  0  0  0
  5  6  1  0  0  0  0
  5 26  1  0  0  0  0
  6  7  2  0  0  0  0
  6  8  1  0  0  0  0
  8  9  1  0  0  0  0
  8 27  1  0  0  0  0
  8 28  1  0  0  0  0
  9 20  1  0  0  0  0
  9 10  1  0  0  0  0
 10 11  2  0  0  0  0
 10 12  1  0  0  0  0
 12 13  1  0  0  0  0
 12 15  2  0  0  0  0
 13 14  3  0  0  0  0
 15 16  1  0  0  0  0
 15 29  1  0  0  0  0
 16 17  1  0  0  0  0
 16 20  1  0  0  0  0
 17 19  1  0  0  0  0
 17 18  1  0  0  0  0
 17 30  1  0  0  0  0
 18 19  1  0  0  0  0
 18 31  1  0  0  0  0
 18 32  1  0  0  0  0
 19 33  1  0  0  0  0
 19 34  1  0  0  0  0
 20 21  2  0  0  0  0
M  END
> <s_m_source_file>
AV-unprocessed.smi

> <i_m_source_file_index>
378

> <i_lp_mmshare_version>
43012

> <i_f3d_flags>
0

> <s_epik_input>
TiNDW0NIMl1bQ0gyXVtOSF1DKD1PKVtDSDJdbjFjKD1PKWMoQyNOKVtjSF1uKGMxPU8pW0NIXTJbQ0gyXVtDSDJdMg==

> <s_epik_cmdline>
J2VwaWtfcHl0aG9uJywgJy1waCcsICc3LjAnLCAnLXRuJywgJzgnLCAnLW1hJywgJzIwMCcsICctbWV0YWxfYmluZGluZycsICctaW1hZScsICc8aW5maWxlLm1hZT4nLCAnLW9tYWUnLCAnPG91dGZpbGUubWFlPic=

> <r_lp_tautomer_probability>
1

> <r_epik_Ionization_Penalty>
1.80062e-07

> <r_epik_Ionization_Penalty_Charging>
6.75485e-11

> <r_epik_Ionization_Penalty_Neutral>
1.79994e-07

> <r_epik_State_Penalty>
-0

> <r_epik_Charging_Adjusted_Penalty>
6.75485e-11

> <i_epik_Tot_Q>
0

> <i_epik_Tot_abs_Q>
0

> <r_epik_Metal_State_Penalty>
-0

> <b_epik_Metal_Only>
0

> <s_lp_Force_Field>
OPLS_2005

> <r_lp_Energy>
28.3727

> <b_lp_Chiralities_Consistent>
1

> <s_lp_Variant>
AV-unprocessed.smi:378-1

> <Gold.Version>
5.8.1

> <Gold.Id.Protein>
6NUR|6NUR_protein|mol2

> <Gold.PLP.Fitness>
47.6651

> <Gold.PLP.PLP>
-45.5967

> <Gold.PLP.part.hbond>
-2.7253

> <Gold.PLP.part.metal>
0.0000

> <Gold.PLP.part.buried>
-6.2799

> <Gold.PLP.part.nonpolar>
-36.1431

> <Gold.PLP.part.repulsive>
0.3592

> <Gold.PLP.ligand.clash>
0.0000

> <Gold.PLP.ligand.torsion>
0.5807

> <Gold.PLP.Chemscore.Hbond>
1.0000

> <Gold.PLP.Chemscore.CHOScore>
0.0000

> <Gold.PLP.Chemscore.Metal>
0.0000

> <Gold.Chemscore.Hbonds>
donor molecule, donor type, donor heavy atom, donor atom, acceptor molecule, acceptor atom, score
      P1  H  7997  8010       L1    11  1.00

> <Gold.PLP.Chemscore.Internal.Correction>
0.2297

> <Gold.Rescore>
     Score         DG    S(hbond)    S(metal)    S(lipo)     H(rot)  DE(clash)    DE(int)     intcor
      8.06     -11.80       1.11        0.00      77.11       2.50       0.27       3.48       ----

> <Gold.Chemscore.Fitness>
8.0599

> <Gold.Chemscore.DG>
-11.8038

> <Gold.Chemscore.ZeroCoef>
-5.4800

> <Gold.Chemscore.Hbond>
1.1078

> <Gold.Chemscore.Metal>
0.0000

> <Gold.Chemscore.Lipo>
77.1132

> <Gold.Chemscore.Internal_Hbond>
0.0000

> <Gold.Chemscore.DEClash>
0.2656

> <Gold.Chemscore.DEInternal>
3.4782

> <Gold.Chemscore.Rot>
2.4994

> <Gold.Chemscore.Internal.Correction>
   9.000000E+99

> <Gold.Chemscore.Hbonds>
donor molecule, donor type, donor heavy atom, donor atom, acceptor molecule, acceptor atom, score
      P1  H  7997  8010       L1    11  0.50

> <Gold.Chemscore.Hbond.Weighted>
-3.7000

> <Gold.Chemscore.Metal.Weighted>
-0.0000

> <Gold.Chemscore.Lipo.Weighted>
-9.0222

> <Gold.Chemscore.Internal_Hbond.Weighted>
0.0000

> <Gold.Chemscore.DEClash.Weighted>
0.2656

> <Gold.Chemscore.DEInternal.Weighted>
3.4782

> <Gold.Chemscore.Rot.Weighted>
6.3984

> <Gold.Chemscore.Internal.Correction.Weighted>
   9.000000E+99

> <Gold.Protein.RotatedTorsions>
[ 6907 6896 6895 6894 ] final  134.44 input  -60.11 | X-H torsion
[ 7974 7965 7964 7962 ] final  120.87 input  175.53 | X-H torsion
[ 8008 7997 7996 7995 ] final   18.15 input   59.86 | X-H torsion
[ 10167 10162 10161 10158 ] final -128.87 input  -65.29 | X-H torsion
[ 10718 10713 10712 10709 ] final   92.12 input   66.30 | X-H torsion
[ 10763 10752 10751 10750 ] final -166.58 input  -60.55 | X-H torsion
[ 11005 11000 10999 10996 ] final   26.46 input  -57.11 | X-H torsion

> <Gold.Protein.ActiveResidues>
 VAL166  LYS551  ARG553  GLY616  TRP617  ASP618  TYR619  PRO620  LYS621  CYS622 
 ASP623  PHE694  ASN695  SER759  ASP760  ASP761  ALA762  ILE779  LEU786  VAL792 
 PHE793  MET794  SER795  GLU796  ALA797  LYS798  CYS799  TRP800  GLU811  SER814 

> <Gold.Protein.RotatedAtoms>
  152.3113  133.5756  159.5682 H   0  0  0  0  0  0  0  0  0  0  0  0  # atno 6907 bound_to 6896
  150.7324  134.0148  159.3690 H   0  0  0  0  0  0  0  0  0  0  0  0  # atno 6908 bound_to 6896
  151.8040  135.0701  160.0455 H   0  0  0  0  0  0  0  0  0  0  0  0  # atno 6909 bound_to 6896
  145.1260  139.3358  143.4689 H   0  0  0  0  0  0  0  0  0  0  0  0  # atno 7974 bound_to 7965
  154.9018  140.3002  155.5313 H   0  0  0  0  0  0  0  0  0  0  0  0  # atno 8008 bound_to 7997
  156.3018  140.2405  156.3982 H   0  0  0  0  0  0  0  0  0  0  0  0  # atno 8009 bound_to 7997
  154.8513  140.0409  157.1595 H   0  0  0  0  0  0  0  0  0  0  0  0  # atno 8010 bound_to 7997
  139.9458  143.6112  152.2490 H   0  0  0  0  0  0  0  0  0  0  0  0  # atno 10167 bound_to 10162
  157.6959  131.0432  150.3834 H   0  0  0  0  0  0  0  0  0  0  0  0  # atno 10718 bound_to 10713
  154.6818  135.2956  154.9602 H   0  0  0  0  0  0  0  0  0  0  0  0  # atno 10763 bound_to 10752
  154.0594  135.6633  153.4814 H   0  0  0  0  0  0  0  0  0  0  0  0  # atno 10764 bound_to 10752
  153.0552  135.5149  154.7865 H   0  0  0  0  0  0  0  0  0  0  0  0  # atno 10765 bound_to 10752
  140.3368  134.2377  155.7695 H   0  0  0  0  0  0  0  0  0  0  0  0  # atno 11005 bound_to 11000
  146.3517  140.1240  142.8599 LP  0  0  0  0  0  0  0  0  0  0  0  0  # atno 17320 bound_to 7965
  145.0687  140.9140  143.4895 LP  0  0  0  0  0  0  0  0  0  0  0  0  # atno 17321 bound_to 7965
  139.6668  144.7662  151.1858 LP  0  0  0  0  0  0  0  0  0  0  0  0  # atno 17342 bound_to 10162
  140.7597  143.5926  150.8781 LP  0  0  0  0  0  0  0  0  0  0  0  0  # atno 17343 bound_to 10162
  156.4245  130.3959  149.6802 LP  0  0  0  0  0  0  0  0  0  0  0  0  # atno 17370 bound_to 10713
  156.4041  130.7689  151.2699 LP  0  0  0  0  0  0  0  0  0  0  0  0  # atno 17371 bound_to 10713
  141.2049  133.7874  157.0262 LP  0  0  0  0  0  0  0  0  0  0  0  0  # atno 17394 bound_to 11000
  140.0814  134.9646  157.1630 LP  0  0  0  0  0  0  0  0  0  0  0  0  # atno 17395 bound_to 11000

$$$$
