AV-unprocessed.smi:54|AV-procd|sdf|540|dock8
  -GOLD-   2262016423D 1   1.00000     0.00000
 Structure written by MMmdl.
 44 46  0  0  0  0  0  0  0  0  1 V2000
  151.2985  145.3851  159.6774 C   0  0  0  0  0  0  0  0  0  0  0  0
  151.3741  144.0086  160.3578 C   0  0  0  0  0  0  0  0  0  0  0  0
  152.3199  144.0361  161.5693 C   0  0  0  0  0  0  0  0  0  0  0  0
  151.8114  142.9350  159.3550 C   0  0  0  0  0  0  0  0  0  0  0  0
  152.9002  142.3662  159.4420 O   0  0  0  0  0  0  0  0  0  0  0  0
  150.8549  142.6410  158.3021 N   0  0  0  0  0  0  0  0  0  0  0  0
  150.9894  141.7526  157.2897 C   0  0  0  0  0  0  0  0  0  0  0  0
  150.1057  141.6273  156.3097 N   0  0  0  0  0  0  0  0  0  0  0  0
  150.4132  140.6674  155.3864 C   0  0  0  0  0  0  0  0  0  0  0  0
  151.5251  139.8520  155.3850 C   0  0  0  0  0  0  0  0  0  0  0  0
  151.4907  138.9967  154.2893 N   0  0  0  0  0  0  0  0  0  0  0  0
  150.3808  139.3083  153.6794 C   0  0  0  0  0  0  0  0  0  0  0  0
  149.6663  140.3166  154.2833 N   0  0  0  0  0  0  0  0  0  0  0  0
  148.3621  140.9283  153.8852 C   0  0  1  0  0  0  0  0  0  0  0  0
  147.9367  140.2992  152.7119 O   0  0  0  0  0  0  0  0  0  0  0  0
  146.6893  139.6410  152.9108 C   0  0  1  0  0  0  0  0  0  0  0  0
  146.5878  138.3773  152.0390 C   0  0  0  0  0  0  0  0  0  0  0  0
  146.6638  138.7190  150.6715 O   0  0  0  0  0  0  0  0  0  0  0  0
  146.5577  139.4555  154.4293 C   0  0  1  0  0  0  0  0  0  0  0  0
  147.1554  138.2488  154.8661 O   0  0  0  0  0  0  0  0  0  0  0  0
  147.3148  140.6557  154.9761 C   0  0  2  0  0  0  0  0  0  0  0  0
  146.4562  141.7657  155.1468 O   0  0  0  0  0  0  0  0  0  0  0  0
  152.4949  139.9804  156.4339 C   0  0  0  0  0  0  0  0  0  0  0  0
  153.5364  139.3467  156.5904 O   0  0  0  0  0  0  0  0  0  0  0  0
  152.1423  140.9702  157.3612 N   0  0  0  0  0  0  0  0  0  0  0  0
  148.5919  141.9830  153.7272 H   0  0  0  0  0  0  0  0  0  0  0  0
  145.9241  140.3506  152.5914 H   0  0  0  0  0  0  0  0  0  0  0  0
  145.5143  139.4413  154.7471 H   0  0  0  0  0  0  0  0  0  0  0  0
  147.7867  140.4525  155.9391 H   0  0  0  0  0  0  0  0  0  0  0  0
  150.6324  145.3649  158.8141 H   0  0  0  0  0  0  0  0  0  0  0  0
  152.2790  145.7177  159.3340 H   0  0  0  0  0  0  0  0  0  0  0  0
  150.9173  146.1395  160.3661 H   0  0  0  0  0  0  0  0  0  0  0  0
  150.3756  143.7540  160.7163 H   0  0  0  0  0  0  0  0  0  0  0  0
  152.3828  143.0573  162.0465 H   0  0  0  0  0  0  0  0  0  0  0  0
  151.9687  144.7435  162.3208 H   0  0  0  0  0  0  0  0  0  0  0  0
  153.3299  144.3331  161.2835 H   0  0  0  0  0  0  0  0  0  0  0  0
  149.9946  143.1676  158.3297 H   0  0  0  0  0  0  0  0  0  0  0  0
  150.0557  138.8068  152.7795 H   0  0  0  0  0  0  0  0  0  0  0  0
  147.4124  137.7020  152.2683 H   0  0  0  0  0  0  0  0  0  0  0  0
  145.6664  137.8277  152.2327 H   0  0  0  0  0  0  0  0  0  0  0  0
  145.8050  138.6210  150.2887 H   0  0  0  0  0  0  0  0  0  0  0  0
  148.0685  138.2633  154.6221 H   0  0  0  0  0  0  0  0  0  0  0  0
  146.7840  142.4817  154.6242 H   0  0  0  0  0  0  0  0  0  0  0  0
  152.7792  141.1121  158.1313 H   0  0  0  0  0  0  0  0  0  0  0  0
  1  2  1  0  0  0  0
  1 30  1  0  0  0  0
  1 31  1  0  0  0  0
  1 32  1  0  0  0  0
  2  3  1  0  0  0  0
  2  4  1  0  0  0  0
  2 33  1  0  0  0  0
  3 34  1  0  0  0  0
  3 35  1  0  0  0  0
  3 36  1  0  0  0  0
  4  5  2  0  0  0  0
  4  6  1  0  0  0  0
  6 37  1  0  0  0  0
  6  7  1  0  0  0  0
  7 25  1  0  0  0  0
  7  8  2  0  0  0  0
  8  9  1  0  0  0  0
  9 13  1  0  0  0  0
  9 10  2  0  0  0  0
 10 11  1  0  0  0  0
 10 23  1  0  0  0  0
 11 12  2  0  0  0  0
 12 13  1  0  0  0  0
 12 38  1  0  0  0  0
 13 14  1  0  0  0  0
 14 26  1  0  0  0  0
 14 21  1  0  0  0  0
 14 15  1  0  0  0  0
 15 16  1  0  0  0  0
 16 27  1  0  0  0  0
 16 17  1  0  0  0  0
 16 19  1  0  0  0  0
 17 18  1  0  0  0  0
 17 39  1  0  0  0  0
 17 40  1  0  0  0  0
 18 41  1  0  0  0  0
 19 28  1  0  0  0  0
 19 20  1  0  0  0  0
 19 21  1  0  0  0  0
 20 42  1  0  0  0  0
 21 29  1  0  0  0  0
 21 22  1  0  0  0  0
 22 43  1  0  0  0  0
 23 24  2  0  0  0  0
 23 25  1  0  0  0  0
 25 44  1  0  0  0  0
M  END
> <s_m_source_file>
AV-unprocessed.smi

> <i_m_source_file_index>
54

> <i_lp_mmshare_version>
43012

> <i_f3d_flags>
0

> <s_epik_input>
W0NIM11bQ0hdKFtDSDNdKUMoPU8pW05IXWMobjEpW25IXWMoPU8pYyhjMTIpbltjSF1uMltDQEBIXTNPW0NASF0oW0NIMl1bT0hdKVtDQEBIXShbT0hdKVtDQEhdM1tPSF0=

> <s_epik_cmdline>
J2VwaWtfcHl0aG9uJywgJy1waCcsICc3LjAnLCAnLXRuJywgJzgnLCAnLW1hJywgJzIwMCcsICctbWV0YWxfYmluZGluZycsICctaW1hZScsICc8aW5maWxlLm1hZT4nLCAnLW9tYWUnLCAnPG91dGZpbGUubWFlPic=

> <r_lp_tautomer_probability>
0.85571

> <r_epik_Ionization_Penalty>
0.0316551

> <r_epik_Ionization_Penalty_Charging>
0.0316043

> <r_epik_Ionization_Penalty_Neutral>
5.07097e-05

> <r_epik_State_Penalty>
3.15494e-07

> <r_epik_Charging_Adjusted_Penalty>
0.0316047

> <i_epik_Tot_Q>
0

> <i_epik_Tot_abs_Q>
0

> <r_epik_Metal_State_Penalty>
0.421206

> <b_epik_Metal_Only>
0

> <s_epik_Chemistry_Notes>
This compound contains an acetal/aminal-like group ( X-CH(R)-Y where X, Y are N, S, or O) that may be acid/base labile, releasing an aldehyde.

> <s_lp_Force_Field>
OPLS_2005

> <r_lp_Energy>
34.69

> <b_lp_Chiralities_Consistent>
1

> <s_lp_Variant>
AV-unprocessed.smi:54-12

> <Gold.Version>
5.8.1

> <Gold.Id.Protein>
6NUR|6NUR_protein|mol2

> <Gold.PLP.Fitness>
50.9335

> <Gold.PLP.PLP>
-38.7980

> <Gold.PLP.part.hbond>
-3.3462

> <Gold.PLP.part.metal>
0.0000

> <Gold.PLP.part.buried>
-5.0571

> <Gold.PLP.part.nonpolar>
-36.3537

> <Gold.PLP.part.repulsive>
5.8146

> <Gold.PLP.ligand.clash>
0.0000

> <Gold.PLP.ligand.torsion>
0.1943

> <Gold.PLP.Chemscore.Hbond>
2.9280

> <Gold.PLP.Chemscore.CHOScore>
1.2379

> <Gold.PLP.Chemscore.Metal>
0.0000

> <Gold.Chemscore.Hbonds>
donor molecule, donor type, donor heavy atom, donor atom, acceptor molecule, acceptor atom, score
      L1  H    18    41       P1 10171  1.00
      P1  H  7954  7966       L1    18  0.80
      P1  H  7997  8010       L1    24  0.24
      L1  C    12    38       P1  7948  0.09
      L1  C    12    38       P1  7957  0.74

> <Gold.PLP.Chemscore.Internal.Correction>
0.0261

> <Gold.Rescore>
     Score         DG    S(hbond)    S(metal)    S(lipo)     H(rot)  DE(clash)    DE(int)     intcor
      8.79     -10.51       2.50        0.00      60.15       4.05       1.70       0.03       ----

> <Gold.Chemscore.Fitness>
8.7852

> <Gold.Chemscore.DG>
-10.5133

> <Gold.Chemscore.ZeroCoef>
-5.4800

> <Gold.Chemscore.Hbond>
2.5036

> <Gold.Chemscore.Metal>
0.0000

> <Gold.Chemscore.Lipo>
60.1490

> <Gold.Chemscore.Internal_Hbond>
0.0000

> <Gold.Chemscore.DEClash>
1.7013

> <Gold.Chemscore.DEInternal>
0.0268

> <Gold.Chemscore.Rot>
4.0493

> <Gold.Chemscore.Internal.Correction>
   9.000000E+99

> <Gold.Chemscore.Hbonds>
donor molecule, donor type, donor heavy atom, donor atom, acceptor molecule, acceptor atom, score
      L1  H    18    41       P1 10171  0.98
      P1  H  7954  7966       L1    18  0.58
      P1  H  7997  8010       L1    24  0.23

> <Gold.Chemscore.Hbond.Weighted>
-8.3621

> <Gold.Chemscore.Metal.Weighted>
-0.0000

> <Gold.Chemscore.Lipo.Weighted>
-7.0374

> <Gold.Chemscore.Internal_Hbond.Weighted>
0.0000

> <Gold.Chemscore.DEClash.Weighted>
1.7013

> <Gold.Chemscore.DEInternal.Weighted>
0.0268

> <Gold.Chemscore.Rot.Weighted>
10.3662

> <Gold.Chemscore.Internal.Correction.Weighted>
   9.000000E+99

> <Gold.Protein.RotatedTorsions>
[ 6907 6896 6895 6894 ] final -139.74 input  -60.11 | X-H torsion
[ 7974 7965 7964 7962 ] final  -91.79 input  175.53 | X-H torsion
[ 8008 7997 7996 7995 ] final   36.02 input   59.86 | X-H torsion
[ 10167 10162 10161 10158 ] final  -24.18 input  -65.29 | X-H torsion
[ 10718 10713 10712 10709 ] final   12.96 input   66.30 | X-H torsion
[ 10763 10752 10751 10750 ] final  137.69 input  -60.55 | X-H torsion
[ 11005 11000 10999 10996 ] final  129.51 input  -57.11 | X-H torsion

> <Gold.Protein.ActiveResidues>
 VAL166  LYS551  ARG553  GLY616  TRP617  ASP618  TYR619  PRO620  LYS621  CYS622 
 ASP623  PHE694  ASN695  SER759  ASP760  ASP761  ALA762  ILE779  LEU786  VAL792 
 PHE793  MET794  SER795  GLU796  ALA797  LYS798  CYS799  TRP800  GLU811  SER814 

> <Gold.Protein.RotatedAtoms>
  151.0516  133.5619  159.2641 H   0  0  0  0  0  0  0  0  0  0  0  0  # atno 6907 bound_to 6896
  151.2627  135.0658  159.9114 H   0  0  0  0  0  0  0  0  0  0  0  0  # atno 6908 bound_to 6896
  152.5383  134.0259  159.8057 H   0  0  0  0  0  0  0  0  0  0  0  0  # atno 6909 bound_to 6896
  145.4085  140.9543  143.2247 H   0  0  0  0  0  0  0  0  0  0  0  0  # atno 7974 bound_to 7965
  155.1806  140.3299  155.4376 H   0  0  0  0  0  0  0  0  0  0  0  0  # atno 8008 bound_to 7997
  156.2478  140.1927  156.6855 H   0  0  0  0  0  0  0  0  0  0  0  0  # atno 8009 bound_to 7997
  154.6273  140.0587  156.9676 H   0  0  0  0  0  0  0  0  0  0  0  0  # atno 8010 bound_to 7997
  140.7288  143.4377  151.0705 H   0  0  0  0  0  0  0  0  0  0  0  0  # atno 10167 bound_to 10162
  157.0177  130.6142  149.5716 H   0  0  0  0  0  0  0  0  0  0  0  0  # atno 10718 bound_to 10713
  153.8773  135.3048  155.3444 H   0  0  0  0  0  0  0  0  0  0  0  0  # atno 10763 bound_to 10752
  154.7778  135.4852  153.9783 H   0  0  0  0  0  0  0  0  0  0  0  0  # atno 10764 bound_to 10752
  153.1372  135.6816  153.9181 H   0  0  0  0  0  0  0  0  0  0  0  0  # atno 10765 bound_to 10752
  139.9619  134.9600  156.9158 H   0  0  0  0  0  0  0  0  0  0  0  0  # atno 11005 bound_to 11000
  144.8325  139.5604  143.6937 LP  0  0  0  0  0  0  0  0  0  0  0  0  # atno 17320 bound_to 7965
  146.2717  139.6651  142.9291 LP  0  0  0  0  0  0  0  0  0  0  0  0  # atno 17321 bound_to 7965
  139.8040  143.8043  152.3165 LP  0  0  0  0  0  0  0  0  0  0  0  0  # atno 17342 bound_to 10162
  139.8070  144.7351  150.9748 LP  0  0  0  0  0  0  0  0  0  0  0  0  # atno 17343 bound_to 10162
  156.0113  130.5205  150.7998 LP  0  0  0  0  0  0  0  0  0  0  0  0  # atno 17370 bound_to 10713
  157.5273  131.0935  151.0001 LP  0  0  0  0  0  0  0  0  0  0  0  0  # atno 17371 bound_to 10713
  140.5481  134.0654  155.7361 LP  0  0  0  0  0  0  0  0  0  0  0  0  # atno 17394 bound_to 11000
  141.1297  133.9323  157.2561 LP  0  0  0  0  0  0  0  0  0  0  0  0  # atno 17395 bound_to 11000

$$$$
