AV-unprocessed.smi:2262|AV-procd|sdf|9139|dock1
  -GOLD-   2272012343D 1   1.00000     0.00000
 Structure written by MMmdl.
 43 44  0  0  0  0  0  0  0  0  2 V2000
  143.7148  142.6515  155.3219 C   0  0  0  0  0  0  0  0  0  0  0  0
  144.8545  141.9256  154.7211 N   0  3  2  0  0  0  0  0  0  0  0  0
  145.5975  141.1154  155.7180 C   0  0  0  0  0  0  0  0  0  0  0  0
  146.6906  140.2683  155.0408 C   0  0  0  0  0  0  0  0  0  0  0  0
  147.6507  141.1263  154.1972 C   0  0  2  0  0  0  0  0  0  0  0  0
  148.5323  141.9134  155.0600 N   0  0  0  0  0  0  0  0  0  0  0  0
  149.3976  141.4026  155.9490 C   0  0  0  0  0  0  0  0  0  0  0  0
  149.5665  140.1934  156.1090 O   0  0  0  0  0  0  0  0  0  0  0  0
  150.0399  142.3741  156.6219 N   0  0  0  0  0  0  0  0  0  0  0  0
  151.0033  142.2310  157.6564 C   0  0  0  0  0  0  0  0  0  0  0  0
  151.0309  143.2783  158.6036 C   0  0  0  0  0  0  0  0  0  0  0  0
  151.9523  143.2242  159.6668 C   0  0  0  0  0  0  0  0  0  0  0  0
  152.8224  142.1232  159.7568 C   0  0  0  0  0  0  0  0  0  0  0  0
  152.7339  141.1157  158.7776 C   0  0  0  0  0  0  0  0  0  0  0  0
  153.5819  140.0309  158.8641 O   0  0  0  0  0  0  0  0  0  0  0  0
  154.6699  140.0910  159.7826 C   0  0  0  0  0  0  0  0  0  0  0  0
  154.1588  139.7246  161.1793 C   0  0  0  0  0  0  0  0  0  0  0  0
  154.0457  138.4023  161.3022 F   0  0  0  0  0  0  0  0  0  0  0  0
  154.9994  140.1793  162.1079 F   0  0  0  0  0  0  0  0  0  0  0  0
  151.8460  141.1737  157.7548 N   0  0  0  0  0  0  0  0  0  0  0  0
  146.8467  142.0166  153.2275 C   0  0  0  0  0  0  0  0  0  0  0  0
  145.7533  142.8213  153.9521 C   0  0  0  0  0  0  0  0  0  0  0  0
  144.0580  143.3825  156.0551 H   0  0  0  0  0  0  0  0  0  0  0  0
  143.0368  141.9582  155.8206 H   0  0  0  0  0  0  0  0  0  0  0  0
  143.1455  143.1771  154.5544 H   0  0  0  0  0  0  0  0  0  0  0  0
  146.0373  141.7727  156.4695 H   0  0  0  0  0  0  0  0  0  0  0  0
  144.9036  140.4569  156.2420 H   0  0  0  0  0  0  0  0  0  0  0  0
  147.2458  139.7019  155.7896 H   0  0  0  0  0  0  0  0  0  0  0  0
  146.2154  139.5288  154.3951 H   0  0  0  0  0  0  0  0  0  0  0  0
  148.2761  140.4491  153.6122 H   0  0  0  0  0  0  0  0  0  0  0  0
  148.4574  142.9180  154.9958 H   0  0  0  0  0  0  0  0  0  0  0  0
  149.8058  143.3243  156.3764 H   0  0  0  0  0  0  0  0  0  0  0  0
  150.3547  144.1170  158.5212 H   0  0  0  0  0  0  0  0  0  0  0  0
  151.9898  144.0144  160.4021 H   0  0  0  0  0  0  0  0  0  0  0  0
  153.5399  142.0510  160.5608 H   0  0  0  0  0  0  0  0  0  0  0  0
  155.4701  139.4101  159.4869 H   0  0  0  0  0  0  0  0  0  0  0  0
  155.0793  141.1026  159.8015 H   0  0  0  0  0  0  0  0  0  0  0  0
  153.1828  140.1667  161.3802 H   0  0  0  0  0  0  0  0  0  0  0  0
  147.5086  142.6906  152.6827 H   0  0  0  0  0  0  0  0  0  0  0  0
  146.3776  141.3843  152.4724 H   0  0  0  0  0  0  0  0  0  0  0  0
  145.1707  143.3803  153.2188 H   0  0  0  0  0  0  0  0  0  0  0  0
  146.2037  143.5548  154.6230 H   0  0  0  0  0  0  0  0  0  0  0  0
  144.4604  141.2747  154.0567 H   0  0  0  0  0  0  0  0  0  0  0  0
  1  2  1  0  0  0  0
  1 23  1  0  0  0  0
  1 24  1  0  0  0  0
  1 25  1  0  0  0  0
  2 22  1  0  0  0  0
  2  3  1  0  0  0  0
  2 43  1  0  0  0  0
  3  4  1  0  0  0  0
  3 26  1  0  0  0  0
  3 27  1  0  0  0  0
  4  5  1  0  0  0  0
  4 28  1  0  0  0  0
  4 29  1  0  0  0  0
  5  6  1  0  0  0  0
  5 21  1  0  0  0  0
  5 30  1  0  0  0  0
  6  7  1  0  0  0  0
  6 31  1  0  0  0  0
  7  8  2  0  0  0  0
  7  9  1  0  0  0  0
  9 10  1  0  0  0  0
  9 32  1  0  0  0  0
 10 20  1  0  0  0  0
 10 11  2  0  0  0  0
 11 12  1  0  0  0  0
 11 33  1  0  0  0  0
 12 13  2  0  0  0  0
 12 34  1  0  0  0  0
 13 14  1  0  0  0  0
 13 35  1  0  0  0  0
 14 15  1  0  0  0  0
 14 20  2  0  0  0  0
 15 16  1  0  0  0  0
 16 17  1  0  0  0  0
 16 36  1  0  0  0  0
 16 37  1  0  0  0  0
 17 18  1  0  0  0  0
 17 19  1  0  0  0  0
 17 38  1  0  0  0  0
 21 22  1  0  0  0  0
 21 39  1  0  0  0  0
 21 40  1  0  0  0  0
 22 41  1  0  0  0  0
 22 42  1  0  0  0  0
M  CHG  1   2   1
M  END
> <s_m_source_file>
AV-unprocessed.smi

> <i_m_source_file_index>
2262

> <i_lp_mmshare_version>
43012

> <i_f3d_flags>
0

> <s_epik_input>
W0NIM11OMVtDSDJdW0NIMl1bQ0hdKFtDSDJdW0NIMl0xKVtOSF1DKD1PKVtOSF1jMltjSF1bY0hdW2NIXWMobjIpT1tDSDJdW0NIXShGKUY=

> <s_epik_cmdline>
J2VwaWtfcHl0aG9uJywgJy1waCcsICc3LjAnLCAnLXRuJywgJzgnLCAnLW1hJywgJzIwMCcsICctbWV0YWxfYmluZGluZycsICctaW1hZScsICc8aW5maWxlLm1hZT4nLCAnLW9tYWUnLCAnPG91dGZpbGUubWFlPic=

> <r_lp_tautomer_probability>
1

> <r_epik_Ionization_Penalty>
0.00369782

> <r_epik_Ionization_Penalty_Charging>
0.00366825

> <r_epik_Ionization_Penalty_Neutral>
2.95729e-05

> <r_epik_State_Penalty>
0.00261101

> <r_epik_Charging_Adjusted_Penalty>
0.00627926

> <i_epik_Tot_Q>
1

> <i_epik_Tot_abs_Q>
1

> <r_epik_Metal_State_Penalty>
-0

> <b_epik_Metal_Only>
0

> <s_lp_Force_Field>
OPLS_2005

> <r_lp_Energy>
16.3431

> <b_lp_Chiralities_Consistent>
1

> <s_lp_Variant>
AV-unprocessed.smi:2262-2

> <Gold.Version>
5.8.1

> <Gold.Id.Protein>
6NUR|6NUR_protein|mol2

> <Gold.PLP.Fitness>
50.9978

> <Gold.PLP.PLP>
-37.3510

> <Gold.PLP.part.hbond>
-4.0000

> <Gold.PLP.part.metal>
0.0000

> <Gold.PLP.part.buried>
-5.7918

> <Gold.PLP.part.nonpolar>
-27.9704

> <Gold.PLP.part.repulsive>
0.2438

> <Gold.PLP.ligand.clash>
0.1239

> <Gold.PLP.ligand.torsion>
0.6106

> <Gold.PLP.Chemscore.Hbond>
4.9920

> <Gold.PLP.Chemscore.CHOScore>
0.0000

> <Gold.PLP.Chemscore.Metal>
0.0000

> <Gold.Chemscore.Hbonds>
donor molecule, donor type, donor heavy atom, donor atom, acceptor molecule, acceptor atom, score
      L1  H     2    43       P1 10175  2.00
      L1  H     6    31       P1  8028  1.00
      L1  H     9    32       P1  8028  1.00
      P1  H  7997  8010       L1    15  0.71

> <Gold.PLP.Chemscore.Internal.Correction>
0.0158

> <Gold.Rescore>
     Score         DG    S(hbond)    S(metal)    S(lipo)     H(rot)  DE(clash)    DE(int)     intcor
     17.15     -19.82       3.17        0.00      67.88       1.64       0.14       2.53       ----

> <Gold.Chemscore.Fitness>
17.1474

> <Gold.Chemscore.DG>
-19.8194

> <Gold.Chemscore.ZeroCoef>
-5.4800

> <Gold.Chemscore.Hbond>
3.1749

> <Gold.Chemscore.Metal>
0.0000

> <Gold.Chemscore.Lipo>
67.8832

> <Gold.Chemscore.Internal_Hbond>
0.0000

> <Gold.Chemscore.DEClash>
0.1390

> <Gold.Chemscore.DEInternal>
2.5330

> <Gold.Chemscore.Rot>
1.6434

> <Gold.Chemscore.Internal.Correction>
   9.000000E+99

> <Gold.Chemscore.Hbonds>
donor molecule, donor type, donor heavy atom, donor atom, acceptor molecule, acceptor atom, score
      L1  H     2    43       P1 10175  0.55
      L1  H     6    31       P1  8028  0.95
      L1  H     9    32       P1  8028  1.00
      P1  H  7997  8010       L1    15  0.05

> <Gold.Chemscore.Hbond.Weighted>
-10.6041

> <Gold.Chemscore.Metal.Weighted>
-0.0000

> <Gold.Chemscore.Lipo.Weighted>
-7.9423

> <Gold.Chemscore.Internal_Hbond.Weighted>
0.0000

> <Gold.Chemscore.DEClash.Weighted>
0.1390

> <Gold.Chemscore.DEInternal.Weighted>
2.5330

> <Gold.Chemscore.Rot.Weighted>
4.2070

> <Gold.Chemscore.Internal.Correction.Weighted>
   9.000000E+99

> <Gold.Protein.RotatedTorsions>
[ 6907 6896 6895 6894 ] final   23.99 input  -60.11 | X-H torsion
[ 7974 7965 7964 7962 ] final  -40.95 input  175.53 | X-H torsion
[ 8008 7997 7996 7995 ] final   22.55 input   59.86 | X-H torsion
[ 10167 10162 10161 10158 ] final   30.27 input  -65.29 | X-H torsion
[ 10718 10713 10712 10709 ] final   62.05 input   66.30 | X-H torsion
[ 10763 10752 10751 10750 ] final   35.05 input  -60.55 | X-H torsion
[ 11005 11000 10999 10996 ] final  141.17 input  -57.11 | X-H torsion

> <Gold.Protein.ActiveResidues>
 VAL166  LYS551  ARG553  GLY616  TRP617  ASP618  TYR619  PRO620  LYS621  CYS622 
 ASP623  PHE694  ASN695  SER759  ASP760  ASP761  ALA762  ILE779  LEU786  VAL792 
 PHE793  MET794  SER795  GLU796  ALA797  LYS798  CYS799  TRP800  GLU811  SER814 

> <Gold.Protein.RotatedAtoms>
  151.9507  135.0170  160.0541 H   0  0  0  0  0  0  0  0  0  0  0  0  # atno 6907 bound_to 6896
  152.1955  133.4799  159.5039 H   0  0  0  0  0  0  0  0  0  0  0  0  # atno 6908 bound_to 6896
  150.6944  134.1574  159.4206 H   0  0  0  0  0  0  0  0  0  0  0  0  # atno 6909 bound_to 6896
  146.0256  140.6795  142.9157 H   0  0  0  0  0  0  0  0  0  0  0  0  # atno 7974 bound_to 7965
  154.9675  140.3086  155.5003 H   0  0  0  0  0  0  0  0  0  0  0  0  # atno 8008 bound_to 7997
  156.2970  140.2290  156.4704 H   0  0  0  0  0  0  0  0  0  0  0  0  # atno 8009 bound_to 7997
  154.7908  140.0440  157.1187 H   0  0  0  0  0  0  0  0  0  0  0  0  # atno 8010 bound_to 7997
  140.4692  144.0788  150.6233 H   0  0  0  0  0  0  0  0  0  0  0  0  # atno 10167 bound_to 10162
  157.5872  130.9028  149.9538 H   0  0  0  0  0  0  0  0  0  0  0  0  # atno 10718 bound_to 10713
  153.0136  135.6344  154.1766 H   0  0  0  0  0  0  0  0  0  0  0  0  # atno 10763 bound_to 10752
  154.1506  135.2829  155.3138 H   0  0  0  0  0  0  0  0  0  0  0  0  # atno 10764 bound_to 10752
  154.6056  135.5573  153.7480 H   0  0  0  0  0  0  0  0  0  0  0  0  # atno 10765 bound_to 10752
  140.0381  134.9318  157.0792 H   0  0  0  0  0  0  0  0  0  0  0  0  # atno 11005 bound_to 11000
  144.7008  140.3644  143.7157 LP  0  0  0  0  0  0  0  0  0  0  0  0  # atno 17320 bound_to 7965
  145.7123  139.1688  143.2532 LP  0  0  0  0  0  0  0  0  0  0  0  0  # atno 17321 bound_to 7965
  140.3998  143.2710  151.9961 LP  0  0  0  0  0  0  0  0  0  0  0  0  # atno 17342 bound_to 10162
  139.4816  144.6007  151.7610 LP  0  0  0  0  0  0  0  0  0  0  0  0  # atno 17343 bound_to 10162
  156.0923  130.3662  150.0372 LP  0  0  0  0  0  0  0  0  0  0  0  0  # atno 17370 bound_to 10713
  156.8501  130.9456  151.3626 LP  0  0  0  0  0  0  0  0  0  0  0  0  # atno 17371 bound_to 10713
  140.4113  134.1978  155.7163 LP  0  0  0  0  0  0  0  0  0  0  0  0  # atno 17394 bound_to 11000
  141.1868  133.8294  157.1053 LP  0  0  0  0  0  0  0  0  0  0  0  0  # atno 17395 bound_to 11000

$$$$
