AV-unprocessed.smi:2002|AV-procd|sdf|8113|dock3
  -GOLD-   2272010343D 1   1.00000     0.00000
 Structure written by MMmdl.
 39 40  0  0  0  0  0  0  0  0  2 V2000
  145.8145  131.7906  149.4904 C   0  0  0  0  0  0  0  0  0  0  0  0
  146.3355  132.9100  150.4014 C   0  0  0  0  0  0  0  0  0  0  0  0
  145.4436  134.0927  150.3930 N   0  3  1  0  0  0  0  0  0  0  0  0
  144.1096  133.8837  151.0061 C   0  0  0  0  0  0  0  0  0  0  0  0
  143.8390  135.0973  151.9048 C   0  0  0  0  0  0  0  0  0  0  0  0
  144.8373  136.1546  151.4361 C   0  0  1  0  0  0  0  0  0  0  0  0
  145.1412  137.2309  152.4964 C   0  0  0  0  0  0  0  0  0  0  0  0
  146.5738  137.3904  152.7274 N   0  0  0  0  0  0  0  0  0  0  0  0
  147.1425  138.3828  153.4276 C   0  0  0  0  0  0  0  0  0  0  0  0
  146.5017  139.2777  153.9800 O   0  0  0  0  0  0  0  0  0  0  0  0
  148.4807  138.2631  153.4472 N   0  0  0  0  0  0  0  0  0  0  0  0
  149.4135  139.1071  154.1020 C   0  0  0  0  0  0  0  0  0  0  0  0
  148.9775  140.2244  154.8626 C   0  0  0  0  0  0  0  0  0  0  0  0
  150.1485  140.7643  155.3151 C   0  0  0  0  0  0  0  0  0  0  0  0
  150.4569  141.9460  156.1695 C   0  0  0  0  0  0  0  0  0  0  0  0
  151.2090  140.0381  154.8681 O   0  0  0  0  0  0  0  0  0  0  0  0
  150.7314  138.9776  154.0893 N   0  0  0  0  0  0  0  0  0  0  0  0
  146.0319  135.2952  151.0161 C   0  0  0  0  0  0  0  0  0  0  0  0
  146.5061  130.9480  149.4821 H   0  0  0  0  0  0  0  0  0  0  0  0
  145.7046  132.1382  148.4626 H   0  0  0  0  0  0  0  0  0  0  0  0
  144.8463  131.4166  149.8239 H   0  0  0  0  0  0  0  0  0  0  0  0
  146.4638  132.5459  151.4218 H   0  0  0  0  0  0  0  0  0  0  0  0
  147.3229  133.2142  150.0511 H   0  0  0  0  0  0  0  0  0  0  0  0
  143.3684  133.8142  150.2094 H   0  0  0  0  0  0  0  0  0  0  0  0
  144.0588  132.9610  151.5861 H   0  0  0  0  0  0  0  0  0  0  0  0
  142.8055  135.4402  151.8462 H   0  0  0  0  0  0  0  0  0  0  0  0
  144.0396  134.8301  152.9435 H   0  0  0  0  0  0  0  0  0  0  0  0
  144.4283  136.6359  150.5460 H   0  0  0  0  0  0  0  0  0  0  0  0
  144.7560  138.1926  152.1566 H   0  0  0  0  0  0  0  0  0  0  0  0
  144.6226  137.0104  153.4313 H   0  0  0  0  0  0  0  0  0  0  0  0
  147.1792  136.6999  152.3074 H   0  0  0  0  0  0  0  0  0  0  0  0
  148.8756  137.4829  152.9431 H   0  0  0  0  0  0  0  0  0  0  0  0
  147.9729  140.5746  155.0485 H   0  0  0  0  0  0  0  0  0  0  0  0
  149.6665  142.6935  156.0992 H   0  0  0  0  0  0  0  0  0  0  0  0
  151.3920  142.4152  155.8628 H   0  0  0  0  0  0  0  0  0  0  0  0
  150.5524  141.6510  157.2145 H   0  0  0  0  0  0  0  0  0  0  0  0
  146.6101  135.0054  151.8955 H   0  0  0  0  0  0  0  0  0  0  0  0
  146.7011  135.8112  150.3268 H   0  0  0  0  0  0  0  0  0  0  0  0
  145.2777  134.3356  149.4267 H   0  0  0  0  0  0  0  0  0  0  0  0
  1  2  1  0  0  0  0
  1 19  1  0  0  0  0
  1 20  1  0  0  0  0
  1 21  1  0  0  0  0
  2  3  1  0  0  0  0
  2 22  1  0  0  0  0
  2 23  1  0  0  0  0
  3 18  1  0  0  0  0
  3  4  1  0  0  0  0
  3 39  1  0  0  0  0
  4  5  1  0  0  0  0
  4 24  1  0  0  0  0
  4 25  1  0  0  0  0
  5  6  1  0  0  0  0
  5 26  1  0  0  0  0
  5 27  1  0  0  0  0
  6  7  1  0  0  0  0
  6 18  1  0  0  0  0
  6 28  1  0  0  0  0
  7  8  1  0  0  0  0
  7 29  1  0  0  0  0
  7 30  1  0  0  0  0
  8  9  1  0  0  0  0
  8 31  1  0  0  0  0
  9 10  2  0  0  0  0
  9 11  1  0  0  0  0
 11 12  1  0  0  0  0
 11 32  1  0  0  0  0
 12 17  2  0  0  0  0
 12 13  1  0  0  0  0
 13 14  2  0  0  0  0
 13 33  1  0  0  0  0
 14 15  1  0  0  0  0
 14 16  1  0  0  0  0
 15 34  1  0  0  0  0
 15 35  1  0  0  0  0
 15 36  1  0  0  0  0
 16 17  1  0  0  0  0
 18 37  1  0  0  0  0
 18 38  1  0  0  0  0
M  CHG  1   3   1
M  END
> <s_m_source_file>
AV-unprocessed.smi

> <i_m_source_file_index>
2002

> <i_lp_mmshare_version>
43012

> <i_f3d_flags>
0

> <s_epik_input>
W0NIM11bQ0gyXU4xW0NIMl1bQ0gyXVtDQEhdKFtDSDJdMSlbQ0gyXVtOSF1DKD1PKVtOSF1jMltjSF1jKFtDSDNdKW9uMg==

> <s_epik_cmdline>
J2VwaWtfcHl0aG9uJywgJy1waCcsICc3LjAnLCAnLXRuJywgJzgnLCAnLW1hJywgJzIwMCcsICctbWV0YWxfYmluZGluZycsICctaW1hZScsICc8aW5maWxlLm1hZT4nLCAnLW9tYWUnLCAnPG91dGZpbGUubWFlPic=

> <r_epik_Ionization_Penalty>
0.000632871

> <r_epik_Ionization_Penalty_Charging>
0.000610951

> <r_epik_Ionization_Penalty_Neutral>
2.19198e-05

> <r_epik_State_Penalty>
0.000385263

> <r_epik_Charging_Adjusted_Penalty>
0.000996214

> <i_epik_Tot_Q>
1

> <i_epik_Tot_abs_Q>
1

> <r_epik_Metal_State_Penalty>
-0

> <b_epik_Metal_Only>
0

> <s_lp_Force_Field>
OPLS_2005

> <r_lp_Energy>
24.2793

> <b_lp_Chiralities_Consistent>
1

> <s_lp_Variant>
AV-unprocessed.smi:2002-1

> <Gold.Version>
5.8.1

> <Gold.Id.Protein>
6NUR|6NUR_protein|mol2

> <Gold.PLP.Fitness>
39.4283

> <Gold.PLP.PLP>
-30.8487

> <Gold.PLP.part.hbond>
-5.4774

> <Gold.PLP.part.metal>
0.0000

> <Gold.PLP.part.buried>
-0.6928

> <Gold.PLP.part.nonpolar>
-25.1885

> <Gold.PLP.part.repulsive>
0.5532

> <Gold.PLP.ligand.clash>
0.0000

> <Gold.PLP.ligand.torsion>
0.8174

> <Gold.PLP.Chemscore.Hbond>
3.3980

> <Gold.PLP.Chemscore.CHOScore>
0.0000

> <Gold.PLP.Chemscore.Metal>
0.0000

> <Gold.Chemscore.Hbonds>
donor molecule, donor type, donor heavy atom, donor atom, acceptor molecule, acceptor atom, score
      L1  H     3    39       P1  7921  0.89
      L1  H     8    31       P1  7948  0.93
      L1  H    11    32       P1  7948  1.00
      P1  H  7989  7998       L1    16  0.55

> <Gold.PLP.Chemscore.Internal.Correction>
0.0203

> <Gold.Rescore>
     Score         DG    S(hbond)    S(metal)    S(lipo)     H(rot)  DE(clash)    DE(int)     intcor
     16.08     -19.05       2.83        0.00      68.51       1.52       0.78       2.20       ----

> <Gold.Chemscore.Fitness>
16.0778

> <Gold.Chemscore.DG>
-19.0535

> <Gold.Chemscore.ZeroCoef>
-5.4800

> <Gold.Chemscore.Hbond>
2.8309

> <Gold.Chemscore.Metal>
0.0000

> <Gold.Chemscore.Lipo>
68.5077

> <Gold.Chemscore.Internal_Hbond>
0.0000

> <Gold.Chemscore.DEClash>
0.7754

> <Gold.Chemscore.DEInternal>
2.2003

> <Gold.Chemscore.Rot>
1.5223

> <Gold.Chemscore.Internal.Correction>
   9.000000E+99

> <Gold.Chemscore.Hbonds>
donor molecule, donor type, donor heavy atom, donor atom, acceptor molecule, acceptor atom, score
      L1  H     3    39       P1  7921  0.80
      L1  H     8    31       P1  7948  0.91
      L1  H    11    32       P1  7948  0.99
      P1  H  7989  7998       L1    16  0.01

> <Gold.Chemscore.Hbond.Weighted>
-9.4552

> <Gold.Chemscore.Metal.Weighted>
-0.0000

> <Gold.Chemscore.Lipo.Weighted>
-8.0154

> <Gold.Chemscore.Internal_Hbond.Weighted>
0.0000

> <Gold.Chemscore.DEClash.Weighted>
0.7754

> <Gold.Chemscore.DEInternal.Weighted>
2.2003

> <Gold.Chemscore.Rot.Weighted>
3.8971

> <Gold.Chemscore.Internal.Correction.Weighted>
   9.000000E+99

> <Gold.Protein.RotatedTorsions>
[ 6907 6896 6895 6894 ] final  -75.92 input  -60.11 | X-H torsion
[ 7974 7965 7964 7962 ] final   36.53 input  175.53 | X-H torsion
[ 8008 7997 7996 7995 ] final  149.11 input   59.86 | X-H torsion
[ 10167 10162 10161 10158 ] final  134.81 input  -65.29 | X-H torsion
[ 10718 10713 10712 10709 ] final -131.95 input   66.30 | X-H torsion
[ 10763 10752 10751 10750 ] final   23.91 input  -60.55 | X-H torsion
[ 11005 11000 10999 10996 ] final  -91.51 input  -57.11 | X-H torsion

> <Gold.Protein.ActiveResidues>
 VAL166  LYS551  ARG553  GLY616  TRP617  ASP618  TYR619  PRO620  LYS621  CYS622 
 ASP623  PHE694  ASN695  SER759  ASP760  ASP761  ALA762  ILE779  LEU786  VAL792 
 PHE793  MET794  SER795  GLU796  ALA797  LYS798  CYS799  TRP800  GLU811  SER814 

> <Gold.Protein.RotatedAtoms>
  150.7043  134.4649  159.5397 H   0  0  0  0  0  0  0  0  0  0  0  0  # atno 6907 bound_to 6896
  152.2317  134.8313  160.0482 H   0  0  0  0  0  0  0  0  0  0  0  0  # atno 6908 bound_to 6896
  151.9126  133.3530  159.3906 H   0  0  0  0  0  0  0  0  0  0  0  0  # atno 6909 bound_to 6896
  146.1204  139.6006  142.9293 H   0  0  0  0  0  0  0  0  0  0  0  0  # atno 7974 bound_to 7965
  156.2767  140.2110  156.5805 H   0  0  0  0  0  0  0  0  0  0  0  0  # atno 8008 bound_to 7997
  154.7062  140.0516  157.0529 H   0  0  0  0  0  0  0  0  0  0  0  0  # atno 8009 bound_to 7997
  155.0667  140.3172  155.4646 H   0  0  0  0  0  0  0  0  0  0  0  0  # atno 8010 bound_to 7997
  139.5241  144.6548  151.5193 H   0  0  0  0  0  0  0  0  0  0  0  0  # atno 10167 bound_to 10162
  156.2296  130.7029  151.0844 H   0  0  0  0  0  0  0  0  0  0  0  0  # atno 10718 bound_to 10713
  153.0803  135.6617  154.0059 H   0  0  0  0  0  0  0  0  0  0  0  0  # atno 10763 bound_to 10752
  153.9682  135.2967  155.3430 H   0  0  0  0  0  0  0  0  0  0  0  0  # atno 10764 bound_to 10752
  154.7201  135.5168  153.8870 H   0  0  0  0  0  0  0  0  0  0  0  0  # atno 10765 bound_to 10752
  141.1543  133.7760  156.9889 H   0  0  0  0  0  0  0  0  0  0  0  0  # atno 11005 bound_to 11000
  145.5477  141.0416  143.2295 LP  0  0  0  0  0  0  0  0  0  0  0  0  # atno 17320 bound_to 7965
  144.7592  139.6998  143.7241 LP  0  0  0  0  0  0  0  0  0  0  0  0  # atno 17321 bound_to 7965
  140.6369  143.8965  150.6656 LP  0  0  0  0  0  0  0  0  0  0  0  0  # atno 17342 bound_to 10162
  140.2288  143.3752  152.1583 LP  0  0  0  0  0  0  0  0  0  0  0  0  # atno 17343 bound_to 10162
  157.7127  131.0726  150.6442 LP  0  0  0  0  0  0  0  0  0  0  0  0  # atno 17370 bound_to 10713
  156.6509  130.4485  149.5719 LP  0  0  0  0  0  0  0  0  0  0  0  0  # atno 17371 bound_to 10713
  140.1016  134.9532  157.1931 LP  0  0  0  0  0  0  0  0  0  0  0  0  # atno 17394 bound_to 11000
  140.3311  134.2808  155.7228 LP  0  0  0  0  0  0  0  0  0  0  0  0  # atno 17395 bound_to 11000

$$$$
