AV-unprocessed.smi:2157|AV-procd|sdf|8783|dock6
  -GOLD-   2272011563D 1   1.00000     0.00000
 Structure written by MMmdl.
 41 42  0  0  0  0  0  0  0  0  1 V2000
  148.3639  141.6882  154.3449 C   0  0  0  0  0  0  0  0  0  0  0  0
  149.2420  140.7326  155.1650 C   0  0  2  0  0  0  0  0  0  0  0  0
  150.0384  141.4893  156.2451 C   0  0  0  0  0  0  0  0  0  0  0  0
  150.9227  140.5374  157.0652 C   0  0  0  0  0  0  0  0  0  0  0  0
  151.8713  139.7365  156.1579 C   0  0  0  0  0  0  0  0  0  0  0  0
  151.1113  138.9735  155.0521 C   0  0  1  0  0  0  0  0  0  0  0  0
  150.3366  137.8626  155.6029 N   0  0  0  0  0  0  0  0  0  0  0  0
  150.5244  136.5650  155.3190 C   0  0  0  0  0  0  0  0  0  0  0  0
  151.4017  136.1610  154.5545 O   0  0  0  0  0  0  0  0  0  0  0  0
  149.5871  135.5797  156.0306 C   0  0  0  0  0  0  0  0  0  0  0  0
  149.6982  134.2078  155.5190 N   0  0  0  0  0  0  0  0  0  0  0  0
  149.1969  133.8997  154.2678 C   0  0  0  0  0  0  0  0  0  0  0  0
  149.2429  132.6606  153.7315 C   0  0  0  0  0  0  0  0  0  0  0  0
  149.8410  131.5492  154.4616 C   0  0  0  0  0  0  0  0  0  0  0  0
  149.8943  130.4044  154.0114 O   0  0  0  0  0  0  0  0  0  0  0  0
  150.3525  131.8941  155.7359 N   0  0  0  0  0  0  0  0  0  0  0  0
  150.9604  130.8660  156.5546 C   0  0  0  0  0  0  0  0  0  0  0  0
  150.2948  133.1901  156.2935 C   0  0  0  0  0  0  0  0  0  0  0  0
  150.7425  133.4341  157.4170 O   0  0  0  0  0  0  0  0  0  0  0  0
  150.1928  139.9235  154.2574 C   0  0  0  0  0  0  0  0  0  0  0  0
  148.9680  142.4232  153.8120 H   0  0  0  0  0  0  0  0  0  0  0  0
  147.6688  142.2308  154.9859 H   0  0  0  0  0  0  0  0  0  0  0  0
  147.7741  141.1439  153.6068 H   0  0  0  0  0  0  0  0  0  0  0  0
  148.5748  140.0322  155.6691 H   0  0  0  0  0  0  0  0  0  0  0  0
  150.6630  142.2514  155.7769 H   0  0  0  0  0  0  0  0  0  0  0  0
  149.3556  142.0173  156.9116 H   0  0  0  0  0  0  0  0  0  0  0  0
  151.5020  141.1052  157.7938 H   0  0  0  0  0  0  0  0  0  0  0  0
  150.2945  139.8540  157.6375 H   0  0  0  0  0  0  0  0  0  0  0  0
  152.5789  140.4238  155.6927 H   0  0  0  0  0  0  0  0  0  0  0  0
  152.4704  139.0496  156.7565 H   0  0  0  0  0  0  0  0  0  0  0  0
  151.8405  138.5592  154.3537 H   0  0  0  0  0  0  0  0  0  0  0  0
  149.5966  138.1022  156.2467 H   0  0  0  0  0  0  0  0  0  0  0  0
  149.8201  135.5990  157.0959 H   0  0  0  0  0  0  0  0  0  0  0  0
  148.5556  135.9272  155.9486 H   0  0  0  0  0  0  0  0  0  0  0  0
  148.7388  134.6880  153.6884 H   0  0  0  0  0  0  0  0  0  0  0  0
  148.8286  132.4883  152.7491 H   0  0  0  0  0  0  0  0  0  0  0  0
  151.9478  131.2229  156.8532 H   0  0  0  0  0  0  0  0  0  0  0  0
  151.0704  129.9331  156.0030 H   0  0  0  0  0  0  0  0  0  0  0  0
  150.3104  130.7214  157.4191 H   0  0  0  0  0  0  0  0  0  0  0  0
  149.6187  139.3561  153.5232 H   0  0  0  0  0  0  0  0  0  0  0  0
  150.8131  140.6144  153.6846 H   0  0  0  0  0  0  0  0  0  0  0  0
  1  2  1  0  0  0  0
  1 21  1  0  0  0  0
  1 22  1  0  0  0  0
  1 23  1  0  0  0  0
  2 20  1  0  0  0  0
  2  3  1  0  0  0  0
  2 24  1  0  0  0  0
  3  4  1  0  0  0  0
  3 25  1  0  0  0  0
  3 26  1  0  0  0  0
  4  5  1  0  0  0  0
  4 27  1  0  0  0  0
  4 28  1  0  0  0  0
  5  6  1  0  0  0  0
  5 29  1  0  0  0  0
  5 30  1  0  0  0  0
  6  7  1  0  0  0  0
  6 20  1  0  0  0  0
  6 31  1  0  0  0  0
  7  8  1  0  0  0  0
  7 32  1  0  0  0  0
  8  9  2  0  0  0  0
  8 10  1  0  0  0  0
 10 11  1  0  0  0  0
 10 33  1  0  0  0  0
 10 34  1  0  0  0  0
 11 18  1  0  0  0  0
 11 12  1  0  0  0  0
 12 13  2  0  0  0  0
 12 35  1  0  0  0  0
 13 14  1  0  0  0  0
 13 36  1  0  0  0  0
 14 15  2  0  0  0  0
 14 16  1  0  0  0  0
 16 17  1  0  0  0  0
 16 18  1  0  0  0  0
 17 37  1  0  0  0  0
 17 38  1  0  0  0  0
 17 39  1  0  0  0  0
 18 19  2  0  0  0  0
 20 40  1  0  0  0  0
 20 41  1  0  0  0  0
M  END
> <s_m_source_file>
AV-unprocessed.smi

> <i_m_source_file_index>
2157

> <i_lp_mmshare_version>
43012

> <i_f3d_flags>
0

> <s_epik_input>
W0NIM11bQ0BASF0xW0NIMl1bQ0gyXVtDSDJdW0NASF0oW0NIMl0xKVtOSF1DKD1PKVtDSDJdbjJbY0hdW2NIXWMoPU8pbihbQ0gzXSljMj1P

> <s_epik_cmdline>
J2VwaWtfcHl0aG9uJywgJy1waCcsICc3LjAnLCAnLXRuJywgJzgnLCAnLW1hJywgJzIwMCcsICctbWV0YWxfYmluZGluZycsICctaW1hZScsICc8aW5maWxlLm1hZT4nLCAnLW9tYWUnLCAnPG91dGZpbGUubWFlPic=

> <r_lp_tautomer_probability>
1

> <r_epik_Ionization_Penalty>
3.1838e-08

> <r_epik_Ionization_Penalty_Charging>
1.27911e-08

> <r_epik_Ionization_Penalty_Neutral>
1.90469e-08

> <r_epik_State_Penalty>
-0

> <r_epik_Charging_Adjusted_Penalty>
1.27911e-08

> <i_epik_Tot_Q>
0

> <i_epik_Tot_abs_Q>
0

> <r_epik_Metal_State_Penalty>
-0

> <b_epik_Metal_Only>
0

> <s_lp_Force_Field>
OPLS_2005

> <r_lp_Energy>
16.0352

> <b_lp_Chiralities_Consistent>
1

> <s_lp_Variant>
AV-unprocessed.smi:2157-1

> <Gold.Version>
5.8.1

> <Gold.Id.Protein>
6NUR|6NUR_protein|mol2

> <Gold.PLP.Fitness>
41.5140

> <Gold.PLP.PLP>
-33.4838

> <Gold.PLP.part.hbond>
-2.0000

> <Gold.PLP.part.metal>
0.0000

> <Gold.PLP.part.buried>
-1.0143

> <Gold.PLP.part.nonpolar>
-32.2510

> <Gold.PLP.part.repulsive>
0.5723

> <Gold.PLP.ligand.clash>
0.0000

> <Gold.PLP.ligand.torsion>
0.2133

> <Gold.PLP.Chemscore.Hbond>
1.8160

> <Gold.PLP.Chemscore.CHOScore>
1.0000

> <Gold.PLP.Chemscore.Metal>
0.0000

> <Gold.Chemscore.Hbonds>
donor molecule, donor type, donor heavy atom, donor atom, acceptor molecule, acceptor atom, score
      P1  H  6896  6907       L1    19  0.83
      P1  H 10752 10763       L1     9  1.00
      L1  C    12    35       P1  7948  1.00

> <Gold.PLP.Chemscore.Internal.Correction>
0.0089

> <Gold.Rescore>
     Score         DG    S(hbond)    S(metal)    S(lipo)     H(rot)  DE(clash)    DE(int)     intcor
     15.23     -15.70       1.93        0.00      65.47       1.52       0.30       0.17       ----

> <Gold.Chemscore.Fitness>
15.2255

> <Gold.Chemscore.DG>
-15.6959

> <Gold.Chemscore.ZeroCoef>
-5.4800

> <Gold.Chemscore.Hbond>
1.9334

> <Gold.Chemscore.Metal>
0.0000

> <Gold.Chemscore.Lipo>
65.4733

> <Gold.Chemscore.Internal_Hbond>
0.0000

> <Gold.Chemscore.DEClash>
0.2994

> <Gold.Chemscore.DEInternal>
0.1711

> <Gold.Chemscore.Rot>
1.5242

> <Gold.Chemscore.Internal.Correction>
   9.000000E+99

> <Gold.Chemscore.Hbonds>
donor molecule, donor type, donor heavy atom, donor atom, acceptor molecule, acceptor atom, score
      P1  H  6896  6907       L1    19  0.81
      P1  H 10752 10763       L1     9  0.99

> <Gold.Chemscore.Hbond.Weighted>
-6.4574

> <Gold.Chemscore.Metal.Weighted>
-0.0000

> <Gold.Chemscore.Lipo.Weighted>
-7.6604

> <Gold.Chemscore.Internal_Hbond.Weighted>
0.0000

> <Gold.Chemscore.DEClash.Weighted>
0.2994

> <Gold.Chemscore.DEInternal.Weighted>
0.1711

> <Gold.Chemscore.Rot.Weighted>
3.9019

> <Gold.Chemscore.Internal.Correction.Weighted>
   9.000000E+99

> <Gold.Protein.RotatedTorsions>
[ 6907 6896 6895 6894 ] final -148.00 input  -60.11 | X-H torsion
[ 7974 7965 7964 7962 ] final  -31.07 input  175.53 | X-H torsion
[ 8008 7997 7996 7995 ] final   64.09 input   59.86 | X-H torsion
[ 10167 10162 10161 10158 ] final  -59.00 input  -65.29 | X-H torsion
[ 10718 10713 10712 10709 ] final  139.18 input   66.30 | X-H torsion
[ 10763 10752 10751 10750 ] final   52.92 input  -60.55 | X-H torsion
[ 11005 11000 10999 10996 ] final -139.23 input  -57.11 | X-H torsion

> <Gold.Protein.ActiveResidues>
 VAL166  LYS551  ARG553  GLY616  TRP617  ASP618  TYR619  PRO620  LYS621  CYS622 
 ASP623  PHE694  ASN695  SER759  ASP760  ASP761  ALA762  ILE779  LEU786  VAL792 
 PHE793  MET794  SER795  GLU796  ALA797  LYS798  CYS799  TRP800  GLU811  SER814 

> <Gold.Protein.RotatedAtoms>
  151.1636  133.4829  159.2593 H   0  0  0  0  0  0  0  0  0  0  0  0  # atno 6907 bound_to 6896
  151.1429  135.0188  159.8644 H   0  0  0  0  0  0  0  0  0  0  0  0  # atno 6908 bound_to 6896
  152.5462  134.1527  159.8578 H   0  0  0  0  0  0  0  0  0  0  0  0  # atno 6909 bound_to 6896
  146.1095  140.5620  142.8784 H   0  0  0  0  0  0  0  0  0  0  0  0  # atno 7974 bound_to 7965
  155.6406  140.3497  155.4713 H   0  0  0  0  0  0  0  0  0  0  0  0  # atno 8008 bound_to 7997
  155.9929  140.1197  157.0644 H   0  0  0  0  0  0  0  0  0  0  0  0  # atno 8009 bound_to 7997
  154.4224  140.1116  156.5576 H   0  0  0  0  0  0  0  0  0  0  0  0  # atno 8010 bound_to 7997
  140.6162  143.2403  151.5590 H   0  0  0  0  0  0  0  0  0  0  0  0  # atno 10167 bound_to 10162
  157.4172  131.1034  151.0392 H   0  0  0  0  0  0  0  0  0  0  0  0  # atno 10718 bound_to 10713
  152.9791  135.5796  154.4656 H   0  0  0  0  0  0  0  0  0  0  0  0  # atno 10763 bound_to 10752
  154.4226  135.2772  155.1967 H   0  0  0  0  0  0  0  0  0  0  0  0  # atno 10764 bound_to 10752
  154.3710  135.6168  153.5794 H   0  0  0  0  0  0  0  0  0  0  0  0  # atno 10765 bound_to 10752
  140.8540  134.2251  157.4745 H   0  0  0  0  0  0  0  0  0  0  0  0  # atno 11005 bound_to 11000
  144.7500  140.5166  143.6809 LP  0  0  0  0  0  0  0  0  0  0  0  0  # atno 17320 bound_to 7965
  145.5692  139.1482  143.3298 LP  0  0  0  0  0  0  0  0  0  0  0  0  # atno 17321 bound_to 7965
  139.5401  144.2672  152.1333 LP  0  0  0  0  0  0  0  0  0  0  0  0  # atno 17342 bound_to 10162
  140.1882  144.4778  150.6493 LP  0  0  0  0  0  0  0  0  0  0  0  0  # atno 17343 bound_to 10162
  157.1335  130.6112  149.5536 LP  0  0  0  0  0  0  0  0  0  0  0  0  # atno 17370 bound_to 10713
  155.9869  130.4906  150.7100 LP  0  0  0  0  0  0  0  0  0  0  0  0  # atno 17371 bound_to 10713
  139.8705  134.9697  156.4676 LP  0  0  0  0  0  0  0  0  0  0  0  0  # atno 17394 bound_to 11000
  140.8758  133.7954  155.9413 LP  0  0  0  0  0  0  0  0  0  0  0  0  # atno 17395 bound_to 11000

$$$$
