AV-unprocessed.smi:1028|AV-procd|sdf|4473|dock10
  -GOLD-   22720 2453D 1   1.00000     0.00000
 Structure written by MMmdl.
 43 44  0  0  0  0  0  0  0  0  1 V2000
  144.8136  143.7743  155.0672 C   0  0  0  0  0  0  0  0  0  0  0  0
  145.3982  142.6455  155.9392 C   0  0  0  0  0  0  0  0  0  0  0  0
  145.7981  143.2034  157.3191 C   0  0  0  0  0  0  0  0  0  0  0  0
  144.2933  141.5892  156.1543 C   0  0  0  0  0  0  0  0  0  0  0  0
  146.6091  142.0409  155.2561 C   0  0  0  0  0  0  0  0  0  0  0  0
  146.6777  141.4485  154.0156 C   0  0  0  0  0  0  0  0  0  0  0  0
  148.2869  140.9038  153.6292 S   0  0  0  0  0  0  0  0  0  0  0  0
  148.8256  141.4885  155.1956 C   0  0  0  0  0  0  0  0  0  0  0  0
  150.2424  141.4135  155.6555 C   0  0  0  0  0  0  0  0  0  0  0  0
  150.3805  140.6934  157.0059 C   0  0  0  0  0  0  0  0  0  0  0  0
  151.4320  141.2852  157.8247 N   0  0  0  0  0  0  0  0  0  0  0  0
  151.3856  142.5089  158.3734 C   0  0  0  0  0  0  0  0  0  0  0  0
  150.4290  143.2724  158.2364 O   0  0  0  0  0  0  0  0  0  0  0  0
  152.6109  142.9353  159.1985 C   0  0  0  0  0  0  0  0  0  0  0  0
  152.8245  142.0249  160.4307 C   0  0  0  0  0  0  0  0  0  0  0  0
  152.7678  142.9286  161.6684 C   0  0  0  0  0  0  0  0  0  0  0  0
  152.0121  144.1751  161.2189 C   0  0  0  0  0  0  0  0  0  0  0  0
  152.4480  144.3590  159.7665 C   0  0  0  0  0  0  0  0  0  0  0  0
  147.8498  142.0563  155.9076 N   0  0  0  0  0  0  0  0  0  0  0  0
  143.9290  144.2151  155.5279 H   0  0  0  0  0  0  0  0  0  0  0  0
  144.5224  143.4044  154.0834 H   0  0  0  0  0  0  0  0  0  0  0  0
  145.5340  144.5788  154.9151 H   0  0  0  0  0  0  0  0  0  0  0  0
  146.5479  143.9904  157.2327 H   0  0  0  0  0  0  0  0  0  0  0  0
  146.2148  142.4226  157.9563 H   0  0  0  0  0  0  0  0  0  0  0  0
  144.9403  143.6306  157.8394 H   0  0  0  0  0  0  0  0  0  0  0  0
  143.4203  142.0228  156.6434 H   0  0  0  0  0  0  0  0  0  0  0  0
  144.6402  140.7678  156.7824 H   0  0  0  0  0  0  0  0  0  0  0  0
  143.9553  141.1644  155.2082 H   0  0  0  0  0  0  0  0  0  0  0  0
  145.8832  141.3014  153.2991 H   0  0  0  0  0  0  0  0  0  0  0  0
  150.8315  140.9014  154.8937 H   0  0  0  0  0  0  0  0  0  0  0  0
  150.6358  142.4284  155.7241 H   0  0  0  0  0  0  0  0  0  0  0  0
  149.4318  140.7058  157.5452 H   0  0  0  0  0  0  0  0  0  0  0  0
  150.6306  139.6448  156.8425 H   0  0  0  0  0  0  0  0  0  0  0  0
  152.2550  140.7232  157.9866 H   0  0  0  0  0  0  0  0  0  0  0  0
  153.4953  142.9072  158.5594 H   0  0  0  0  0  0  0  0  0  0  0  0
  152.0539  141.2554  160.5050 H   0  0  0  0  0  0  0  0  0  0  0  0
  153.7801  141.5022  160.3774 H   0  0  0  0  0  0  0  0  0  0  0  0
  152.2982  142.4400  162.5225 H   0  0  0  0  0  0  0  0  0  0  0  0
  153.7808  143.2059  161.9633 H   0  0  0  0  0  0  0  0  0  0  0  0
  150.9373  143.9945  161.2651 H   0  0  0  0  0  0  0  0  0  0  0  0
  152.2321  145.0461  161.8370 H   0  0  0  0  0  0  0  0  0  0  0  0
  153.4099  144.8728  159.7366 H   0  0  0  0  0  0  0  0  0  0  0  0
  151.7414  144.9744  159.2068 H   0  0  0  0  0  0  0  0  0  0  0  0
  1  2  1  0  0  0  0
  1 20  1  0  0  0  0
  1 21  1  0  0  0  0
  1 22  1  0  0  0  0
  2  3  1  0  0  0  0
  2  4  1  0  0  0  0
  2  5  1  0  0  0  0
  3 23  1  0  0  0  0
  3 24  1  0  0  0  0
  3 25  1  0  0  0  0
  4 26  1  0  0  0  0
  4 27  1  0  0  0  0
  4 28  1  0  0  0  0
  5 19  1  0  0  0  0
  5  6  2  0  0  0  0
  6  7  1  0  0  0  0
  6 29  1  0  0  0  0
  7  8  1  0  0  0  0
  8  9  1  0  0  0  0
  8 19  2  0  0  0  0
  9 10  1  0  0  0  0
  9 30  1  0  0  0  0
  9 31  1  0  0  0  0
 10 11  1  0  0  0  0
 10 32  1  0  0  0  0
 10 33  1  0  0  0  0
 11 12  1  0  0  0  0
 11 34  1  0  0  0  0
 12 13  2  0  0  0  0
 12 14  1  0  0  0  0
 14 18  1  0  0  0  0
 14 15  1  0  0  0  0
 14 35  1  0  0  0  0
 15 16  1  0  0  0  0
 15 36  1  0  0  0  0
 15 37  1  0  0  0  0
 16 17  1  0  0  0  0
 16 38  1  0  0  0  0
 16 39  1  0  0  0  0
 17 18  1  0  0  0  0
 17 40  1  0  0  0  0
 17 41  1  0  0  0  0
 18 42  1  0  0  0  0
 18 43  1  0  0  0  0
M  END
> <s_m_source_file>
AV-unprocessed.smi

> <i_m_source_file_index>
1028

> <i_lp_mmshare_version>
43012

> <i_f3d_flags>
0

> <s_epik_input>
W0NIM11DKFtDSDNdKShbQ0gzXSljMVtjSF1zYyhuMSlbQ0gyXVtDSDJdW05IXUMoPU8pW0NIXTJbQ0gyXVtDSDJdW0NIMl1bQ0gyXTI=

> <s_epik_cmdline>
J2VwaWtfcHl0aG9uJywgJy1waCcsICc3LjAnLCAnLXRuJywgJzgnLCAnLW1hJywgJzIwMCcsICctbWV0YWxfYmluZGluZycsICctaW1hZScsICc8aW5maWxlLm1hZT4nLCAnLW9tYWUnLCAnPG91dGZpbGUubWFlPic=

> <r_epik_Ionization_Penalty>
0.000842107

> <r_epik_Ionization_Penalty_Charging>
0

> <r_epik_Ionization_Penalty_Neutral>
0.000842107

> <r_epik_State_Penalty>
0.000542609

> <r_epik_Charging_Adjusted_Penalty>
0.000542609

> <i_epik_Tot_Q>
0

> <i_epik_Tot_abs_Q>
0

> <r_epik_Metal_State_Penalty>
-0

> <b_epik_Metal_Only>
0

> <s_lp_Force_Field>
OPLS_2005

> <r_lp_Energy>
10.9616

> <b_lp_Chiralities_Consistent>
1

> <s_lp_Variant>
AV-unprocessed.smi:1028-1

> <Gold.Version>
5.8.1

> <Gold.Id.Protein>
6NUR|6NUR_protein|mol2

> <Gold.PLP.Fitness>
41.4632

> <Gold.PLP.PLP>
-39.0476

> <Gold.PLP.part.hbond>
0.0000

> <Gold.PLP.part.metal>
0.0000

> <Gold.PLP.part.buried>
-4.8124

> <Gold.PLP.part.nonpolar>
-36.2230

> <Gold.PLP.part.repulsive>
1.5847

> <Gold.PLP.ligand.clash>
0.0000

> <Gold.PLP.ligand.torsion>
0.3001

> <Gold.PLP.Chemscore.Hbond>
0.0000

> <Gold.PLP.Chemscore.CHOScore>
1.0000

> <Gold.PLP.Chemscore.Metal>
0.0000

> <Gold.Chemscore.Hbonds>
donor molecule, donor type, donor heavy atom, donor atom, acceptor molecule, acceptor atom, score
      L1  C     6    29       P1 10175  0.97

> <Gold.PLP.Chemscore.Internal.Correction>
0.0158

> <Gold.Rescore>
     Score         DG    S(hbond)    S(metal)    S(lipo)     H(rot)  DE(clash)    DE(int)     intcor
     13.26     -13.96       0.00        0.00     103.57       1.42       0.33       0.37       ----

> <Gold.Chemscore.Fitness>
13.2568

> <Gold.Chemscore.DG>
-13.9555

> <Gold.Chemscore.ZeroCoef>
-5.4800

> <Gold.Chemscore.Hbond>
0.0000

> <Gold.Chemscore.Metal>
0.0000

> <Gold.Chemscore.Lipo>
103.5673

> <Gold.Chemscore.Internal_Hbond>
0.0000

> <Gold.Chemscore.DEClash>
0.3267

> <Gold.Chemscore.DEInternal>
0.3719

> <Gold.Chemscore.Rot>
1.4226

> <Gold.Chemscore.Internal.Correction>
   9.000000E+99

> <Gold.Chemscore.Hbond.Weighted>
-0.0000

> <Gold.Chemscore.Metal.Weighted>
-0.0000

> <Gold.Chemscore.Lipo.Weighted>
-12.1174

> <Gold.Chemscore.Internal_Hbond.Weighted>
0.0000

> <Gold.Chemscore.DEClash.Weighted>
0.3267

> <Gold.Chemscore.DEInternal.Weighted>
0.3719

> <Gold.Chemscore.Rot.Weighted>
3.6419

> <Gold.Chemscore.Internal.Correction.Weighted>
   9.000000E+99

> <Gold.Protein.RotatedTorsions>
[ 6907 6896 6895 6894 ] final   70.68 input  -60.11 | X-H torsion
[ 7974 7965 7964 7962 ] final  124.91 input  175.53 | X-H torsion
[ 8008 7997 7996 7995 ] final   -6.90 input   59.86 | X-H torsion
[ 10167 10162 10161 10158 ] final  159.51 input  -65.29 | X-H torsion
[ 10718 10713 10712 10709 ] final  -46.52 input   66.30 | X-H torsion
[ 10763 10752 10751 10750 ] final -123.24 input  -60.55 | X-H torsion
[ 11005 11000 10999 10996 ] final -145.55 input  -57.11 | X-H torsion

> <Gold.Protein.ActiveResidues>
 VAL166  LYS551  ARG553  GLY616  TRP617  ASP618  TYR619  PRO620  LYS621  CYS622 
 ASP623  PHE694  ASN695  SER759  ASP760  ASP761  ALA762  ILE779  LEU786  VAL792 
 PHE793  MET794  SER795  GLU796  ALA797  LYS798  CYS799  TRP800  GLU811  SER814 

> <Gold.Protein.RotatedAtoms>
  152.4764  134.4832  159.9671 H   0  0  0  0  0  0  0  0  0  0  0  0  # atno 6907 bound_to 6896
  151.4847  133.3532  159.2851 H   0  0  0  0  0  0  0  0  0  0  0  0  # atno 6908 bound_to 6896
  150.8806  134.8223  159.7283 H   0  0  0  0  0  0  0  0  0  0  0  0  # atno 6909 bound_to 6896
  145.0790  139.3671  143.4918 H   0  0  0  0  0  0  0  0  0  0  0  0  # atno 7974 bound_to 7965
  154.5891  140.2421  155.7946 H   0  0  0  0  0  0  0  0  0  0  0  0  # atno 8008 bound_to 7997
  156.2234  140.2990  155.9963 H   0  0  0  0  0  0  0  0  0  0  0  0  # atno 8009 bound_to 7997
  155.2406  140.0407  157.2965 H   0  0  0  0  0  0  0  0  0  0  0  0  # atno 8010 bound_to 7997
  139.4833  144.4723  151.8559 H   0  0  0  0  0  0  0  0  0  0  0  0  # atno 10167 bound_to 10162
  156.2175  130.4164  149.9035 H   0  0  0  0  0  0  0  0  0  0  0  0  # atno 10718 bound_to 10713
  154.8704  135.4105  154.2912 H   0  0  0  0  0  0  0  0  0  0  0  0  # atno 10763 bound_to 10752
  153.3787  135.7010  153.6587 H   0  0  0  0  0  0  0  0  0  0  0  0  # atno 10764 bound_to 10752
  153.5418  135.3646  155.2693 H   0  0  0  0  0  0  0  0  0  0  0  0  # atno 10765 bound_to 10752
  140.7911  134.2967  157.5013 H   0  0  0  0  0  0  0  0  0  0  0  0  # atno 11005 bound_to 11000
  146.3530  140.0572  142.8632 LP  0  0  0  0  0  0  0  0  0  0  0  0  # atno 17320 bound_to 7965
  145.1200  140.9457  143.4606 LP  0  0  0  0  0  0  0  0  0  0  0  0  # atno 17321 bound_to 7965
  140.4193  144.2265  150.5887 LP  0  0  0  0  0  0  0  0  0  0  0  0  # atno 17342 bound_to 10162
  140.4890  143.2354  151.8847 LP  0  0  0  0  0  0  0  0  0  0  0  0  # atno 17343 bound_to 10162
  156.6693  130.8813  151.3559 LP  0  0  0  0  0  0  0  0  0  0  0  0  # atno 17370 bound_to 10713
  157.7071  130.9397  150.0965 LP  0  0  0  0  0  0  0  0  0  0  0  0  # atno 17371 bound_to 10713
  139.8731  134.9375  156.3689 LP  0  0  0  0  0  0  0  0  0  0  0  0  # atno 17394 bound_to 11000
  140.9388  133.7529  156.0119 LP  0  0  0  0  0  0  0  0  0  0  0  0  # atno 17395 bound_to 11000

$$$$
