AV-unprocessed.smi:3183|AV-procd|sdf|12155|dock1
  -GOLD-   2272017593D 1   1.00000     0.00000
 Structure written by MMmdl.
 43 44  0  0  0  0  0  0  0  0  2 V2000
  152.0672  143.4080  162.3444 C   0  0  0  0  0  0  0  0  0  0  0  0
  152.4288  143.9667  160.9566 C   0  0  2  0  0  0  0  0  0  0  0  0
  151.2695  144.8335  160.4254 C   0  0  0  0  0  0  0  0  0  0  0  0
  151.5794  145.4342  159.0455 C   0  0  0  0  0  0  0  0  0  0  0  0
  151.9495  144.3535  158.0164 C   0  0  2  0  0  0  0  0  0  0  0  0
  150.7664  143.5404  157.6537 N   0  3  0  0  0  0  0  0  0  0  0  0
  151.0555  142.3544  156.8235 C   0  0  0  0  0  0  0  0  0  0  0  0
  149.7707  141.5717  156.5150 C   0  0  0  0  0  0  0  0  0  0  0  0
  149.9345  140.5031  155.4766 C   0  0  0  0  0  0  0  0  0  0  0  0
  149.1613  140.1802  154.3944 C   0  0  0  0  0  0  0  0  0  0  0  0
  149.8352  139.0795  153.7983 C   0  0  0  0  0  0  0  0  0  0  0  0
  150.9333  138.7450  154.4517 N   0  0  0  0  0  0  0  0  0  0  0  0
  150.9978  139.6150  155.4810 N   0  0  0  0  0  0  0  0  0  0  0  0
  152.1121  139.5084  156.4039 C   0  0  0  0  0  0  0  0  0  0  0  0
  153.0885  143.4625  158.5443 C   0  0  0  0  0  0  0  0  0  0  0  0
  152.7970  142.8571  159.9359 C   0  0  1  0  0  0  0  0  0  0  0  0
  153.9932  142.0013  160.3903 C   0  0  0  0  0  0  0  0  0  0  0  0
  151.2490  142.6895  162.2825 H   0  0  0  0  0  0  0  0  0  0  0  0
  151.7556  144.2060  163.0189 H   0  0  0  0  0  0  0  0  0  0  0  0
  152.9152  142.9120  162.8157 H   0  0  0  0  0  0  0  0  0  0  0  0
  153.2971  144.6158  161.0810 H   0  0  0  0  0  0  0  0  0  0  0  0
  150.3577  144.2369  160.3705 H   0  0  0  0  0  0  0  0  0  0  0  0
  151.0601  145.6418  161.1272 H   0  0  0  0  0  0  0  0  0  0  0  0
  150.7304  146.0206  158.6915 H   0  0  0  0  0  0  0  0  0  0  0  0
  152.4102  146.1342  159.1437 H   0  0  0  0  0  0  0  0  0  0  0  0
  152.3110  144.8595  157.1196 H   0  0  0  0  0  0  0  0  0  0  0  0
  150.3212  143.2331  158.5066 H   0  0  0  0  0  0  0  0  0  0  0  0
  151.5295  142.6769  155.8953 H   0  0  0  0  0  0  0  0  0  0  0  0
  151.7659  141.7156  157.3503 H   0  0  0  0  0  0  0  0  0  0  0  0
  149.4011  141.1174  157.4354 H   0  0  0  0  0  0  0  0  0  0  0  0
  148.9988  142.2690  156.1866 H   0  0  0  0  0  0  0  0  0  0  0  0
  148.2476  140.6567  154.0715 H   0  0  0  0  0  0  0  0  0  0  0  0
  149.5613  138.5178  152.9174 H   0  0  0  0  0  0  0  0  0  0  0  0
  152.0481  140.2670  157.1831 H   0  0  0  0  0  0  0  0  0  0  0  0
  153.0500  139.6397  155.8635 H   0  0  0  0  0  0  0  0  0  0  0  0
  152.1074  138.5238  156.8725 H   0  0  0  0  0  0  0  0  0  0  0  0
  153.2955  142.6685  157.8252 H   0  0  0  0  0  0  0  0  0  0  0  0
  154.0009  144.0583  158.6016 H   0  0  0  0  0  0  0  0  0  0  0  0
  151.9398  142.1892  159.8382 H   0  0  0  0  0  0  0  0  0  0  0  0
  154.8702  142.6182  160.5894 H   0  0  0  0  0  0  0  0  0  0  0  0
  154.2679  141.2741  159.6259 H   0  0  0  0  0  0  0  0  0  0  0  0
  153.7678  141.4370  161.2949 H   0  0  0  0  0  0  0  0  0  0  0  0
  150.1193  144.1314  157.1516 H   0  0  0  0  0  0  0  0  0  0  0  0
  1  2  1  0  0  0  0
  1 18  1  0  0  0  0
  1 19  1  0  0  0  0
  1 20  1  0  0  0  0
  2 16  1  0  0  0  0
  2  3  1  0  0  0  0
  2 21  1  0  0  0  0
  3  4  1  0  0  0  0
  3 22  1  0  0  0  0
  3 23  1  0  0  0  0
  4  5  1  0  0  0  0
  4 24  1  0  0  0  0
  4 25  1  0  0  0  0
  5  6  1  0  0  0  0
  5 15  1  0  0  0  0
  5 26  1  0  0  0  0
  6  7  1  0  0  0  0
  6 27  1  0  0  0  0
  6 43  1  0  0  0  0
  7  8  1  0  0  0  0
  7 28  1  0  0  0  0
  7 29  1  0  0  0  0
  8  9  1  0  0  0  0
  8 30  1  0  0  0  0
  8 31  1  0  0  0  0
  9 13  1  0  0  0  0
  9 10  2  0  0  0  0
 10 11  1  0  0  0  0
 10 32  1  0  0  0  0
 11 12  2  0  0  0  0
 11 33  1  0  0  0  0
 12 13  1  0  0  0  0
 13 14  1  0  0  0  0
 14 34  1  0  0  0  0
 14 35  1  0  0  0  0
 14 36  1  0  0  0  0
 15 16  1  0  0  0  0
 15 37  1  0  0  0  0
 15 38  1  0  0  0  0
 16 17  1  0  0  0  0
 16 39  1  0  0  0  0
 17 40  1  0  0  0  0
 17 41  1  0  0  0  0
 17 42  1  0  0  0  0
M  CHG  1   6   1
M  END
> <s_m_source_file>
AV-unprocessed.smi

> <i_m_source_file_index>
3183

> <i_lp_mmshare_version>
43012

> <i_f3d_flags>
0

> <s_epik_input>
W0NIM11bQ0BASF0xW0NIMl1bQ0gyXVtDQEhdKFtDSDJdW0NASF0xW0NIM10pW05IXVtDSDJdW0NIMl1jMltjSF1bY0hdbm4yW0NIM10=

> <s_epik_cmdline>
J2VwaWtfcHl0aG9uJywgJy1waCcsICc3LjAnLCAnLXRuJywgJzgnLCAnLW1hJywgJzIwMCcsICctbWV0YWxfYmluZGluZycsICctaW1hZScsICc8aW5maWxlLm1hZT4nLCAnLW9tYWUnLCAnPG91dGZpbGUubWFlPic=

> <r_lp_tautomer_probability>
1

> <r_epik_Ionization_Penalty>
0.000327718

> <r_epik_Ionization_Penalty_Charging>
0.000294043

> <r_epik_Ionization_Penalty_Neutral>
3.36755e-05

> <r_epik_State_Penalty>
-0

> <r_epik_Charging_Adjusted_Penalty>
0.000294043

> <i_epik_Tot_Q>
1

> <i_epik_Tot_abs_Q>
1

> <r_epik_Metal_State_Penalty>
-0

> <b_epik_Metal_Only>
0

> <s_lp_Force_Field>
OPLS_2005

> <r_lp_Energy>
17.888

> <b_lp_Chiralities_Consistent>
1

> <s_lp_Variant>
AV-unprocessed.smi:3183-3

> <Gold.Version>
5.8.1

> <Gold.Id.Protein>
6NUR|6NUR_protein|mol2

> <Gold.PLP.Fitness>
52.3978

> <Gold.PLP.PLP>
-42.3064

> <Gold.PLP.part.hbond>
-1.0000

> <Gold.PLP.part.metal>
0.0000

> <Gold.PLP.part.buried>
0.2875

> <Gold.PLP.part.nonpolar>
-41.7195

> <Gold.PLP.part.repulsive>
0.1658

> <Gold.PLP.ligand.clash>
0.0000

> <Gold.PLP.ligand.torsion>
0.2604

> <Gold.PLP.Chemscore.Hbond>
2.0000

> <Gold.PLP.Chemscore.CHOScore>
1.5238

> <Gold.PLP.Chemscore.Metal>
0.0000

> <Gold.Chemscore.Hbonds>
donor molecule, donor type, donor heavy atom, donor atom, acceptor molecule, acceptor atom, score
      L1  H     6    43       P1  8028  2.00
      L1  C    11    33       P1  7948  0.96
      L1  C    11    33       P1  7957  0.53

> <Gold.PLP.Chemscore.Internal.Correction>
0.0408

> <Gold.Rescore>
     Score         DG    S(hbond)    S(metal)    S(lipo)     H(rot)  DE(clash)    DE(int)     intcor
     19.80     -21.27       0.97        0.00     137.33       1.38       1.28       0.18       ----

> <Gold.Chemscore.Fitness>
19.8039

> <Gold.Chemscore.DG>
-21.2654

> <Gold.Chemscore.ZeroCoef>
-5.4800

> <Gold.Chemscore.Hbond>
0.9707

> <Gold.Chemscore.Metal>
0.0000

> <Gold.Chemscore.Lipo>
137.3344

> <Gold.Chemscore.Internal_Hbond>
0.0000

> <Gold.Chemscore.DEClash>
1.2792

> <Gold.Chemscore.DEInternal>
0.1823

> <Gold.Chemscore.Rot>
1.3768

> <Gold.Chemscore.Internal.Correction>
   9.000000E+99

> <Gold.Chemscore.Hbonds>
donor molecule, donor type, donor heavy atom, donor atom, acceptor molecule, acceptor atom, score
      L1  H     6    43       P1  8028  0.81

> <Gold.Chemscore.Hbond.Weighted>
-3.2420

> <Gold.Chemscore.Metal.Weighted>
-0.0000

> <Gold.Chemscore.Lipo.Weighted>
-16.0681

> <Gold.Chemscore.Internal_Hbond.Weighted>
0.0000

> <Gold.Chemscore.DEClash.Weighted>
1.2792

> <Gold.Chemscore.DEInternal.Weighted>
0.1823

> <Gold.Chemscore.Rot.Weighted>
3.5247

> <Gold.Chemscore.Internal.Correction.Weighted>
   9.000000E+99

> <Gold.Protein.RotatedTorsions>
[ 6907 6896 6895 6894 ] final   17.72 input  -60.11 | X-H torsion
[ 7974 7965 7964 7962 ] final   -7.80 input  175.53 | X-H torsion
[ 8008 7997 7996 7995 ] final -137.66 input   59.86 | X-H torsion
[ 10167 10162 10161 10158 ] final  137.41 input  -65.29 | X-H torsion
[ 10718 10713 10712 10709 ] final   15.74 input   66.30 | X-H torsion
[ 10763 10752 10751 10750 ] final   63.17 input  -60.55 | X-H torsion
[ 11005 11000 10999 10996 ] final   25.35 input  -57.11 | X-H torsion

> <Gold.Protein.ActiveResidues>
 VAL166  LYS551  ARG553  GLY616  TRP617  ASP618  TYR619  PRO620  LYS621  CYS622 
 ASP623  PHE694  ASN695  SER759  ASP760  ASP761  ALA762  ILE779  LEU786  VAL792 
 PHE793  MET794  SER795  GLU796  ALA797  LYS798  CYS799  TRP800  GLU811  SER814 

> <Gold.Protein.RotatedAtoms>
  151.8541  135.0547  160.0461 H   0  0  0  0  0  0  0  0  0  0  0  0  # atno 6907 bound_to 6896
  152.2714  133.5381  159.5449 H   0  0  0  0  0  0  0  0  0  0  0  0  # atno 6908 bound_to 6896
  150.7153  134.0609  159.3873 H   0  0  0  0  0  0  0  0  0  0  0  0  # atno 6909 bound_to 6896
  146.2297  140.2373  142.8342 H   0  0  0  0  0  0  0  0  0  0  0  0  # atno 7974 bound_to 7965
  155.4155  140.0515  157.3029 H   0  0  0  0  0  0  0  0  0  0  0  0  # atno 8008 bound_to 7997
  154.4926  140.2126  155.9474 H   0  0  0  0  0  0  0  0  0  0  0  0  # atno 8009 bound_to 7997
  156.1363  140.3162  155.8431 H   0  0  0  0  0  0  0  0  0  0  0  0  # atno 8010 bound_to 7997
  139.5145  144.6411  151.5565 H   0  0  0  0  0  0  0  0  0  0  0  0  # atno 10167 bound_to 10162
  157.0578  130.6296  149.5780 H   0  0  0  0  0  0  0  0  0  0  0  0  # atno 10718 bound_to 10713
  153.0008  135.5439  154.6309 H   0  0  0  0  0  0  0  0  0  0  0  0  # atno 10763 bound_to 10752
  154.5587  135.2832  155.0942 H   0  0  0  0  0  0  0  0  0  0  0  0  # atno 10764 bound_to 10752
  154.2153  135.6460  153.5180 H   0  0  0  0  0  0  0  0  0  0  0  0  # atno 10765 bound_to 10752
  140.3488  134.2251  155.7682 H   0  0  0  0  0  0  0  0  0  0  0  0  # atno 11005 bound_to 11000
  144.9511  140.8179  143.5571 LP  0  0  0  0  0  0  0  0  0  0  0  0  # atno 17320 bound_to 7965
  145.2334  139.2104  143.5031 LP  0  0  0  0  0  0  0  0  0  0  0  0  # atno 17321 bound_to 7965
  140.6179  143.9314  150.6502 LP  0  0  0  0  0  0  0  0  0  0  0  0  # atno 17342 bound_to 10162
  140.2578  143.3546  152.1349 LP  0  0  0  0  0  0  0  0  0  0  0  0  # atno 17343 bound_to 10162
  155.9987  130.5062  150.7582 LP  0  0  0  0  0  0  0  0  0  0  0  0  # atno 17370 bound_to 10713
  157.4978  131.0916  151.0350 LP  0  0  0  0  0  0  0  0  0  0  0  0  # atno 17371 bound_to 10713
  141.2018  133.7954  157.0423 LP  0  0  0  0  0  0  0  0  0  0  0  0  # atno 17394 bound_to 11000
  140.0720  134.9697  157.1483 LP  0  0  0  0  0  0  0  0  0  0  0  0  # atno 17395 bound_to 11000

$$$$
