#       Name:                AV-unprocessed.smi:2152
#       Creating user name   scv26
#       Creation time:       Fri Mar 27 11:54:26 2020


#       File generated by GOLD software.
#

@<TRIPOS>MOLECULE
AV-unprocessed.smi:2152
    47    48     1
SMALL
NO_CHARGES


@<TRIPOS>ATOM
      1 ****        -1.5638  -1.3094   1.2913 C.3            1 S1                 0.0000
      2 ****        -1.9552  -1.7688  -0.1251 C.3            1 S1                 0.0000
      3 ****        -3.4523  -2.1356  -0.1788 C.3            1 S1                 0.0000
      4 ****        -3.8761  -2.6141  -1.5758 C.3            1 S1                 0.0000
      5 ****        -3.5446  -1.5623  -2.6430 C.3            1 S1                 0.0000
      6 ****        -2.0532  -1.1990  -2.6114 C.3            1 S1                 0.0000
      7 ****        -1.6134  -0.7190  -1.2142 C.3            1 S1                 0.0000
      8 ****        -0.1775  -0.4452  -1.2405 N.am           1 S1                 0.0000
      9 ****         0.4163   0.6892  -0.8386 C.2            1 S1                 0.0000
     10 ****        -0.2010   1.6677  -0.4161 O.2            1 S1                 0.0000
     11 ****         1.9466   0.7197  -0.9431 C.3            1 S1                 0.0000
     12 ****         2.5715   1.5317   0.1087 N.am           1 S1                 0.0000
     13 ****         2.9936   2.8173  -0.1767 C.2            1 S1                 0.0000
     14 ****         3.5592   3.6358   0.7371 C.2            1 S1                 0.0000
     15 ****         3.7647   3.1945   2.1112 C.2            1 S1                 0.0000
     16 ****         4.2548   3.9139   2.9824 O.2            1 S1                 0.0000
     17 ****         3.3410   1.8698   2.3724 N.am           1 S1                 0.0000
     18 ****         3.4914   1.3620   3.7205 C.3            1 S1                 0.0000
     19 ****         2.7317   1.0252   1.4169 C.2            1 S1                 0.0000
     20 ****         2.3419  -0.1103   1.7006 O.2            1 S1                 0.0000
     21 ****        -2.0587  -0.3739   1.5540 H              1 S1                 0.0000
     22 ****        -0.4888  -1.1543   1.3831 H              1 S1                 0.0000
     23 ****        -1.8442  -2.0541   2.0364 H              1 S1                 0.0000
     24 ****        -1.3879  -2.6758  -0.3405 H              1 S1                 0.0000
     25 ****        -3.6719  -2.9146   0.5521 H              1 S1                 0.0000
     26 ****        -4.0529  -1.2702   0.1049 H              1 S1                 0.0000
     27 ****        -3.3689  -3.5503  -1.8124 H              1 S1                 0.0000
     28 ****        -4.9449  -2.8298  -1.5862 H              1 S1                 0.0000
     29 ****        -3.8161  -1.9355  -3.6307 H              1 S1                 0.0000
     30 ****        -4.1437  -0.6664  -2.4743 H              1 S1                 0.0000
     31 ****        -1.4648  -2.0694  -2.9061 H              1 S1                 0.0000
     32 ****        -1.8507  -0.4249  -3.3527 H              1 S1                 0.0000
     33 ****        -2.1658   0.1960  -0.9914 H              1 S1                 0.0000
     34 ****         0.4158  -1.1906  -1.5751 H              1 S1                 0.0000
     35 ****         2.3443  -0.2966  -0.9126 H              1 S1                 0.0000
     36 ****         2.2120   1.1111  -1.9261 H              1 S1                 0.0000
     37 ****         2.8588   3.1929  -1.1807 H              1 S1                 0.0000
     38 ****         3.8603   4.6321   0.4484 H              1 S1                 0.0000
     39 ****         3.6801   0.2880   3.6838 H              1 S1                 0.0000
     40 ****         2.5638   1.5872   4.2483 H              1 S1                 0.0000
     41 ****         4.3488   1.8360   4.2000 H              1 S1                 0.0000
     42 ****        -1.1991   1.6427  -0.3588 LP             1 S1                 0.0000
     43 ****         0.2959   2.4871  -0.1303 LP             1 S1                 0.0000
     44 ****         4.5327   4.8487   2.7610 LP             1 S1                 0.0000
     45 ****         4.3749   3.5633   3.9112 LP             1 S1                 0.0000
     46 ****         1.9087  -0.6794   1.0017 LP             1 S1                 0.0000
     47 ****         2.4591  -0.4616   2.6295 LP             1 S1                 0.0000
@<TRIPOS>BOND
    1    1    2 1     
    2    1   21 1     
    3    1   22 1     
    4    1   23 1     
    5    2    7 1     
    6    2    3 1     
    7    2   24 1     
    8    3    4 1     
    9    3   25 1     
   10    3   26 1     
   11    4    5 1     
   12    4   27 1     
   13    4   28 1     
   14    5    6 1     
   15    5   29 1     
   16    5   30 1     
   17    6    7 1     
   18    6   31 1     
   19    6   32 1     
   20    7    8 1     
   21    7   33 1     
   22    8    9 am    
   23    8   34 1     
   24    9   10 2     
   25    9   11 1     
   26   11   12 1     
   27   11   35 1     
   28   11   36 1     
   29   12   19 am    
   30   12   13 1     
   31   13   14 2     
   32   13   37 1     
   33   14   15 1     
   34   14   38 1     
   35   15   16 2     
   36   15   17 am    
   37   17   18 1     
   38   17   19 am    
   39   18   39 1     
   40   18   40 1     
   41   18   41 1     
   42   19   20 2     
   43   10   42 1     
   44   10   43 1     
   45   16   44 1     
   46   16   45 1     
   47   20   46 1     
   48   20   47 1     
@<TRIPOS>SUBSTRUCTURE
      1 S1             1
@<TRIPOS>SET
LONE_PAIRS      STATIC     ATOMS    <user>   **** ""
6 42 43 44 45 46 47
DONOR_HYDROGENS      STATIC     ATOMS    <user>   **** ""
1 34
ATOM$BLUE        STATIC     ATOMS    COLORGROUP SYSTEM
6 42 43 44 45 46 47
ATOM$RED        STATIC     ATOMS    COLORGROUP SYSTEM
1 34
