AV-unprocessed.smi:2358|AV-procd|sdf|9405|dock9
  -GOLD-   2272013 43D 1   1.00000     0.00000
 Structure written by MMmdl.
 46 48  0  0  0  0  0  0  0  0  2 V2000
  150.6293  145.2608  159.5596 C   0  0  0  0  0  0  0  0  0  0  0  0
  151.2905  143.9334  159.2500 C   0  0  0  0  0  0  0  0  0  0  0  0
  152.2429  143.3895  160.1346 C   0  0  0  0  0  0  0  0  0  0  0  0
  152.8506  142.1527  159.8444 C   0  0  0  0  0  0  0  0  0  0  0  0
  153.8739  141.5739  160.7994 C   0  0  0  0  0  0  0  0  0  0  0  0
  152.5029  141.4619  158.6656 C   0  0  0  0  0  0  0  0  0  0  0  0
  151.5524  141.9923  157.7695 C   0  0  0  0  0  0  0  0  0  0  0  0
  151.2732  141.2484  156.6430 O   0  0  0  0  0  0  0  0  0  0  0  0
  150.1012  141.5609  155.9019 C   0  0  0  0  0  0  0  0  0  0  0  0
  149.6341  140.3005  155.1549 C   0  0  2  0  0  0  0  0  0  0  0  0
  150.7144  139.8634  154.3524 O   0  0  0  0  0  0  0  0  0  0  0  0
  148.4403  140.5944  154.2196 C   0  0  0  0  0  0  0  0  0  0  0  0
  147.3238  141.2203  154.9381 N   0  0  0  0  0  0  0  0  0  0  0  0
  146.7512  142.2852  154.2659 N   0  0  0  0  0  0  0  0  0  0  0  0
  145.7429  142.9227  154.7679 C   0  0  0  0  0  0  0  0  0  0  0  0
  145.0964  144.0377  154.0966 N   0  0  0  0  0  0  0  0  0  0  0  0
  145.2927  144.5472  152.8353 C   0  0  0  0  0  0  0  0  0  0  0  0
  144.4258  145.6027  152.7100 C   0  0  0  0  0  0  0  0  0  0  0  0
  143.7410  145.6917  153.8935 N   0  3  0  0  0  0  0  0  0  0  0  0
  144.1485  144.7390  154.7391 C   0  0  0  0  0  0  0  0  0  0  0  0
  145.2078  142.5265  156.0614 C   0  0  0  0  0  0  0  0  0  0  0  0
  145.7721  141.4839  156.7085 C   0  0  0  0  0  0  0  0  0  0  0  0
  146.9024  140.7459  156.1476 C   0  0  0  0  0  0  0  0  0  0  0  0
  147.4238  139.7829  156.7086 O   0  0  0  0  0  0  0  0  0  0  0  0
  150.9468  143.2379  158.0729 C   0  0  0  0  0  0  0  0  0  0  0  0
  151.1145  145.7609  160.3984 H   0  0  0  0  0  0  0  0  0  0  0  0
  149.5802  145.1073  159.8131 H   0  0  0  0  0  0  0  0  0  0  0  0
  150.6805  145.9224  158.6945 H   0  0  0  0  0  0  0  0  0  0  0  0
  152.5086  143.9194  161.0378 H   0  0  0  0  0  0  0  0  0  0  0  0
  154.1743  140.5690  160.5010 H   0  0  0  0  0  0  0  0  0  0  0  0
  153.4629  141.5196  161.8078 H   0  0  0  0  0  0  0  0  0  0  0  0
  154.7640  142.2030  160.8243 H   0  0  0  0  0  0  0  0  0  0  0  0
  152.9683  140.5130  158.4415 H   0  0  0  0  0  0  0  0  0  0  0  0
  149.3270  141.8713  156.6057 H   0  0  0  0  0  0  0  0  0  0  0  0
  150.2711  142.3859  155.2073 H   0  0  0  0  0  0  0  0  0  0  0  0
  149.3695  139.5276  155.8780 H   0  0  0  0  0  0  0  0  0  0  0  0
  150.4918  139.0228  153.9825 H   0  0  0  0  0  0  0  0  0  0  0  0
  148.7529  141.2619  153.4146 H   0  0  0  0  0  0  0  0  0  0  0  0
  148.1161  139.6836  153.7121 H   0  0  0  0  0  0  0  0  0  0  0  0
  146.0064  144.1474  152.1306 H   0  0  0  0  0  0  0  0  0  0  0  0
  144.2500  146.2806  151.8872 H   0  0  0  0  0  0  0  0  0  0  0  0
  143.7783  144.5826  155.7374 H   0  0  0  0  0  0  0  0  0  0  0  0
  144.3739  143.0426  156.5101 H   0  0  0  0  0  0  0  0  0  0  0  0
  145.3770  141.1835  157.6679 H   0  0  0  0  0  0  0  0  0  0  0  0
  150.2125  143.6798  157.4167 H   0  0  0  0  0  0  0  0  0  0  0  0
  143.0283  146.3801  154.1017 H   0  0  0  0  0  0  0  0  0  0  0  0
  1  2  1  0  0  0  0
  1 26  1  0  0  0  0
  1 27  1  0  0  0  0
  1 28  1  0  0  0  0
  2 25  1  0  0  0  0
  2  3  2  0  0  0  0
  3  4  1  0  0  0  0
  3 29  1  0  0  0  0
  4  5  1  0  0  0  0
  4  6  2  0  0  0  0
  5 30  1  0  0  0  0
  5 31  1  0  0  0  0
  5 32  1  0  0  0  0
  6  7  1  0  0  0  0
  6 33  1  0  0  0  0
  7  8  1  0  0  0  0
  7 25  2  0  0  0  0
  8  9  1  0  0  0  0
  9 10  1  0  0  0  0
  9 34  1  0  0  0  0
  9 35  1  0  0  0  0
 10 11  1  0  0  0  0
 10 12  1  0  0  0  0
 10 36  1  0  0  0  0
 11 37  1  0  0  0  0
 12 13  1  0  0  0  0
 12 38  1  0  0  0  0
 12 39  1  0  0  0  0
 13 23  1  0  0  0  0
 13 14  1  0  0  0  0
 14 15  2  0  0  0  0
 15 16  1  0  0  0  0
 15 21  1  0  0  0  0
 16 20  1  0  0  0  0
 16 17  1  0  0  0  0
 17 18  2  0  0  0  0
 17 40  1  0  0  0  0
 18 19  1  0  0  0  0
 18 41  1  0  0  0  0
 19 20  2  0  0  0  0
 19 46  1  0  0  0  0
 20 42  1  0  0  0  0
 21 22  2  0  0  0  0
 21 43  1  0  0  0  0
 22 23  1  0  0  0  0
 22 44  1  0  0  0  0
 23 24  2  0  0  0  0
 25 45  1  0  0  0  0
M  CHG  1  19   1
M  END
> <s_m_source_file>
AV-unprocessed.smi

> <i_m_source_file_index>
2358

> <i_lp_mmshare_version>
43012

> <i_f3d_flags>
0

> <s_epik_input>
W0NIM11jMVtjSF1jKFtDSDNdKVtjSF1jKFtjSF0xKU9bQ0gyXVtDQEhdKFtPSF0pW0NIMl1uMm5jKFtjSF1bY0hdYzI9TyktbjNbY0hdW2NIXW5bY0hdMw==

> <s_epik_cmdline>
J2VwaWtfcHl0aG9uJywgJy1waCcsICc3LjAnLCAnLXRuJywgJzgnLCAnLW1hJywgJzIwMCcsICctbWV0YWxfYmluZGluZycsICctaW1hZScsICc8aW5maWxlLm1hZT4nLCAnLW9tYWUnLCAnPG91dGZpbGUubWFlPic=

> <r_lp_tautomer_probability>
1

> <r_epik_Ionization_Penalty>
1.66053

> <r_epik_Ionization_Penalty_Charging>
2.42216e-09

> <r_epik_Ionization_Penalty_Neutral>
1.66053

> <r_epik_State_Penalty>
1.76336

> <r_epik_Charging_Adjusted_Penalty>
1.76336

> <i_epik_Tot_Q>
1

> <i_epik_Tot_abs_Q>
1

> <r_epik_Metal_State_Penalty>
1.79856

> <b_epik_Metal_Only>
0

> <s_lp_Force_Field>
OPLS_2005

> <r_lp_Energy>
37.8442

> <b_lp_Chiralities_Consistent>
1

> <s_lp_Variant>
AV-unprocessed.smi:2358-3

> <Gold.Version>
5.8.1

> <Gold.Id.Protein>
6NUR|6NUR_protein|mol2

> <Gold.PLP.Fitness>
52.7123

> <Gold.PLP.PLP>
-50.8570

> <Gold.PLP.part.hbond>
-1.0000

> <Gold.PLP.part.metal>
0.0000

> <Gold.PLP.part.buried>
-6.4316

> <Gold.PLP.part.nonpolar>
-44.5074

> <Gold.PLP.part.repulsive>
0.3101

> <Gold.PLP.ligand.clash>
0.0000

> <Gold.PLP.ligand.torsion>
0.5972

> <Gold.PLP.Chemscore.Hbond>
1.0000

> <Gold.PLP.Chemscore.CHOScore>
0.0000

> <Gold.PLP.Chemscore.Metal>
0.0000

> <Gold.Chemscore.Hbonds>
donor molecule, donor type, donor heavy atom, donor atom, acceptor molecule, acceptor atom, score
      P1  H  7989  7998       L1    11  1.00

> <Gold.PLP.Chemscore.Internal.Correction>
0.0497

> <Gold.Rescore>
     Score         DG    S(hbond)    S(metal)    S(lipo)     H(rot)  DE(clash)    DE(int)     intcor
     14.37     -16.52       0.98        0.00     124.41       2.65       0.32       1.82       ----

> <Gold.Chemscore.Fitness>
14.3733

> <Gold.Chemscore.DG>
-16.5167

> <Gold.Chemscore.ZeroCoef>
-5.4800

> <Gold.Chemscore.Hbond>
0.9802

> <Gold.Chemscore.Metal>
0.0000

> <Gold.Chemscore.Lipo>
124.4141

> <Gold.Chemscore.Internal_Hbond>
0.0000

> <Gold.Chemscore.DEClash>
0.3217

> <Gold.Chemscore.DEInternal>
1.8217

> <Gold.Chemscore.Rot>
2.6537

> <Gold.Chemscore.Internal.Correction>
   9.000000E+99

> <Gold.Chemscore.Hbonds>
donor molecule, donor type, donor heavy atom, donor atom, acceptor molecule, acceptor atom, score
      P1  H  7989  7998       L1    11  0.94

> <Gold.Chemscore.Hbond.Weighted>
-3.2738

> <Gold.Chemscore.Metal.Weighted>
-0.0000

> <Gold.Chemscore.Lipo.Weighted>
-14.5565

> <Gold.Chemscore.Internal_Hbond.Weighted>
0.0000

> <Gold.Chemscore.DEClash.Weighted>
0.3217

> <Gold.Chemscore.DEInternal.Weighted>
1.8217

> <Gold.Chemscore.Rot.Weighted>
6.7935

> <Gold.Chemscore.Internal.Correction.Weighted>
   9.000000E+99

> <Gold.Protein.RotatedTorsions>
[ 6907 6896 6895 6894 ] final  151.88 input  -60.11 | X-H torsion
[ 7974 7965 7964 7962 ] final  -71.29 input  175.53 | X-H torsion
[ 8008 7997 7996 7995 ] final  -59.36 input   59.86 | X-H torsion
[ 10167 10162 10161 10158 ] final -177.71 input  -65.29 | X-H torsion
[ 10718 10713 10712 10709 ] final  -71.64 input   66.30 | X-H torsion
[ 10763 10752 10751 10750 ] final   89.91 input  -60.55 | X-H torsion
[ 11005 11000 10999 10996 ] final   12.48 input  -57.11 | X-H torsion

> <Gold.Protein.ActiveResidues>
 VAL166  LYS551  ARG553  GLY616  TRP617  ASP618  TYR619  PRO620  LYS621  CYS622 
 ASP623  PHE694  ASN695  SER759  ASP760  ASP761  ALA762  ILE779  LEU786  VAL792 
 PHE793  MET794  SER795  GLU796  ALA797  LYS798  CYS799  TRP800  GLU811  SER814 

> <Gold.Protein.RotatedAtoms>
  152.0944  133.4217  159.4558 H   0  0  0  0  0  0  0  0  0  0  0  0  # atno 6907 bound_to 6896
  150.6863  134.2833  159.4645 H   0  0  0  0  0  0  0  0  0  0  0  0  # atno 6908 bound_to 6896
  152.0688  134.9546  160.0625 H   0  0  0  0  0  0  0  0  0  0  0  0  # atno 6909 bound_to 6896
  145.6800  140.9191  143.0837 H   0  0  0  0  0  0  0  0  0  0  0  0  # atno 7974 bound_to 7965
  154.4349  140.1063  156.6103 H   0  0  0  0  0  0  0  0  0  0  0  0  # atno 8008 bound_to 7997
  155.5816  140.3491  155.4523 H   0  0  0  0  0  0  0  0  0  0  0  0  # atno 8009 bound_to 7997
  156.0314  140.1261  157.0243 H   0  0  0  0  0  0  0  0  0  0  0  0  # atno 8010 bound_to 7997
  139.5467  144.2217  152.1001 H   0  0  0  0  0  0  0  0  0  0  0  0  # atno 10167 bound_to 10162
  156.0354  130.4355  150.2474 H   0  0  0  0  0  0  0  0  0  0  0  0  # atno 10718 bound_to 10713
  153.1921  135.4453  155.0162 H   0  0  0  0  0  0  0  0  0  0  0  0  # atno 10763 bound_to 10752
  154.8096  135.3289  154.7342 H   0  0  0  0  0  0  0  0  0  0  0  0  # atno 10764 bound_to 10752
  153.7795  135.6978  153.4946 H   0  0  0  0  0  0  0  0  0  0  0  0  # atno 10765 bound_to 10752
  140.4915  134.0836  155.7772 H   0  0  0  0  0  0  0  0  0  0  0  0  # atno 11005 bound_to 11000
  144.7029  139.8683  143.7439 LP  0  0  0  0  0  0  0  0  0  0  0  0  # atno 17320 bound_to 7965
  146.0973  139.3966  143.0369 LP  0  0  0  0  0  0  0  0  0  0  0  0  # atno 17321 bound_to 7965
  140.1705  144.4940  150.6582 LP  0  0  0  0  0  0  0  0  0  0  0  0  # atno 17342 bound_to 10162
  140.6717  143.2288  151.5609 LP  0  0  0  0  0  0  0  0  0  0  0  0  # atno 17343 bound_to 10162
  157.0574  131.0080  151.3234 LP  0  0  0  0  0  0  0  0  0  0  0  0  # atno 17370 bound_to 10713
  157.5096  130.7930  149.7690 LP  0  0  0  0  0  0  0  0  0  0  0  0  # atno 17371 bound_to 10713
  141.1482  133.9017  157.2164 LP  0  0  0  0  0  0  0  0  0  0  0  0  # atno 17394 bound_to 11000
  139.9767  135.0111  156.9648 LP  0  0  0  0  0  0  0  0  0  0  0  0  # atno 17395 bound_to 11000

$$$$
