AV-unprocessed.smi:2545|AV-procd|sdf|9995|dock8
  -GOLD-   2272014 43D 1   1.00000     0.00000
 Structure written by MMmdl.
 27 28  0  0  0  0  0  0  0  0  2 V2000
  147.8296  138.6016  152.8600 N   0  0  0  0  0  0  0  0  0  0  0  0
  148.0163  139.7634  153.6112 C   0  0  0  0  0  0  0  0  0  0  0  0
  147.0761  140.8116  153.5105 C   0  0  0  0  0  0  0  0  0  0  0  0
  147.2655  141.9841  154.2688 C   0  0  0  0  0  0  0  0  0  0  0  0
  148.3388  142.0931  155.0801 N   0  3  0  0  0  0  0  0  0  0  0  0
  149.2621  141.1159  155.2070 C   0  0  0  0  0  0  0  0  0  0  0  0
  149.1326  139.9119  154.4740 C   0  0  0  0  0  0  0  0  0  0  0  0
  150.0854  138.8870  154.5938 N   0  0  0  0  0  0  0  0  0  0  0  0
  151.3515  139.3316  155.1627 C   0  0  0  0  0  0  0  0  0  0  0  0
  152.3740  138.1822  155.1331 C   0  0  0  0  0  0  0  0  0  0  0  0
  151.8379  137.0506  155.8132 O   0  0  0  0  0  0  0  0  0  0  0  0
  150.6427  136.5749  155.2004 C   0  0  0  0  0  0  0  0  0  0  0  0
  149.5735  137.6809  155.2329 C   0  0  0  0  0  0  0  0  0  0  0  0
  148.4781  137.8284  152.9026 H   0  0  0  0  0  0  0  0  0  0  0  0
  147.0326  138.4982  152.2477 H   0  0  0  0  0  0  0  0  0  0  0  0
  146.2181  140.7211  152.8601 H   0  0  0  0  0  0  0  0  0  0  0  0
  146.5957  142.8317  154.2504 H   0  0  0  0  0  0  0  0  0  0  0  0
  150.0738  141.3268  155.8879 H   0  0  0  0  0  0  0  0  0  0  0  0
  151.7316  140.1847  154.5993 H   0  0  0  0  0  0  0  0  0  0  0  0
  151.2007  139.6634  156.1909 H   0  0  0  0  0  0  0  0  0  0  0  0
  152.6306  137.9151  154.1066 H   0  0  0  0  0  0  0  0  0  0  0  0
  153.2983  138.4879  155.6234 H   0  0  0  0  0  0  0  0  0  0  0  0
  150.8470  136.2599  154.1758 H   0  0  0  0  0  0  0  0  0  0  0  0
  150.2911  135.6955  155.7401 H   0  0  0  0  0  0  0  0  0  0  0  0
  149.2981  137.8954  156.2663 H   0  0  0  0  0  0  0  0  0  0  0  0
  148.6717  137.3443  154.7199 H   0  0  0  0  0  0  0  0  0  0  0  0
  148.4584  142.9503  155.6207 H   0  0  0  0  0  0  0  0  0  0  0  0
  1  2  1  0  0  0  0
  1 14  1  0  0  0  0
  1 15  1  0  0  0  0
  2  7  1  0  0  0  0
  2  3  2  0  0  0  0
  3  4  1  0  0  0  0
  3 16  1  0  0  0  0
  4  5  2  0  0  0  0
  4 17  1  0  0  0  0
  5  6  1  0  0  0  0
  5 27  1  0  0  0  0
  6  7  2  0  0  0  0
  6 18  1  0  0  0  0
  7  8  1  0  0  0  0
  8 13  1  0  0  0  0
  8  9  1  0  0  0  0
  9 10  1  0  0  0  0
  9 19  1  0  0  0  0
  9 20  1  0  0  0  0
 10 11  1  0  0  0  0
 10 21  1  0  0  0  0
 10 22  1  0  0  0  0
 11 12  1  0  0  0  0
 12 13  1  0  0  0  0
 12 23  1  0  0  0  0
 12 24  1  0  0  0  0
 13 25  1  0  0  0  0
 13 26  1  0  0  0  0
M  CHG  1   5   1
M  END
> <s_m_source_file>
AV-unprocessed.smi

> <i_m_source_file_index>
2545

> <i_lp_mmshare_version>
43012

> <i_f3d_flags>
0

> <s_epik_input>
W05IMl1jMVtjSF1bY0hdbltjSF1jMU4yW0NIMl1bQ0gyXU9bQ0gyXVtDSDJdMg==

> <s_epik_cmdline>
J2VwaWtfcHl0aG9uJywgJy1waCcsICc3LjAnLCAnLXRuJywgJzgnLCAnLW1hJywgJzIwMCcsICctbWV0YWxfYmluZGluZycsICctaW1hZScsICc8aW5maWxlLm1hZT4nLCAnLW9tYWUnLCAnPG91dGZpbGUubWFlPic=

> <r_lp_tautomer_probability>
1

> <r_epik_Ionization_Penalty>
0.0125888

> <r_epik_Ionization_Penalty_Charging>
0.0125847

> <r_epik_Ionization_Penalty_Neutral>
4.08722e-06

> <r_epik_State_Penalty>
0.00974947

> <r_epik_Charging_Adjusted_Penalty>
0.0223342

> <i_epik_Tot_Q>
1

> <i_epik_Tot_abs_Q>
1

> <r_epik_Metal_State_Penalty>
1.6989

> <b_epik_Metal_Only>
0

> <s_lp_Force_Field>
OPLS_2005

> <r_lp_Energy>
29.9348

> <b_lp_Chiralities_Consistent>
1

> <s_lp_Variant>
AV-unprocessed.smi:2545-1

> <Gold.Version>
5.8.1

> <Gold.Id.Protein>
6NUR|6NUR_protein|mol2

> <Gold.PLP.Fitness>
36.4989

> <Gold.PLP.PLP>
-25.1312

> <Gold.PLP.part.hbond>
-4.0000

> <Gold.PLP.part.metal>
0.0000

> <Gold.PLP.part.buried>
-0.8652

> <Gold.PLP.part.nonpolar>
-22.3383

> <Gold.PLP.part.repulsive>
0.4869

> <Gold.PLP.ligand.clash>
0.0752

> <Gold.PLP.ligand.torsion>
0.3011

> <Gold.PLP.Chemscore.Hbond>
3.9760

> <Gold.PLP.Chemscore.CHOScore>
0.0000

> <Gold.PLP.Chemscore.Metal>
0.0000

> <Gold.Chemscore.Hbonds>
donor molecule, donor type, donor heavy atom, donor atom, acceptor molecule, acceptor atom, score
      L1  H     1    14       P1  7948  0.78
      L1  H     5    27       P1  8028  1.95
      P1  H 10752 10763       L1    11  0.33

> <Gold.PLP.Chemscore.Internal.Correction>
0.1170

> <Gold.Rescore>
     Score         DG    S(hbond)    S(metal)    S(lipo)     H(rot)  DE(clash)    DE(int)     intcor
     14.90     -15.83       1.89        0.00      56.52       1.00       0.01       0.92       ----

> <Gold.Chemscore.Fitness>
14.9025

> <Gold.Chemscore.DG>
-15.8330

> <Gold.Chemscore.ZeroCoef>
-5.4800

> <Gold.Chemscore.Hbond>
1.8863

> <Gold.Chemscore.Metal>
0.0000

> <Gold.Chemscore.Lipo>
56.5182

> <Gold.Chemscore.Internal_Hbond>
0.0000

> <Gold.Chemscore.DEClash>
0.0126

> <Gold.Chemscore.DEInternal>
0.9179

> <Gold.Chemscore.Rot>
1.0000

> <Gold.Chemscore.Internal.Correction>
   9.000000E+99

> <Gold.Chemscore.Hbonds>
donor molecule, donor type, donor heavy atom, donor atom, acceptor molecule, acceptor atom, score
      L1  H     1    14       P1  7948  0.77
      L1  H     5    27       P1  8028  0.92

> <Gold.Chemscore.Hbond.Weighted>
-6.3004

> <Gold.Chemscore.Metal.Weighted>
-0.0000

> <Gold.Chemscore.Lipo.Weighted>
-6.6126

> <Gold.Chemscore.Internal_Hbond.Weighted>
0.0000

> <Gold.Chemscore.DEClash.Weighted>
0.0126

> <Gold.Chemscore.DEInternal.Weighted>
0.9179

> <Gold.Chemscore.Rot.Weighted>
2.5600

> <Gold.Chemscore.Internal.Correction.Weighted>
   9.000000E+99

> <Gold.Protein.RotatedTorsions>
[ 6907 6896 6895 6894 ] final  -36.95 input  -60.11 | X-H torsion
[ 7974 7965 7964 7962 ] final  -40.28 input  175.53 | X-H torsion
[ 8008 7997 7996 7995 ] final  112.63 input   59.86 | X-H torsion
[ 10167 10162 10161 10158 ] final   73.64 input  -65.29 | X-H torsion
[ 10718 10713 10712 10709 ] final   46.54 input   66.30 | X-H torsion
[ 10763 10752 10751 10750 ] final   72.21 input  -60.55 | X-H torsion
[ 11005 11000 10999 10996 ] final  177.21 input  -57.11 | X-H torsion

> <Gold.Protein.ActiveResidues>
 VAL166  LYS551  ARG553  GLY616  TRP617  ASP618  TYR619  PRO620  LYS621  CYS622 
 ASP623  PHE694  ASN695  SER759  ASP760  ASP761  ALA762  ILE779  LEU786  VAL792 
 PHE793  MET794  SER795  GLU796  ALA797  LYS798  CYS799  TRP800  GLU811  SER814 

> <Gold.Protein.RotatedAtoms>
  151.0208  134.9468  159.8058 H   0  0  0  0  0  0  0  0  0  0  0  0  # atno 6907 bound_to 6896
  152.5324  134.2906  159.9051 H   0  0  0  0  0  0  0  0  0  0  0  0  # atno 6908 bound_to 6896
  151.2913  133.4122  159.2667 H   0  0  0  0  0  0  0  0  0  0  0  0  # atno 6909 bound_to 6896
  146.0318  140.6721  142.9129 H   0  0  0  0  0  0  0  0  0  0  0  0  # atno 7974 bound_to 7965
  156.2205  140.2995  155.9941 H   0  0  0  0  0  0  0  0  0  0  0  0  # atno 8008 bound_to 7997
  155.2493  140.0425  157.3002 H   0  0  0  0  0  0  0  0  0  0  0  0  # atno 8009 bound_to 7997
  154.5833  140.2381  155.8030 H   0  0  0  0  0  0  0  0  0  0  0  0  # atno 8010 bound_to 7997
  140.0223  144.5531  150.7572 H   0  0  0  0  0  0  0  0  0  0  0  0  # atno 10167 bound_to 10162
  157.4492  130.8128  149.7771 H   0  0  0  0  0  0  0  0  0  0  0  0  # atno 10718 bound_to 10713
  153.0445  135.5108  154.7709 H   0  0  0  0  0  0  0  0  0  0  0  0  # atno 10763 bound_to 10752
  154.6620  135.2940  154.9856 H   0  0  0  0  0  0  0  0  0  0  0  0  # atno 10764 bound_to 10752
  154.0703  135.6678  153.4876 H   0  0  0  0  0  0  0  0  0  0  0  0  # atno 10765 bound_to 10752
  140.3816  134.6941  157.4454 H   0  0  0  0  0  0  0  0  0  0  0  0  # atno 11005 bound_to 11000
  144.7034  140.3750  143.7137 LP  0  0  0  0  0  0  0  0  0  0  0  0  # atno 17320 bound_to 7965
  145.7027  139.1665  143.2583 LP  0  0  0  0  0  0  0  0  0  0  0  0  # atno 17321 bound_to 7965
  140.7337  143.2720  151.3857 LP  0  0  0  0  0  0  0  0  0  0  0  0  # atno 17342 bound_to 10162
  139.6132  144.1057  152.2319 LP  0  0  0  0  0  0  0  0  0  0  0  0  # atno 17343 bound_to 10162
  155.9980  130.3897  150.2719 LP  0  0  0  0  0  0  0  0  0  0  0  0  # atno 17370 bound_to 10713
  157.0889  131.0164  151.3129 LP  0  0  0  0  0  0  0  0  0  0  0  0  # atno 17371 bound_to 10713
  140.0474  134.6179  155.8904 LP  0  0  0  0  0  0  0  0  0  0  0  0  # atno 17394 bound_to 11000
  141.1921  133.6574  156.5489 LP  0  0  0  0  0  0  0  0  0  0  0  0  # atno 17395 bound_to 11000

$$$$
