#       Name:                AV-unprocessed.smi:1341
#       Creating user name   scv26
#       Creation time:       Fri Mar 27 05:08:50 2020


#       File generated by GOLD software.
#

@<TRIPOS>MOLECULE
AV-unprocessed.smi:1341
    40    41     1
SMALL
NO_CHARGES


@<TRIPOS>ATOM
      1 ****        -4.6077   2.9844   2.2537 C.2            1 S1                 0.0000
      2 ****        -4.0012   2.7702   1.0766 C.2            1 S1                 0.0000
      3 ****        -3.7171   1.3994   0.4943 C.3            1 S1                 0.0000
      4 ****        -2.3038   1.2337   0.1791 N.am           1 S1                 0.0000
      5 ****        -1.6918   1.7115  -0.9173 C.2            1 S1                 0.0000
      6 ****        -2.2686   2.3604  -1.7904 O.2            1 S1                 0.0000
      7 ****        -0.2176   1.4293  -0.9935 C.ar           1 S1                 0.0000
      8 ****         0.1862   0.1769  -0.6717 N.ar           1 S1                 0.0000
      9 ****         1.4882  -0.1218  -0.7624 C.ar           1 S1                 0.0000
     10 ****         1.8800  -1.4220  -0.4179 N.pl3          1 S1                 0.0000
     11 ****         0.9071  -2.4987  -0.2148 C.3            1 S1                 0.0000
     12 ****         1.4115  -3.5003   0.8376 C.3            1 S1                 0.0000
     13 ****         2.6926  -3.9903   0.4616 O.3            1 S1                 0.0000
     14 ****         3.6527  -2.9434   0.3934 C.3            1 S1                 0.0000
     15 ****         3.2335  -1.9203  -0.6759 C.3            1 S1                 0.0000
     16 ****         2.4412   0.7317  -1.1560 N.ar           1 S1                 0.0000
     17 ****         2.0651   1.9845  -1.4865 C.ar           1 S1                 0.0000
     18 ****         0.7213   2.4004  -1.4253 C.ar           1 S1                 0.0000
     19 ****         0.3026   4.0273  -1.8400 Cl             1 S1                 0.0000
     20 ****        -4.9346   2.1635   2.8750 H              1 S1                 0.0000
     21 ****        -4.7851   3.9880   2.6112 H              1 S1                 0.0000
     22 ****        -3.6929   3.6183   0.4823 H              1 S1                 0.0000
     23 ****        -4.0108   0.6240   1.2026 H              1 S1                 0.0000
     24 ****        -4.3243   1.2564  -0.4008 H              1 S1                 0.0000
     25 ****        -1.7436   0.7157   0.8408 H              1 S1                 0.0000
     26 ****        -0.0626  -2.1231   0.1103 H              1 S1                 0.0000
     27 ****         0.7460  -3.0059  -1.1666 H              1 S1                 0.0000
     28 ****         1.4609  -3.0359   1.8239 H              1 S1                 0.0000
     29 ****         0.7210  -4.3400   0.9163 H              1 S1                 0.0000
     30 ****         3.7579  -2.4656   1.3690 H              1 S1                 0.0000
     31 ****         4.6241  -3.3699   0.1428 H              1 S1                 0.0000
     32 ****         3.2530  -2.3823  -1.6636 H              1 S1                 0.0000
     33 ****         3.9716  -1.1189  -0.6879 H              1 S1                 0.0000
     34 ****         2.8459   2.6618  -1.7992 H              1 S1                 0.0000
     35 ****        -3.2453   2.5571  -1.7042 LP             1 S1                 0.0000
     36 ****        -1.7604   2.6908  -2.5858 LP             1 S1                 0.0000
     37 ****        -0.4751  -0.5109  -0.3723 LP             1 S1                 0.0000
     38 ****         2.6230  -4.4261  -0.4357 LP             1 S1                 0.0000
     39 ****         2.9937  -4.6636   1.1368 LP             1 S1                 0.0000
     40 ****         3.3996   0.4503  -1.2035 LP             1 S1                 0.0000
@<TRIPOS>BOND
    1    1    2 2     
    2    1   20 1     
    3    1   21 1     
    4    2    3 1     
    5    2   22 1     
    6    3    4 1     
    7    3   23 1     
    8    3   24 1     
    9    4    5 am    
   10    4   25 1     
   11    5    6 2     
   12    5    7 1     
   13    7   18 ar    
   14    7    8 ar    
   15    8    9 ar    
   16    9   10 1     
   17    9   16 ar    
   18   10   15 1     
   19   10   11 1     
   20   11   12 1     
   21   11   26 1     
   22   11   27 1     
   23   12   13 1     
   24   12   28 1     
   25   12   29 1     
   26   13   14 1     
   27   14   15 1     
   28   14   30 1     
   29   14   31 1     
   30   15   32 1     
   31   15   33 1     
   32   16   17 ar    
   33   17   18 ar    
   34   17   34 1     
   35   18   19 1     
   36    6   35 1     
   37    6   36 1     
   38    8   37 1     
   39   13   38 1     
   40   13   39 1     
   41   16   40 1     
@<TRIPOS>SUBSTRUCTURE
      1 S1             1
@<TRIPOS>SET
LONE_PAIRS      STATIC     ATOMS    <user>   **** ""
6 35 36 37 38 39 40
DONOR_HYDROGENS      STATIC     ATOMS    <user>   **** ""
1 25
ATOM$BLUE        STATIC     ATOMS    COLORGROUP SYSTEM
6 35 36 37 38 39 40
ATOM$RED        STATIC     ATOMS    COLORGROUP SYSTEM
1 25
