AV-unprocessed.smi:1971|AV-procd|sdf|7966|dock7
  -GOLD-   2272010133D 1   1.00000     0.00000
 Structure written by MMmdl.
 43 44  0  0  0  0  0  0  0  0  1 V2000
  152.5502  144.1892  158.4626 C   0  0  0  0  0  0  0  0  0  0  0  0
  152.0926  142.8165  158.9762 C   0  0  0  0  0  0  0  0  0  0  0  0
  151.7952  141.8377  157.9323 N   0  0  0  0  0  0  0  0  0  0  0  0
  150.7222  142.3109  157.0614 C   0  0  0  0  0  0  0  0  0  0  0  0
  150.4116  141.3016  155.9410 C   0  0  0  0  0  0  0  0  0  0  0  0
  150.0089  139.9908  156.4695 N   0  0  0  0  0  0  0  0  0  0  0  0
  149.7049  139.0184  155.3971 C   0  0  2  0  0  0  0  0  0  0  0  0
  150.8743  138.8057  154.4092 C   0  0  0  0  0  0  0  0  0  0  0  0
  148.4280  139.3539  154.5827 C   0  0  0  0  0  0  0  0  0  0  0  0
  147.9752  138.2297  153.7652 N   0  0  0  0  0  0  0  0  0  0  0  0
  146.7439  137.6997  153.7775 C   0  0  0  0  0  0  0  0  0  0  0  0
  145.8316  138.1131  154.4931 O   0  0  0  0  0  0  0  0  0  0  0  0
  146.6499  136.6721  152.9182 N   0  0  0  0  0  0  0  0  0  0  0  0
  145.5105  135.8776  152.6372 C   0  0  0  0  0  0  0  0  0  0  0  0
  144.8367  135.3339  153.6527 N   0  0  0  0  0  0  0  0  0  0  0  0
  143.7450  134.5790  153.2140 C   0  0  0  0  0  0  0  0  0  0  0  0
  143.6006  134.5582  151.8490 C   0  0  0  0  0  0  0  0  0  0  0  0
  144.8370  135.4929  151.0512 S   0  0  0  0  0  0  0  0  0  0  0  0
  151.0819  139.5279  157.3607 C   0  0  0  0  0  0  0  0  0  0  0  0
  151.3919  140.5416  158.4774 C   0  0  0  0  0  0  0  0  0  0  0  0
  152.6452  144.8944  159.2884 H   0  0  0  0  0  0  0  0  0  0  0  0
  151.8317  144.6039  157.7553 H   0  0  0  0  0  0  0  0  0  0  0  0
  153.5202  144.1381  157.9688 H   0  0  0  0  0  0  0  0  0  0  0  0
  152.8418  142.4151  159.6603 H   0  0  0  0  0  0  0  0  0  0  0  0
  151.1947  142.9753  159.5749 H   0  0  0  0  0  0  0  0  0  0  0  0
  149.8197  142.4984  157.6457 H   0  0  0  0  0  0  0  0  0  0  0  0
  151.0054  143.2637  156.6128 H   0  0  0  0  0  0  0  0  0  0  0  0
  149.6158  141.7275  155.3321 H   0  0  0  0  0  0  0  0  0  0  0  0
  151.2820  141.1927  155.2918 H   0  0  0  0  0  0  0  0  0  0  0  0
  149.5210  138.0507  155.8664 H   0  0  0  0  0  0  0  0  0  0  0  0
  150.5721  138.1824  153.5672 H   0  0  0  0  0  0  0  0  0  0  0  0
  151.7174  138.2972  154.8757 H   0  0  0  0  0  0  0  0  0  0  0  0
  151.2344  139.7523  154.0049 H   0  0  0  0  0  0  0  0  0  0  0  0
  147.6354  139.6894  155.2537 H   0  0  0  0  0  0  0  0  0  0  0  0
  148.5990  140.2047  153.9245 H   0  0  0  0  0  0  0  0  0  0  0  0
  148.6622  137.8157  153.1521 H   0  0  0  0  0  0  0  0  0  0  0  0
  147.4832  136.4368  152.3996 H   0  0  0  0  0  0  0  0  0  0  0  0
  143.1203  134.0868  153.9449 H   0  0  0  0  0  0  0  0  0  0  0  0
  142.8451  134.0520  151.2668 H   0  0  0  0  0  0  0  0  0  0  0  0
  150.8009  138.5933  157.8427 H   0  0  0  0  0  0  0  0  0  0  0  0
  151.9866  139.3262  156.7847 H   0  0  0  0  0  0  0  0  0  0  0  0
  152.1848  140.1332  159.1028 H   0  0  0  0  0  0  0  0  0  0  0  0
  150.5170  140.6596  159.1189 H   0  0  0  0  0  0  0  0  0  0  0  0
  1  2  1  0  0  0  0
  1 21  1  0  0  0  0
  1 22  1  0  0  0  0
  1 23  1  0  0  0  0
  2  3  1  0  0  0  0
  2 24  1  0  0  0  0
  2 25  1  0  0  0  0
  3 20  1  0  0  0  0
  3  4  1  0  0  0  0
  4  5  1  0  0  0  0
  4 26  1  0  0  0  0
  4 27  1  0  0  0  0
  5  6  1  0  0  0  0
  5 28  1  0  0  0  0
  5 29  1  0  0  0  0
  6  7  1  0  0  0  0
  6 19  1  0  0  0  0
  7  8  1  0  0  0  0
  7  9  1  0  0  0  0
  7 30  1  0  0  0  0
  8 31  1  0  0  0  0
  8 32  1  0  0  0  0
  8 33  1  0  0  0  0
  9 10  1  0  0  0  0
  9 34  1  0  0  0  0
  9 35  1  0  0  0  0
 10 11  1  0  0  0  0
 10 36  1  0  0  0  0
 11 12  2  0  0  0  0
 11 13  1  0  0  0  0
 13 14  1  0  0  0  0
 13 37  1  0  0  0  0
 14 18  1  0  0  0  0
 14 15  2  0  0  0  0
 15 16  1  0  0  0  0
 16 17  2  0  0  0  0
 16 38  1  0  0  0  0
 17 18  1  0  0  0  0
 17 39  1  0  0  0  0
 19 20  1  0  0  0  0
 19 40  1  0  0  0  0
 19 41  1  0  0  0  0
 20 42  1  0  0  0  0
 20 43  1  0  0  0  0
M  END
> <s_m_source_file>
AV-unprocessed.smi

> <i_m_source_file_index>
1971

> <i_lp_mmshare_version>
43012

> <i_f3d_flags>
0

> <s_epik_input>
W0NIM11bQ0gyXU4xW0NIMl1bQ0gyXU4oW0NIMl1bQ0gyXTEpW0NASF0oW0NIM10pW0NIMl1bTkhdQyg9TylbTkhdYzJuW2NIXVtjSF1zMg==

> <s_epik_cmdline>
J2VwaWtfcHl0aG9uJywgJy1waCcsICc3LjAnLCAnLXRuJywgJzgnLCAnLW1hJywgJzIwMCcsICctbWV0YWxfYmluZGluZycsICctaW1hZScsICc8aW5maWxlLm1hZT4nLCAnLW9tYWUnLCAnPG91dGZpbGUubWFlPic=

> <r_lp_tautomer_probability>
0.999

> <r_epik_Ionization_Penalty>
2.43994

> <r_epik_Ionization_Penalty_Charging>
0

> <r_epik_Ionization_Penalty_Neutral>
2.43994

> <r_epik_State_Penalty>
1.7682

> <r_epik_Charging_Adjusted_Penalty>
1.7682

> <i_epik_Tot_Q>
0

> <i_epik_Tot_abs_Q>
0

> <r_epik_Metal_State_Penalty>
1.80147

> <b_epik_Metal_Only>
0

> <s_lp_Force_Field>
OPLS_2005

> <r_lp_Energy>
42.0055

> <b_lp_Chiralities_Consistent>
1

> <s_lp_Variant>
AV-unprocessed.smi:1971-5

> <Gold.Version>
5.8.1

> <Gold.Id.Protein>
6NUR|6NUR_protein|mol2

> <Gold.PLP.Fitness>
41.2493

> <Gold.PLP.PLP>
-30.8611

> <Gold.PLP.part.hbond>
-1.9672

> <Gold.PLP.part.metal>
0.0000

> <Gold.PLP.part.buried>
-4.9420

> <Gold.PLP.part.nonpolar>
-26.5192

> <Gold.PLP.part.repulsive>
0.1948

> <Gold.PLP.ligand.clash>
0.0000

> <Gold.PLP.ligand.torsion>
0.5788

> <Gold.PLP.Chemscore.Hbond>
1.8318

> <Gold.PLP.Chemscore.CHOScore>
2.0000

> <Gold.PLP.Chemscore.Metal>
0.0000

> <Gold.Chemscore.Hbonds>
donor molecule, donor type, donor heavy atom, donor atom, acceptor molecule, acceptor atom, score
      L1  H    10    36       P1  7948  0.83
      L1  H    13    37       P1  7948  1.00
      L1  C    16    38       P1 10957  1.00
      L1  C    17    39       P1 10186  1.00

> <Gold.PLP.Chemscore.Internal.Correction>
0.0502

> <Gold.Rescore>
     Score         DG    S(hbond)    S(metal)    S(lipo)     H(rot)  DE(clash)    DE(int)     intcor
     16.56     -17.25       1.95        0.00      83.19       1.75       0.01       0.68       ----

> <Gold.Chemscore.Fitness>
16.5582

> <Gold.Chemscore.DG>
-17.2524

> <Gold.Chemscore.ZeroCoef>
-5.4800

> <Gold.Chemscore.Hbond>
1.9496

> <Gold.Chemscore.Metal>
0.0000

> <Gold.Chemscore.Lipo>
83.1945

> <Gold.Chemscore.Internal_Hbond>
0.0000

> <Gold.Chemscore.DEClash>
0.0109

> <Gold.Chemscore.DEInternal>
0.6833

> <Gold.Chemscore.Rot>
1.7473

> <Gold.Chemscore.Internal.Correction>
   9.000000E+99

> <Gold.Chemscore.Hbonds>
donor molecule, donor type, donor heavy atom, donor atom, acceptor molecule, acceptor atom, score
      L1  H    10    36       P1  7948  0.77
      L1  H    13    37       P1  7948  0.97

> <Gold.Chemscore.Hbond.Weighted>
-6.5117

> <Gold.Chemscore.Metal.Weighted>
-0.0000

> <Gold.Chemscore.Lipo.Weighted>
-9.7338

> <Gold.Chemscore.Internal_Hbond.Weighted>
0.0000

> <Gold.Chemscore.DEClash.Weighted>
0.0109

> <Gold.Chemscore.DEInternal.Weighted>
0.6833

> <Gold.Chemscore.Rot.Weighted>
4.4731

> <Gold.Chemscore.Internal.Correction.Weighted>
   9.000000E+99

> <Gold.Protein.RotatedTorsions>
[ 6907 6896 6895 6894 ] final  -13.87 input  -60.11 | X-H torsion
[ 7974 7965 7964 7962 ] final   73.82 input  175.53 | X-H torsion
[ 8008 7997 7996 7995 ] final   -9.07 input   59.86 | X-H torsion
[ 10167 10162 10161 10158 ] final  -80.05 input  -65.29 | X-H torsion
[ 10718 10713 10712 10709 ] final -118.23 input   66.30 | X-H torsion
[ 10763 10752 10751 10750 ] final  -20.29 input  -60.55 | X-H torsion
[ 11005 11000 10999 10996 ] final -157.33 input  -57.11 | X-H torsion

> <Gold.Protein.ActiveResidues>
 VAL166  LYS551  ARG553  GLY616  TRP617  ASP618  TYR619  PRO620  LYS621  CYS622 
 ASP623  PHE694  ASN695  SER759  ASP760  ASP761  ALA762  ILE779  LEU786  VAL792 
 PHE793  MET794  SER795  GLU796  ALA797  LYS798  CYS799  TRP800  GLU811  SER814 

> <Gold.Protein.RotatedAtoms>
  151.3481  135.0878  159.9393 H   0  0  0  0  0  0  0  0  0  0  0  0  # atno 6907 bound_to 6896
  152.5194  133.9380  159.7623 H   0  0  0  0  0  0  0  0  0  0  0  0  # atno 6908 bound_to 6896
  150.9750  133.6251  159.2761 H   0  0  0  0  0  0  0  0  0  0  0  0  # atno 6909 bound_to 6896
  145.7360  139.2702  143.1514 H   0  0  0  0  0  0  0  0  0  0  0  0  # atno 7974 bound_to 7965
  154.5681  140.2364  155.8233 H   0  0  0  0  0  0  0  0  0  0  0  0  # atno 8008 bound_to 7997
  156.2084  140.3033  155.9637 H   0  0  0  0  0  0  0  0  0  0  0  0  # atno 8009 bound_to 7997
  155.2763  140.0420  157.3002 H   0  0  0  0  0  0  0  0  0  0  0  0  # atno 8010 bound_to 7997
  140.4538  143.2474  151.8449 H   0  0  0  0  0  0  0  0  0  0  0  0  # atno 10167 bound_to 10162
  156.1091  130.6234  150.9264 H   0  0  0  0  0  0  0  0  0  0  0  0  # atno 10718 bound_to 10713
  153.6181  135.6994  153.5321 H   0  0  0  0  0  0  0  0  0  0  0  0  # atno 10763 bound_to 10752
  153.2961  135.4143  155.1210 H   0  0  0  0  0  0  0  0  0  0  0  0  # atno 10764 bound_to 10752
  154.8549  135.3637  154.5721 H   0  0  0  0  0  0  0  0  0  0  0  0  # atno 10765 bound_to 10752
  140.6658  134.4300  157.5233 H   0  0  0  0  0  0  0  0  0  0  0  0  # atno 11005 bound_to 11000
  146.0493  140.8086  142.9790 LP  0  0  0  0  0  0  0  0  0  0  0  0  # atno 17320 bound_to 7965
  144.6881  140.3028  143.7260 LP  0  0  0  0  0  0  0  0  0  0  0  0  # atno 17321 bound_to 7965
  139.4799  144.5088  151.8960 LP  0  0  0  0  0  0  0  0  0  0  0  0  # atno 17342 bound_to 10162
  140.4175  144.2287  150.5887 LP  0  0  0  0  0  0  0  0  0  0  0  0  # atno 17343 bound_to 10162
  157.6270  131.0924  150.8514 LP  0  0  0  0  0  0  0  0  0  0  0  0  # atno 17370 bound_to 10713
  156.8628  130.5119  149.5302 LP  0  0  0  0  0  0  0  0  0  0  0  0  # atno 17371 bound_to 10713
  139.8998  134.8584  156.1946 LP  0  0  0  0  0  0  0  0  0  0  0  0  # atno 17394 bound_to 11000
  141.0430  133.6928  156.1632 LP  0  0  0  0  0  0  0  0  0  0  0  0  # atno 17395 bound_to 11000

$$$$
