AV-unprocessed.smi:890|AV-procd|sdf|4059|dock1
  -GOLD-   22720 1543D 1   1.00000     0.00000
 Structure written by MMmdl.
 51 54  0  0  0  0  0  0  0  0  1 V2000
  146.0267  136.8993  153.8649 O   0  0  0  0  0  0  0  0  0  0  0  0
  145.4401  137.8875  153.4234 C   0  0  0  0  0  0  0  0  0  0  0  0
  144.1468  137.9222  153.0613 N   0  0  0  0  0  0  0  0  0  0  0  0
  143.1861  136.8728  153.1164 C   0  0  0  0  0  0  0  0  0  0  0  0
  141.8400  137.1151  153.4843 C   0  0  0  0  0  0  0  0  0  0  0  0
  140.9347  136.0414  153.5367 C   0  0  0  0  0  0  0  0  0  0  0  0
  141.4073  134.7580  153.2162 C   0  0  0  0  0  0  0  0  0  0  0  0
  142.6800  134.5132  152.8460 N   0  0  0  0  0  0  0  0  0  0  0  0
  143.5611  135.5413  152.7758 C   0  0  0  0  0  0  0  0  0  0  0  0
  144.8759  135.2284  152.3608 N   0  0  0  0  0  0  0  0  0  0  0  0
  145.6746  134.2584  153.1022 C   0  0  0  0  0  0  0  0  0  0  0  0
  146.8269  133.9009  152.1679 C   0  0  0  0  0  0  0  0  0  0  0  0
  146.1573  133.9400  150.7978 C   0  0  0  0  0  0  0  0  0  0  0  0
  145.1220  135.0621  150.9315 C   0  0  0  0  0  0  0  0  0  0  0  0
  146.0273  139.0753  153.2208 N   0  0  0  0  0  0  0  0  0  0  0  0
  147.4278  139.3926  153.4849 C   0  0  0  0  0  0  0  0  0  0  0  0
  147.8671  138.7517  154.8104 C   0  0  0  0  0  0  0  0  0  0  0  0
  149.2843  139.2053  155.2009 C   0  0  0  0  0  0  0  0  0  0  0  0
  149.3313  140.6627  155.3178 N   0  0  0  0  0  0  0  0  0  0  0  0
  150.6645  141.0580  155.7415 C   0  0  0  0  0  0  0  0  0  0  0  0
  150.9149  141.1923  157.2264 C   0  0  0  0  0  0  0  0  0  0  0  0
  150.8233  142.4272  156.3629 C   0  0  0  0  0  0  0  0  0  0  0  0
  149.0465  141.2726  154.0187 C   0  0  0  0  0  0  0  0  0  0  0  0
  147.6197  140.9160  153.5651 C   0  0  0  0  0  0  0  0  0  0  0  0
  143.8341  138.7700  152.6116 H   0  0  0  0  0  0  0  0  0  0  0  0
  141.4854  138.1074  153.7176 H   0  0  0  0  0  0  0  0  0  0  0  0
  139.9036  136.1985  153.8167 H   0  0  0  0  0  0  0  0  0  0  0  0
  140.7444  133.9062  153.2489 H   0  0  0  0  0  0  0  0  0  0  0  0
  146.0305  134.6747  154.0450 H   0  0  0  0  0  0  0  0  0  0  0  0
  145.0939  133.3612  153.3203 H   0  0  0  0  0  0  0  0  0  0  0  0
  147.6049  134.6636  152.2246 H   0  0  0  0  0  0  0  0  0  0  0  0
  147.2780  132.9352  152.3976 H   0  0  0  0  0  0  0  0  0  0  0  0
  146.8621  134.1081  149.9831 H   0  0  0  0  0  0  0  0  0  0  0  0
  145.6492  132.9924  150.6127 H   0  0  0  0  0  0  0  0  0  0  0  0
  144.2091  134.8288  150.3811 H   0  0  0  0  0  0  0  0  0  0  0  0
  145.5299  135.9922  150.5350 H   0  0  0  0  0  0  0  0  0  0  0  0
  145.4606  139.8232  152.8482 H   0  0  0  0  0  0  0  0  0  0  0  0
  148.0682  139.0031  152.6912 H   0  0  0  0  0  0  0  0  0  0  0  0
  147.1705  139.0202  155.6064 H   0  0  0  0  0  0  0  0  0  0  0  0
  147.8373  137.6647  154.7266 H   0  0  0  0  0  0  0  0  0  0  0  0
  149.5596  138.7535  156.1545 H   0  0  0  0  0  0  0  0  0  0  0  0
  150.0105  138.8617  154.4619 H   0  0  0  0  0  0  0  0  0  0  0  0
  151.5169  140.7122  155.1591 H   0  0  0  0  0  0  0  0  0  0  0  0
  150.0870  140.9925  157.9043 H   0  0  0  0  0  0  0  0  0  0  0  0
  151.8981  140.9087  157.5960 H   0  0  0  0  0  0  0  0  0  0  0  0
  151.7455  142.9670  156.1580 H   0  0  0  0  0  0  0  0  0  0  0  0
  149.9346  143.0467  156.4680 H   0  0  0  0  0  0  0  0  0  0  0  0
  149.1414  142.3564  154.0970 H   0  0  0  0  0  0  0  0  0  0  0  0
  149.7750  140.9398  153.2775 H   0  0  0  0  0  0  0  0  0  0  0  0
  147.4168  141.3695  152.5942 H   0  0  0  0  0  0  0  0  0  0  0  0
  146.9016  141.3475  154.2644 H   0  0  0  0  0  0  0  0  0  0  0  0
  1  2  2  0  0  0  0
  2  3  1  0  0  0  0
  2 15  1  0  0  0  0
  3  4  1  0  0  0  0
  3 25  1  0  0  0  0
  4  9  1  0  0  0  0
  4  5  2  0  0  0  0
  5  6  1  0  0  0  0
  5 26  1  0  0  0  0
  6  7  2  0  0  0  0
  6 27  1  0  0  0  0
  7  8  1  0  0  0  0
  7 28  1  0  0  0  0
  8  9  2  0  0  0  0
  9 10  1  0  0  0  0
 10 14  1  0  0  0  0
 10 11  1  0  0  0  0
 11 12  1  0  0  0  0
 11 29  1  0  0  0  0
 11 30  1  0  0  0  0
 12 13  1  0  0  0  0
 12 31  1  0  0  0  0
 12 32  1  0  0  0  0
 13 14  1  0  0  0  0
 13 33  1  0  0  0  0
 13 34  1  0  0  0  0
 14 35  1  0  0  0  0
 14 36  1  0  0  0  0
 15 16  1  0  0  0  0
 15 37  1  0  0  0  0
 16 24  1  0  0  0  0
 16 17  1  0  0  0  0
 16 38  1  0  0  0  0
 17 18  1  0  0  0  0
 17 39  1  0  0  0  0
 17 40  1  0  0  0  0
 18 19  1  0  0  0  0
 18 41  1  0  0  0  0
 18 42  1  0  0  0  0
 19 20  1  0  0  0  0
 19 23  1  0  0  0  0
 20 22  1  0  0  0  0
 20 21  1  0  0  0  0
 20 43  1  0  0  0  0
 21 22  1  0  0  0  0
 21 44  1  0  0  0  0
 21 45  1  0  0  0  0
 22 46  1  0  0  0  0
 22 47  1  0  0  0  0
 23 24  1  0  0  0  0
 23 48  1  0  0  0  0
 23 49  1  0  0  0  0
 24 50  1  0  0  0  0
 24 51  1  0  0  0  0
M  END
> <s_m_source_file>
AV-unprocessed.smi

> <i_m_source_file_index>
890

> <i_lp_mmshare_version>
43012

> <i_f3d_flags>
0

> <s_epik_input>
W0NIMl0xW0NIMl1bQ0hdMU4oW0NIMl1bQ0gyXTIpW0NIMl1bQ0gyXVtDSF0yW05IXUMoPU8pW05IXWMzW2NIXVtjSF1bY0hdbmMzTjRbQ0gyXVtDSDJdW0NIMl1bQ0gyXTQ=

> <s_epik_cmdline>
J2VwaWtfcHl0aG9uJywgJy1waCcsICc3LjAnLCAnLXRuJywgJzgnLCAnLW1hJywgJzIwMCcsICctbWV0YWxfYmluZGluZycsICctaW1hZScsICc8aW5maWxlLm1hZT4nLCAnLW9tYWUnLCAnPG91dGZpbGUubWFlPic=

> <r_lp_tautomer_probability>
1

> <r_epik_Ionization_Penalty>
1.12957

> <r_epik_Ionization_Penalty_Charging>
0

> <r_epik_Ionization_Penalty_Neutral>
1.12957

> <r_epik_State_Penalty>
1.1789

> <r_epik_Charging_Adjusted_Penalty>
1.1789

> <i_epik_Tot_Q>
0

> <i_epik_Tot_abs_Q>
0

> <r_epik_Metal_State_Penalty>
1.14786

> <b_epik_Metal_Only>
0

> <s_lp_Force_Field>
OPLS_2005

> <r_lp_Energy>
50.3158

> <b_lp_Chiralities_Consistent>
1

> <s_lp_Variant>
AV-unprocessed.smi:890-3

> <Gold.Version>
5.8.1

> <Gold.Id.Protein>
6NUR|6NUR_protein|mol2

> <Gold.PLP.Fitness>
43.7040

> <Gold.PLP.PLP>
-39.1204

> <Gold.PLP.part.hbond>
-2.0000

> <Gold.PLP.part.metal>
0.0000

> <Gold.PLP.part.buried>
-3.4120

> <Gold.PLP.part.nonpolar>
-32.8567

> <Gold.PLP.part.repulsive>
0.4661

> <Gold.PLP.ligand.clash>
0.0000

> <Gold.PLP.ligand.torsion>
1.4139

> <Gold.PLP.Chemscore.Hbond>
1.9600

> <Gold.PLP.Chemscore.CHOScore>
0.0000

> <Gold.PLP.Chemscore.Metal>
0.0000

> <Gold.Chemscore.Hbonds>
donor molecule, donor type, donor heavy atom, donor atom, acceptor molecule, acceptor atom, score
      L1  H     3    25       P1 10175  1.00
      L1  H    15    37       P1 10175  0.94

> <Gold.PLP.Chemscore.Internal.Correction>
1.5313

> <Gold.Rescore>
     Score         DG    S(hbond)    S(metal)    S(lipo)     H(rot)  DE(clash)    DE(int)     intcor
     11.01     -19.03       1.94        0.00      89.06       1.30       0.08       7.94       ----

> <Gold.Chemscore.Fitness>
11.0144

> <Gold.Chemscore.DG>
-19.0308

> <Gold.Chemscore.ZeroCoef>
-5.4800

> <Gold.Chemscore.Hbond>
1.9366

> <Gold.Chemscore.Metal>
0.0000

> <Gold.Chemscore.Lipo>
89.0599

> <Gold.Chemscore.Internal_Hbond>
0.0000

> <Gold.Chemscore.DEClash>
0.0797

> <Gold.Chemscore.DEInternal>
7.9367

> <Gold.Chemscore.Rot>
1.3037

> <Gold.Chemscore.Internal.Correction>
   9.000000E+99

> <Gold.Chemscore.Hbonds>
donor molecule, donor type, donor heavy atom, donor atom, acceptor molecule, acceptor atom, score
      L1  H     3    25       P1 10175  0.98
      L1  H    15    37       P1 10175  0.90

> <Gold.Chemscore.Hbond.Weighted>
-6.4684

> <Gold.Chemscore.Metal.Weighted>
-0.0000

> <Gold.Chemscore.Lipo.Weighted>
-10.4200

> <Gold.Chemscore.Internal_Hbond.Weighted>
0.0000

> <Gold.Chemscore.DEClash.Weighted>
0.0797

> <Gold.Chemscore.DEInternal.Weighted>
7.9367

> <Gold.Chemscore.Rot.Weighted>
3.3376

> <Gold.Chemscore.Internal.Correction.Weighted>
   9.000000E+99

> <Gold.Protein.RotatedTorsions>
[ 6907 6896 6895 6894 ] final  171.57 input  -60.11 | X-H torsion
[ 7974 7965 7964 7962 ] final  152.88 input  175.53 | X-H torsion
[ 8008 7997 7996 7995 ] final  143.77 input   59.86 | X-H torsion
[ 10167 10162 10161 10158 ] final  158.22 input  -65.29 | X-H torsion
[ 10718 10713 10712 10709 ] final -116.44 input   66.30 | X-H torsion
[ 10763 10752 10751 10750 ] final    1.14 input  -60.55 | X-H torsion
[ 11005 11000 10999 10996 ] final  137.12 input  -57.11 | X-H torsion

> <Gold.Protein.ActiveResidues>
 VAL166  LYS551  ARG553  GLY616  TRP617  ASP618  TYR619  PRO620  LYS621  CYS622 
 ASP623  PHE694  ASN695  SER759  ASP760  ASP761  ALA762  ILE779  LEU786  VAL792 
 PHE793  MET794  SER795  GLU796  ALA797  LYS798  CYS799  TRP800  GLU811  SER814 

> <Gold.Protein.RotatedAtoms>
  151.7982  133.3367  159.3518 H   0  0  0  0  0  0  0  0  0  0  0  0  # atno 6907 bound_to 6896
  150.7368  134.5779  159.5933 H   0  0  0  0  0  0  0  0  0  0  0  0  # atno 6908 bound_to 6896
  152.3162  134.7438  160.0376 H   0  0  0  0  0  0  0  0  0  0  0  0  # atno 6909 bound_to 6896
  144.8192  139.6727  143.6108 H   0  0  0  0  0  0  0  0  0  0  0  0  # atno 7974 bound_to 7965
  156.2923  140.2253  156.4944 H   0  0  0  0  0  0  0  0  0  0  0  0  # atno 8008 bound_to 7997
  154.7743  140.0464  157.1098 H   0  0  0  0  0  0  0  0  0  0  0  0  # atno 8009 bound_to 7997
  154.9836  140.3081  155.4939 H   0  0  0  0  0  0  0  0  0  0  0  0  # atno 8010 bound_to 7997
  139.4826  144.4845  151.8397 H   0  0  0  0  0  0  0  0  0  0  0  0  # atno 10167 bound_to 10162
  156.0964  130.6136  150.9036 H   0  0  0  0  0  0  0  0  0  0  0  0  # atno 10718 bound_to 10713
  153.3117  135.6963  153.7109 H   0  0  0  0  0  0  0  0  0  0  0  0  # atno 10763 bound_to 10752
  153.5984  135.3466  155.2937 H   0  0  0  0  0  0  0  0  0  0  0  0  # atno 10764 bound_to 10752
  154.8577  135.4334  154.2257 H   0  0  0  0  0  0  0  0  0  0  0  0  # atno 10765 bound_to 10752
  140.0092  134.9446  157.0242 H   0  0  0  0  0  0  0  0  0  0  0  0  # atno 11005 bound_to 11000
  146.2497  139.6173  142.9435 LP  0  0  0  0  0  0  0  0  0  0  0  0  # atno 17320 bound_to 7965
  145.5144  141.0434  143.2470 LP  0  0  0  0  0  0  0  0  0  0  0  0  # atno 17321 bound_to 7965
  140.4324  144.2098  150.5888 LP  0  0  0  0  0  0  0  0  0  0  0  0  # atno 17342 bound_to 10162
  140.4766  143.2394  151.9014 LP  0  0  0  0  0  0  0  0  0  0  0  0  # atno 17343 bound_to 10162
  157.6126  131.0935  150.8768 LP  0  0  0  0  0  0  0  0  0  0  0  0  # atno 17370 bound_to 10713
  156.8905  130.5211  149.5286 LP  0  0  0  0  0  0  0  0  0  0  0  0  # atno 17371 bound_to 10713
  140.4585  134.1509  155.7188 LP  0  0  0  0  0  0  0  0  0  0  0  0  # atno 17394 bound_to 11000
  141.1699  133.8629  157.1602 LP  0  0  0  0  0  0  0  0  0  0  0  0  # atno 17395 bound_to 11000

$$$$
