AV-unprocessed.smi:3162|AV-procd|sdf|12064|dock7
  -GOLD-   2272017493D 1   1.00000     0.00000
 Structure written by MMmdl.
 37 37  0  0  0  0  0  0  0  0  2 V2000
  145.7597  137.6198  155.1938 C   0  0  0  0  0  0  0  0  0  0  0  0
  147.0874  137.5358  154.4242 C   0  0  0  0  0  0  0  0  0  0  0  0
  147.3133  138.6736  153.4047 C   0  0  1  0  0  0  0  0  0  0  0  0
  148.7513  138.7254  153.0456 N   0  3  0  0  0  0  0  0  0  0  0  0
  149.6908  139.0557  154.1434 C   0  0  2  0  0  0  0  0  0  0  0  0
  150.2032  137.7531  154.7799 C   0  0  0  0  0  0  0  0  0  0  0  0
  149.0225  139.9913  155.1771 C   0  0  0  0  0  0  0  0  0  0  0  0
  149.9843  140.7125  155.9902 N   0  0  0  0  0  0  0  0  0  0  0  0
  150.0846  142.0713  156.2023 C   0  0  0  0  0  0  0  0  0  0  0  0
  151.1486  142.2794  157.0335 C   0  0  0  0  0  0  0  0  0  0  0  0
  151.6784  143.5763  157.5737 C   0  0  0  0  0  0  0  0  0  0  0  0
  151.6445  140.9661  157.2718 C   0  0  0  0  0  0  0  0  0  0  0  0
  150.9490  140.0320  156.6439 N   0  0  0  0  0  0  0  0  0  0  0  0
  146.4457  138.4808  152.1500 C   0  0  0  0  0  0  0  0  0  0  0  0
  145.1242  138.3985  152.3255 N   0  0  0  0  0  0  0  0  0  0  0  0
  146.9639  138.4016  151.0376 O   0  0  0  0  0  0  0  0  0  0  0  0
  145.7010  136.8331  155.9464 H   0  0  0  0  0  0  0  0  0  0  0  0
  144.9004  137.5016  154.5332 H   0  0  0  0  0  0  0  0  0  0  0  0
  145.6614  138.5768  155.7072 H   0  0  0  0  0  0  0  0  0  0  0  0
  147.8979  137.5510  155.1541 H   0  0  0  0  0  0  0  0  0  0  0  0
  147.1544  136.5673  153.9258 H   0  0  0  0  0  0  0  0  0  0  0  0
  147.0394  139.6133  153.8856 H   0  0  0  0  0  0  0  0  0  0  0  0
  149.0241  137.8322  152.6620 H   0  0  0  0  0  0  0  0  0  0  0  0
  150.5566  139.5632  153.7161 H   0  0  0  0  0  0  0  0  0  0  0  0
  150.9680  137.9476  155.5321 H   0  0  0  0  0  0  0  0  0  0  0  0
  150.6506  137.1010  154.0292 H   0  0  0  0  0  0  0  0  0  0  0  0
  149.3952  137.2011  155.2613 H   0  0  0  0  0  0  0  0  0  0  0  0
  148.3851  140.7278  154.6878 H   0  0  0  0  0  0  0  0  0  0  0  0
  148.3755  139.4158  155.8408 H   0  0  0  0  0  0  0  0  0  0  0  0
  149.3964  142.7714  155.7514 H   0  0  0  0  0  0  0  0  0  0  0  0
  152.7391  143.5101  157.8167 H   0  0  0  0  0  0  0  0  0  0  0  0
  151.1578  143.8740  158.4839 H   0  0  0  0  0  0  0  0  0  0  0  0
  151.5646  144.3896  156.8567 H   0  0  0  0  0  0  0  0  0  0  0  0
  152.4863  140.6662  157.8785 H   0  0  0  0  0  0  0  0  0  0  0  0
  144.5119  138.2753  151.5317 H   0  0  0  0  0  0  0  0  0  0  0  0
  144.7384  138.4635  153.2569 H   0  0  0  0  0  0  0  0  0  0  0  0
  148.8483  139.4255  152.3238 H   0  0  0  0  0  0  0  0  0  0  0  0
  1  2  1  0  0  0  0
  1 17  1  0  0  0  0
  1 18  1  0  0  0  0
  1 19  1  0  0  0  0
  2  3  1  0  0  0  0
  2 20  1  0  0  0  0
  2 21  1  0  0  0  0
  3  4  1  0  0  0  0
  3 14  1  0  0  0  0
  3 22  1  0  0  0  0
  4  5  1  0  0  0  0
  4 23  1  0  0  0  0
  4 37  1  0  0  0  0
  5  6  1  0  0  0  0
  5  7  1  0  0  0  0
  5 24  1  0  0  0  0
  6 25  1  0  0  0  0
  6 26  1  0  0  0  0
  6 27  1  0  0  0  0
  7  8  1  0  0  0  0
  7 28  1  0  0  0  0
  7 29  1  0  0  0  0
  8 13  1  0  0  0  0
  8  9  1  0  0  0  0
  9 10  2  0  0  0  0
  9 30  1  0  0  0  0
 10 11  1  0  0  0  0
 10 12  1  0  0  0  0
 11 31  1  0  0  0  0
 11 32  1  0  0  0  0
 11 33  1  0  0  0  0
 12 13  2  0  0  0  0
 12 34  1  0  0  0  0
 14 15  1  0  0  0  0
 14 16  2  0  0  0  0
 15 35  1  0  0  0  0
 15 36  1  0  0  0  0
M  CHG  1   4   1
M  END
> <s_m_source_file>
AV-unprocessed.smi

> <i_m_source_file_index>
3162

> <i_lp_mmshare_version>
43012

> <i_f3d_flags>
0

> <s_epik_input>
W0NIM11bQ0gyXVtDQEBIXShDKD1PKVtOSDJdKVtOSF1bQ0BIXShbQ0gzXSlbQ0gyXW4xW2NIXWMoW0NIM10pW2NIXW4x

> <s_epik_cmdline>
J2VwaWtfcHl0aG9uJywgJy1waCcsICc3LjAnLCAnLXRuJywgJzgnLCAnLW1hJywgJzIwMCcsICctbWV0YWxfYmluZGluZycsICctaW1hZScsICc8aW5maWxlLm1hZT4nLCAnLW9tYWUnLCAnPG91dGZpbGUubWFlPic=

> <r_lp_tautomer_probability>
1

> <r_epik_Ionization_Penalty>
0.112112

> <r_epik_Ionization_Penalty_Charging>
0.112102

> <r_epik_Ionization_Penalty_Neutral>
9.73799e-06

> <r_epik_State_Penalty>
0.101811

> <r_epik_Charging_Adjusted_Penalty>
0.213914

> <i_epik_Tot_Q>
1

> <i_epik_Tot_abs_Q>
1

> <r_epik_Metal_State_Penalty>
0.101821

> <b_epik_Metal_Only>
0

> <s_lp_Force_Field>
OPLS_2005

> <r_lp_Energy>
4.43066

> <b_lp_Chiralities_Consistent>
1

> <s_lp_Variant>
AV-unprocessed.smi:3162-2

> <Gold.Version>
5.8.1

> <Gold.Id.Protein>
6NUR|6NUR_protein|mol2

> <Gold.PLP.Fitness>
42.1820

> <Gold.PLP.PLP>
-25.6277

> <Gold.PLP.part.hbond>
-4.7314

> <Gold.PLP.part.metal>
0.0000

> <Gold.PLP.part.buried>
-3.3116

> <Gold.PLP.part.nonpolar>
-20.7276

> <Gold.PLP.part.repulsive>
1.5617

> <Gold.PLP.ligand.clash>
0.0000

> <Gold.PLP.ligand.torsion>
0.7537

> <Gold.PLP.Chemscore.Hbond>
4.9760

> <Gold.PLP.Chemscore.CHOScore>
1.0000

> <Gold.PLP.Chemscore.Metal>
0.0000

> <Gold.Chemscore.Hbonds>
donor molecule, donor type, donor heavy atom, donor atom, acceptor molecule, acceptor atom, score
      L1  H     4    23       P1  7948  2.00
      L1  H     4    37       P1  7957  0.94
      L1  H    15    35       P1 10171  1.00
      P1  H  7954  7966       L1    16  1.00
      L1  C     9    30       P1  8028  0.96

> <Gold.PLP.Chemscore.Internal.Correction>
0.1338

> <Gold.Rescore>
     Score         DG    S(hbond)    S(metal)    S(lipo)     H(rot)  DE(clash)    DE(int)     intcor
     17.50     -19.13       3.94        0.00      59.01       2.51       0.59       1.03       ----

> <Gold.Chemscore.Fitness>
17.4995

> <Gold.Chemscore.DG>
-19.1252

> <Gold.Chemscore.ZeroCoef>
-5.4800

> <Gold.Chemscore.Hbond>
3.9391

> <Gold.Chemscore.Metal>
0.0000

> <Gold.Chemscore.Lipo>
59.0122

> <Gold.Chemscore.Internal_Hbond>
0.0000

> <Gold.Chemscore.DEClash>
0.5948

> <Gold.Chemscore.DEInternal>
1.0309

> <Gold.Chemscore.Rot>
2.5062

> <Gold.Chemscore.Internal.Correction>
   9.000000E+99

> <Gold.Chemscore.Hbonds>
donor molecule, donor type, donor heavy atom, donor atom, acceptor molecule, acceptor atom, score
      L1  H     4    23       P1  7948  0.99
      L1  H     4    37       P1  7957  0.86
      L1  H    15    35       P1 10171  0.98
      P1  H  7954  7966       L1    16  0.99

> <Gold.Chemscore.Hbond.Weighted>
-13.1566

> <Gold.Chemscore.Metal.Weighted>
-0.0000

> <Gold.Chemscore.Lipo.Weighted>
-6.9044

> <Gold.Chemscore.Internal_Hbond.Weighted>
0.0000

> <Gold.Chemscore.DEClash.Weighted>
0.5948

> <Gold.Chemscore.DEInternal.Weighted>
1.0309

> <Gold.Chemscore.Rot.Weighted>
6.4159

> <Gold.Chemscore.Internal.Correction.Weighted>
   9.000000E+99

> <Gold.Protein.RotatedTorsions>
[ 6907 6896 6895 6894 ] final  -82.27 input  -60.11 | X-H torsion
[ 7974 7965 7964 7962 ] final  159.31 input  175.53 | X-H torsion
[ 8008 7997 7996 7995 ] final -114.26 input   59.86 | X-H torsion
[ 10167 10162 10161 10158 ] final  156.75 input  -65.29 | X-H torsion
[ 10718 10713 10712 10709 ] final  -73.54 input   66.30 | X-H torsion
[ 10763 10752 10751 10750 ] final   52.17 input  -60.55 | X-H torsion
[ 11005 11000 10999 10996 ] final -101.13 input  -57.11 | X-H torsion

> <Gold.Protein.ActiveResidues>
 VAL166  LYS551  ARG553  GLY616  TRP617  ASP618  TYR619  PRO620  LYS621  CYS622 
 ASP623  PHE694  ASN695  SER759  ASP760  ASP761  ALA762  ILE779  LEU786  VAL792 
 PHE793  MET794  SER795  GLU796  ALA797  LYS798  CYS799  TRP800  GLU811  SER814 

> <Gold.Protein.RotatedAtoms>
  150.6900  134.3691  159.4983 H   0  0  0  0  0  0  0  0  0  0  0  0  # atno 6907 bound_to 6896
  152.1509  134.8986  160.0557 H   0  0  0  0  0  0  0  0  0  0  0  0  # atno 6908 bound_to 6896
  152.0084  133.3817  159.4247 H   0  0  0  0  0  0  0  0  0  0  0  0  # atno 6909 bound_to 6896
  144.7797  139.7599  143.6264 H   0  0  0  0  0  0  0  0  0  0  0  0  # atno 7974 bound_to 7965
  155.0336  140.0393  157.2483 H   0  0  0  0  0  0  0  0  0  0  0  0  # atno 8008 bound_to 7997
  154.7276  140.2724  155.6461 H   0  0  0  0  0  0  0  0  0  0  0  0  # atno 8009 bound_to 7997
  156.2833  140.2690  156.1966 H   0  0  0  0  0  0  0  0  0  0  0  0  # atno 8010 bound_to 7997
  139.4821  144.4981  151.8210 H   0  0  0  0  0  0  0  0  0  0  0  0  # atno 10167 bound_to 10162
  156.0276  130.4396  150.2758 H   0  0  0  0  0  0  0  0  0  0  0  0  # atno 10718 bound_to 10713
  152.9788  135.5821  154.4535 H   0  0  0  0  0  0  0  0  0  0  0  0  # atno 10763 bound_to 10752
  154.4121  135.2770  155.2032 H   0  0  0  0  0  0  0  0  0  0  0  0  # atno 10764 bound_to 10752
  154.3818  135.6145  153.5849 H   0  0  0  0  0  0  0  0  0  0  0  0  # atno 10765 bound_to 10752
  141.1243  133.8453  157.1192 H   0  0  0  0  0  0  0  0  0  0  0  0  # atno 11005 bound_to 11000
  146.1998  139.5287  142.9750 LP  0  0  0  0  0  0  0  0  0  0  0  0  # atno 17320 bound_to 7965
  145.6084  141.0344  143.1980 LP  0  0  0  0  0  0  0  0  0  0  0  0  # atno 17321 bound_to 7965
  140.4471  144.1906  150.5895 LP  0  0  0  0  0  0  0  0  0  0  0  0  # atno 17342 bound_to 10162
  140.4623  143.2444  151.9202 LP  0  0  0  0  0  0  0  0  0  0  0  0  # atno 17343 bound_to 10162
  157.0861  131.0157  151.3139 LP  0  0  0  0  0  0  0  0  0  0  0  0  # atno 17370 bound_to 10713
  157.4890  130.7810  149.7488 LP  0  0  0  0  0  0  0  0  0  0  0  0  # atno 17371 bound_to 10713
  140.0227  134.9938  157.0625 LP  0  0  0  0  0  0  0  0  0  0  0  0  # atno 17394 bound_to 11000
  140.4412  134.1679  155.7174 LP  0  0  0  0  0  0  0  0  0  0  0  0  # atno 17395 bound_to 11000

$$$$
