AV-unprocessed.smi:3239|AV-procd|sdf|12379|dock8
  -GOLD-   2272018243D 1   1.00000     0.00000
 Structure written by MMmdl.
 35 35  0  0  0  0  0  0  0  0  1 V2000
  152.0250  144.3209  161.1153 C   0  0  0  0  0  0  0  0  0  0  0  0
  152.3838  143.3161  160.5212 C   0  0  0  0  0  0  0  0  0  0  0  0
  152.8354  142.1123  159.8022 C   0  0  0  0  0  0  0  0  0  0  0  0
  152.0804  141.8693  158.5781 N   0  0  0  0  0  0  0  0  0  0  0  0
  152.2474  140.8163  157.7598 C   0  0  0  0  0  0  0  0  0  0  0  0
  153.0580  139.9138  157.9694 O   0  0  0  0  0  0  0  0  0  0  0  0
  151.3213  140.7576  156.5797 C   0  0  0  0  0  0  0  0  0  0  0  0
  151.2242  139.6062  155.7664 C   0  0  0  0  0  0  0  0  0  0  0  0
  150.3167  139.6038  154.6892 C   0  0  0  0  0  0  0  0  0  0  0  0
  149.5271  140.7495  154.4601 C   0  0  0  0  0  0  0  0  0  0  0  0
  148.6294  140.7392  153.3818 N   0  0  0  0  0  0  0  0  0  0  0  0
  147.2112  141.0429  153.5475 C   0  0  2  0  0  0  0  0  0  0  0  0
  147.0139  142.4668  154.0973 C   0  0  0  0  0  0  0  0  0  0  0  0
  146.5551  139.9939  154.4585 C   0  0  0  0  0  0  0  0  0  0  0  0
  146.7149  138.7054  153.8878 O   0  0  0  0  0  0  0  0  0  0  0  0
  146.0363  137.6986  154.6178 C   0  0  0  0  0  0  0  0  0  0  0  0
  149.6103  141.8525  155.2404 N   0  0  0  0  0  0  0  0  0  0  0  0
  150.4792  141.8488  156.2737 C   0  0  0  0  0  0  0  0  0  0  0  0
  151.7165  145.2011  161.6334 H   0  0  0  0  0  0  0  0  0  0  0  0
  153.8867  142.2476  159.5477 H   0  0  0  0  0  0  0  0  0  0  0  0
  152.7761  141.2582  160.4784 H   0  0  0  0  0  0  0  0  0  0  0  0
  151.3717  142.5476  158.3395 H   0  0  0  0  0  0  0  0  0  0  0  0
  151.8277  138.7309  155.9586 H   0  0  0  0  0  0  0  0  0  0  0  0
  150.2292  138.7340  154.0545 H   0  0  0  0  0  0  0  0  0  0  0  0
  148.9526  140.4425  152.4723 H   0  0  0  0  0  0  0  0  0  0  0  0
  146.7285  140.9715  152.5721 H   0  0  0  0  0  0  0  0  0  0  0  0
  145.9553  142.7057  154.2012 H   0  0  0  0  0  0  0  0  0  0  0  0
  147.4495  143.2159  153.4359 H   0  0  0  0  0  0  0  0  0  0  0  0
  147.4779  142.5810  155.0775 H   0  0  0  0  0  0  0  0  0  0  0  0
  147.0273  140.0092  155.4423 H   0  0  0  0  0  0  0  0  0  0  0  0
  145.4966  140.2193  154.6010 H   0  0  0  0  0  0  0  0  0  0  0  0
  146.1929  136.7317  154.1396 H   0  0  0  0  0  0  0  0  0  0  0  0
  144.9626  137.8890  154.6481 H   0  0  0  0  0  0  0  0  0  0  0  0
  146.4096  137.6325  155.6406 H   0  0  0  0  0  0  0  0  0  0  0  0
  150.5012  142.7510  156.8677 H   0  0  0  0  0  0  0  0  0  0  0  0
  1  2  3  0  0  0  0
  1 19  1  0  0  0  0
  2  3  1  0  0  0  0
  3  4  1  0  0  0  0
  3 20  1  0  0  0  0
  3 21  1  0  0  0  0
  4  5  1  0  0  0  0
  4 22  1  0  0  0  0
  5  6  2  0  0  0  0
  5  7  1  0  0  0  0
  7 18  1  0  0  0  0
  7  8  2  0  0  0  0
  8  9  1  0  0  0  0
  8 23  1  0  0  0  0
  9 10  2  0  0  0  0
  9 24  1  0  0  0  0
 10 11  1  0  0  0  0
 10 17  1  0  0  0  0
 11 12  1  0  0  0  0
 11 25  1  0  0  0  0
 12 13  1  0  0  0  0
 12 14  1  0  0  0  0
 12 26  1  0  0  0  0
 13 27  1  0  0  0  0
 13 28  1  0  0  0  0
 13 29  1  0  0  0  0
 14 15  1  0  0  0  0
 14 30  1  0  0  0  0
 14 31  1  0  0  0  0
 15 16  1  0  0  0  0
 16 32  1  0  0  0  0
 16 33  1  0  0  0  0
 16 34  1  0  0  0  0
 17 18  2  0  0  0  0
 18 35  1  0  0  0  0
M  END
> <s_m_source_file>
AV-unprocessed.smi

> <i_m_source_file_index>
3239

> <i_lp_mmshare_version>
43012

> <i_f3d_flags>
0

> <s_epik_input>
W0NIXSNDW0NIMl1bTkhdQyg9TyljMVtjSF1bY0hdYyhuW2NIXTEpW05IXVtDQEhdKFtDSDNdKVtDSDJdT1tDSDNd

> <s_epik_cmdline>
J2VwaWtfcHl0aG9uJywgJy1waCcsICc3LjAnLCAnLXRuJywgJzgnLCAnLW1hJywgJzIwMCcsICctbWV0YWxfYmluZGluZycsICctaW1hZScsICc8aW5maWxlLm1hZT4nLCAnLW9tYWUnLCAnPG91dGZpbGUubWFlPic=

> <r_lp_tautomer_probability>
1

> <r_epik_Ionization_Penalty>
0.00321854

> <r_epik_Ionization_Penalty_Charging>
0

> <r_epik_Ionization_Penalty_Neutral>
0.00321854

> <r_epik_State_Penalty>
0.00226446

> <r_epik_Charging_Adjusted_Penalty>
0.00226446

> <i_epik_Tot_Q>
0

> <i_epik_Tot_abs_Q>
0

> <r_epik_Metal_State_Penalty>
-0

> <b_epik_Metal_Only>
0

> <s_lp_Force_Field>
OPLS_2005

> <r_lp_Energy>
6.08626

> <b_lp_Chiralities_Consistent>
1

> <s_lp_Variant>
AV-unprocessed.smi:3239-1

> <Gold.Version>
5.8.1

> <Gold.Id.Protein>
6NUR|6NUR_protein|mol2

> <Gold.PLP.Fitness>
41.7546

> <Gold.PLP.PLP>
-36.1282

> <Gold.PLP.part.hbond>
-1.9301

> <Gold.PLP.part.metal>
0.0000

> <Gold.PLP.part.buried>
-5.4233

> <Gold.PLP.part.nonpolar>
-30.0352

> <Gold.PLP.part.repulsive>
0.6713

> <Gold.PLP.ligand.clash>
0.0000

> <Gold.PLP.ligand.torsion>
0.5394

> <Gold.PLP.Chemscore.Hbond>
1.9913

> <Gold.PLP.Chemscore.CHOScore>
0.2254

> <Gold.PLP.Chemscore.Metal>
0.0000

> <Gold.Chemscore.Hbonds>
donor molecule, donor type, donor heavy atom, donor atom, acceptor molecule, acceptor atom, score
      L1  H    11    25       P1  7957  0.96
      P1  H  7997  8010       L1     6  1.00
      L1  C    18    35       P1  8028  0.17

> <Gold.PLP.Chemscore.Internal.Correction>
0.0553

> <Gold.Rescore>
     Score         DG    S(hbond)    S(metal)    S(lipo)     H(rot)  DE(clash)    DE(int)     intcor
     16.16     -16.98       1.92        0.00      79.04       1.62       0.05       0.78       ----

> <Gold.Chemscore.Fitness>
16.1578

> <Gold.Chemscore.DG>
-16.9849

> <Gold.Chemscore.ZeroCoef>
-5.4800

> <Gold.Chemscore.Hbond>
1.9166

> <Gold.Chemscore.Metal>
0.0000

> <Gold.Chemscore.Lipo>
79.0437

> <Gold.Chemscore.Internal_Hbond>
0.0000

> <Gold.Chemscore.DEClash>
0.0464

> <Gold.Chemscore.DEInternal>
0.7808

> <Gold.Chemscore.Rot>
1.6190

> <Gold.Chemscore.Internal.Correction>
   9.000000E+99

> <Gold.Chemscore.Hbonds>
donor molecule, donor type, donor heavy atom, donor atom, acceptor molecule, acceptor atom, score
      L1  H    11    25       P1  7957  0.91
      P1  H  7997  8010       L1     6  0.78

> <Gold.Chemscore.Hbond.Weighted>
-6.4015

> <Gold.Chemscore.Metal.Weighted>
-0.0000

> <Gold.Chemscore.Lipo.Weighted>
-9.2481

> <Gold.Chemscore.Internal_Hbond.Weighted>
0.0000

> <Gold.Chemscore.DEClash.Weighted>
0.0464

> <Gold.Chemscore.DEInternal.Weighted>
0.7808

> <Gold.Chemscore.Rot.Weighted>
4.1447

> <Gold.Chemscore.Internal.Correction.Weighted>
   9.000000E+99

> <Gold.Protein.RotatedTorsions>
[ 6907 6896 6895 6894 ] final  129.68 input  -60.11 | X-H torsion
[ 7974 7965 7964 7962 ] final  170.77 input  175.53 | X-H torsion
[ 8008 7997 7996 7995 ] final   44.44 input   59.86 | X-H torsion
[ 10167 10162 10161 10158 ] final  106.91 input  -65.29 | X-H torsion
[ 10718 10713 10712 10709 ] final  -66.06 input   66.30 | X-H torsion
[ 10763 10752 10751 10750 ] final  121.38 input  -60.55 | X-H torsion
[ 11005 11000 10999 10996 ] final -147.50 input  -57.11 | X-H torsion

> <Gold.Protein.ActiveResidues>
 VAL166  LYS551  ARG553  GLY616  TRP617  ASP618  TYR619  PRO620  LYS621  CYS622 
 ASP623  PHE694  ASN695  SER759  ASP760  ASP761  ALA762  ILE779  LEU786  VAL792 
 PHE793  MET794  SER795  GLU796  ALA797  LYS798  CYS799  TRP800  GLU811  SER814 

> <Gold.Protein.RotatedAtoms>
  152.3600  133.6285  159.6007 H   0  0  0  0  0  0  0  0  0  0  0  0  # atno 6907 bound_to 6896
  150.7595  133.9438  159.3473 H   0  0  0  0  0  0  0  0  0  0  0  0  # atno 6908 bound_to 6896
  151.7278  135.0882  160.0346 H   0  0  0  0  0  0  0  0  0  0  0  0  # atno 6909 bound_to 6896
  144.7314  139.9251  143.6422 H   0  0  0  0  0  0  0  0  0  0  0  0  # atno 7974 bound_to 7965
  155.3194  140.3396  155.4241 H   0  0  0  0  0  0  0  0  0  0  0  0  # atno 8008 bound_to 7997
  156.1917  140.1700  156.8117 H   0  0  0  0  0  0  0  0  0  0  0  0  # atno 8009 bound_to 7997
  154.5449  140.0717  156.8556 H   0  0  0  0  0  0  0  0  0  0  0  0  # atno 8010 bound_to 7997
  139.6970  144.7100  151.1250 H   0  0  0  0  0  0  0  0  0  0  0  0  # atno 10167 bound_to 10162
  156.0634  130.4256  150.1653 H   0  0  0  0  0  0  0  0  0  0  0  0  # atno 10718 bound_to 10713
  153.6131  135.3427  155.2985 H   0  0  0  0  0  0  0  0  0  0  0  0  # atno 10763 bound_to 10752
  154.8615  135.4255  154.2288 H   0  0  0  0  0  0  0  0  0  0  0  0  # atno 10764 bound_to 10752
  153.3143  135.7034  153.7159 H   0  0  0  0  0  0  0  0  0  0  0  0  # atno 10765 bound_to 10752
  140.7710  134.3189  157.5075 H   0  0  0  0  0  0  0  0  0  0  0  0  # atno 11005 bound_to 11000
  146.0900  139.3889  143.0412 LP  0  0  0  0  0  0  0  0  0  0  0  0  # atno 17320 bound_to 7965
  145.7724  140.9891  143.1142 LP  0  0  0  0  0  0  0  0  0  0  0  0  # atno 17321 bound_to 7965
  140.7699  143.5477  150.9239 LP  0  0  0  0  0  0  0  0  0  0  0  0  # atno 17342 bound_to 10162
  139.9157  143.6666  152.3106 LP  0  0  0  0  0  0  0  0  0  0  0  0  # atno 17343 bound_to 10162
  156.9718  130.9837  151.3457 LP  0  0  0  0  0  0  0  0  0  0  0  0  # atno 17370 bound_to 10713
  157.5659  130.8277  149.8327 LP  0  0  0  0  0  0  0  0  0  0  0  0  # atno 17371 bound_to 10713
  139.8756  134.9261  156.3391 LP  0  0  0  0  0  0  0  0  0  0  0  0  # atno 17394 bound_to 11000
  140.9573  133.7411  156.0353 LP  0  0  0  0  0  0  0  0  0  0  0  0  # atno 17395 bound_to 11000

$$$$
