AV-unprocessed.smi:3036|AV-procd|sdf|11585|dock2
  -GOLD-   2272016553D 1   1.00000     0.00000
 Structure written by MMmdl.
 41 42  0  0  0  0  0  0  0  0  1 V2000
  149.4902  144.2583  159.7986 C   0  0  0  0  0  0  0  0  0  0  0  0
  150.4160  144.7366  158.6683 C   0  0  1  0  0  0  0  0  0  0  0  0
  151.8650  144.9148  159.1625 C   0  0  0  0  0  0  0  0  0  0  0  0
  152.2263  143.9315  160.1696 N   0  0  0  0  0  0  0  0  0  0  0  0
  153.0485  142.8319  160.0389 C   0  0  0  0  0  0  0  0  0  0  0  0
  153.1021  142.2174  161.2569 C   0  0  0  0  0  0  0  0  0  0  0  0
  152.2681  143.0253  162.0793 C   0  0  0  0  0  0  0  0  0  0  0  0
  151.7441  144.0497  161.4256 N   0  0  0  0  0  0  0  0  0  0  0  0
  150.4117  143.7652  157.5805 N   0  0  0  0  0  0  0  0  0  0  0  0
  150.8171  142.4349  158.0164 C   0  0  0  0  0  0  0  0  0  0  0  0
  150.4485  141.3685  156.9642 C   0  0  0  0  0  0  0  0  0  0  0  0
  150.5769  139.9054  157.4374 C   0  0  0  0  0  0  0  0  0  0  0  0
  150.0505  139.5691  158.4998 O   0  0  0  0  0  0  0  0  0  0  0  0
  151.2708  139.0277  156.6730 N   0  0  0  0  0  0  0  0  0  0  0  0
  151.9043  139.3978  155.4039 C   0  0  0  0  0  0  0  0  0  0  0  0
  151.1842  138.6534  154.2656 C   0  0  0  0  0  0  0  0  0  0  0  0
  151.2484  137.2484  154.4971 O   0  0  0  0  0  0  0  0  0  0  0  0
  150.6643  136.8599  155.7381 C   0  0  0  0  0  0  0  0  0  0  0  0
  151.3763  137.5820  156.8965 C   0  0  0  0  0  0  0  0  0  0  0  0
  149.5022  144.9613  160.6318 H   0  0  0  0  0  0  0  0  0  0  0  0
  149.7995  143.2856  160.1830 H   0  0  0  0  0  0  0  0  0  0  0  0
  148.4558  144.1734  159.4657 H   0  0  0  0  0  0  0  0  0  0  0  0
  150.0630  145.7011  158.3002 H   0  0  0  0  0  0  0  0  0  0  0  0
  152.5614  144.8165  158.3283 H   0  0  0  0  0  0  0  0  0  0  0  0
  152.0164  145.9132  159.5758 H   0  0  0  0  0  0  0  0  0  0  0  0
  153.5274  142.5864  159.1025 H   0  0  0  0  0  0  0  0  0  0  0  0
  153.6557  141.3287  161.5210 H   0  0  0  0  0  0  0  0  0  0  0  0
  152.0302  142.8992  163.1252 H   0  0  0  0  0  0  0  0  0  0  0  0
  150.9866  144.0853  156.8144 H   0  0  0  0  0  0  0  0  0  0  0  0
  151.8927  142.4201  158.1916 H   0  0  0  0  0  0  0  0  0  0  0  0
  150.3363  142.1923  158.9652 H   0  0  0  0  0  0  0  0  0  0  0  0
  149.4243  141.5499  156.6363 H   0  0  0  0  0  0  0  0  0  0  0  0
  151.0902  141.5000  156.0922 H   0  0  0  0  0  0  0  0  0  0  0  0
  151.8838  140.4716  155.2142 H   0  0  0  0  0  0  0  0  0  0  0  0
  152.9579  139.1168  155.4301 H   0  0  0  0  0  0  0  0  0  0  0  0
  150.1433  138.9724  154.1897 H   0  0  0  0  0  0  0  0  0  0  0  0
  151.6580  138.8759  153.3093 H   0  0  0  0  0  0  0  0  0  0  0  0
  149.5970  137.0876  155.7358 H   0  0  0  0  0  0  0  0  0  0  0  0
  150.7603  135.7798  155.8500 H   0  0  0  0  0  0  0  0  0  0  0  0
  152.4294  137.2988  156.9231 H   0  0  0  0  0  0  0  0  0  0  0  0
  150.9536  137.2471  157.8418 H   0  0  0  0  0  0  0  0  0  0  0  0
  1  2  1  0  0  0  0
  1 20  1  0  0  0  0
  1 21  1  0  0  0  0
  1 22  1  0  0  0  0
  2  3  1  0  0  0  0
  2  9  1  0  0  0  0
  2 23  1  0  0  0  0
  3  4  1  0  0  0  0
  3 24  1  0  0  0  0
  3 25  1  0  0  0  0
  4  8  1  0  0  0  0
  4  5  1  0  0  0  0
  5  6  2  0  0  0  0
  5 26  1  0  0  0  0
  6  7  1  0  0  0  0
  6 27  1  0  0  0  0
  7  8  2  0  0  0  0
  7 28  1  0  0  0  0
  9 10  1  0  0  0  0
  9 29  1  0  0  0  0
 10 11  1  0  0  0  0
 10 30  1  0  0  0  0
 10 31  1  0  0  0  0
 11 12  1  0  0  0  0
 11 32  1  0  0  0  0
 11 33  1  0  0  0  0
 12 13  2  0  0  0  0
 12 14  1  0  0  0  0
 14 19  1  0  0  0  0
 14 15  1  0  0  0  0
 15 16  1  0  0  0  0
 15 34  1  0  0  0  0
 15 35  1  0  0  0  0
 16 17  1  0  0  0  0
 16 36  1  0  0  0  0
 16 37  1  0  0  0  0
 17 18  1  0  0  0  0
 18 19  1  0  0  0  0
 18 38  1  0  0  0  0
 18 39  1  0  0  0  0
 19 40  1  0  0  0  0
 19 41  1  0  0  0  0
M  END
> <s_m_source_file>
AV-unprocessed.smi

> <i_m_source_file_index>
3036

> <i_lp_mmshare_version>
43012

> <i_f3d_flags>
0

> <s_epik_input>
bjFbY0hdW2NIXVtjSF1uMVtDSDJdW0NAQEhdKFtDSDNdKVtOSF1bQ0gyXVtDSDJdQyg9TylOMltDSDJdW0NIMl1PW0NIMl1bQ0gyXTI=

> <s_epik_cmdline>
J2VwaWtfcHl0aG9uJywgJy1waCcsICc3LjAnLCAnLXRuJywgJzgnLCAnLW1hJywgJzIwMCcsICctbWV0YWxfYmluZGluZycsICctaW1hZScsICc8aW5maWxlLm1hZT4nLCAnLW9tYWUnLCAnPG91dGZpbGUubWFlPic=

> <r_lp_tautomer_probability>
1

> <r_epik_Ionization_Penalty>
2.55703

> <r_epik_Ionization_Penalty_Charging>
0

> <r_epik_Ionization_Penalty_Neutral>
2.55703

> <r_epik_State_Penalty>
2.726

> <r_epik_Charging_Adjusted_Penalty>
2.726

> <i_epik_Tot_Q>
0

> <i_epik_Tot_abs_Q>
0

> <r_epik_Metal_State_Penalty>
2.72597

> <b_epik_Metal_Only>
0

> <s_lp_Force_Field>
OPLS_2005

> <r_lp_Energy>
21.9246

> <b_lp_Chiralities_Consistent>
1

> <s_lp_Variant>
AV-unprocessed.smi:3036-4

> <Gold.Version>
5.8.1

> <Gold.Id.Protein>
6NUR|6NUR_protein|mol2

> <Gold.PLP.Fitness>
46.8277

> <Gold.PLP.PLP>
-44.9403

> <Gold.PLP.part.hbond>
-2.0000

> <Gold.PLP.part.metal>
0.0000

> <Gold.PLP.part.buried>
-8.0744

> <Gold.PLP.part.nonpolar>
-35.8341

> <Gold.PLP.part.repulsive>
0.2923

> <Gold.PLP.ligand.clash>
0.0000

> <Gold.PLP.ligand.torsion>
0.6620

> <Gold.PLP.Chemscore.Hbond>
1.0000

> <Gold.PLP.Chemscore.CHOScore>
0.0000

> <Gold.PLP.Chemscore.Metal>
0.0000

> <Gold.Chemscore.Hbonds>
donor molecule, donor type, donor heavy atom, donor atom, acceptor molecule, acceptor atom, score
      P1  H 10752 10764       L1    17  0.18

> <Gold.PLP.Chemscore.Internal.Correction>
0.2114

> <Gold.Rescore>
     Score         DG    S(hbond)    S(metal)    S(lipo)     H(rot)  DE(clash)    DE(int)     intcor
     12.76     -16.13       0.95        0.00     107.47       1.99       0.08       3.29       ----

> <Gold.Chemscore.Fitness>
12.7590

> <Gold.Chemscore.DG>
-16.1275

> <Gold.Chemscore.ZeroCoef>
-5.4800

> <Gold.Chemscore.Hbond>
0.9486

> <Gold.Chemscore.Metal>
0.0000

> <Gold.Chemscore.Lipo>
107.4664

> <Gold.Chemscore.Internal_Hbond>
0.0000

> <Gold.Chemscore.DEClash>
0.0763

> <Gold.Chemscore.DEInternal>
3.2922

> <Gold.Chemscore.Rot>
1.9900

> <Gold.Chemscore.Internal.Correction>
   9.000000E+99

> <Gold.Chemscore.Hbonds>
donor molecule, donor type, donor heavy atom, donor atom, acceptor molecule, acceptor atom, score
      P1  H 10752 10764       L1    17  0.03

> <Gold.Chemscore.Hbond.Weighted>
-3.1683

> <Gold.Chemscore.Metal.Weighted>
-0.0000

> <Gold.Chemscore.Lipo.Weighted>
-12.5736

> <Gold.Chemscore.Internal_Hbond.Weighted>
0.0000

> <Gold.Chemscore.DEClash.Weighted>
0.0763

> <Gold.Chemscore.DEInternal.Weighted>
3.2922

> <Gold.Chemscore.Rot.Weighted>
5.0944

> <Gold.Chemscore.Internal.Correction.Weighted>
   9.000000E+99

> <Gold.Protein.RotatedTorsions>
[ 6907 6896 6895 6894 ] final   93.00 input  -60.11 | X-H torsion
[ 7974 7965 7964 7962 ] final  144.28 input  175.53 | X-H torsion
[ 8008 7997 7996 7995 ] final -137.54 input   59.86 | X-H torsion
[ 10167 10162 10161 10158 ] final  138.72 input  -65.29 | X-H torsion
[ 10718 10713 10712 10709 ] final  -31.75 input   66.30 | X-H torsion
[ 10763 10752 10751 10750 ] final  -63.86 input  -60.55 | X-H torsion
[ 11005 11000 10999 10996 ] final   43.83 input  -57.11 | X-H torsion

> <Gold.Protein.ActiveResidues>
 VAL166  LYS551  ARG553  GLY616  TRP617  ASP618  TYR619  PRO620  LYS621  CYS622 
 ASP623  PHE694  ASN695  SER759  ASP760  ASP761  ALA762  ILE779  LEU786  VAL792 
 PHE793  MET794  SER795  GLU796  ALA797  LYS798  CYS799  TRP800  GLU811  SER814 

> <Gold.Protein.RotatedAtoms>
  152.5453  134.1416  159.8480 H   0  0  0  0  0  0  0  0  0  0  0  0  # atno 6907 bound_to 6896
  151.1451  133.4937  159.2603 H   0  0  0  0  0  0  0  0  0  0  0  0  # atno 6908 bound_to 6896
  151.1531  135.0247  159.8732 H   0  0  0  0  0  0  0  0  0  0  0  0  # atno 6909 bound_to 6896
  144.8849  139.5644  143.5825 H   0  0  0  0  0  0  0  0  0  0  0  0  # atno 7974 bound_to 7965
  155.4134  140.0513  157.3030 H   0  0  0  0  0  0  0  0  0  0  0  0  # atno 8008 bound_to 7997
  154.4935  140.2129  155.9456 H   0  0  0  0  0  0  0  0  0  0  0  0  # atno 8009 bound_to 7997
  156.1375  140.3160  155.8448 H   0  0  0  0  0  0  0  0  0  0  0  0  # atno 8010 bound_to 7997
  139.5102  144.6337  151.5752 H   0  0  0  0  0  0  0  0  0  0  0  0  # atno 10167 bound_to 10162
  156.3835  130.4360  149.7450 H   0  0  0  0  0  0  0  0  0  0  0  0  # atno 10718 bound_to 10713
  154.3214  135.6195  153.5509 H   0  0  0  0  0  0  0  0  0  0  0  0  # atno 10763 bound_to 10752
  152.9819  135.5725  154.5066 H   0  0  0  0  0  0  0  0  0  0  0  0  # atno 10764 bound_to 10752
  154.4735  135.2860  155.1602 H   0  0  0  0  0  0  0  0  0  0  0  0  # atno 10765 bound_to 10752
  140.1609  134.4343  155.8318 H   0  0  0  0  0  0  0  0  0  0  0  0  # atno 11005 bound_to 11000
  146.3018  139.7451  142.9086 LP  0  0  0  0  0  0  0  0  0  0  0  0  # atno 17320 bound_to 7965
  145.3887  141.0369  143.3136 LP  0  0  0  0  0  0  0  0  0  0  0  0  # atno 17321 bound_to 7965
  140.6078  143.9491  150.6431 LP  0  0  0  0  0  0  0  0  0  0  0  0  # atno 17342 bound_to 10162
  140.2724  143.3446  152.1226 LP  0  0  0  0  0  0  0  0  0  0  0  0  # atno 17343 bound_to 10162
  156.4532  130.7916  151.2938 LP  0  0  0  0  0  0  0  0  0  0  0  0  # atno 17370 bound_to 10713
  157.7494  131.0089  150.3246 LP  0  0  0  0  0  0  0  0  0  0  0  0  # atno 17371 bound_to 10713
  141.2209  133.6913  156.7591 LP  0  0  0  0  0  0  0  0  0  0  0  0  # atno 17394 bound_to 11000
  140.2491  134.8554  157.3650 LP  0  0  0  0  0  0  0  0  0  0  0  0  # atno 17395 bound_to 11000

$$$$
