AV-unprocessed.smi:1|AV-procd|sdf|8|dock4
  -GOLD-   2262015 93D 1   1.00000     0.00000
 Structure written by MMmdl.
 57 62  0  0  0  0  0  0  0  0  1 V2000
  150.6675  129.1418  154.2642 O   0  0  0  0  0  0  0  0  0  0  0  0
  149.6080  129.7545  154.1276 C   0  0  0  0  0  0  0  0  0  0  0  0
  149.3711  131.0407  154.7595 N   0  0  0  0  0  0  0  0  0  0  0  0
  150.1782  131.7163  155.6105 C   0  0  0  0  0  0  0  0  0  0  0  0
  151.0960  131.0927  156.3938 N   0  0  0  0  0  0  0  0  0  0  0  0
  151.8676  131.8042  157.2183 C   0  0  0  0  0  0  0  0  0  0  0  0
  151.8843  133.1242  157.4113 N   0  0  0  0  0  0  0  0  0  0  0  0
  150.9696  133.7655  156.6255 C   0  0  0  0  0  0  0  0  0  0  0  0
  150.0849  133.1290  155.7084 C   0  0  0  0  0  0  0  0  0  0  0  0
  149.2853  134.0769  155.0864 N   0  0  0  0  0  0  0  0  0  0  0  0
  149.6750  135.2073  155.6081 C   0  0  0  0  0  0  0  0  0  0  0  0
  150.6931  135.1202  156.5327 N   0  0  0  0  0  0  0  0  0  0  0  0
  151.3184  136.2708  157.2733 C   0  0  1  0  0  0  0  0  0  0  0  0
  151.7514  137.2445  156.3738 O   0  0  0  0  0  0  0  0  0  0  0  0
  150.8220  138.3208  156.3414 C   0  0  2  0  0  0  0  0  0  0  0  0
  151.4926  139.5858  155.8000 C   0  0  0  0  0  0  0  0  0  0  0  0
  151.7920  140.4395  156.8913 O   0  0  0  0  0  0  0  0  0  0  0  0
  150.9411  141.4236  157.2368 C   0  0  0  0  0  0  0  0  0  0  0  0
  149.8784  141.6438  156.6522 O   0  0  0  0  0  0  0  0  0  0  0  0
  151.4245  142.2237  158.3990 C   0  0  0  0  0  0  0  0  0  0  0  0
  150.8034  143.4582  158.7003 C   0  0  0  0  0  0  0  0  0  0  0  0
  151.2428  144.2344  159.7908 C   0  0  0  0  0  0  0  0  0  0  0  0
  152.3074  143.7848  160.5938 C   0  0  0  0  0  0  0  0  0  0  0  0
  152.9316  142.5569  160.3060 C   0  0  0  0  0  0  0  0  0  0  0  0
  152.4931  141.7800  159.2161 C   0  0  0  0  0  0  0  0  0  0  0  0
  150.3815  138.4250  157.7996 C   0  0  1  0  0  0  0  0  0  0  0  0
  149.0934  139.0020  157.9246 O   0  0  0  0  0  0  0  0  0  0  0  0
  147.9537  137.7801  157.9290 S   0  0  0  0  0  0  0  0  0  0  0  0
  147.1926  137.8665  159.1846 O   0  0  0  0  0  0  0  0  0  0  0  0
  147.3052  137.7468  156.6094 O   0  0  0  0  0  0  0  0  0  0  0  0
  148.9889  136.4751  158.0321 O   0  0  0  0  0  0  0  0  0  0  0  0
  150.3131  136.9514  158.2255 C   0  0  1  0  0  0  0  0  0  0  0  0
  148.5163  129.2504  153.2291 C   0  0  0  0  0  0  0  0  0  0  0  0
  148.6788  128.0289  152.5376 C   0  0  0  0  0  0  0  0  0  0  0  0
  147.6541  127.5386  151.7052 C   0  0  0  0  0  0  0  0  0  0  0  0
  146.4551  128.2620  151.5624 C   0  0  0  0  0  0  0  0  0  0  0  0
  146.2798  129.4740  152.2565 C   0  0  0  0  0  0  0  0  0  0  0  0
  147.3038  129.9654  153.0895 C   0  0  0  0  0  0  0  0  0  0  0  0
  148.4841  131.4768  154.5540 H   0  0  0  0  0  0  0  0  0  0  0  0
  152.5718  131.2331  157.8046 H   0  0  0  0  0  0  0  0  0  0  0  0
  149.2326  136.1508  155.3228 H   0  0  0  0  0  0  0  0  0  0  0  0
  152.1725  135.8264  157.7856 H   0  0  0  0  0  0  0  0  0  0  0  0
  149.9678  138.0483  155.7203 H   0  0  0  0  0  0  0  0  0  0  0  0
  152.4178  139.3203  155.2868 H   0  0  0  0  0  0  0  0  0  0  0  0
  150.8460  140.0914  155.0816 H   0  0  0  0  0  0  0  0  0  0  0  0
  149.9850  143.8239  158.0969 H   0  0  0  0  0  0  0  0  0  0  0  0
  150.7617  145.1760  160.0106 H   0  0  0  0  0  0  0  0  0  0  0  0
  152.6439  144.3799  161.4300 H   0  0  0  0  0  0  0  0  0  0  0  0
  153.7473  142.2085  160.9222 H   0  0  0  0  0  0  0  0  0  0  0  0
  152.9889  140.8404  159.0245 H   0  0  0  0  0  0  0  0  0  0  0  0
  151.1184  138.9647  158.3957 H   0  0  0  0  0  0  0  0  0  0  0  0
  150.6113  136.8066  159.2642 H   0  0  0  0  0  0  0  0  0  0  0  0
  149.5929  127.4613  152.6374 H   0  0  0  0  0  0  0  0  0  0  0  0
  147.7885  126.6063  151.1768 H   0  0  0  0  0  0  0  0  0  0  0  0
  145.6693  127.8857  150.9242 H   0  0  0  0  0  0  0  0  0  0  0  0
  145.3576  130.0264  152.1522 H   0  0  0  0  0  0  0  0  0  0  0  0
  147.1440  130.8931  153.6197 H   0  0  0  0  0  0  0  0  0  0  0  0
  1  2  2  0  0  0  0
  2  3  1  0  0  0  0
  2 33  1  0  0  0  0
  3  4  1  0  0  0  0
  3 39  1  0  0  0  0
  4  9  1  0  0  0  0
  4  5  2  0  0  0  0
  5  6  1  0  0  0  0
  6  7  2  0  0  0  0
  6 40  1  0  0  0  0
  7  8  1  0  0  0  0
  8 12  1  0  0  0  0
  8  9  2  0  0  0  0
  9 10  1  0  0  0  0
 10 11  2  0  0  0  0
 11 12  1  0  0  0  0
 11 41  1  0  0  0  0
 12 13  1  0  0  0  0
 13 32  1  0  0  0  0
 13 14  1  0  0  0  0
 13 42  1  0  0  0  0
 14 15  1  0  0  0  0
 15 16  1  0  0  0  0
 15 26  1  0  0  0  0
 15 43  1  0  0  0  0
 16 17  1  0  0  0  0
 16 44  1  0  0  0  0
 16 45  1  0  0  0  0
 17 18  1  0  0  0  0
 18 19  2  0  0  0  0
 18 20  1  0  0  0  0
 20 25  1  0  0  0  0
 20 21  2  0  0  0  0
 21 22  1  0  0  0  0
 21 46  1  0  0  0  0
 22 23  2  0  0  0  0
 22 47  1  0  0  0  0
 23 24  1  0  0  0  0
 23 48  1  0  0  0  0
 24 25  2  0  0  0  0
 24 49  1  0  0  0  0
 25 50  1  0  0  0  0
 26 32  1  0  0  0  0
 26 27  1  0  0  0  0
 26 51  1  0  0  0  0
 27 28  1  0  0  0  0
 28 29  2  0  0  0  0
 28 30  2  0  0  0  0
 28 31  1  0  0  0  0
 31 32  1  0  0  0  0
 32 52  1  0  0  0  0
 33 38  1  0  0  0  0
 33 34  2  0  0  0  0
 34 35  1  0  0  0  0
 34 53  1  0  0  0  0
 35 36  2  0  0  0  0
 35 54  1  0  0  0  0
 36 37  1  0  0  0  0
 36 55  1  0  0  0  0
 37 38  2  0  0  0  0
 37 56  1  0  0  0  0
 38 57  1  0  0  0  0
M  END
> <s_m_source_file>
AV-unprocessed.smi

> <i_m_source_file_index>
1

> <i_lp_mmshare_version>
43012

> <i_f3d_flags>
0

> <s_epik_input>
W2NIXTFbY0hdW2NIXVtjSF1bY0hdYzFDKD1PKVtOSF1jKG5bY0hdbjIpYyhjMjMpbltjSF1uM1tDQEBIXShbQ0BIXShbQ0BIXTQ1KU9TKE81KSg9Tyk9TylPW0NASF00W0NIMl1PQyg9TyljNltjSF1bY0hdW2NIXVtjSF1bY0hdNg==

> <s_epik_cmdline>
J2VwaWtfcHl0aG9uJywgJy1waCcsICc3LjAnLCAnLXRuJywgJzgnLCAnLW1hJywgJzIwMCcsICctbWV0YWxfYmluZGluZycsICctaW1hZScsICc8aW5maWxlLm1hZT4nLCAnLW9tYWUnLCAnPG91dGZpbGUubWFlPic=

> <r_lp_tautomer_probability>
1

> <r_epik_Ionization_Penalty>
0.00195722

> <r_epik_Ionization_Penalty_Charging>
0

> <r_epik_Ionization_Penalty_Neutral>
0.00195722

> <r_epik_State_Penalty>
0.00633741

> <r_epik_Charging_Adjusted_Penalty>
0.00633741

> <i_epik_Tot_Q>
0

> <i_epik_Tot_abs_Q>
0

> <r_epik_Metal_State_Penalty>
0.341185

> <b_epik_Metal_Only>
0

> <s_epik_Chemistry_Notes>
This compound has an ester and may undergo hydrolysis at high or low pH. This compound contains an acetal/aminal-like group ( X-CH(R)-Y where X, Y are N, S, or O) that may be acid/base labile, releasing an aldehyde.

> <s_lp_Force_Field>
OPLS_2005

> <r_lp_Energy>
42.577

> <b_lp_Chiralities_Consistent>
1

> <s_lp_Variant>
AV-unprocessed.smi:1-8

> <Gold.Version>
5.8.1

> <Gold.Id.Protein>
6NUR|6NUR_protein|mol2

> <Gold.PLP.Fitness>
59.5401

> <Gold.PLP.PLP>
-58.4606

> <Gold.PLP.part.hbond>
-2.0000

> <Gold.PLP.part.metal>
0.0000

> <Gold.PLP.part.buried>
-9.7016

> <Gold.PLP.part.nonpolar>
-47.9722

> <Gold.PLP.part.repulsive>
0.3285

> <Gold.PLP.ligand.clash>
0.0000

> <Gold.PLP.ligand.torsion>
1.1913

> <Gold.PLP.Chemscore.Hbond>
1.0994

> <Gold.PLP.Chemscore.CHOScore>
0.0000

> <Gold.PLP.Chemscore.Metal>
0.0000

> <Gold.Chemscore.Hbonds>
donor molecule, donor type, donor heavy atom, donor atom, acceptor molecule, acceptor atom, score
      P1  H  6896  6909       L1     7  0.74
      P1  H  6934  6947       L1    29  0.55

> <Gold.PLP.Chemscore.Internal.Correction>
0.1638

> <Gold.Rescore>
     Score         DG    S(hbond)    S(metal)    S(lipo)     H(rot)  DE(clash)    DE(int)     intcor
     16.01     -20.05       1.32        0.00     133.45       2.13       0.30       3.75       ----

> <Gold.Chemscore.Fitness>
16.0075

> <Gold.Chemscore.DG>
-20.0525

> <Gold.Chemscore.ZeroCoef>
-5.4800

> <Gold.Chemscore.Hbond>
1.3234

> <Gold.Chemscore.Metal>
0.0000

> <Gold.Chemscore.Lipo>
133.4493

> <Gold.Chemscore.Internal_Hbond>
0.0000

> <Gold.Chemscore.DEClash>
0.2971

> <Gold.Chemscore.DEInternal>
3.7480

> <Gold.Chemscore.Rot>
2.1333

> <Gold.Chemscore.Internal.Correction>
   9.000000E+99

> <Gold.Chemscore.Hbonds>
donor molecule, donor type, donor heavy atom, donor atom, acceptor molecule, acceptor atom, score
      P1  H  6896  6909       L1     7  0.30
      P1  H  6934  6947       L1    29  0.53

> <Gold.Chemscore.Hbond.Weighted>
-4.4203

> <Gold.Chemscore.Metal.Weighted>
-0.0000

> <Gold.Chemscore.Lipo.Weighted>
-15.6136

> <Gold.Chemscore.Internal_Hbond.Weighted>
0.0000

> <Gold.Chemscore.DEClash.Weighted>
0.2971

> <Gold.Chemscore.DEInternal.Weighted>
3.7480

> <Gold.Chemscore.Rot.Weighted>
5.4614

> <Gold.Chemscore.Internal.Correction.Weighted>
   9.000000E+99

> <Gold.Protein.RotatedTorsions>
[ 6907 6896 6895 6894 ] final  -50.94 input  -60.11 | X-H torsion
[ 7974 7965 7964 7962 ] final -143.71 input  175.53 | X-H torsion
[ 8008 7997 7996 7995 ] final -175.10 input   59.86 | X-H torsion
[ 10167 10162 10161 10158 ] final  -11.66 input  -65.29 | X-H torsion
[ 10718 10713 10712 10709 ] final -118.01 input   66.30 | X-H torsion
[ 10763 10752 10751 10750 ] final  -67.35 input  -60.55 | X-H torsion
[ 11005 11000 10999 10996 ] final   53.53 input  -57.11 | X-H torsion

> <Gold.Protein.ActiveResidues>
 VAL166  LYS551  ARG553  GLY616  TRP617  ASP618  TYR619  PRO620  LYS621  CYS622 
 ASP623  PHE694  ASN695  SER759  ASP760  ASP761  ALA762  ILE779  LEU786  VAL792 
 PHE793  MET794  SER795  GLU796  ALA797  LYS798  CYS799  TRP800  GLU811  SER814 

> <Gold.Protein.RotatedAtoms>
  150.8659  134.8022  159.7118 H   0  0  0  0  0  0  0  0  0  0  0  0  # atno 6907 bound_to 6896
  152.4681  134.5024  159.9739 H   0  0  0  0  0  0  0  0  0  0  0  0  # atno 6908 bound_to 6896
  151.5120  133.3444  159.2922 H   0  0  0  0  0  0  0  0  0  0  0  0  # atno 6909 bound_to 6896
  144.8350  140.5801  143.5490 H   0  0  0  0  0  0  0  0  0  0  0  0  # atno 7974 bound_to 7965
  155.9784  140.1177  157.0749 H   0  0  0  0  0  0  0  0  0  0  0  0  # atno 8008 bound_to 7997
  154.4175  140.1149  156.5469 H   0  0  0  0  0  0  0  0  0  0  0  0  # atno 8009 bound_to 7997
  155.6504  140.3473  155.4748 H   0  0  0  0  0  0  0  0  0  0  0  0  # atno 8010 bound_to 7997
  140.7144  143.5615  150.9190 H   0  0  0  0  0  0  0  0  0  0  0  0  # atno 10167 bound_to 10162
  156.1075  130.6222  150.9236 H   0  0  0  0  0  0  0  0  0  0  0  0  # atno 10718 bound_to 10713
  154.3732  135.6090  153.5751 H   0  0  0  0  0  0  0  0  0  0  0  0  # atno 10763 bound_to 10752
  152.9789  135.5843  154.4498 H   0  0  0  0  0  0  0  0  0  0  0  0  # atno 10764 bound_to 10752
  154.4255  135.2846  155.1925 H   0  0  0  0  0  0  0  0  0  0  0  0  # atno 10765 bound_to 10752
  140.0759  134.5405  155.8997 H   0  0  0  0  0  0  0  0  0  0  0  0  # atno 11005 bound_to 11000
  145.4815  139.1495  143.3759 LP  0  0  0  0  0  0  0  0  0  0  0  0  # atno 17320 bound_to 7965
  146.2649  140.4951  142.8838 LP  0  0  0  0  0  0  0  0  0  0  0  0  # atno 17321 bound_to 7965
  139.9341  143.6459  152.3069 LP  0  0  0  0  0  0  0  0  0  0  0  0  # atno 17342 bound_to 10162
  139.6920  144.7646  151.1422 LP  0  0  0  0  0  0  0  0  0  0  0  0  # atno 17343 bound_to 10162
  157.6253  131.0926  150.8545 LP  0  0  0  0  0  0  0  0  0  0  0  0  # atno 17370 bound_to 10713
  156.8662  130.5130  149.5300 LP  0  0  0  0  0  0  0  0  0  0  0  0  # atno 17371 bound_to 10713
  141.2029  133.6628  156.6034 LP  0  0  0  0  0  0  0  0  0  0  0  0  # atno 17394 bound_to 11000
  140.3558  134.7730  157.4499 LP  0  0  0  0  0  0  0  0  0  0  0  0  # atno 17395 bound_to 11000

$$$$
