AV-unprocessed.smi:869|AV-procd|sdf|4004|dock5
  -GOLD-   22720 1493D 1   1.00000     0.00000
 Structure written by MMmdl.
 46 48  0  0  0  0  0  0  0  0  1 V2000
  150.2683  138.3942  154.3333 C   0  0  0  0  0  0  0  0  0  0  0  0
  151.2831  139.1776  154.9358 O   0  0  0  0  0  0  0  0  0  0  0  0
  151.5375  138.7959  156.2786 C   0  0  0  0  0  0  0  0  0  0  0  0
  151.8170  140.0487  157.0592 C   0  0  0  0  0  0  0  0  0  0  0  0
  152.7151  140.0753  158.0465 N   0  0  0  0  0  0  0  0  0  0  0  0
  152.6582  141.3848  158.4796 C   0  0  0  0  0  0  0  0  0  0  0  0
  153.3763  142.0467  159.5012 C   0  0  0  0  0  0  0  0  0  0  0  0
  153.1442  143.4122  159.7669 C   0  0  0  0  0  0  0  0  0  0  0  0
  152.1925  144.1333  159.0170 C   0  0  0  0  0  0  0  0  0  0  0  0
  151.4654  143.4921  157.9957 C   0  0  0  0  0  0  0  0  0  0  0  0
  151.7014  142.1289  157.7345 C   0  0  0  0  0  0  0  0  0  0  0  0
  151.1696  141.2203  156.8247 N   0  0  0  0  0  0  0  0  0  0  0  0
  150.1338  141.5140  155.8430 C   0  0  0  0  0  0  0  0  0  0  0  0
  148.7225  141.5459  156.4656 C   0  0  1  0  0  0  0  0  0  0  0  0
  148.4143  142.8108  157.0165 O   0  0  0  0  0  0  0  0  0  0  0  0
  147.6074  141.1379  155.4893 C   0  0  0  0  0  0  0  0  0  0  0  0
  147.5687  142.0447  154.3938 O   0  0  0  0  0  0  0  0  0  0  0  0
  146.5034  142.9143  154.3009 C   0  0  0  0  0  0  0  0  0  0  0  0
  145.8578  143.2649  155.5044 C   0  0  0  0  0  0  0  0  0  0  0  0
  144.7607  144.1474  155.5041 C   0  0  0  0  0  0  0  0  0  0  0  0
  144.2932  144.6935  154.2929 C   0  0  0  0  0  0  0  0  0  0  0  0
  143.1103  145.6395  154.2967 C   0  0  0  0  0  0  0  0  0  0  0  0
  144.9301  144.3497  153.0836 C   0  0  0  0  0  0  0  0  0  0  0  0
  146.0280  143.4670  153.0850 C   0  0  0  0  0  0  0  0  0  0  0  0
  150.1039  138.7331  153.3104 H   0  0  0  0  0  0  0  0  0  0  0  0
  149.3249  138.4851  154.8735 H   0  0  0  0  0  0  0  0  0  0  0  0
  150.5526  137.3416  154.2981 H   0  0  0  0  0  0  0  0  0  0  0  0
  150.6722  138.2648  156.6730 H   0  0  0  0  0  0  0  0  0  0  0  0
  152.4041  138.1359  156.3394 H   0  0  0  0  0  0  0  0  0  0  0  0
  154.1076  141.5025  160.0803 H   0  0  0  0  0  0  0  0  0  0  0  0
  153.6995  143.9084  160.5494 H   0  0  0  0  0  0  0  0  0  0  0  0
  152.0212  145.1791  159.2263 H   0  0  0  0  0  0  0  0  0  0  0  0
  150.7359  144.0415  157.4192 H   0  0  0  0  0  0  0  0  0  0  0  0
  150.3689  142.4481  155.3339 H   0  0  0  0  0  0  0  0  0  0  0  0
  150.1731  140.7440  155.0715 H   0  0  0  0  0  0  0  0  0  0  0  0
  148.7007  140.8450  157.3011 H   0  0  0  0  0  0  0  0  0  0  0  0
  148.4283  143.4512  156.3217 H   0  0  0  0  0  0  0  0  0  0  0  0
  147.8197  140.1355  155.1137 H   0  0  0  0  0  0  0  0  0  0  0  0
  146.6464  141.1027  156.0057 H   0  0  0  0  0  0  0  0  0  0  0  0
  146.2077  142.8523  156.4393 H   0  0  0  0  0  0  0  0  0  0  0  0
  144.2786  144.4034  156.4363 H   0  0  0  0  0  0  0  0  0  0  0  0
  142.9858  146.1237  153.3277 H   0  0  0  0  0  0  0  0  0  0  0  0
  143.2475  146.4173  155.0485 H   0  0  0  0  0  0  0  0  0  0  0  0
  142.1944  145.0953  154.5278 H   0  0  0  0  0  0  0  0  0  0  0  0
  144.5792  144.7609  152.1484 H   0  0  0  0  0  0  0  0  0  0  0  0
  146.4874  143.2289  152.1378 H   0  0  0  0  0  0  0  0  0  0  0  0
  1  2  1  0  0  0  0
  1 25  1  0  0  0  0
  1 26  1  0  0  0  0
  1 27  1  0  0  0  0
  2  3  1  0  0  0  0
  3  4  1  0  0  0  0
  3 28  1  0  0  0  0
  3 29  1  0  0  0  0
  4 12  1  0  0  0  0
  4  5  2  0  0  0  0
  5  6  1  0  0  0  0
  6 11  2  0  0  0  0
  6  7  1  0  0  0  0
  7  8  2  0  0  0  0
  7 30  1  0  0  0  0
  8  9  1  0  0  0  0
  8 31  1  0  0  0  0
  9 10  2  0  0  0  0
  9 32  1  0  0  0  0
 10 11  1  0  0  0  0
 10 33  1  0  0  0  0
 11 12  1  0  0  0  0
 12 13  1  0  0  0  0
 13 14  1  0  0  0  0
 13 34  1  0  0  0  0
 13 35  1  0  0  0  0
 14 15  1  0  0  0  0
 14 16  1  0  0  0  0
 14 36  1  0  0  0  0
 15 37  1  0  0  0  0
 16 17  1  0  0  0  0
 16 38  1  0  0  0  0
 16 39  1  0  0  0  0
 17 18  1  0  0  0  0
 18 24  1  0  0  0  0
 18 19  2  0  0  0  0
 19 20  1  0  0  0  0
 19 40  1  0  0  0  0
 20 21  2  0  0  0  0
 20 41  1  0  0  0  0
 21 22  1  0  0  0  0
 21 23  1  0  0  0  0
 22 42  1  0  0  0  0
 22 43  1  0  0  0  0
 22 44  1  0  0  0  0
 23 24  2  0  0  0  0
 23 45  1  0  0  0  0
 24 46  1  0  0  0  0
M  END
> <s_m_source_file>
AV-unprocessed.smi

> <i_m_source_file_index>
869

> <i_lp_mmshare_version>
43012

> <i_f3d_flags>
0

> <s_epik_input>
W2NIXTFbY0hdW2NIXVtjSF1jKGMxMiluKGMobjIpW0NIMl1PW0NIM10pW0NIMl1bQ0BIXShbT0hdKVtDSDJdT2MzW2NIXVtjSF1jKFtDSDNdKVtjSF1bY0hdMw==

> <s_epik_cmdline>
J2VwaWtfcHl0aG9uJywgJy1waCcsICc3LjAnLCAnLXRuJywgJzgnLCAnLW1hJywgJzIwMCcsICctbWV0YWxfYmluZGluZycsICctaW1hZScsICc8aW5maWxlLm1hZT4nLCAnLW9tYWUnLCAnPG91dGZpbGUubWFlPic=

> <r_lp_tautomer_probability>
1

> <r_epik_Ionization_Penalty>
0.0446698

> <r_epik_Ionization_Penalty_Charging>
0

> <r_epik_Ionization_Penalty_Neutral>
0.0446698

> <r_epik_State_Penalty>
0.0378721

> <r_epik_Charging_Adjusted_Penalty>
0.0378721

> <i_epik_Tot_Q>
0

> <i_epik_Tot_abs_Q>
0

> <r_epik_Metal_State_Penalty>
3.91074e-05

> <b_epik_Metal_Only>
0

> <s_lp_Force_Field>
OPLS_2005

> <r_lp_Energy>
18.5204

> <b_lp_Chiralities_Consistent>
1

> <s_lp_Variant>
AV-unprocessed.smi:869-2

> <Gold.Version>
5.8.1

> <Gold.Id.Protein>
6NUR|6NUR_protein|mol2

> <Gold.PLP.Fitness>
51.1552

> <Gold.PLP.PLP>
-48.0935

> <Gold.PLP.part.hbond>
-3.3280

> <Gold.PLP.part.metal>
0.0000

> <Gold.PLP.part.buried>
-4.5041

> <Gold.PLP.part.nonpolar>
-41.3063

> <Gold.PLP.part.repulsive>
0.2433

> <Gold.PLP.ligand.clash>
0.0000

> <Gold.PLP.ligand.torsion>
1.8850

> <Gold.PLP.Chemscore.Hbond>
2.2565

> <Gold.PLP.Chemscore.CHOScore>
0.0000

> <Gold.PLP.Chemscore.Metal>
0.0000

> <Gold.Chemscore.Hbonds>
donor molecule, donor type, donor heavy atom, donor atom, acceptor molecule, acceptor atom, score
      L1  H    15    37       P1  8028  0.89
      P1  H  7989  7998       L1     2  0.47
      P1  H  7997  8010       L1     5  0.18

> <Gold.PLP.Chemscore.Internal.Correction>
0.0620

> <Gold.Rescore>
     Score         DG    S(hbond)    S(metal)    S(lipo)     H(rot)  DE(clash)    DE(int)     intcor
     13.01     -18.88       1.11        0.00     134.41       2.36       1.23       4.64       ----

> <Gold.Chemscore.Fitness>
13.0147

> <Gold.Chemscore.DG>
-18.8803

> <Gold.Chemscore.ZeroCoef>
-5.4800

> <Gold.Chemscore.Hbond>
1.1115

> <Gold.Chemscore.Metal>
0.0000

> <Gold.Chemscore.Lipo>
134.4078

> <Gold.Chemscore.Internal_Hbond>
0.0000

> <Gold.Chemscore.DEClash>
1.2287

> <Gold.Chemscore.DEInternal>
4.6369

> <Gold.Chemscore.Rot>
2.3585

> <Gold.Chemscore.Internal.Correction>
   9.000000E+99

> <Gold.Chemscore.Hbonds>
donor molecule, donor type, donor heavy atom, donor atom, acceptor molecule, acceptor atom, score
      L1  H    15    37       P1  8028  0.52
      P1  H  7989  7998       L1     2  0.24

> <Gold.Chemscore.Hbond.Weighted>
-3.7124

> <Gold.Chemscore.Metal.Weighted>
-0.0000

> <Gold.Chemscore.Lipo.Weighted>
-15.7257

> <Gold.Chemscore.Internal_Hbond.Weighted>
0.0000

> <Gold.Chemscore.DEClash.Weighted>
1.2287

> <Gold.Chemscore.DEInternal.Weighted>
4.6369

> <Gold.Chemscore.Rot.Weighted>
6.0378

> <Gold.Chemscore.Internal.Correction.Weighted>
   9.000000E+99

> <Gold.Protein.RotatedTorsions>
[ 6907 6896 6895 6894 ] final  166.14 input  -60.11 | X-H torsion
[ 7974 7965 7964 7962 ] final  -24.71 input  175.53 | X-H torsion
[ 8008 7997 7996 7995 ] final   68.67 input   59.86 | X-H torsion
[ 10167 10162 10161 10158 ] final  -99.28 input  -65.29 | X-H torsion
[ 10718 10713 10712 10709 ] final  -17.10 input   66.30 | X-H torsion
[ 10763 10752 10751 10750 ] final  -66.71 input  -60.55 | X-H torsion
[ 11005 11000 10999 10996 ] final -159.21 input  -57.11 | X-H torsion

> <Gold.Protein.ActiveResidues>
 VAL166  LYS551  ARG553  GLY616  TRP617  ASP618  TYR619  PRO620  LYS621  CYS622 
 ASP623  PHE694  ASN695  SER759  ASP760  ASP761  ALA762  ILE779  LEU786  VAL792 
 PHE793  MET794  SER795  GLU796  ALA797  LYS798  CYS799  TRP800  GLU811  SER814 

> <Gold.Protein.RotatedAtoms>
  151.8835  133.3500  159.3774 H   0  0  0  0  0  0  0  0  0  0  0  0  # atno 6907 bound_to 6896
  150.7121  134.4995  159.5564 H   0  0  0  0  0  0  0  0  0  0  0  0  # atno 6908 bound_to 6896
  152.2551  134.8093  160.0490 H   0  0  0  0  0  0  0  0  0  0  0  0  # atno 6909 bound_to 6896
  146.1537  140.4789  142.8600 H   0  0  0  0  0  0  0  0  0  0  0  0  # atno 7974 bound_to 7965
  155.7118  140.3494  155.4977 H   0  0  0  0  0  0  0  0  0  0  0  0  # atno 8008 bound_to 7997
  155.9349  140.1091  157.1125 H   0  0  0  0  0  0  0  0  0  0  0  0  # atno 8009 bound_to 7997
  154.4092  140.1224  156.4837 H   0  0  0  0  0  0  0  0  0  0  0  0  # atno 8010 bound_to 7997
  140.2641  143.3388  152.0598 H   0  0  0  0  0  0  0  0  0  0  0  0  # atno 10167 bound_to 10162
  156.5783  130.4767  149.6332 H   0  0  0  0  0  0  0  0  0  0  0  0  # atno 10718 bound_to 10713
  154.3639  135.6110  153.5704 H   0  0  0  0  0  0  0  0  0  0  0  0  # atno 10763 bound_to 10752
  152.9792  135.5821  154.4601 H   0  0  0  0  0  0  0  0  0  0  0  0  # atno 10764 bound_to 10752
  154.4343  135.2848  155.1868 H   0  0  0  0  0  0  0  0  0  0  0  0  # atno 10765 bound_to 10752
  140.6450  134.4510  157.5234 H   0  0  0  0  0  0  0  0  0  0  0  0  # atno 11005 bound_to 11000
  144.7936  140.6080  143.6525 LP  0  0  0  0  0  0  0  0  0  0  0  0  # atno 17320 bound_to 7965
  145.4761  139.1499  143.3788 LP  0  0  0  0  0  0  0  0  0  0  0  0  # atno 17321 bound_to 7965
  139.5008  144.6700  151.6266 LP  0  0  0  0  0  0  0  0  0  0  0  0  # atno 17342 bound_to 10162
  140.5942  143.9725  150.6344 LP  0  0  0  0  0  0  0  0  0  0  0  0  # atno 17343 bound_to 10162
  156.2654  130.6986  151.1767 LP  0  0  0  0  0  0  0  0  0  0  0  0  # atno 17370 bound_to 10713
  157.7332  131.0593  150.5587 LP  0  0  0  0  0  0  0  0  0  0  0  0  # atno 17371 bound_to 10713
  139.9066  134.8436  156.1683 LP  0  0  0  0  0  0  0  0  0  0  0  0  # atno 17394 bound_to 11000
  141.0578  133.6856  156.1895 LP  0  0  0  0  0  0  0  0  0  0  0  0  # atno 17395 bound_to 11000

$$$$
