AV-unprocessed.smi:1392|AV-procd|sdf|5660|dock1
  -GOLD-   22720 5283D 1   1.00000     0.00000
 Structure written by MMmdl.
 40 41  0  0  0  0  0  0  0  0  2 V2000
  145.2941  132.4190  149.4275 C   0  0  0  0  0  0  0  0  0  0  0  0
  144.3287  133.0107  150.3443 N   0  0  0  0  0  0  0  0  0  0  0  0
  143.1496  132.2588  150.7592 C   0  0  0  0  0  0  0  0  0  0  0  0
  144.5497  134.3076  150.8564 C   0  0  0  0  0  0  0  0  0  0  0  0
  143.7447  134.8914  151.8650 C   0  0  0  0  0  0  0  0  0  0  0  0
  144.0290  136.1940  152.3233 C   0  0  0  0  0  0  0  0  0  0  0  0
  145.1086  136.9142  151.7710 C   0  0  0  0  0  0  0  0  0  0  0  0
  145.3580  138.2205  152.2743 N   0  0  0  0  0  0  0  0  0  0  0  0
  146.5378  138.8119  152.5314 C   0  0  0  0  0  0  0  0  0  0  0  0
  147.6440  138.2997  152.3622 O   0  0  0  0  0  0  0  0  0  0  0  0
  146.3648  140.0595  152.9906 N   0  0  0  0  0  0  0  0  0  0  0  0
  147.4424  140.9747  153.3522 C   0  0  0  0  0  0  0  0  0  0  0  0
  146.9737  142.0563  154.3437 C   0  0  1  0  0  0  0  0  0  0  0  0
  145.8628  142.9378  153.8117 C   0  0  0  0  0  0  0  0  0  0  0  0
  145.3106  143.5457  155.0960 C   0  0  0  0  0  0  0  0  0  0  0  0
  145.4477  142.5313  156.0862 O   0  0  0  0  0  0  0  0  0  0  0  0
  146.3403  141.5182  155.6295 C   0  0  0  0  0  0  0  0  0  0  0  0
  145.8907  136.2837  150.7739 C   0  0  0  0  0  0  0  0  0  0  0  0
  145.5835  135.0337  150.3650 N   0  3  0  0  0  0  0  0  0  0  0  0
  145.3871  133.0243  148.5254 H   0  0  0  0  0  0  0  0  0  0  0  0
  144.9906  131.4165  149.1253 H   0  0  0  0  0  0  0  0  0  0  0  0
  146.2743  132.3420  149.8995 H   0  0  0  0  0  0  0  0  0  0  0  0
  142.2387  132.7908  150.4826 H   0  0  0  0  0  0  0  0  0  0  0  0
  143.1505  132.1096  151.8395 H   0  0  0  0  0  0  0  0  0  0  0  0
  143.1181  131.2765  150.2870 H   0  0  0  0  0  0  0  0  0  0  0  0
  142.9101  134.3604  152.2978 H   0  0  0  0  0  0  0  0  0  0  0  0
  143.4140  136.6364  153.0935 H   0  0  0  0  0  0  0  0  0  0  0  0
  144.5392  138.7951  152.4096 H   0  0  0  0  0  0  0  0  0  0  0  0
  145.4218  140.4042  153.0959 H   0  0  0  0  0  0  0  0  0  0  0  0
  148.2808  140.4160  153.7715 H   0  0  0  0  0  0  0  0  0  0  0  0
  147.8116  141.4392  152.4372 H   0  0  0  0  0  0  0  0  0  0  0  0
  147.8155  142.6974  154.6114 H   0  0  0  0  0  0  0  0  0  0  0  0
  146.2136  143.6888  153.1031 H   0  0  0  0  0  0  0  0  0  0  0  0
  145.0959  142.3359  153.3222 H   0  0  0  0  0  0  0  0  0  0  0  0
  145.9087  144.4071  155.3955 H   0  0  0  0  0  0  0  0  0  0  0  0
  144.2748  143.8704  154.9948 H   0  0  0  0  0  0  0  0  0  0  0  0
  145.7595  140.6171  155.4289 H   0  0  0  0  0  0  0  0  0  0  0  0
  147.0855  141.2765  156.3876 H   0  0  0  0  0  0  0  0  0  0  0  0
  146.7539  136.7157  150.2908 H   0  0  0  0  0  0  0  0  0  0  0  0
  146.1674  134.6109  149.6432 H   0  0  0  0  0  0  0  0  0  0  0  0
  1  2  1  0  0  0  0
  1 20  1  0  0  0  0
  1 21  1  0  0  0  0
  1 22  1  0  0  0  0
  2  3  1  0  0  0  0
  2  4  1  0  0  0  0
  3 23  1  0  0  0  0
  3 24  1  0  0  0  0
  3 25  1  0  0  0  0
  4 19  1  0  0  0  0
  4  5  2  0  0  0  0
  5  6  1  0  0  0  0
  5 26  1  0  0  0  0
  6  7  2  0  0  0  0
  6 27  1  0  0  0  0
  7  8  1  0  0  0  0
  7 18  1  0  0  0  0
  8  9  1  0  0  0  0
  8 28  1  0  0  0  0
  9 10  2  0  0  0  0
  9 11  1  0  0  0  0
 11 12  1  0  0  0  0
 11 29  1  0  0  0  0
 12 13  1  0  0  0  0
 12 30  1  0  0  0  0
 12 31  1  0  0  0  0
 13 17  1  0  0  0  0
 13 14  1  0  0  0  0
 13 32  1  0  0  0  0
 14 15  1  0  0  0  0
 14 33  1  0  0  0  0
 14 34  1  0  0  0  0
 15 16  1  0  0  0  0
 15 35  1  0  0  0  0
 15 36  1  0  0  0  0
 16 17  1  0  0  0  0
 17 37  1  0  0  0  0
 17 38  1  0  0  0  0
 18 19  2  0  0  0  0
 18 39  1  0  0  0  0
 19 40  1  0  0  0  0
M  CHG  1  19   1
M  END
> <s_m_source_file>
AV-unprocessed.smi

> <i_m_source_file_index>
1392

> <i_lp_mmshare_version>
43012

> <i_f3d_flags>
0

> <s_epik_input>
W0NIM11OKFtDSDNdKWMxW2NIXVtjSF1jKFtjSF1uMSlbTkhdQyg9TylbTkhdW0NIMl1bQ0BASF0yW0NIMl1bQ0gyXU9bQ0gyXTI=

> <s_epik_cmdline>
J2VwaWtfcHl0aG9uJywgJy1waCcsICc3LjAnLCAnLXRuJywgJzgnLCAnLW1hJywgJzIwMCcsICctbWV0YWxfYmluZGluZycsICctaW1hZScsICc8aW5maWxlLm1hZT4nLCAnLW9tYWUnLCAnPG91dGZpbGUubWFlPic=

> <r_lp_tautomer_probability>
0.999994

> <r_epik_Ionization_Penalty>
0.261114

> <r_epik_Ionization_Penalty_Charging>
0.261094

> <r_epik_Ionization_Penalty_Neutral>
2.01539e-05

> <r_epik_State_Penalty>
0.252829

> <r_epik_Charging_Adjusted_Penalty>
0.513923

> <i_epik_Tot_Q>
1

> <i_epik_Tot_abs_Q>
1

> <r_epik_Metal_State_Penalty>
0.54073

> <b_epik_Metal_Only>
0

> <s_lp_Force_Field>
OPLS_2005

> <r_lp_Energy>
29.0313

> <b_lp_Chiralities_Consistent>
1

> <s_lp_Variant>
AV-unprocessed.smi:1392-2

> <Gold.Version>
5.8.1

> <Gold.Id.Protein>
6NUR|6NUR_protein|mol2

> <Gold.PLP.Fitness>
40.2653

> <Gold.PLP.PLP>
-33.3666

> <Gold.PLP.part.hbond>
-4.0000

> <Gold.PLP.part.metal>
0.0000

> <Gold.PLP.part.buried>
-2.6017

> <Gold.PLP.part.nonpolar>
-32.5643

> <Gold.PLP.part.repulsive>
6.3113

> <Gold.PLP.ligand.clash>
0.0000

> <Gold.PLP.ligand.torsion>
0.4885

> <Gold.PLP.Chemscore.Hbond>
2.6105

> <Gold.PLP.Chemscore.CHOScore>
0.0000

> <Gold.PLP.Chemscore.Metal>
0.0000

> <Gold.Chemscore.Hbonds>
donor molecule, donor type, donor heavy atom, donor atom, acceptor molecule, acceptor atom, score
      L1  H     8    28       P1 10175  1.00
      L1  H    11    29       P1 10175  0.98
      L1  H    19    40       P1  7921  0.62

> <Gold.PLP.Chemscore.Internal.Correction>
0.0440

> <Gold.Rescore>
     Score         DG    S(hbond)    S(metal)    S(lipo)     H(rot)  DE(clash)    DE(int)     intcor
     14.33     -23.43       3.54        0.00      79.31       1.23       8.06       1.04       ----

> <Gold.Chemscore.Fitness>
14.3325

> <Gold.Chemscore.DG>
-23.4331

> <Gold.Chemscore.ZeroCoef>
-5.4800

> <Gold.Chemscore.Hbond>
3.5374

> <Gold.Chemscore.Metal>
0.0000

> <Gold.Chemscore.Lipo>
79.3054

> <Gold.Chemscore.Internal_Hbond>
0.0000

> <Gold.Chemscore.DEClash>
8.0581

> <Gold.Chemscore.DEInternal>
1.0424

> <Gold.Chemscore.Rot>
1.2268

> <Gold.Chemscore.Internal.Correction>
   9.000000E+99

> <Gold.Chemscore.Hbonds>
donor molecule, donor type, donor heavy atom, donor atom, acceptor molecule, acceptor atom, score
      L1  H     8    28       P1 10175  0.96
      L1  H    11    29       P1 10175  0.89
      L1  H    19    40       P1  7921  0.23

> <Gold.Chemscore.Hbond.Weighted>
-11.8149

> <Gold.Chemscore.Metal.Weighted>
-0.0000

> <Gold.Chemscore.Lipo.Weighted>
-9.2787

> <Gold.Chemscore.Internal_Hbond.Weighted>
0.0000

> <Gold.Chemscore.DEClash.Weighted>
8.0581

> <Gold.Chemscore.DEInternal.Weighted>
1.0424

> <Gold.Chemscore.Rot.Weighted>
3.1406

> <Gold.Chemscore.Internal.Correction.Weighted>
   9.000000E+99

> <Gold.Protein.RotatedTorsions>
[ 6907 6896 6895 6894 ] final  -76.41 input  -60.11 | X-H torsion
[ 7974 7965 7964 7962 ] final  -14.03 input  175.53 | X-H torsion
[ 8008 7997 7996 7995 ] final  -34.09 input   59.86 | X-H torsion
[ 10167 10162 10161 10158 ] final  -73.17 input  -65.29 | X-H torsion
[ 10718 10713 10712 10709 ] final  132.63 input   66.30 | X-H torsion
[ 10763 10752 10751 10750 ] final  -66.38 input  -60.55 | X-H torsion
[ 11005 11000 10999 10996 ] final   69.92 input  -57.11 | X-H torsion

> <Gold.Protein.ActiveResidues>
 VAL166  LYS551  ARG553  GLY616  TRP617  ASP618  TYR619  PRO620  LYS621  CYS622 
 ASP623  PHE694  ASN695  SER759  ASP760  ASP761  ALA762  ILE779  LEU786  VAL792 
 PHE793  MET794  SER795  GLU796  ALA797  LYS798  CYS799  TRP800  GLU811  SER814 

> <Gold.Protein.RotatedAtoms>
  150.7028  134.4576  159.5365 H   0  0  0  0  0  0  0  0  0  0  0  0  # atno 6907 bound_to 6896
  152.2257  134.8367  160.0489 H   0  0  0  0  0  0  0  0  0  0  0  0  # atno 6908 bound_to 6896
  151.9201  133.3548  159.3931 H   0  0  0  0  0  0  0  0  0  0  0  0  # atno 6909 bound_to 6896
  146.2090  140.3289  142.8397 H   0  0  0  0  0  0  0  0  0  0  0  0  # atno 7974 bound_to 7965
  154.4130  140.1693  156.1993 H   0  0  0  0  0  0  0  0  0  0  0  0  # atno 8008 bound_to 7997
  155.9537  140.3399  155.6406 H   0  0  0  0  0  0  0  0  0  0  0  0  # atno 8009 bound_to 7997
  155.6837  140.0725  157.2465 H   0  0  0  0  0  0  0  0  0  0  0  0  # atno 8010 bound_to 7997
  140.5132  143.2342  151.7558 H   0  0  0  0  0  0  0  0  0  0  0  0  # atno 10167 bound_to 10162
  157.4852  131.1088  150.9629 H   0  0  0  0  0  0  0  0  0  0  0  0  # atno 10718 bound_to 10713
  154.3590  135.6120  153.5681 H   0  0  0  0  0  0  0  0  0  0  0  0  # atno 10763 bound_to 10752
  152.9794  135.5810  154.4655 H   0  0  0  0  0  0  0  0  0  0  0  0  # atno 10764 bound_to 10752
  154.4389  135.2849  155.1839 H   0  0  0  0  0  0  0  0  0  0  0  0  # atno 10765 bound_to 10752
  139.9626  134.7034  156.0612 H   0  0  0  0  0  0  0  0  0  0  0  0  # atno 11005 bound_to 11000
  144.8866  140.7470  143.5953 LP  0  0  0  0  0  0  0  0  0  0  0  0  # atno 17320 bound_to 7965
  145.3211  139.1788  143.4587 LP  0  0  0  0  0  0  0  0  0  0  0  0  # atno 17321 bound_to 7965
  139.4902  144.4361  151.9817 LP  0  0  0  0  0  0  0  0  0  0  0  0  # atno 17342 bound_to 10162
  140.3454  144.3153  150.5959 LP  0  0  0  0  0  0  0  0  0  0  0  0  # atno 17343 bound_to 10162
  157.0349  130.5726  149.5348 LP  0  0  0  0  0  0  0  0  0  0  0  0  # atno 17370 bound_to 10713
  156.0143  130.5236  150.8086 LP  0  0  0  0  0  0  0  0  0  0  0  0  # atno 17371 bound_to 10713
  141.1305  133.6588  156.3451 LP  0  0  0  0  0  0  0  0  0  0  0  0  # atno 17394 bound_to 11000
  140.5466  134.6069  157.5395 LP  0  0  0  0  0  0  0  0  0  0  0  0  # atno 17395 bound_to 11000

$$$$
