#       Name:                AV-unprocessed.smi:2792
#       Creating user name   scv26
#       Creation time:       Fri Mar 27 15:21:06 2020


#       File generated by GOLD software.
#

@<TRIPOS>MOLECULE
AV-unprocessed.smi:2792
    49    51     1
SMALL
NO_CHARGES


@<TRIPOS>ATOM
      1 ****        -3.3167  -3.3840   0.9183 C.3            1 S1                 0.0000
      2 ****        -1.7984  -3.1942   1.0705 C.3            1 S1                 0.0000
      3 ****        -1.3399  -2.4794   2.3683 C.3            1 S1                 0.0000
      4 ****        -1.9000  -3.1527   3.6354 C.3            1 S1                 0.0000
      5 ****        -1.8457  -1.1580   2.3364 O.3            1 S1                 0.0000
      6 ****         0.2057  -2.4007   2.4735 C.3            1 S1                 0.0000
      7 ****         0.8551  -1.7672   1.3356 N.pl3          1 S1                 0.0000
      8 ****         1.3495  -2.3945   0.2132 C.2            1 S1                 0.0000
      9 ****         1.8879  -1.6051  -0.6762 N.2            1 S1                 0.0000
     10 ****         1.7660  -0.3394  -0.1175 C.ar           1 S1                 0.0000
     11 ****         2.1345   0.9627  -0.5428 C.ar           1 S1                 0.0000
     12 ****         2.7445   1.1635  -1.7316 N.pl3          1 S1                 0.0000
     13 ****         2.7916   2.4992  -2.3178 C.3            1 S1                 0.0000
     14 ****         1.4368   3.0923  -2.6716 C.ar           1 S1                 0.0000
     15 ****         0.4902   2.3346  -3.3946 C.ar           1 S1                 0.0000
     16 ****        -0.7643   2.8882  -3.7159 C.ar           1 S1                 0.0000
     17 ****        -1.0772   4.2022  -3.3178 C.ar           1 S1                 0.0000
     18 ****        -0.1345   4.9627  -2.5992 C.ar           1 S1                 0.0000
     19 ****         1.1206   4.4096  -2.2784 C.ar           1 S1                 0.0000
     20 ****         1.8614   2.0015   0.2900 N.ar           1 S1                 0.0000
     21 ****         1.2566   1.7797   1.4612 C.ar           1 S1                 0.0000
     22 ****         0.8497   0.6208   1.9849 N.ar           1 S1                 0.0000
     23 ****         1.1259  -0.4227   1.1505 C.ar           1 S1                 0.0000
     24 ****        -3.5509  -3.8191  -0.0533 H              1 S1                 0.0000
     25 ****        -3.8486  -2.4350   0.9885 H              1 S1                 0.0000
     26 ****        -3.7182  -4.0555   1.6769 H              1 S1                 0.0000
     27 ****        -1.3202  -4.1726   1.0114 H              1 S1                 0.0000
     28 ****        -1.4473  -2.6371   0.2013 H              1 S1                 0.0000
     29 ****        -1.5989  -4.1993   3.6893 H              1 S1                 0.0000
     30 ****        -2.9890  -3.1182   3.6709 H              1 S1                 0.0000
     31 ****        -1.5375  -2.6606   4.5386 H              1 S1                 0.0000
     32 ****        -1.5232  -0.6933   3.0935 H              1 S1                 0.0000
     33 ****         0.4987  -1.8590   3.3743 H              1 S1                 0.0000
     34 ****         0.6205  -3.4043   2.5784 H              1 S1                 0.0000
     35 ****         1.2890  -3.4635   0.0701 H              1 S1                 0.0000
     36 ****         2.9834   0.4050  -2.3540 H              1 S1                 0.0000
     37 ****         3.3278   3.1695  -1.6448 H              1 S1                 0.0000
     38 ****         3.3856   2.4457  -3.2303 H              1 S1                 0.0000
     39 ****         0.7224   1.3256  -3.7025 H              1 S1                 0.0000
     40 ****        -1.4868   2.3042  -4.2666 H              1 S1                 0.0000
     41 ****        -2.0399   4.6264  -3.5628 H              1 S1                 0.0000
     42 ****        -0.3740   5.9702  -2.2927 H              1 S1                 0.0000
     43 ****         1.8373   4.9979  -1.7244 H              1 S1                 0.0000
     44 ****         1.0726   2.6560   2.0649 H              1 S1                 0.0000
     45 ****        -2.8454  -1.1794   2.3548 LP             1 S1                 0.0000
     46 ****        -1.5374  -0.6993   1.5030 LP             1 S1                 0.0000
     47 ****         2.2938  -1.8540  -1.5556 LP             1 S1                 0.0000
     48 ****         2.1131   2.9326   0.0263 LP             1 S1                 0.0000
     49 ****         0.4006   0.5295   2.8737 LP             1 S1                 0.0000
@<TRIPOS>BOND
    1    1    2 1     
    2    1   24 1     
    3    1   25 1     
    4    1   26 1     
    5    2    3 1     
    6    2   27 1     
    7    2   28 1     
    8    3    4 1     
    9    3    5 1     
   10    3    6 1     
   11    4   29 1     
   12    4   30 1     
   13    4   31 1     
   14    5   32 1     
   15    6    7 1     
   16    6   33 1     
   17    6   34 1     
   18    7   23 1     
   19    7    8 1     
   20    8    9 2     
   21    8   35 1     
   22    9   10 1     
   23   10   23 ar    
   24   10   11 ar    
   25   11   12 1     
   26   11   20 ar    
   27   12   13 1     
   28   12   36 1     
   29   13   14 1     
   30   13   37 1     
   31   13   38 1     
   32   14   19 ar    
   33   14   15 ar    
   34   15   16 ar    
   35   15   39 1     
   36   16   17 ar    
   37   16   40 1     
   38   17   18 ar    
   39   17   41 1     
   40   18   19 ar    
   41   18   42 1     
   42   19   43 1     
   43   20   21 ar    
   44   21   22 ar    
   45   21   44 1     
   46   22   23 ar    
   47    5   45 1     
   48    5   46 1     
   49    9   47 1     
   50   20   48 1     
   51   22   49 1     
@<TRIPOS>SUBSTRUCTURE
      1 S1             1
@<TRIPOS>SET
LONE_PAIRS      STATIC     ATOMS    <user>   **** ""
5 45 46 47 48 49
DONOR_HYDROGENS      STATIC     ATOMS    <user>   **** ""
2 32 36
ATOM$BLUE        STATIC     ATOMS    COLORGROUP SYSTEM
5 45 46 47 48 49
ATOM$RED        STATIC     ATOMS    COLORGROUP SYSTEM
2 32 36
