AV-unprocessed.smi:2504|AV-procd|sdf|9852|dock6
  -GOLD-   2272013483D 1   1.00000     0.00000
 Structure written by MMmdl.
 46 48  0  0  0  0  0  0  0  0  3 V2000
  150.2465  133.4209  155.9827 O   0  0  0  0  0  0  0  0  0  0  0  0
  149.8396  134.3541  155.2899 C   0  0  0  0  0  0  0  0  0  0  0  0
  148.6064  134.1799  154.3787 C   0  0  0  0  0  0  0  0  0  0  0  0
  147.4237  133.5485  155.1275 C   0  0  0  0  0  0  0  0  0  0  0  0
  147.6185  132.0374  154.9892 C   0  0  0  0  0  0  0  0  0  0  0  0
  148.3128  131.8346  153.6377 C   0  0  0  0  0  0  0  0  0  0  0  0
  148.8637  133.2059  153.2134 C   0  0  0  0  0  0  0  0  0  0  0  0
  150.4231  135.6213  155.3626 N   0  0  0  0  0  0  0  0  0  0  0  0
  151.1748  136.0567  156.5325 C   0  0  0  0  0  0  0  0  0  0  0  0
  150.6712  137.4700  156.2038 C   0  0  0  0  0  0  0  0  0  0  0  0
  151.9081  138.6061  155.4032 S   0  0  0  0  0  0  0  0  0  0  0  0
  153.0046  137.7311  154.9556 O   0  0  0  0  0  0  0  0  0  0  0  0
  151.1699  139.3445  154.3666 O   0  0  0  0  0  0  0  0  0  0  0  0
  152.3460  139.5678  156.6333 N   0  5  0  0  0  0  0  0  0  0  0  0
  151.5997  140.7788  156.9202 C   0  0  0  0  0  0  0  0  0  0  0  0
  151.7512  141.1352  158.4155 C   0  0  0  0  0  0  0  0  0  0  0  0
  151.5354  142.6124  158.7346 C   0  0  0  0  0  0  0  0  0  0  0  0
  152.4488  143.3103  159.5598 C   0  0  0  0  0  0  0  0  0  0  0  0
  152.2366  144.6775  159.8299 C   0  0  0  0  0  0  0  0  0  0  0  0
  151.1144  145.3209  159.2710 C   0  0  0  0  0  0  0  0  0  0  0  0
  150.2577  144.6234  158.4934 N   0  3  0  0  0  0  0  0  0  0  0  0
  150.4233  143.3122  158.2134 C   0  0  0  0  0  0  0  0  0  0  0  0
  149.6602  136.8547  155.2271 C   0  0  0  0  0  0  0  0  0  0  0  0
  148.3262  135.1543  153.9767 H   0  0  0  0  0  0  0  0  0  0  0  0
  147.3596  133.8531  156.1731 H   0  0  0  0  0  0  0  0  0  0  0  0
  146.4906  133.8450  154.6469 H   0  0  0  0  0  0  0  0  0  0  0  0
  148.2661  131.6777  155.7899 H   0  0  0  0  0  0  0  0  0  0  0  0
  146.6782  131.4902  155.0611 H   0  0  0  0  0  0  0  0  0  0  0  0
  149.1079  131.0931  153.7191 H   0  0  0  0  0  0  0  0  0  0  0  0
  147.6043  131.4700  152.8932 H   0  0  0  0  0  0  0  0  0  0  0  0
  148.3316  133.5523  152.3266 H   0  0  0  0  0  0  0  0  0  0  0  0
  149.9179  133.1446  152.9384 H   0  0  0  0  0  0  0  0  0  0  0  0
  150.7745  135.6731  157.4726 H   0  0  0  0  0  0  0  0  0  0  0  0
  152.2518  135.9090  156.4503 H   0  0  0  0  0  0  0  0  0  0  0  0
  150.1962  137.9696  157.0483 H   0  0  0  0  0  0  0  0  0  0  0  0
  151.9514  141.6231  156.3265 H   0  0  0  0  0  0  0  0  0  0  0  0
  150.5416  140.6652  156.6847 H   0  0  0  0  0  0  0  0  0  0  0  0
  151.0400  140.5489  158.9981 H   0  0  0  0  0  0  0  0  0  0  0  0
  152.7401  140.8367  158.7668 H   0  0  0  0  0  0  0  0  0  0  0  0
  153.3119  142.8058  159.9700 H   0  0  0  0  0  0  0  0  0  0  0  0
  152.9277  145.2240  160.4540 H   0  0  0  0  0  0  0  0  0  0  0  0
  150.8781  146.3641  159.4216 H   0  0  0  0  0  0  0  0  0  0  0  0
  149.6742  142.8672  157.5748 H   0  0  0  0  0  0  0  0  0  0  0  0
  149.6773  137.2706  154.2190 H   0  0  0  0  0  0  0  0  0  0  0  0
  148.6529  136.7997  155.6417 H   0  0  0  0  0  0  0  0  0  0  0  0
  149.4520  145.1080  158.0977 H   0  0  0  0  0  0  0  0  0  0  0  0
  1  2  2  0  0  0  0
  2  3  1  0  0  0  0
  2  8  1  0  0  0  0
  3  7  1  0  0  0  0
  3  4  1  0  0  0  0
  3 24  1  0  0  0  0
  4  5  1  0  0  0  0
  4 25  1  0  0  0  0
  4 26  1  0  0  0  0
  5  6  1  0  0  0  0
  5 27  1  0  0  0  0
  5 28  1  0  0  0  0
  6  7  1  0  0  0  0
  6 29  1  0  0  0  0
  6 30  1  0  0  0  0
  7 31  1  0  0  0  0
  7 32  1  0  0  0  0
  8 23  1  0  0  0  0
  8  9  1  0  0  0  0
  9 10  1  0  0  0  0
  9 33  1  0  0  0  0
  9 34  1  0  0  0  0
 10 11  1  0  0  0  0
 10 23  1  0  0  0  0
 10 35  1  0  0  0  0
 11 12  2  0  0  0  0
 11 13  2  0  0  0  0
 11 14  1  0  0  0  0
 14 15  1  0  0  0  0
 15 16  1  0  0  0  0
 15 36  1  0  0  0  0
 15 37  1  0  0  0  0
 16 17  1  0  0  0  0
 16 38  1  0  0  0  0
 16 39  1  0  0  0  0
 17 22  1  0  0  0  0
 17 18  2  0  0  0  0
 18 19  1  0  0  0  0
 18 40  1  0  0  0  0
 19 20  2  0  0  0  0
 19 41  1  0  0  0  0
 20 21  1  0  0  0  0
 20 42  1  0  0  0  0
 21 22  2  0  0  0  0
 21 46  1  0  0  0  0
 22 43  1  0  0  0  0
 23 44  1  0  0  0  0
 23 45  1  0  0  0  0
M  CHG  1  14  -1
M  CHG  1  21   1
M  END
> <s_m_source_file>
AV-unprocessed.smi

> <i_m_source_file_index>
2504

> <i_lp_mmshare_version>
43012

> <i_f3d_flags>
0

> <s_epik_input>
W0NIMl0xW0NIMl1bQ0gyXVtDSDJdW0NIXTFDKD1PKU4yW0NIMl1bQ0hdKFtDSDJdMilTKD1PKSg9TylbTkhdW0NIMl1bQ0gyXWMzW2NIXVtjSF1bY0hdbltjSF0z

> <s_epik_cmdline>
J2VwaWtfcHl0aG9uJywgJy1waCcsICc3LjAnLCAnLXRuJywgJzgnLCAnLW1hJywgJzIwMCcsICctbWV0YWxfYmluZGluZycsICctaW1hZScsICc8aW5maWxlLm1hZT4nLCAnLW9tYWUnLCAnPG91dGZpbGUubWFlPic=

> <r_epik_Ionization_Penalty>
7.23206

> <r_epik_Ionization_Penalty_Charging>
7.23206

> <r_epik_Ionization_Penalty_Neutral>
2.37876e-07

> <r_epik_State_Penalty>
7.91796

> <r_epik_Charging_Adjusted_Penalty>
15.15

> <i_epik_Tot_Q>
0

> <i_epik_Tot_abs_Q>
2

> <r_epik_Metal_State_Penalty>
3.92928

> <b_epik_Metal_Only>
1

> <s_lp_Force_Field>
OPLS_2005

> <r_lp_Energy>
37.1942

> <b_lp_Chiralities_Consistent>
1

> <s_lp_Variant>
AV-unprocessed.smi:2504-4

> <Gold.Version>
5.8.1

> <Gold.Id.Protein>
6NUR|6NUR_protein|mol2

> <Gold.PLP.Fitness>
55.3089

> <Gold.PLP.PLP>
-42.1265

> <Gold.PLP.part.hbond>
-4.5882

> <Gold.PLP.part.metal>
0.0000

> <Gold.PLP.part.buried>
-6.4608

> <Gold.PLP.part.nonpolar>
-31.8177

> <Gold.PLP.part.repulsive>
0.3238

> <Gold.PLP.ligand.clash>
0.0000

> <Gold.PLP.ligand.torsion>
2.2610

> <Gold.PLP.Chemscore.Hbond>
5.1282

> <Gold.PLP.Chemscore.CHOScore>
0.0000

> <Gold.PLP.Chemscore.Metal>
0.0000

> <Gold.Chemscore.Hbonds>
donor molecule, donor type, donor heavy atom, donor atom, acceptor molecule, acceptor atom, score
      L1  H    21    46       P1  8029  2.00
      P1  H  7989  7998       L1    13  1.00
      P1  H  7997  8008       L1    14  1.76
      P1  H 10752 10765       L1    12  0.23

> <Gold.PLP.Chemscore.Internal.Correction>
2.3199

> <Gold.Rescore>
     Score         DG    S(hbond)    S(metal)    S(lipo)     H(rot)  DE(clash)    DE(int)     intcor
     19.67     -21.83       2.60        0.00     103.02       1.72       0.02       2.13       ----

> <Gold.Chemscore.Fitness>
19.6744

> <Gold.Chemscore.DG>
-21.8329

> <Gold.Chemscore.ZeroCoef>
-5.4800

> <Gold.Chemscore.Hbond>
2.6025

> <Gold.Chemscore.Metal>
0.0000

> <Gold.Chemscore.Lipo>
103.0167

> <Gold.Chemscore.Internal_Hbond>
0.0000

> <Gold.Chemscore.DEClash>
0.0244

> <Gold.Chemscore.DEInternal>
2.1341

> <Gold.Chemscore.Rot>
1.7158

> <Gold.Chemscore.Internal.Correction>
   9.000000E+99

> <Gold.Chemscore.Hbonds>
donor molecule, donor type, donor heavy atom, donor atom, acceptor molecule, acceptor atom, score
      L1  H    21    46       P1  8029  0.30
      P1  H  7989  7998       L1    13  1.00
      P1  H  7997  8008       L1    14  0.44
      P1  H 10752 10765       L1    12  0.22

> <Gold.Chemscore.Hbond.Weighted>
-8.6923

> <Gold.Chemscore.Metal.Weighted>
-0.0000

> <Gold.Chemscore.Lipo.Weighted>
-12.0530

> <Gold.Chemscore.Internal_Hbond.Weighted>
0.0000

> <Gold.Chemscore.DEClash.Weighted>
0.0244

> <Gold.Chemscore.DEInternal.Weighted>
2.1341

> <Gold.Chemscore.Rot.Weighted>
4.3924

> <Gold.Chemscore.Internal.Correction.Weighted>
   9.000000E+99

> <Gold.Protein.RotatedTorsions>
[ 6907 6896 6895 6894 ] final -130.12 input  -60.11 | X-H torsion
[ 7974 7965 7964 7962 ] final -137.14 input  175.53 | X-H torsion
[ 8008 7997 7996 7995 ] final  -56.55 input   59.86 | X-H torsion
[ 10167 10162 10161 10158 ] final -147.64 input  -65.29 | X-H torsion
[ 10718 10713 10712 10709 ] final  -73.25 input   66.30 | X-H torsion
[ 10763 10752 10751 10750 ] final  168.19 input  -60.55 | X-H torsion
[ 11005 11000 10999 10996 ] final   54.36 input  -57.11 | X-H torsion

> <Gold.Protein.ActiveResidues>
 VAL166  LYS551  ARG553  GLY616  TRP617  ASP618  TYR619  PRO620  LYS621  CYS622 
 ASP623  PHE694  ASN695  SER759  ASP760  ASP761  ALA762  ILE779  LEU786  VAL792 
 PHE793  MET794  SER795  GLU796  ALA797  LYS798  CYS799  TRP800  GLU811  SER814 

> <Gold.Protein.RotatedAtoms>
  150.9362  133.6709  159.2799 H   0  0  0  0  0  0  0  0  0  0  0  0  # atno 6907 bound_to 6896
  151.4113  135.0984  159.9596 H   0  0  0  0  0  0  0  0  0  0  0  0  # atno 6908 bound_to 6896
  152.5049  133.8835  159.7413 H   0  0  0  0  0  0  0  0  0  0  0  0  # atno 6909 bound_to 6896
  144.8867  140.6585  143.5171 H   0  0  0  0  0  0  0  0  0  0  0  0  # atno 7974 bound_to 7965
  154.4234  140.1127  156.5655 H   0  0  0  0  0  0  0  0  0  0  0  0  # atno 8008 bound_to 7997
  155.6266  140.3495  155.4650 H   0  0  0  0  0  0  0  0  0  0  0  0  # atno 8009 bound_to 7997
  155.9981  140.1193  157.0563 H   0  0  0  0  0  0  0  0  0  0  0  0  # atno 8010 bound_to 7997
  139.7604  143.8386  152.2606 H   0  0  0  0  0  0  0  0  0  0  0  0  # atno 10167 bound_to 10162
  156.0287  130.4390  150.2715 H   0  0  0  0  0  0  0  0  0  0  0  0  # atno 10718 bound_to 10713
  154.3649  135.2753  155.2299 H   0  0  0  0  0  0  0  0  0  0  0  0  # atno 10763 bound_to 10752
  154.4471  135.5940  153.6171 H   0  0  0  0  0  0  0  0  0  0  0  0  # atno 10764 bound_to 10752
  152.9841  135.6033  154.3874 H   0  0  0  0  0  0  0  0  0  0  0  0  # atno 10765 bound_to 10752
  140.0693  134.5492  155.9064 H   0  0  0  0  0  0  0  0  0  0  0  0  # atno 11005 bound_to 11000
  145.3856  139.1627  143.4257 LP  0  0  0  0  0  0  0  0  0  0  0  0  # atno 17320 bound_to 7965
  146.3029  140.3941  142.8698 LP  0  0  0  0  0  0  0  0  0  0  0  0  # atno 17321 bound_to 7965
  139.8390  144.7218  150.9354 LP  0  0  0  0  0  0  0  0  0  0  0  0  # atno 17342 bound_to 10162
  140.7806  143.4000  151.1165 LP  0  0  0  0  0  0  0  0  0  0  0  0  # atno 17343 bound_to 10162
  157.0818  131.0145  151.3154 LP  0  0  0  0  0  0  0  0  0  0  0  0  # atno 17370 bound_to 10713
  157.4922  130.7829  149.7519 LP  0  0  0  0  0  0  0  0  0  0  0  0  # atno 17371 bound_to 10713
  141.2005  133.6613  156.5902 LP  0  0  0  0  0  0  0  0  0  0  0  0  # atno 17394 bound_to 11000
  140.3651  134.7654  157.4561 LP  0  0  0  0  0  0  0  0  0  0  0  0  # atno 17395 bound_to 11000

$$$$
