AV-unprocessed.smi:1144|AV-procd|sdf|4879|dock4
  -GOLD-   22720 3453D 1   1.00000     0.00000
 Structure written by MMmdl.
 35 36  0  0  0  0  0  0  0  0  2 V2000
  146.8637  140.5336  152.8821 C   0  0  0  0  0  0  0  0  0  0  0  0
  148.1811  140.1181  153.4087 N   0  3  2  0  0  0  0  0  0  0  0  0
  148.1755  138.7325  153.9303 C   0  0  0  0  0  0  0  0  0  0  0  0
  149.5755  138.3477  154.4354 C   0  0  0  0  0  0  0  0  0  0  0  0
  149.9972  139.2840  155.4196 O   0  0  0  0  0  0  0  0  0  0  0  0
  150.1076  140.6065  154.9008 C   0  0  2  0  0  0  0  0  0  0  0  0
  150.6449  141.5164  156.0138 C   0  0  0  0  0  0  0  0  0  0  0  0
  151.7315  140.8843  156.7469 N   0  0  0  0  0  0  0  0  0  0  0  0
  152.2174  141.3457  157.9552 C   0  0  0  0  0  0  0  0  0  0  0  0
  153.0364  140.5125  158.6002 N   0  0  0  0  0  0  0  0  0  0  0  0
  153.5245  140.9297  159.7886 C   0  0  0  0  0  0  0  0  0  0  0  0
  153.1907  142.1873  160.3285 C   0  0  0  0  0  0  0  0  0  0  0  0
  152.3174  142.9878  159.5584 C   0  0  0  0  0  0  0  0  0  0  0  0
  151.8730  144.3699  160.0129 C   0  0  0  0  0  0  0  0  0  0  0  0
  152.3308  144.6557  161.2324 F   0  0  0  0  0  0  0  0  0  0  0  0
  152.3298  145.2897  159.1630 F   0  0  0  0  0  0  0  0  0  0  0  0
  150.5412  144.4289  160.0356 F   0  0  0  0  0  0  0  0  0  0  0  0
  151.8335  142.5580  158.3698 N   0  0  0  0  0  0  0  0  0  0  0  0
  148.7156  141.0608  154.4186 C   0  0  0  0  0  0  0  0  0  0  0  0
  146.1097  140.5386  153.6706 H   0  0  0  0  0  0  0  0  0  0  0  0
  146.5324  139.8539  152.0963 H   0  0  0  0  0  0  0  0  0  0  0  0
  146.9189  141.5355  152.4551 H   0  0  0  0  0  0  0  0  0  0  0  0
  147.4507  138.6484  154.7418 H   0  0  0  0  0  0  0  0  0  0  0  0
  147.8606  138.0434  153.1458 H   0  0  0  0  0  0  0  0  0  0  0  0
  149.5543  137.3526  154.8796 H   0  0  0  0  0  0  0  0  0  0  0  0
  150.2930  138.3145  153.6138 H   0  0  0  0  0  0  0  0  0  0  0  0
  150.8050  140.6167  154.0603 H   0  0  0  0  0  0  0  0  0  0  0  0
  151.0183  142.4453  155.5810 H   0  0  0  0  0  0  0  0  0  0  0  0
  149.8438  141.7827  156.7044 H   0  0  0  0  0  0  0  0  0  0  0  0
  152.0724  139.9902  156.4249 H   0  0  0  0  0  0  0  0  0  0  0  0
  154.1855  140.2551  160.3123 H   0  0  0  0  0  0  0  0  0  0  0  0
  153.5863  142.5116  161.2795 H   0  0  0  0  0  0  0  0  0  0  0  0
  148.7800  142.0600  153.9856 H   0  0  0  0  0  0  0  0  0  0  0  0
  148.0260  141.1209  155.2624 H   0  0  0  0  0  0  0  0  0  0  0  0
  148.8230  140.1323  152.6290 H   0  0  0  0  0  0  0  0  0  0  0  0
  1  2  1  0  0  0  0
  1 20  1  0  0  0  0
  1 21  1  0  0  0  0
  1 22  1  0  0  0  0
  2 19  1  0  0  0  0
  2  3  1  0  0  0  0
  2 35  1  0  0  0  0
  3  4  1  0  0  0  0
  3 23  1  0  0  0  0
  3 24  1  0  0  0  0
  4  5  1  0  0  0  0
  4 25  1  0  0  0  0
  4 26  1  0  0  0  0
  5  6  1  0  0  0  0
  6  7  1  0  0  0  0
  6 19  1  0  0  0  0
  6 27  1  0  0  0  0
  7  8  1  0  0  0  0
  7 28  1  0  0  0  0
  7 29  1  0  0  0  0
  8  9  1  0  0  0  0
  8 30  1  0  0  0  0
  9 18  1  0  0  0  0
  9 10  2  0  0  0  0
 10 11  1  0  0  0  0
 11 12  2  0  0  0  0
 11 31  1  0  0  0  0
 12 13  1  0  0  0  0
 12 32  1  0  0  0  0
 13 14  1  0  0  0  0
 13 18  2  0  0  0  0
 14 15  1  0  0  0  0
 14 16  1  0  0  0  0
 14 17  1  0  0  0  0
 19 33  1  0  0  0  0
 19 34  1  0  0  0  0
M  CHG  1   2   1
M  END
> <s_m_source_file>
AV-unprocessed.smi

> <i_m_source_file_index>
1144

> <i_lp_mmshare_version>
43012

> <i_f3d_flags>
0

> <s_epik_input>
W0NIM11OMVtDSDJdW0NIMl1PW0NASF0oW0NIMl0xKVtDSDJdW05IXWMybltjSF1bY0hdYyhuMilDKEYpKEYpRg==

> <s_epik_cmdline>
J2VwaWtfcHl0aG9uJywgJy1waCcsICc3LjAnLCAnLXRuJywgJzgnLCAnLW1hJywgJzIwMCcsICctbWV0YWxfYmluZGluZycsICctaW1hZScsICc8aW5maWxlLm1hZT4nLCAnLW9tYWUnLCAnPG91dGZpbGUubWFlPic=

> <r_lp_tautomer_probability>
1

> <r_epik_Ionization_Penalty>
0.178506

> <r_epik_Ionization_Penalty_Charging>
0.178504

> <r_epik_Ionization_Penalty_Neutral>
2.47225e-06

> <r_epik_State_Penalty>
0.167974

> <r_epik_Charging_Adjusted_Penalty>
0.346478

> <i_epik_Tot_Q>
1

> <i_epik_Tot_abs_Q>
1

> <r_epik_Metal_State_Penalty>
0.167974

> <b_epik_Metal_Only>
0

> <s_lp_Force_Field>
OPLS_2005

> <r_lp_Energy>
9.23753

> <b_lp_Chiralities_Consistent>
1

> <s_lp_Variant>
AV-unprocessed.smi:1144-4

> <Gold.Version>
5.8.1

> <Gold.Id.Protein>
6NUR|6NUR_protein|mol2

> <Gold.PLP.Fitness>
43.0731

> <Gold.PLP.PLP>
-39.8579

> <Gold.PLP.part.hbond>
-1.6289

> <Gold.PLP.part.metal>
0.0000

> <Gold.PLP.part.buried>
-1.8786

> <Gold.PLP.part.nonpolar>
-35.6617

> <Gold.PLP.part.repulsive>
0.3051

> <Gold.PLP.ligand.clash>
0.0000

> <Gold.PLP.ligand.torsion>
0.3137

> <Gold.PLP.Chemscore.Hbond>
1.2785

> <Gold.PLP.Chemscore.CHOScore>
0.0000

> <Gold.PLP.Chemscore.Metal>
0.0000

> <Gold.Chemscore.Hbonds>
donor molecule, donor type, donor heavy atom, donor atom, acceptor molecule, acceptor atom, score
      L1  H     2    35       P1  7957  1.00
      P1  H  7997  8008       L1    10  0.36

> <Gold.PLP.Chemscore.Internal.Correction>
0.0072

> <Gold.Rescore>
     Score         DG    S(hbond)    S(metal)    S(lipo)     H(rot)  DE(clash)    DE(int)     intcor
     15.91     -16.41       1.30        0.00      85.48       1.34       0.30       0.20       ----

> <Gold.Chemscore.Fitness>
15.9074

> <Gold.Chemscore.DG>
-16.4058

> <Gold.Chemscore.ZeroCoef>
-5.4800

> <Gold.Chemscore.Hbond>
1.3024

> <Gold.Chemscore.Metal>
0.0000

> <Gold.Chemscore.Lipo>
85.4761

> <Gold.Chemscore.Internal_Hbond>
0.0000

> <Gold.Chemscore.DEClash>
0.2950

> <Gold.Chemscore.DEInternal>
0.2034

> <Gold.Chemscore.Rot>
1.3379

> <Gold.Chemscore.Internal.Correction>
   9.000000E+99

> <Gold.Chemscore.Hbonds>
donor molecule, donor type, donor heavy atom, donor atom, acceptor molecule, acceptor atom, score
      L1  H     2    35       P1  7957  1.00
      P1  H  7997  8008       L1    10  0.11

> <Gold.Chemscore.Hbond.Weighted>
-4.3501

> <Gold.Chemscore.Metal.Weighted>
-0.0000

> <Gold.Chemscore.Lipo.Weighted>
-10.0007

> <Gold.Chemscore.Internal_Hbond.Weighted>
0.0000

> <Gold.Chemscore.DEClash.Weighted>
0.2950

> <Gold.Chemscore.DEInternal.Weighted>
0.2034

> <Gold.Chemscore.Rot.Weighted>
3.4250

> <Gold.Chemscore.Internal.Correction.Weighted>
   9.000000E+99

> <Gold.Protein.RotatedTorsions>
[ 6907 6896 6895 6894 ] final  144.04 input  -60.11 | X-H torsion
[ 7974 7965 7964 7962 ] final  -37.68 input  175.53 | X-H torsion
[ 8008 7997 7996 7995 ] final  -84.98 input   59.86 | X-H torsion
[ 10167 10162 10161 10158 ] final  126.49 input  -65.29 | X-H torsion
[ 10718 10713 10712 10709 ] final   69.91 input   66.30 | X-H torsion
[ 10763 10752 10751 10750 ] final   -4.72 input  -60.55 | X-H torsion
[ 11005 11000 10999 10996 ] final  -78.75 input  -57.11 | X-H torsion

> <Gold.Protein.ActiveResidues>
 VAL166  LYS551  ARG553  GLY616  TRP617  ASP618  TYR619  PRO620  LYS621  CYS622 
 ASP623  PHE694  ASN695  SER759  ASP760  ASP761  ALA762  ILE779  LEU786  VAL792 
 PHE793  MET794  SER795  GLU796  ALA797  LYS798  CYS799  TRP800  GLU811  SER814 

> <Gold.Protein.RotatedAtoms>
  152.1987  133.4825  159.5046 H   0  0  0  0  0  0  0  0  0  0  0  0  # atno 6907 bound_to 6896
  150.6965  134.1619  159.4188 H   0  0  0  0  0  0  0  0  0  0  0  0  # atno 6908 bound_to 6896
  151.9536  135.0157  160.0594 H   0  0  0  0  0  0  0  0  0  0  0  0  # atno 6909 bound_to 6896
  146.0553  140.6424  142.9022 H   0  0  0  0  0  0  0  0  0  0  0  0  # atno 7974 bound_to 7965
  154.6357  140.0597  156.9785 H   0  0  0  0  0  0  0  0  0  0  0  0  # atno 8008 bound_to 7997
  155.1596  140.3281  155.4396 H   0  0  0  0  0  0  0  0  0  0  0  0  # atno 8009 bound_to 7997
  156.2506  140.1933  156.6703 H   0  0  0  0  0  0  0  0  0  0  0  0  # atno 8010 bound_to 7997
  139.5628  144.6893  151.3994 H   0  0  0  0  0  0  0  0  0  0  0  0  # atno 10167 bound_to 10162
  157.6372  130.9450  150.0579 H   0  0  0  0  0  0  0  0  0  0  0  0  # atno 10718 bound_to 10713
  153.3887  135.7001  153.6511 H   0  0  0  0  0  0  0  0  0  0  0  0  # atno 10763 bound_to 10752
  153.5093  135.3635  155.2579 H   0  0  0  0  0  0  0  0  0  0  0  0  # atno 10764 bound_to 10752
  154.8700  135.4131  154.3199 H   0  0  0  0  0  0  0  0  0  0  0  0  # atno 10765 bound_to 10752
  141.1666  133.7076  156.8019 H   0  0  0  0  0  0  0  0  0  0  0  0  # atno 11005 bound_to 11000
  144.7145  140.4159  143.7055 LP  0  0  0  0  0  0  0  0  0  0  0  0  # atno 17320 bound_to 7965
  145.6654  139.1589  143.2785 LP  0  0  0  0  0  0  0  0  0  0  0  0  # atno 17321 bound_to 7965
  140.6909  143.7862  150.7255 LP  0  0  0  0  0  0  0  0  0  0  0  0  # atno 17342 bound_to 10162
  140.1345  143.4496  152.2233 LP  0  0  0  0  0  0  0  0  0  0  0  0  # atno 17343 bound_to 10162
  156.1620  130.3644  149.9285 LP  0  0  0  0  0  0  0  0  0  0  0  0  # atno 17370 bound_to 10713
  156.7281  130.9032  151.3623 LP  0  0  0  0  0  0  0  0  0  0  0  0  # atno 17371 bound_to 10713
  140.2250  134.8728  157.3417 LP  0  0  0  0  0  0  0  0  0  0  0  0  # atno 17394 bound_to 11000
  140.1949  134.4326  155.7695 LP  0  0  0  0  0  0  0  0  0  0  0  0  # atno 17395 bound_to 11000

$$$$
