AV-unprocessed.smi:2124|AV-procd|sdf|8656|dock6
  -GOLD-   2272011403D 1   1.00000     0.00000
 Structure written by MMmdl.
 47 49  0  0  0  0  0  0  0  0  1 V2000
  150.0728  134.7916  155.0469 C   0  0  0  0  0  0  0  0  0  0  0  0
  150.3958  136.2155  155.4471 C   0  0  0  0  0  0  0  0  0  0  0  0
  151.4087  136.8788  154.9959 N   0  0  0  0  0  0  0  0  0  0  0  0
  151.6007  138.1964  155.4335 C   0  0  0  0  0  0  0  0  0  0  0  0
  152.7982  138.9153  154.8364 C   0  0  0  0  0  0  0  0  0  0  0  0
  150.7504  138.7864  156.3243 C   0  0  0  0  0  0  0  0  0  0  0  0
  150.9078  140.2360  156.7864 C   0  0  0  0  0  0  0  0  0  0  0  0
  152.0940  140.4784  157.7199 C   0  0  0  0  0  0  0  0  0  0  0  0
  153.0618  139.7187  157.7045 O   0  0  0  0  0  0  0  0  0  0  0  0
  152.0166  141.5723  158.4921 N   0  0  0  0  0  0  0  0  0  0  0  0
  153.1159  142.1649  159.2454 C   0  0  2  0  0  0  0  0  0  0  0  0
  153.1093  141.6235  160.6834 C   0  0  0  0  0  0  0  0  0  0  0  0
  152.9899  143.7062  159.1952 C   0  0  1  0  0  0  0  0  0  0  0  0
  152.2887  144.2584  157.9344 C   0  0  0  0  0  0  0  0  0  0  0  0
  151.2292  145.2127  158.5179 C   0  0  1  0  0  0  0  0  0  0  0  0
  150.0921  144.3837  159.1439 C   0  0  0  0  0  0  0  0  0  0  0  0
  150.7446  143.8235  160.4206 C   0  0  0  0  0  0  0  0  0  0  0  0
  152.1822  144.3761  160.3380 C   0  0  2  0  0  0  0  0  0  0  0  0
  151.9340  145.7620  159.7530 C   0  0  0  0  0  0  0  0  0  0  0  0
  149.6006  138.0164  156.8381 C   0  0  0  0  0  0  0  0  0  0  0  0
  148.7690  138.4521  157.6325 O   0  0  0  0  0  0  0  0  0  0  0  0
  149.4912  136.7577  156.3580 N   0  0  0  0  0  0  0  0  0  0  0  0
  148.7177  136.1917  156.6758 H   0  0  0  0  0  0  0  0  0  0  0  0
  149.9231  134.7304  153.9689 H   0  0  0  0  0  0  0  0  0  0  0  0
  149.1686  134.4296  155.5381 H   0  0  0  0  0  0  0  0  0  0  0  0
  150.8963  134.1301  155.3169 H   0  0  0  0  0  0  0  0  0  0  0  0
  152.4792  139.7912  154.2717 H   0  0  0  0  0  0  0  0  0  0  0  0
  153.3510  138.2660  154.1565 H   0  0  0  0  0  0  0  0  0  0  0  0
  153.4840  139.2368  155.6203 H   0  0  0  0  0  0  0  0  0  0  0  0
  150.9941  140.9108  155.9339 H   0  0  0  0  0  0  0  0  0  0  0  0
  149.9942  140.5448  157.2952 H   0  0  0  0  0  0  0  0  0  0  0  0
  151.1625  142.1095  158.4511 H   0  0  0  0  0  0  0  0  0  0  0  0
  154.0643  141.8809  158.7865 H   0  0  0  0  0  0  0  0  0  0  0  0
  153.9331  142.0368  161.2652 H   0  0  0  0  0  0  0  0  0  0  0  0
  153.2144  140.5382  160.6938 H   0  0  0  0  0  0  0  0  0  0  0  0
  152.1807  141.8726  161.1980 H   0  0  0  0  0  0  0  0  0  0  0  0
  153.9985  144.1222  159.2320 H   0  0  0  0  0  0  0  0  0  0  0  0
  153.0000  144.7992  157.3090 H   0  0  0  0  0  0  0  0  0  0  0  0
  151.8358  143.4793  157.3201 H   0  0  0  0  0  0  0  0  0  0  0  0
  150.8822  145.9656  157.8101 H   0  0  0  0  0  0  0  0  0  0  0  0
  149.2404  145.0166  159.3953 H   0  0  0  0  0  0  0  0  0  0  0  0
  149.7392  143.5959  158.4774 H   0  0  0  0  0  0  0  0  0  0  0  0
  150.2393  144.2109  161.3064 H   0  0  0  0  0  0  0  0  0  0  0  0
  150.7006  142.7365  160.4749 H   0  0  0  0  0  0  0  0  0  0  0  0
  152.7006  144.3812  161.2975 H   0  0  0  0  0  0  0  0  0  0  0  0
  152.8505  146.3080  159.5227 H   0  0  0  0  0  0  0  0  0  0  0  0
  151.2924  146.3878  160.3762 H   0  0  0  0  0  0  0  0  0  0  0  0
  1  2  1  0  0  0  0
  1 24  1  0  0  0  0
  1 25  1  0  0  0  0
  1 26  1  0  0  0  0
  2 22  1  0  0  0  0
  2  3  2  0  0  0  0
  3  4  1  0  0  0  0
  4  5  1  0  0  0  0
  4  6  2  0  0  0  0
  5 27  1  0  0  0  0
  5 28  1  0  0  0  0
  5 29  1  0  0  0  0
  6  7  1  0  0  0  0
  6 20  1  0  0  0  0
  7  8  1  0  0  0  0
  7 30  1  0  0  0  0
  7 31  1  0  0  0  0
  8  9  2  0  0  0  0
  8 10  1  0  0  0  0
 10 11  1  0  0  0  0
 10 32  1  0  0  0  0
 11 12  1  0  0  0  0
 11 13  1  0  0  0  0
 11 33  1  0  0  0  0
 12 34  1  0  0  0  0
 12 35  1  0  0  0  0
 12 36  1  0  0  0  0
 13 18  1  0  0  0  0
 13 14  1  0  0  0  0
 13 37  1  0  0  0  0
 14 15  1  0  0  0  0
 14 38  1  0  0  0  0
 14 39  1  0  0  0  0
 15 19  1  0  0  0  0
 15 16  1  0  0  0  0
 15 40  1  0  0  0  0
 16 17  1  0  0  0  0
 16 41  1  0  0  0  0
 16 42  1  0  0  0  0
 17 18  1  0  0  0  0
 17 43  1  0  0  0  0
 17 44  1  0  0  0  0
 18 19  1  0  0  0  0
 18 45  1  0  0  0  0
 19 46  1  0  0  0  0
 19 47  1  0  0  0  0
 20 21  2  0  0  0  0
 20 22  1  0  0  0  0
 22 23  1  0  0  0  0
M  END
> <s_m_source_file>
AV-unprocessed.smi

> <i_m_source_file_index>
2124

> <i_lp_mmshare_version>
43012

> <i_f3d_flags>
0

> <s_epik_input>
W0NIM11jMW5jKFtDSDNdKWMoYyg9TylbbkhdMSlbQ0gyXUMoPU8pW05IXVtDQEhdKFtDSDNdKVtDQEhdKFtDSDJdW0NASF0yMylbQ0BIXShbQ0gyXTMpW0NIMl1bQ0gyXTI=

> <s_epik_cmdline>
J2VwaWtfcHl0aG9uJywgJy1waCcsICc3LjAnLCAnLXRuJywgJzgnLCAnLW1hJywgJzIwMCcsICctbWV0YWxfYmluZGluZycsICctaW1hZScsICc8aW5maWxlLm1hZT4nLCAnLW9tYWUnLCAnPG91dGZpbGUubWFlPic=

> <r_lp_tautomer_probability>
0.839158

> <r_epik_Ionization_Penalty>
0.000383628

> <r_epik_Ionization_Penalty_Charging>
0.00035045

> <r_epik_Ionization_Penalty_Neutral>
3.31781e-05

> <r_epik_State_Penalty>
0.09125

> <r_epik_Charging_Adjusted_Penalty>
0.0916005

> <i_epik_Tot_Q>
0

> <i_epik_Tot_abs_Q>
0

> <r_epik_Metal_State_Penalty>
0.255229

> <b_epik_Metal_Only>
0

> <s_lp_Force_Field>
OPLS_2005

> <r_lp_Energy>
50.9321

> <b_lp_Chiralities_Consistent>
1

> <s_lp_Variant>
AV-unprocessed.smi:2124-7

> <Gold.Version>
5.8.1

> <Gold.Id.Protein>
6NUR|6NUR_protein|mol2

> <Gold.PLP.Fitness>
46.8330

> <Gold.PLP.PLP>
-43.8782

> <Gold.PLP.part.hbond>
-2.0000

> <Gold.PLP.part.metal>
0.0000

> <Gold.PLP.part.buried>
-2.5434

> <Gold.PLP.part.nonpolar>
-39.2051

> <Gold.PLP.part.repulsive>
0.2206

> <Gold.PLP.ligand.clash>
0.0000

> <Gold.PLP.ligand.torsion>
1.5342

> <Gold.PLP.Chemscore.Hbond>
2.0000

> <Gold.PLP.Chemscore.CHOScore>
0.0000

> <Gold.PLP.Chemscore.Metal>
0.0000

> <Gold.Chemscore.Hbonds>
donor molecule, donor type, donor heavy atom, donor atom, acceptor molecule, acceptor atom, score
      P1  H  7997  8008       L1     9  1.00
      P1  H 10752 10764       L1     3  0.94

> <Gold.PLP.Chemscore.Internal.Correction>
0.0233

> <Gold.Rescore>
     Score         DG    S(hbond)    S(metal)    S(lipo)     H(rot)  DE(clash)    DE(int)     intcor
     20.86     -22.69       1.75        0.00     133.33       1.65       0.13       1.70       ----

> <Gold.Chemscore.Fitness>
20.8572

> <Gold.Chemscore.DG>
-22.6863

> <Gold.Chemscore.ZeroCoef>
-5.4800

> <Gold.Chemscore.Hbond>
1.7483

> <Gold.Chemscore.Metal>
0.0000

> <Gold.Chemscore.Lipo>
133.3295

> <Gold.Chemscore.Internal_Hbond>
0.0000

> <Gold.Chemscore.DEClash>
0.1274

> <Gold.Chemscore.DEInternal>
1.7017

> <Gold.Chemscore.Rot>
1.6534

> <Gold.Chemscore.Internal.Correction>
   9.000000E+99

> <Gold.Chemscore.Hbonds>
donor molecule, donor type, donor heavy atom, donor atom, acceptor molecule, acceptor atom, score
      P1  H  7997  8008       L1     9  0.96
      P1  H 10752 10764       L1     3  0.73

> <Gold.Chemscore.Hbond.Weighted>
-5.8393

> <Gold.Chemscore.Metal.Weighted>
-0.0000

> <Gold.Chemscore.Lipo.Weighted>
-15.5995

> <Gold.Chemscore.Internal_Hbond.Weighted>
0.0000

> <Gold.Chemscore.DEClash.Weighted>
0.1274

> <Gold.Chemscore.DEInternal.Weighted>
1.7017

> <Gold.Chemscore.Rot.Weighted>
4.2326

> <Gold.Chemscore.Internal.Correction.Weighted>
   9.000000E+99

> <Gold.Protein.RotatedTorsions>
[ 6907 6896 6895 6894 ] final  -98.44 input  -60.11 | X-H torsion
[ 7974 7965 7964 7962 ] final  163.79 input  175.53 | X-H torsion
[ 8008 7997 7996 7995 ] final  -90.76 input   59.86 | X-H torsion
[ 10167 10162 10161 10158 ] final  -93.03 input  -65.29 | X-H torsion
[ 10718 10713 10712 10709 ] final  138.14 input   66.30 | X-H torsion
[ 10763 10752 10751 10750 ] final  -73.50 input  -60.55 | X-H torsion
[ 11005 11000 10999 10996 ] final  168.92 input  -57.11 | X-H torsion

> <Gold.Protein.ActiveResidues>
 VAL166  LYS551  ARG553  GLY616  TRP617  ASP618  TYR619  PRO620  LYS621  CYS622 
 ASP623  PHE694  ASN695  SER759  ASP760  ASP761  ALA762  ILE779  LEU786  VAL792 
 PHE793  MET794  SER795  GLU796  ALA797  LYS798  CYS799  TRP800  GLU811  SER814 

> <Gold.Protein.RotatedAtoms>
  150.7047  134.1193  159.4028 H   0  0  0  0  0  0  0  0  0  0  0  0  # atno 6907 bound_to 6896
  151.9180  135.0308  160.0529 H   0  0  0  0  0  0  0  0  0  0  0  0  # atno 6908 bound_to 6896
  152.2280  133.5000  159.5236 H   0  0  0  0  0  0  0  0  0  0  0  0  # atno 6909 bound_to 6896
  144.7574  139.8233  143.6345 H   0  0  0  0  0  0  0  0  0  0  0  0  # atno 7974 bound_to 7965
  154.7025  140.0527  157.0472 H   0  0  0  0  0  0  0  0  0  0  0  0  # atno 8008 bound_to 7997
  155.0665  140.3195  155.4625 H   0  0  0  0  0  0  0  0  0  0  0  0  # atno 8009 bound_to 7997
  156.2764  140.2089  156.5792 H   0  0  0  0  0  0  0  0  0  0  0  0  # atno 8010 bound_to 7997
  140.3288  143.3006  151.9965 H   0  0  0  0  0  0  0  0  0  0  0  0  # atno 10167 bound_to 10162
  157.4286  131.1046  151.0275 H   0  0  0  0  0  0  0  0  0  0  0  0  # atno 10718 bound_to 10713
  154.4604  135.5895  153.6251 H   0  0  0  0  0  0  0  0  0  0  0  0  # atno 10763 bound_to 10752
  152.9822  135.6042  154.3494 H   0  0  0  0  0  0  0  0  0  0  0  0  # atno 10764 bound_to 10752
  154.3365  135.2842  155.2424 H   0  0  0  0  0  0  0  0  0  0  0  0  # atno 10765 bound_to 10752
  140.2923  134.7663  157.3848 H   0  0  0  0  0  0  0  0  0  0  0  0  # atno 11005 bound_to 11000
  146.1599  139.4710  142.9995 LP  0  0  0  0  0  0  0  0  0  0  0  0  # atno 17320 bound_to 7965
  145.6734  141.0210  143.1645 LP  0  0  0  0  0  0  0  0  0  0  0  0  # atno 17321 bound_to 7965
  139.4860  144.6251  151.7179 LP  0  0  0  0  0  0  0  0  0  0  0  0  # atno 17342 bound_to 10162
  140.5416  144.0570  150.6090 LP  0  0  0  0  0  0  0  0  0  0  0  0  # atno 17343 bound_to 10162
  157.1180  130.6049  149.5498 LP  0  0  0  0  0  0  0  0  0  0  0  0  # atno 17370 bound_to 10713
  155.9905  130.4956  150.7260 LP  0  0  0  0  0  0  0  0  0  0  0  0  # atno 17371 bound_to 10713
  140.1184  134.5252  155.8205 LP  0  0  0  0  0  0  0  0  0  0  0  0  # atno 17394 bound_to 11000
  141.2144  133.6748  156.6820 LP  0  0  0  0  0  0  0  0  0  0  0  0  # atno 17395 bound_to 11000

$$$$
