#       Name:                AV-unprocessed.smi:2044
#       Creating user name   scv26
#       Creation time:       Fri Mar 27 10:56:48 2020


#       File generated by GOLD software.
#

@<TRIPOS>MOLECULE
AV-unprocessed.smi:2044
    47    48     1
SMALL
NO_CHARGES


@<TRIPOS>ATOM
      1 ****        -5.4148   4.3339   0.9495 C.3            1 S1                 0.0000
      2 ****        -4.3176   3.6671   0.1926 C.2            1 S1                 0.0000
      3 ****        -3.5202   2.5928   0.4683 C.2            1 S1                 0.0000
      4 ****        -2.6839   2.5067  -0.6781 C.2            1 S1                 0.0000
      5 ****        -1.7272   1.5898  -0.8884 N.pl3          1 S1                -1.0000
      6 ****        -0.4816   1.7797  -0.3952 C.2            1 S1                 0.0000
      7 ****        -0.0942   2.7491   0.2613 O.2            1 S1                 0.0000
      8 ****         0.3686   0.7845  -0.6778 N.am           1 S1                 0.0000
      9 ****         1.7668   0.7271  -0.2639 C.3            1 S1                 0.0000
     10 ****         2.4236  -0.6231  -0.6456 C.3            1 S1                 0.0000
     11 ****         2.5672  -0.6707  -2.1835 C.3            1 S1                 0.0000
     12 ****         1.7398  -1.8076  -0.0811 N.3            1 S1                 0.0000
     13 ****         1.6208  -1.7479   1.3787 C.3            1 S1                 0.0000
     14 ****         0.9226  -2.9866   1.9657 C.3            1 S1                 0.0000
     15 ****         1.6216  -4.1613   1.5751 O.3            1 S1                 0.0000
     16 ****         1.6999  -4.2939   0.1617 C.3            1 S1                 0.0000
     17 ****         2.4053  -3.0641  -0.4355 C.3            1 S1                 0.0000
     18 ****        -2.9616   3.4353  -1.5781 N.2            1 S1                 0.0000
     19 ****        -4.0034   4.1886  -1.0239 O.3            1 S1                 0.0000
     20 ****        -6.1029   3.5962   1.3622 H              1 S1                 0.0000
     21 ****        -5.9852   5.0037   0.3057 H              1 S1                 0.0000
     22 ****        -5.0112   4.9201   1.7751 H              1 S1                 0.0000
     23 ****        -3.5289   1.9697   1.3500 H              1 S1                 0.0000
     24 ****         0.0173   0.0046  -1.2140 H              1 S1                 0.0000
     25 ****         2.3040   1.5501  -0.7375 H              1 S1                 0.0000
     26 ****         1.8461   0.9130   0.8075 H              1 S1                 0.0000
     27 ****         3.4362  -0.5961  -0.2401 H              1 S1                 0.0000
     28 ****         2.9739   0.2637  -2.5713 H              1 S1                 0.0000
     29 ****         1.6054  -0.8366  -2.6698 H              1 S1                 0.0000
     30 ****         3.2493  -1.4556  -2.5083 H              1 S1                 0.0000
     31 ****         2.6101  -1.6430   1.8265 H              1 S1                 0.0000
     32 ****         1.0427  -0.8755   1.6803 H              1 S1                 0.0000
     33 ****         0.9033  -2.9292   3.0540 H              1 S1                 0.0000
     34 ****        -0.1140  -3.0408   1.6292 H              1 S1                 0.0000
     35 ****         2.2522  -5.2020  -0.0807 H              1 S1                 0.0000
     36 ****         0.6988  -4.4063  -0.2575 H              1 S1                 0.0000
     37 ****         2.4289  -3.1932  -1.5165 H              1 S1                 0.0000
     38 ****         3.4424  -3.0420  -0.0971 H              1 S1                 0.0000
     39 ****        -1.9354   0.7633  -1.4114 LP             1 S1                 0.0000
     40 ****        -0.7271   3.4932   0.4753 LP             1 S1                 0.0000
     41 ****         0.8528   2.7911   0.5797 LP             1 S1                 0.0000
     42 ****         0.8267  -1.7899  -0.4884 LP             1 S1                 0.0000
     43 ****         1.1459  -4.9581   1.9476 LP             1 S1                 0.0000
     44 ****         2.5491  -4.1229   1.9470 LP             1 S1                 0.0000
     45 ****        -2.5211   3.5705  -2.4656 LP             1 S1                 0.0000
     46 ****        -3.7120   5.1393  -0.9177 LP             1 S1                 0.0000
     47 ****        -4.8028   4.1500  -1.6235 LP             1 S1                 0.0000
@<TRIPOS>BOND
    1    1    2 1     
    2    1   20 1     
    3    1   21 1     
    4    1   22 1     
    5    2   19 1     
    6    2    3 2     
    7    3    4 1     
    8    3   23 1     
    9    4    5 1     
   10    4   18 2     
   11    5    6 1     
   12    6    7 2     
   13    6    8 am    
   14    8    9 1     
   15    8   24 1     
   16    9   10 1     
   17    9   25 1     
   18    9   26 1     
   19   10   11 1     
   20   10   12 1     
   21   10   27 1     
   22   11   28 1     
   23   11   29 1     
   24   11   30 1     
   25   12   17 1     
   26   12   13 1     
   27   13   14 1     
   28   13   31 1     
   29   13   32 1     
   30   14   15 1     
   31   14   33 1     
   32   14   34 1     
   33   15   16 1     
   34   16   17 1     
   35   16   35 1     
   36   16   36 1     
   37   17   37 1     
   38   17   38 1     
   39   18   19 1     
   40    5   39 1     
   41    7   40 1     
   42    7   41 1     
   43   12   42 1     
   44   15   43 1     
   45   15   44 1     
   46   18   45 1     
   47   19   46 1     
   48   19   47 1     
@<TRIPOS>SUBSTRUCTURE
      1 S1             1
@<TRIPOS>SET
LONE_PAIRS      STATIC     ATOMS    <user>   **** ""
9 39 40 41 42 43 44 45 46 47
DONOR_HYDROGENS      STATIC     ATOMS    <user>   **** ""
1 24
ATOM$BLUE        STATIC     ATOMS    COLORGROUP SYSTEM
9 39 40 41 42 43 44 45 46 47
ATOM$RED        STATIC     ATOMS    COLORGROUP SYSTEM
1 24
