#       Name:                AV-unprocessed.smi:290
#       Creating user name   scv26
#       Creation time:       Thu Mar 26 22:12:46 2020


#       File generated by GOLD software.
#

@<TRIPOS>MOLECULE
AV-unprocessed.smi:290
    68    71     1
SMALL
NO_CHARGES


@<TRIPOS>ATOM
      1 ****        -3.5884  -5.0707   1.5843 C.3            1 S1                 0.0000
      2 ****        -3.2583  -3.6732   2.1314 C.3            1 S1                 0.0000
      3 ****        -3.1018  -3.6979   3.5497 O.3            1 S1                 0.0000
      4 ****        -3.8270  -2.6302   4.1482 C.3            1 S1                 0.0000
      5 ****        -4.0782  -1.6376   3.0185 C.3            1 S1                 0.0000
      6 ****        -4.2739  -2.5509   1.8159 C.3            1 S1                 0.0000
      7 ****        -5.5970  -3.0598   1.8487 O.3            1 S1                 0.0000
      8 ****        -4.1113  -1.8725   0.4306 C.3            1 S1                 0.0000
      9 ****        -2.8322  -1.2142   0.2126 N.pl3          1 S1                 0.0000
     10 ****        -1.6985  -1.7737  -0.3284 C.2            1 S1                 0.0000
     11 ****        -0.6752  -0.9706  -0.4229 N.2            1 S1                 0.0000
     12 ****        -1.1386   0.2460   0.0677 C.ar           1 S1                 0.0000
     13 ****        -0.5655   1.5415   0.2494 C.ar           1 S1                 0.0000
     14 ****         0.7154   1.8803  -0.0618 N.pl3          1 S1                 0.0000
     15 ****         1.2126   3.2450   0.0729 C.3            1 S1                 0.0000
     16 ****         2.6024   3.2469  -0.5769 C.3            1 S1                 0.0000
     17 ****         2.9673   1.7555  -0.6834 C.3            1 S1                 0.0000
     18 ****         4.0157   1.4070  -1.6891 N.4            1 S1                 1.0000
     19 ****         4.3118  -0.0494  -1.6928 C.3            1 S1                 0.0000
     20 ****         5.2562   2.2252  -1.5690 C.3            1 S1                 0.0000
     21 ****         6.1389   2.1779  -2.8295 C.3            1 S1                 0.0000
     22 ****         5.4484   2.7382  -3.9266 O.3            1 S1                 0.0000
     23 ****         1.5890   1.1056  -0.9316 C.3            1 S1                 0.0000
     24 ****         1.1163   1.1835  -2.4024 C.3            1 S1                 0.0000
     25 ****        -1.3647   2.4995   0.7897 N.ar           1 S1                 0.0000
     26 ****        -2.6313   2.2291   1.1155 C.ar           1 S1                 0.0000
     27 ****        -3.2944   1.0794   0.9943 N.ar           1 S1                 0.0000
     28 ****        -2.5001   0.1052   0.4668 C.ar           1 S1                 0.0000
     29 ****         3.3258   1.4344   0.2971 H              1 S1                 0.0000
     30 ****         1.6242   0.0684  -0.6023 H              1 S1                 0.0000
     31 ****        -3.7108  -5.0484   0.5011 H              1 S1                 0.0000
     32 ****        -4.5047  -5.4686   2.0207 H              1 S1                 0.0000
     33 ****        -2.7866  -5.7729   1.8124 H              1 S1                 0.0000
     34 ****        -2.2779  -3.3865   1.7544 H              1 S1                 0.0000
     35 ****        -4.7702  -3.0187   4.5343 H              1 S1                 0.0000
     36 ****        -3.2769  -2.1894   4.9796 H              1 S1                 0.0000
     37 ****        -4.9220  -0.9732   3.2085 H              1 S1                 0.0000
     38 ****        -3.1878  -1.0208   2.9013 H              1 S1                 0.0000
     39 ****        -6.1989  -2.3369   1.7590 H              1 S1                 0.0000
     40 ****        -4.2483  -2.6099  -0.3616 H              1 S1                 0.0000
     41 ****        -4.8968  -1.1289   0.2877 H              1 S1                 0.0000
     42 ****        -1.6518  -2.8057  -0.6453 H              1 S1                 0.0000
     43 ****         0.5513   3.9669  -0.4085 H              1 S1                 0.0000
     44 ****         1.2824   3.4971   1.1318 H              1 S1                 0.0000
     45 ****         2.5443   3.6983  -1.5683 H              1 S1                 0.0000
     46 ****         3.3183   3.8212   0.0118 H              1 S1                 0.0000
     47 ****         4.7844  -0.3522  -0.7577 H              1 S1                 0.0000
     48 ****         4.9732  -0.3254  -2.5123 H              1 S1                 0.0000
     49 ****         3.4100  -0.6470  -1.8183 H              1 S1                 0.0000
     50 ****         5.0196   3.2726  -1.3910 H              1 S1                 0.0000
     51 ****         5.8243   1.8925  -0.6991 H              1 S1                 0.0000
     52 ****         7.0420   2.7657  -2.6630 H              1 S1                 0.0000
     53 ****         6.4700   1.1697  -3.0736 H              1 S1                 0.0000
     54 ****         6.0287   2.7529  -4.6732 H              1 S1                 0.0000
     55 ****         1.7676   0.6159  -3.0662 H              1 S1                 0.0000
     56 ****         1.0868   2.2100  -2.7683 H              1 S1                 0.0000
     57 ****         0.1137   0.7726  -2.5180 H              1 S1                 0.0000
     58 ****        -3.1928   3.0512   1.5345 H              1 S1                 0.0000
     59 ****         3.6208   1.6319  -2.5916 H              1 S1                 0.0000
     60 ****        -2.1321  -3.6049   3.7758 LP             1 S1                 0.0000
     61 ****        -3.4446  -4.5681   3.9038 LP             1 S1                 0.0000
     62 ****        -5.7574  -3.5263   2.7186 LP             1 S1                 0.0000
     63 ****        -5.7292  -3.7042   1.0956 LP             1 S1                 0.0000
     64 ****         0.2384  -1.1821  -0.7703 LP             1 S1                 0.0000
     65 ****         5.1623   3.6701  -3.7040 LP             1 S1                 0.0000
     66 ****         4.6433   2.1835  -4.1366 LP             1 S1                 0.0000
     67 ****        -0.9998   3.4175   0.9450 LP             1 S1                 0.0000
     68 ****        -4.2505   0.9484   1.2564 LP             1 S1                 0.0000
@<TRIPOS>BOND
    1    1    2 1     
    2    1   31 1     
    3    1   32 1     
    4    1   33 1     
    5    2    6 1     
    6    2    3 1     
    7    2   34 1     
    8    3    4 1     
    9    4    5 1     
   10    4   35 1     
   11    4   36 1     
   12    5    6 1     
   13    5   37 1     
   14    5   38 1     
   15    6    7 1     
   16    6    8 1     
   17    7   39 1     
   18    8    9 1     
   19    8   40 1     
   20    8   41 1     
   21    9   28 1     
   22    9   10 1     
   23   10   11 2     
   24   10   42 1     
   25   11   12 1     
   26   12   28 ar    
   27   12   13 ar    
   28   13   14 1     
   29   13   25 ar    
   30   14   23 1     
   31   14   15 1     
   32   15   16 1     
   33   15   43 1     
   34   15   44 1     
   35   16   17 1     
   36   16   45 1     
   37   16   46 1     
   38   17   29 1     
   39   17   18 1     
   40   17   23 1     
   41   18   19 1     
   42   18   20 1     
   43   18   59 1     
   44   19   47 1     
   45   19   48 1     
   46   19   49 1     
   47   20   21 1     
   48   20   50 1     
   49   20   51 1     
   50   21   22 1     
   51   21   52 1     
   52   21   53 1     
   53   22   54 1     
   54   23   30 1     
   55   23   24 1     
   56   24   55 1     
   57   24   56 1     
   58   24   57 1     
   59   25   26 ar    
   60   26   27 ar    
   61   26   58 1     
   62   27   28 ar    
   63    3   60 1     
   64    3   61 1     
   65    7   62 1     
   66    7   63 1     
   67   11   64 1     
   68   22   65 1     
   69   22   66 1     
   70   25   67 1     
   71   27   68 1     
@<TRIPOS>SUBSTRUCTURE
      1 S1             1
@<TRIPOS>SET
LONE_PAIRS      STATIC     ATOMS    <user>   **** ""
9 60 61 62 63 64 65 66 67 68
DONOR_HYDROGENS      STATIC     ATOMS    <user>   **** ""
3 39 59 54
ATOM$BLUE        STATIC     ATOMS    COLORGROUP SYSTEM
9 60 61 62 63 64 65 66 67 68
ATOM$RED        STATIC     ATOMS    COLORGROUP SYSTEM
3 39 59 54
