AV-unprocessed.smi:1154|AV-procd|sdf|4901|dock7
  -GOLD-   22720 3473D 1   1.00000     0.00000
 Structure written by MMmdl.
 42 43  0  0  0  0  0  0  0  0  2 V2000
  145.9897  132.4725  150.8149 C   0  0  0  0  0  0  0  0  0  0  0  0
  146.2921  133.8369  151.4510 C   0  0  1  0  0  0  0  0  0  0  0  0
  145.0935  134.7924  151.3277 C   0  0  0  0  0  0  0  0  0  0  0  0
  145.4097  136.1457  151.9856 C   0  0  1  0  0  0  0  0  0  0  0  0
  144.2160  137.1067  151.8922 C   0  0  0  0  0  0  0  0  0  0  0  0
  145.8531  135.9372  153.4466 C   0  0  0  0  0  0  0  0  0  0  0  0
  147.0144  135.0144  153.5356 N   0  3  1  0  0  0  0  0  0  0  0  0
  147.5454  134.9142  154.9190 C   0  0  0  0  0  0  0  0  0  0  0  0
  149.0649  134.6817  154.9491 C   0  0  0  0  0  0  0  0  0  0  0  0
  149.7591  135.7556  154.2526 N   0  0  0  0  0  0  0  0  0  0  0  0
  150.8824  136.3419  154.6946 C   0  0  0  0  0  0  0  0  0  0  0  0
  151.4236  136.0416  155.7580 O   0  0  0  0  0  0  0  0  0  0  0  0
  151.4859  137.4391  153.8136 C   0  0  0  0  0  0  0  0  0  0  0  0
  152.0417  138.5217  154.6057 N   0  0  0  0  0  0  0  0  0  0  0  0
  152.9175  138.5105  155.6125 C   0  0  0  0  0  0  0  0  0  0  0  0
  153.1489  139.7300  156.0734 N   0  0  0  0  0  0  0  0  0  0  0  0
  152.3504  140.5267  155.2699 N   0  0  0  0  0  0  0  0  0  0  0  0
  151.6926  139.8156  154.3958 N   0  0  0  0  0  0  0  0  0  0  0  0
  146.7081  133.6921  152.9274 C   0  0  0  0  0  0  0  0  0  0  0  0
  145.1550  131.9776  151.3125 H   0  0  0  0  0  0  0  0  0  0  0  0
  146.8536  131.8099  150.8765 H   0  0  0  0  0  0  0  0  0  0  0  0
  145.7325  132.5793  149.7606 H   0  0  0  0  0  0  0  0  0  0  0  0
  147.1304  134.2732  150.9055 H   0  0  0  0  0  0  0  0  0  0  0  0
  144.8418  134.9395  150.2765 H   0  0  0  0  0  0  0  0  0  0  0  0
  144.2150  134.3481  151.7986 H   0  0  0  0  0  0  0  0  0  0  0  0
  146.2396  136.6000  151.4421 H   0  0  0  0  0  0  0  0  0  0  0  0
  143.3477  136.7136  152.4218 H   0  0  0  0  0  0  0  0  0  0  0  0
  143.9255  137.2722  150.8543 H   0  0  0  0  0  0  0  0  0  0  0  0
  144.4579  138.0781  152.3244 H   0  0  0  0  0  0  0  0  0  0  0  0
  146.1223  136.9020  153.8785 H   0  0  0  0  0  0  0  0  0  0  0  0
  145.0286  135.5420  154.0427 H   0  0  0  0  0  0  0  0  0  0  0  0
  147.3391  135.8446  155.4506 H   0  0  0  0  0  0  0  0  0  0  0  0
  147.0195  134.1268  155.4612 H   0  0  0  0  0  0  0  0  0  0  0  0
  149.4392  134.6401  155.9720 H   0  0  0  0  0  0  0  0  0  0  0  0
  149.3020  133.7260  154.4782 H   0  0  0  0  0  0  0  0  0  0  0  0
  149.3719  136.0639  153.3724 H   0  0  0  0  0  0  0  0  0  0  0  0
  152.2735  137.0148  153.1897 H   0  0  0  0  0  0  0  0  0  0  0  0
  150.7269  137.8459  153.1436 H   0  0  0  0  0  0  0  0  0  0  0  0
  153.3762  137.6167  156.0086 H   0  0  0  0  0  0  0  0  0  0  0  0
  145.9150  133.2051  153.4977 H   0  0  0  0  0  0  0  0  0  0  0  0
  147.5801  133.0417  152.9847 H   0  0  0  0  0  0  0  0  0  0  0  0
  147.7466  135.4322  152.9791 H   0  0  0  0  0  0  0  0  0  0  0  0
  1  2  1  0  0  0  0
  1 20  1  0  0  0  0
  1 21  1  0  0  0  0
  1 22  1  0  0  0  0
  2 19  1  0  0  0  0
  2  3  1  0  0  0  0
  2 23  1  0  0  0  0
  3  4  1  0  0  0  0
  3 24  1  0  0  0  0
  3 25  1  0  0  0  0
  4  5  1  0  0  0  0
  4  6  1  0  0  0  0
  4 26  1  0  0  0  0
  5 27  1  0  0  0  0
  5 28  1  0  0  0  0
  5 29  1  0  0  0  0
  6  7  1  0  0  0  0
  6 30  1  0  0  0  0
  6 31  1  0  0  0  0
  7  8  1  0  0  0  0
  7 19  1  0  0  0  0
  7 42  1  0  0  0  0
  8  9  1  0  0  0  0
  8 32  1  0  0  0  0
  8 33  1  0  0  0  0
  9 10  1  0  0  0  0
  9 34  1  0  0  0  0
  9 35  1  0  0  0  0
 10 11  1  0  0  0  0
 10 36  1  0  0  0  0
 11 12  2  0  0  0  0
 11 13  1  0  0  0  0
 13 14  1  0  0  0  0
 13 37  1  0  0  0  0
 13 38  1  0  0  0  0
 14 18  1  0  0  0  0
 14 15  1  0  0  0  0
 15 16  2  0  0  0  0
 15 39  1  0  0  0  0
 16 17  1  0  0  0  0
 17 18  2  0  0  0  0
 19 40  1  0  0  0  0
 19 41  1  0  0  0  0
M  CHG  1   7   1
M  END
> <s_m_source_file>
AV-unprocessed.smi

> <i_m_source_file_index>
1154

> <i_lp_mmshare_version>
43012

> <i_f3d_flags>
0

> <s_epik_input>
W0NIM11bQ0BASF0xW0NIMl1bQ0BASF0oW0NIM10pW0NIMl1OKFtDSDJdMSlbQ0gyXVtDSDJdW05IXUMoPU8pW0NIMl1uMltjSF1ubm4y

> <s_epik_cmdline>
J2VwaWtfcHl0aG9uJywgJy1waCcsICc3LjAnLCAnLXRuJywgJzgnLCAnLW1hJywgJzIwMCcsICctbWV0YWxfYmluZGluZycsICctaW1hZScsICc8aW5maWxlLm1hZT4nLCAnLW9tYWUnLCAnPG91dGZpbGUubWFlPic=

> <r_lp_tautomer_probability>
1

> <r_epik_Ionization_Penalty>
0.00217773

> <r_epik_Ionization_Penalty_Charging>
0.00217329

> <r_epik_Ionization_Penalty_Neutral>
4.43997e-06

> <r_epik_State_Penalty>
0.00149294

> <r_epik_Charging_Adjusted_Penalty>
0.00366623

> <i_epik_Tot_Q>
1

> <i_epik_Tot_abs_Q>
1

> <r_epik_Metal_State_Penalty>
-0

> <b_epik_Metal_Only>
0

> <s_lp_Force_Field>
OPLS_2005

> <r_lp_Energy>
19.913

> <b_lp_Chiralities_Consistent>
1

> <s_lp_Variant>
AV-unprocessed.smi:1154-2

> <Gold.Version>
5.8.1

> <Gold.Id.Protein>
6NUR|6NUR_protein|mol2

> <Gold.PLP.Fitness>
46.3502

> <Gold.PLP.PLP>
-29.9950

> <Gold.PLP.part.hbond>
-5.6753

> <Gold.PLP.part.metal>
0.0000

> <Gold.PLP.part.buried>
0.8417

> <Gold.PLP.part.nonpolar>
-24.5324

> <Gold.PLP.part.repulsive>
0.1462

> <Gold.PLP.ligand.clash>
0.0000

> <Gold.PLP.ligand.torsion>
0.8425

> <Gold.PLP.Chemscore.Hbond>
5.9920

> <Gold.PLP.Chemscore.CHOScore>
0.0000

> <Gold.PLP.Chemscore.Metal>
0.0000

> <Gold.Chemscore.Hbonds>
donor molecule, donor type, donor heavy atom, donor atom, acceptor molecule, acceptor atom, score
      L1  H     7    42       P1  7948  2.00
      L1  H    10    36       P1  7948  1.00
      P1  H  7989  7998       L1    18  0.37
      P1  H  7997  8009       L1    16  0.55
      P1  H 10752 10764       L1    12  0.75

> <Gold.PLP.Chemscore.Internal.Correction>
0.0643

> <Gold.Rescore>
     Score         DG    S(hbond)    S(metal)    S(lipo)     H(rot)  DE(clash)    DE(int)     intcor
     14.08     -17.39       3.79        0.00      52.06       2.67       1.22       2.09       ----

> <Gold.Chemscore.Fitness>
14.0773

> <Gold.Chemscore.DG>
-17.3906

> <Gold.Chemscore.ZeroCoef>
-5.4800

> <Gold.Chemscore.Hbond>
3.7869

> <Gold.Chemscore.Metal>
0.0000

> <Gold.Chemscore.Lipo>
52.0604

> <Gold.Chemscore.Internal_Hbond>
0.0000

> <Gold.Chemscore.DEClash>
1.2241

> <Gold.Chemscore.DEInternal>
2.0892

> <Gold.Chemscore.Rot>
2.6674

> <Gold.Chemscore.Internal.Correction>
   9.000000E+99

> <Gold.Chemscore.Hbonds>
donor molecule, donor type, donor heavy atom, donor atom, acceptor molecule, acceptor atom, score
      L1  H     7    42       P1  7948  1.00
      L1  H    10    36       P1  7948  0.57
      P1  H  7989  7998       L1    18  0.03
      P1  H  7997  8009       L1    16  0.54
      P1  H 10752 10764       L1    12  0.09

> <Gold.Chemscore.Hbond.Weighted>
-12.6481

> <Gold.Chemscore.Metal.Weighted>
-0.0000

> <Gold.Chemscore.Lipo.Weighted>
-6.0911

> <Gold.Chemscore.Internal_Hbond.Weighted>
0.0000

> <Gold.Chemscore.DEClash.Weighted>
1.2241

> <Gold.Chemscore.DEInternal.Weighted>
2.0892

> <Gold.Chemscore.Rot.Weighted>
6.8286

> <Gold.Chemscore.Internal.Correction.Weighted>
   9.000000E+99

> <Gold.Protein.RotatedTorsions>
[ 6907 6896 6895 6894 ] final  144.96 input  -60.11 | X-H torsion
[ 7974 7965 7964 7962 ] final -117.50 input  175.53 | X-H torsion
[ 8008 7997 7996 7995 ] final  171.84 input   59.86 | X-H torsion
[ 10167 10162 10161 10158 ] final  -15.14 input  -65.29 | X-H torsion
[ 10718 10713 10712 10709 ] final  120.55 input   66.30 | X-H torsion
[ 10763 10752 10751 10750 ] final  -35.42 input  -60.55 | X-H torsion
[ 11005 11000 10999 10996 ] final   80.07 input  -57.11 | X-H torsion

> <Gold.Protein.ActiveResidues>
 VAL166  LYS551  ARG553  GLY616  TRP617  ASP618  TYR619  PRO620  LYS621  CYS622 
 ASP623  PHE694  ASN695  SER759  ASP760  ASP761  ALA762  ILE779  LEU786  VAL792 
 PHE793  MET794  SER795  GLU796  ALA797  LYS798  CYS799  TRP800  GLU811  SER814 

> <Gold.Protein.RotatedAtoms>
  152.1870  133.4746  159.4987 H   0  0  0  0  0  0  0  0  0  0  0  0  # atno 6907 bound_to 6896
  150.6944  134.1761  159.4240 H   0  0  0  0  0  0  0  0  0  0  0  0  # atno 6908 bound_to 6896
  151.9674  135.0093  160.0601 H   0  0  0  0  0  0  0  0  0  0  0  0  # atno 6909 bound_to 6896
  145.0845  140.8448  143.4019 H   0  0  0  0  0  0  0  0  0  0  0  0  # atno 7974 bound_to 7965
  156.1233  140.1501  156.9173 H   0  0  0  0  0  0  0  0  0  0  0  0  # atno 8008 bound_to 7997
  154.4852  140.0867  156.7511 H   0  0  0  0  0  0  0  0  0  0  0  0  # atno 8009 bound_to 7997
  155.4390  140.3430  155.4290 H   0  0  0  0  0  0  0  0  0  0  0  0  # atno 8010 bound_to 7997
  140.7213  143.5249  150.9589 H   0  0  0  0  0  0  0  0  0  0  0  0  # atno 10167 bound_to 10162
  157.5882  131.1067  150.8051 H   0  0  0  0  0  0  0  0  0  0  0  0  # atno 10718 bound_to 10713
  153.8630  135.6838  153.4781 H   0  0  0  0  0  0  0  0  0  0  0  0  # atno 10763 bound_to 10752
  153.1331  135.4689  154.9378 H   0  0  0  0  0  0  0  0  0  0  0  0  # atno 10764 bound_to 10752
  154.7750  135.3250  154.8061 H   0  0  0  0  0  0  0  0  0  0  0  0  # atno 10765 bound_to 10752
  139.9148  134.7891  156.1861 H   0  0  0  0  0  0  0  0  0  0  0  0  # atno 11005 bound_to 11000
  145.1138  139.2739  143.5623 LP  0  0  0  0  0  0  0  0  0  0  0  0  # atno 17320 bound_to 7965
  146.3531  140.0742  142.8621 LP  0  0  0  0  0  0  0  0  0  0  0  0  # atno 17321 bound_to 7965
  139.8968  143.6885  152.3137 LP  0  0  0  0  0  0  0  0  0  0  0  0  # atno 17342 bound_to 10162
  139.7220  144.7600  151.0939 LP  0  0  0  0  0  0  0  0  0  0  0  0  # atno 17343 bound_to 10162
  156.8480  130.5070  149.5314 LP  0  0  0  0  0  0  0  0  0  0  0  0  # atno 17370 bound_to 10713
  156.0934  130.5913  150.9771 LP  0  0  0  0  0  0  0  0  0  0  0  0  # atno 17371 bound_to 10713
  141.0613  133.6840  156.1957 LP  0  0  0  0  0  0  0  0  0  0  0  0  # atno 17394 bound_to 11000
  140.6657  134.4921  157.5585 LP  0  0  0  0  0  0  0  0  0  0  0  0  # atno 17395 bound_to 11000

$$$$
